# generated using pymatgen
data_K2Mo2P2O11
_symmetry_space_group_name_H-M   'P 1'
_cell_length_a   9.10446900
_cell_length_b   9.44775000
_cell_length_c   11.12085200
_cell_angle_alpha   90.00000000
_cell_angle_beta   90.00000000
_cell_angle_gamma   90.00000000
_symmetry_Int_Tables_number   1
_chemical_formula_structural   K2Mo2P2O11
_chemical_formula_sum   'K8 Mo8 P8 O44'
_cell_volume   956.57951285
_cell_formula_units_Z   4
loop_
 _symmetry_equiv_pos_site_id
 _symmetry_equiv_pos_as_xyz
  1  'x, y, z'
loop_
 _atom_site_type_symbol
 _atom_site_label
 _atom_site_symmetry_multiplicity
 _atom_site_fract_x
 _atom_site_fract_y
 _atom_site_fract_z
 _atom_site_occupancy
  K  K0  1  0.01050900  0.70247800  0.41459000  1
  K  K1  1  0.98949100  0.29752200  0.58541000  1
  K  K2  1  0.48949100  0.20247800  0.58541000  1
  K  K3  1  0.48949100  0.79752200  0.91459000  1
  K  K4  1  0.01050900  0.29752200  0.08541000  1
  K  K5  1  0.51050900  0.79752200  0.41459000  1
  K  K6  1  0.51050900  0.20247800  0.08541000  1
  K  K7  1  0.98949100  0.70247800  0.91459000  1
  Mo  Mo8  1  0.22843300  0.07789700  0.84596500  1
  Mo  Mo9  1  0.77156700  0.07789700  0.34596500  1
  Mo  Mo10  1  0.72843300  0.42210300  0.84596500  1
  Mo  Mo11  1  0.22843300  0.92210300  0.65403500  1
  Mo  Mo12  1  0.27156700  0.42210300  0.34596500  1
  Mo  Mo13  1  0.27156700  0.57789700  0.15403500  1
  Mo  Mo14  1  0.77156700  0.92210300  0.15403500  1
  Mo  Mo15  1  0.72843300  0.57789700  0.65403500  1
  P  P16  1  0.17406700  0.07039800  0.37247700  1
  P  P17  1  0.32593300  0.57039800  0.62752300  1
  P  P18  1  0.32593300  0.42960200  0.87247700  1
  P  P19  1  0.17406700  0.92960200  0.12752300  1
  P  P20  1  0.67406700  0.57039800  0.12752300  1
  P  P21  1  0.82593300  0.07039800  0.87247700  1
  P  P22  1  0.67406700  0.42960200  0.37247700  1
  P  P23  1  0.82593300  0.92960200  0.62752300  1
  O  O24  1  0.80195400  0.12801500  0.17553700  1
  O  O25  1  0.51301600  0.39175500  0.35580300  1
  O  O26  1  0.98698400  0.89175500  0.64419700  1
  O  O27  1  0.30195400  0.62801500  0.32446300  1
  O  O28  1  0.26268000  0.50000000  0.75000000  1
  O  O29  1  0.73732000  0.50000000  0.25000000  1
  O  O30  1  0.80195400  0.87198500  0.32446300  1
  O  O31  1  0.27194700  0.19940100  0.39658600  1
  O  O32  1  0.77194700  0.30059900  0.39658600  1
  O  O33  1  0.69831200  0.45174900  0.03471000  1
  O  O34  1  0.19804600  0.12801500  0.67553700  1
  O  O35  1  0.30168800  0.45174900  0.53471000  1
  O  O36  1  0.27194700  0.80059900  0.10341400  1
  O  O37  1  0.22805300  0.69940100  0.60341400  1
  O  O38  1  0.72805300  0.80059900  0.60341400  1
  O  O39  1  0.72805300  0.19940100  0.89658600  1
  O  O40  1  0.23732000  0.00000000  0.25000000  1
  O  O41  1  0.41760800  0.07866900  0.86273400  1
  O  O42  1  0.91760800  0.57866900  0.63726600  1
  O  O43  1  0.22805300  0.30059900  0.89658600  1
  O  O44  1  0.19831200  0.04825100  0.03471000  1
  O  O45  1  0.69804600  0.37198500  0.67553700  1
  O  O46  1  0.48698400  0.39175500  0.85580300  1
  O  O47  1  0.98698400  0.10824500  0.85580300  1
  O  O48  1  0.19831200  0.95174900  0.46529000  1
  O  O49  1  0.08239200  0.42133100  0.36273400  1
  O  O50  1  0.58239200  0.92133100  0.13726600  1
  O  O51  1  0.77194700  0.69940100  0.10341400  1
  O  O52  1  0.69831200  0.54825100  0.46529000  1
  O  O53  1  0.41760800  0.92133100  0.63726600  1
  O  O54  1  0.51301600  0.60824500  0.14419700  1
  O  O55  1  0.80168800  0.04825100  0.53471000  1
  O  O56  1  0.80168800  0.95174900  0.96529000  1
  O  O57  1  0.69804600  0.62801500  0.82446300  1
  O  O58  1  0.19804600  0.87198500  0.82446300  1
  O  O59  1  0.48698400  0.60824500  0.64419700  1
  O  O60  1  0.01301600  0.89175500  0.14419700  1
  O  O61  1  0.58239200  0.07866900  0.36273400  1
  O  O62  1  0.30195400  0.37198500  0.17553700  1
  O  O63  1  0.08239200  0.57866900  0.13726600  1
  O  O64  1  0.91760800  0.42133100  0.86273400  1
  O  O65  1  0.01301600  0.10824500  0.35580300  1
  O  O66  1  0.76268000  0.00000000  0.75000000  1
  O  O67  1  0.30168800  0.54825100  0.96529000  1
