# generated using pymatgen
data_SiO2
_symmetry_space_group_name_H-M   'P 1'
_cell_length_a   12.67903273
_cell_length_b   12.67903273
_cell_length_c   12.69383400
_cell_angle_alpha   90.00000000
_cell_angle_beta   90.00000000
_cell_angle_gamma   114.89167375
_symmetry_Int_Tables_number   1
_chemical_formula_structural   SiO2
_chemical_formula_sum   'Si28 O56'
_cell_volume   1851.06944543
_cell_formula_units_Z   28
loop_
 _symmetry_equiv_pos_site_id
 _symmetry_equiv_pos_as_xyz
  1  'x, y, z'
loop_
 _atom_site_type_symbol
 _atom_site_label
 _atom_site_symmetry_multiplicity
 _atom_site_fract_x
 _atom_site_fract_y
 _atom_site_fract_z
 _atom_site_occupancy
  Si  Si0  1  0.04813400  0.19211000  0.37559400  1
  Si  Si1  1  0.04686400  0.19753800  0.00000000  1
  Si  Si2  1  0.39996800  0.83805000  0.12639000  1
  Si  Si3  1  0.96245200  0.81680500  0.62316700  1
  Si  Si4  1  0.95654300  0.65682300  0.19117300  1
  Si  Si5  1  0.61251600  0.17507500  0.12666800  1
  Si  Si6  1  0.39996800  0.83805000  0.87361000  1
  Si  Si7  1  0.35759000  0.05610400  0.19408300  1
  Si  Si8  1  0.35759000  0.05610400  0.80591700  1
  Si  Si9  1  0.17507500  0.61251600  0.87333200  1
  Si  Si10  1  0.19211000  0.04813400  0.62440600  1
  Si  Si11  1  0.97181300  0.82165300  0.00000000  1
  Si  Si12  1  0.81680500  0.96245200  0.37683300  1
  Si  Si13  1  0.83805000  0.39996800  0.87361000  1
  Si  Si14  1  0.65682300  0.95654300  0.80882700  1
  Si  Si15  1  0.95654300  0.65682300  0.80882700  1
  Si  Si16  1  0.05610400  0.35759000  0.80591700  1
  Si  Si17  1  0.61251600  0.17507500  0.87333200  1
  Si  Si18  1  0.81680500  0.96245200  0.62316700  1
  Si  Si19  1  0.82165300  0.97181300  0.00000000  1
  Si  Si20  1  0.96245200  0.81680500  0.37683300  1
  Si  Si21  1  0.19753800  0.04686400  0.00000000  1
  Si  Si22  1  0.19211000  0.04813400  0.37559400  1
  Si  Si23  1  0.17507500  0.61251600  0.12666800  1
  Si  Si24  1  0.83805000  0.39996800  0.12639000  1
  Si  Si25  1  0.05610400  0.35759000  0.19408300  1
  Si  Si26  1  0.04813400  0.19211000  0.62440600  1
  Si  Si27  1  0.65682300  0.95654300  0.19117300  1
  O  O28  1  0.78092000  0.95975000  0.50000000  1
  O  O29  1  0.92700700  0.35468400  0.81796500  1
  O  O30  1  0.12525100  0.12525100  0.00000000  1
  O  O31  1  0.49014200  0.15557600  0.18220200  1
  O  O32  1  0.06776300  0.30812400  0.30932800  1
  O  O33  1  0.70256400  0.94184300  0.30727100  1
  O  O34  1  0.08563000  0.65996700  0.17811100  1
  O  O35  1  0.93868500  0.74128400  0.10430000  1
  O  O36  1  0.05509300  0.22412400  0.50000000  1
  O  O37  1  0.41238000  0.86345400  0.00000000  1
  O  O38  1  0.85674900  0.52493900  0.17573400  1
  O  O39  1  0.52493900  0.85674900  0.17573400  1
  O  O40  1  0.27758500  0.07733300  0.10456200  1
  O  O41  1  0.94184300  0.70256400  0.30727100  1
  O  O42  1  0.06776300  0.30812400  0.69067200  1
  O  O43  1  0.07733300  0.27758500  0.89543800  1
  O  O44  1  0.15557600  0.49014200  0.81779800  1
  O  O45  1  0.14919200  0.14919200  0.65441000  1
  O  O46  1  0.65996700  0.08563000  0.17811100  1
  O  O47  1  0.52493900  0.85674900  0.82426600  1
  O  O48  1  0.08881000  0.92090400  0.34735000  1
  O  O49  1  0.65996700  0.08563000  0.82188900  1
  O  O50  1  0.27758500  0.07733300  0.89543800  1
  O  O51  1  0.74128400  0.93868500  0.89570000  1
  O  O52  1  0.92090400  0.08881000  0.34735000  1
  O  O53  1  0.85674900  0.52493900  0.82426600  1
  O  O54  1  0.70500600  0.30801600  0.14946500  1
  O  O55  1  0.59424200  0.15145100  0.00000000  1
  O  O56  1  0.95975000  0.78092000  0.50000000  1
  O  O57  1  0.07733300  0.27758500  0.10456200  1
  O  O58  1  0.15557600  0.49014200  0.18220200  1
  O  O59  1  0.14919200  0.14919200  0.34559000  1
  O  O60  1  0.86020500  0.86020500  0.64648900  1
  O  O61  1  0.35468400  0.92700700  0.81796500  1
  O  O62  1  0.92700700  0.35468400  0.18203500  1
  O  O63  1  0.08881000  0.92090400  0.65265000  1
  O  O64  1  0.49014200  0.15557600  0.81779800  1
  O  O65  1  0.89683100  0.89683100  0.00000000  1
  O  O66  1  0.30812400  0.06776300  0.69067200  1
  O  O67  1  0.15145100  0.59424200  0.00000000  1
  O  O68  1  0.22412400  0.05509300  0.50000000  1
  O  O69  1  0.90867900  0.10999800  0.00000000  1
  O  O70  1  0.70256400  0.94184300  0.69272900  1
  O  O71  1  0.70500600  0.30801600  0.85053500  1
  O  O72  1  0.92090400  0.08881000  0.65265000  1
  O  O73  1  0.08563000  0.65996700  0.82188900  1
  O  O74  1  0.86020500  0.86020500  0.35351100  1
  O  O75  1  0.35468400  0.92700700  0.18203500  1
  O  O76  1  0.30801600  0.70500600  0.85053500  1
  O  O77  1  0.94184300  0.70256400  0.69272900  1
  O  O78  1  0.86345400  0.41238000  0.00000000  1
  O  O79  1  0.30801600  0.70500600  0.14946500  1
  O  O80  1  0.10999800  0.90867900  0.00000000  1
  O  O81  1  0.30812400  0.06776300  0.30932800  1
  O  O82  1  0.74128400  0.93868500  0.10430000  1
  O  O83  1  0.93868500  0.74128400  0.89570000  1
