# generated using pymatgen
data_NaSr2CrF8
_symmetry_space_group_name_H-M   'P 1'
_cell_length_a   6.35573200
_cell_length_b   7.88256400
_cell_length_c   15.07294105
_cell_angle_alpha   67.79701483
_cell_angle_beta   90.00000000
_cell_angle_gamma   90.00000000
_symmetry_Int_Tables_number   1
_chemical_formula_structural   NaSr2CrF8
_chemical_formula_sum   'Na4 Sr8 Cr4 F32'
_cell_volume   699.15285315
_cell_formula_units_Z   4
loop_
 _symmetry_equiv_pos_site_id
 _symmetry_equiv_pos_as_xyz
  1  'x, y, z'
loop_
 _atom_site_type_symbol
 _atom_site_label
 _atom_site_symmetry_multiplicity
 _atom_site_fract_x
 _atom_site_fract_y
 _atom_site_fract_z
 _atom_site_occupancy
  Na  Na0  1  0.17322500  0.85903900  0.94068300  1
  Na  Na1  1  0.82677500  0.14096100  0.05931700  1
  Na  Na2  1  0.32677500  0.85903900  0.44068300  1
  Na  Na3  1  0.67322500  0.14096100  0.55931700  1
  Sr  Sr4  1  0.84271800  0.58574500  0.35574900  1
  Sr  Sr5  1  0.65728200  0.58574500  0.85574900  1
  Sr  Sr6  1  0.27910000  0.90255600  0.19727300  1
  Sr  Sr7  1  0.34271800  0.41425500  0.14425100  1
  Sr  Sr8  1  0.22090000  0.90255600  0.69727300  1
  Sr  Sr9  1  0.72090000  0.09744400  0.80272700  1
  Sr  Sr10  1  0.15728200  0.41425500  0.64425100  1
  Sr  Sr11  1  0.77910000  0.09744400  0.30272700  1
  Cr  Cr12  1  0.27799100  0.30655900  0.40272700  1
  Cr  Cr13  1  0.72200900  0.69344100  0.59727300  1
  Cr  Cr14  1  0.22200900  0.30655900  0.90272700  1
  Cr  Cr15  1  0.77799100  0.69344100  0.09727300  1
  F  F16  1  0.18542000  0.45287000  0.47271100  1
  F  F17  1  0.81458000  0.54713000  0.52728900  1
  F  F18  1  0.19816200  0.08088300  0.01555900  1
  F  F19  1  0.98209700  0.25489700  0.38950800  1
  F  F20  1  0.05412400  0.85435300  0.34329600  1
  F  F21  1  0.26462500  0.52751600  0.78433600  1
  F  F22  1  0.93012000  0.35570500  0.91799500  1
  F  F23  1  0.62377400  0.82466000  0.67751200  1
  F  F24  1  0.30183800  0.08088300  0.51555900  1
  F  F25  1  0.68542000  0.54713000  0.02728900  1
  F  F26  1  0.94444100  0.81606700  0.82610700  1
  F  F27  1  0.06988000  0.64429500  0.08200500  1
  F  F28  1  0.73537500  0.47248400  0.21566400  1
  F  F29  1  0.69816200  0.91911700  0.48444100  1
  F  F30  1  0.94587600  0.14564700  0.65670400  1
  F  F31  1  0.23537500  0.52751600  0.28433600  1
  F  F32  1  0.44587600  0.85435300  0.84329600  1
  F  F33  1  0.55412400  0.14564700  0.15670400  1
  F  F34  1  0.48209700  0.74510300  0.11049200  1
  F  F35  1  0.76462500  0.47248400  0.71566400  1
  F  F36  1  0.55555900  0.81606700  0.32610700  1
  F  F37  1  0.37622600  0.17534000  0.32248800  1
  F  F38  1  0.51790300  0.25489700  0.88950800  1
  F  F39  1  0.44444100  0.18393300  0.67389300  1
  F  F40  1  0.56988000  0.35570500  0.41799500  1
  F  F41  1  0.87622600  0.82466000  0.17751200  1
  F  F42  1  0.31458000  0.45287000  0.97271100  1
  F  F43  1  0.01790300  0.74510300  0.61049200  1
  F  F44  1  0.43012000  0.64429500  0.58200500  1
  F  F45  1  0.05555900  0.18393300  0.17389300  1
  F  F46  1  0.12377400  0.17534000  0.82248800  1
  F  F47  1  0.80183800  0.91911700  0.98444100  1
