# generated using pymatgen
data_Co7(AsO6)2
_symmetry_space_group_name_H-M   'P 1'
_cell_length_a   5.88236321
_cell_length_b   8.46231773
_cell_length_c   10.52243505
_cell_angle_alpha   114.38753206
_cell_angle_beta   106.30775600
_cell_angle_gamma   90.01287928
_symmetry_Int_Tables_number   1
_chemical_formula_structural   Co7(AsO6)2
_chemical_formula_sum   'Co14 As4 O24'
_cell_volume   453.79995448
_cell_formula_units_Z   2
loop_
 _symmetry_equiv_pos_site_id
 _symmetry_equiv_pos_as_xyz
  1  'x, y, z'
loop_
 _atom_site_type_symbol
 _atom_site_label
 _atom_site_symmetry_multiplicity
 _atom_site_fract_x
 _atom_site_fract_y
 _atom_site_fract_z
 _atom_site_occupancy
  Co  Co0  1  0.42714900  0.79778200  0.85475800  1
  Co  Co1  1  0.15628600  0.15555700  0.81776800  1
  Co  Co2  1  0.66088000  0.15572900  0.81764700  1
  Co  Co3  1  0.83745200  0.82586200  0.67520300  1
  Co  Co4  1  0.33912000  0.84427100  0.18235300  1
  Co  Co5  1  0.16254800  0.17413800  0.32479700  1
  Co  Co6  1  0.57285100  0.20221800  0.14524200  1
  Co  Co7  1  0.66359600  0.64939900  0.32895700  1
  Co  Co8  1  0.50000000  0.00000000  0.50000000  1
  Co  Co9  1  0.84371400  0.84444300  0.18223200  1
  Co  Co10  1  0.33640400  0.35060100  0.67104300  1
  Co  Co11  1  0.07355500  0.44753100  0.14770500  1
  Co  Co12  1  0.92644500  0.55246900  0.85229500  1
  Co  Co13  1  0.00000000  0.00000000  0.50000000  1
  As  As14  1  0.74968700  0.37386100  0.49899400  1
  As  As15  1  0.25031300  0.62613900  0.50100600  1
  As  As16  1  0.00000000  0.00000000  0.00000000  1
  As  As17  1  0.50000000  0.50000000  0.00000000  1
  O  O18  1  0.70229600  0.92192800  0.84928400  1
  O  O19  1  0.49562000  0.74403200  0.50203100  1
  O  O20  1  0.00587100  0.74385700  0.50201300  1
  O  O21  1  0.50980500  0.73316200  0.01973900  1
  O  O22  1  0.64554100  0.42538700  0.84858600  1
  O  O23  1  0.99106300  0.21340700  0.98254600  1
  O  O24  1  0.50438000  0.25596800  0.49796900  1
  O  O25  1  0.20311800  0.42501700  0.84838400  1
  O  O26  1  0.14709800  0.92239400  0.84962900  1
  O  O27  1  0.17115800  0.94622200  0.34202200  1
  O  O28  1  0.67127500  0.89334100  0.34193300  1
  O  O29  1  0.35445900  0.57461300  0.15141400  1
  O  O30  1  0.29770400  0.07807200  0.15071600  1
  O  O31  1  0.49019500  0.26683800  0.98026100  1
  O  O32  1  0.82935800  0.56917900  0.65859300  1
  O  O33  1  0.32908500  0.58935300  0.65850200  1
  O  O34  1  0.99412900  0.25614300  0.49798700  1
  O  O35  1  0.17064200  0.43082100  0.34140700  1
  O  O36  1  0.67091500  0.41064700  0.34149800  1
  O  O37  1  0.85290200  0.07760600  0.15037100  1
  O  O38  1  0.82884200  0.05377800  0.65797800  1
  O  O39  1  0.00893700  0.78659300  0.01745400  1
  O  O40  1  0.79688200  0.57498300  0.15161600  1
  O  O41  1  0.32872500  0.10665900  0.65806700  1
