# generated using pymatgen
data_K2Mn2(SO4)3
_symmetry_space_group_name_H-M   'P 1'
_cell_length_a   10.22437600
_cell_length_b   10.23606200
_cell_length_c   10.27934600
_cell_angle_alpha   90.00000000
_cell_angle_beta   90.00000000
_cell_angle_gamma   90.00000000
_symmetry_Int_Tables_number   1
_chemical_formula_structural   K2Mn2(SO4)3
_chemical_formula_sum   'K8 Mn8 S12 O48'
_cell_volume   1075.80907763
_cell_formula_units_Z   4
loop_
 _symmetry_equiv_pos_site_id
 _symmetry_equiv_pos_as_xyz
  1  'x, y, z'
loop_
 _atom_site_type_symbol
 _atom_site_label
 _atom_site_symmetry_multiplicity
 _atom_site_fract_x
 _atom_site_fract_y
 _atom_site_fract_z
 _atom_site_occupancy
  K  K0  1  0.69054300  0.17199200  0.31296100  1
  K  K1  1  0.80945700  0.82800800  0.81296100  1
  K  K2  1  0.44108100  0.96256600  0.55709700  1
  K  K3  1  0.94108100  0.53743400  0.44290300  1
  K  K4  1  0.19054300  0.32800800  0.68703900  1
  K  K5  1  0.05891900  0.03743400  0.05709700  1
  K  K6  1  0.30945700  0.67199200  0.18703900  1
  K  K7  1  0.55891900  0.46256600  0.94290300  1
  Mn  Mn8  1  0.66262400  0.81361600  0.15429000  1
  Mn  Mn9  1  0.33737600  0.31361600  0.34571000  1
  Mn  Mn10  1  0.58085300  0.60851700  0.59453000  1
  Mn  Mn11  1  0.83737600  0.18638400  0.65429000  1
  Mn  Mn12  1  0.41914700  0.10851700  0.90547000  1
  Mn  Mn13  1  0.16262400  0.68638400  0.84571000  1
  Mn  Mn14  1  0.91914700  0.39148300  0.09453000  1
  Mn  Mn15  1  0.08085300  0.89148300  0.40547000  1
  S  S16  1  0.63082400  0.50295700  0.28729500  1
  S  S17  1  0.26171900  0.61662500  0.51332400  1
  S  S18  1  0.97339300  0.71155500  0.12805700  1
  S  S19  1  0.86917600  0.49704300  0.78729500  1
  S  S20  1  0.02660700  0.21155500  0.37194300  1
  S  S21  1  0.73828100  0.11662500  0.98667600  1
  S  S22  1  0.76171900  0.88337500  0.48667600  1
  S  S23  1  0.52660700  0.28844500  0.62805700  1
  S  S24  1  0.47339300  0.78844500  0.87194300  1
  S  S25  1  0.36917600  0.00295700  0.21270500  1
  S  S26  1  0.13082400  0.99704300  0.71270500  1
  S  S27  1  0.23828100  0.38337500  0.01332400  1
  O  O28  1  0.33188100  0.30183800  0.93664200  1
  O  O29  1  0.99850600  0.07395200  0.33208400  1
  O  O30  1  0.06968200  0.75420300  0.02775400  1
  O  O31  1  0.97650600  0.59363700  0.80145400  1
  O  O32  1  0.16205900  0.22118900  0.42428200  1
  O  O33  1  0.75329900  0.01896400  0.53985600  1
  O  O34  1  0.17635000  0.95127400  0.58236100  1
  O  O35  1  0.33794100  0.77881100  0.92428200  1
  O  O36  1  0.22240200  0.61271100  0.65253100  1
  O  O37  1  0.43031800  0.24579700  0.52775400  1
  O  O38  1  0.98714600  0.79911500  0.24159500  1
  O  O39  1  0.51285400  0.20088500  0.74159500  1
  O  O40  1  0.66811900  0.80183800  0.56335800  1
  O  O41  1  0.56968200  0.74579700  0.97224600  1
  O  O42  1  0.58258000  0.61627100  0.20951800  1
  O  O43  1  0.24670100  0.51896400  0.96014400  1
  O  O44  1  0.72240200  0.88728900  0.34746900  1
  O  O45  1  0.10388800  0.32979600  0.99554600  1
  O  O46  1  0.16811900  0.69816200  0.43664200  1
  O  O47  1  0.00149400  0.57395200  0.16791600  1
  O  O48  1  0.50149400  0.92604800  0.83208400  1
  O  O49  1  0.24231100  0.06227300  0.77925400  1
  O  O50  1  0.77759800  0.11271100  0.84746900  1
  O  O51  1  0.02349400  0.09363700  0.69854600  1
  O  O52  1  0.41742000  0.11627100  0.29048200  1
  O  O53  1  0.08258000  0.88372900  0.79048200  1
  O  O54  1  0.52349400  0.40636300  0.30145400  1
  O  O55  1  0.82365000  0.45127400  0.91763900  1
  O  O56  1  0.39611200  0.67020400  0.49554600  1
  O  O57  1  0.27759800  0.38728900  0.15253100  1
  O  O58  1  0.93031800  0.25420300  0.47224600  1
  O  O59  1  0.89611200  0.82979600  0.50445400  1
  O  O60  1  0.49850600  0.42604800  0.66791600  1
  O  O61  1  0.74670100  0.98103600  0.03985600  1
  O  O62  1  0.67635000  0.54872600  0.41763900  1
  O  O63  1  0.01285400  0.29911500  0.25840500  1
  O  O64  1  0.32365000  0.04872600  0.08236100  1
  O  O65  1  0.25768900  0.93772700  0.27925400  1
  O  O66  1  0.75768900  0.56227300  0.72074600  1
  O  O67  1  0.60388800  0.17020400  0.00445400  1
  O  O68  1  0.83188100  0.19816200  0.06335800  1
  O  O69  1  0.25329900  0.48103600  0.46014400  1
  O  O70  1  0.48714600  0.70088500  0.75840500  1
  O  O71  1  0.91742000  0.38372900  0.70951800  1
  O  O72  1  0.83794100  0.72118900  0.07571800  1
  O  O73  1  0.47650600  0.90636300  0.19854600  1
  O  O74  1  0.74231100  0.43772700  0.22074600  1
  O  O75  1  0.66205900  0.27881100  0.57571800  1
