# generated using pymatgen
data_SrH6(CO3)2
_symmetry_space_group_name_H-M   'P 1'
_cell_length_a   7.54700100
_cell_length_b   8.13705200
_cell_length_c   11.65813100
_cell_angle_alpha   90.00000000
_cell_angle_beta   90.00000000
_cell_angle_gamma   90.00000000
_symmetry_Int_Tables_number   1
_chemical_formula_structural   SrH6(CO3)2
_chemical_formula_sum   'Sr4 H24 C8 O24'
_cell_volume   715.92978359
_cell_formula_units_Z   4
loop_
 _symmetry_equiv_pos_site_id
 _symmetry_equiv_pos_as_xyz
  1  'x, y, z'
loop_
 _atom_site_type_symbol
 _atom_site_label
 _atom_site_symmetry_multiplicity
 _atom_site_fract_x
 _atom_site_fract_y
 _atom_site_fract_z
 _atom_site_occupancy
  Sr  Sr0  1  0.46370700  0.23531700  0.53804300  1
  Sr  Sr1  1  0.53629300  0.73531700  0.96195700  1
  Sr  Sr2  1  0.03629300  0.76468300  0.03804300  1
  Sr  Sr3  1  0.96370700  0.26468300  0.46195700  1
  H  H4  1  0.28610400  0.35098900  0.16961600  1
  H  H5  1  0.50228500  0.62142900  0.50680300  1
  H  H6  1  0.27453400  0.18347600  0.96105700  1
  H  H7  1  0.56868000  0.36507000  0.27086600  1
  H  H8  1  0.21389600  0.64901100  0.66961500  1
  H  H9  1  0.78610400  0.14901100  0.83038500  1
  H  H10  1  0.85967000  0.64306200  0.72627100  1
  H  H11  1  0.62822000  0.60337200  0.31081200  1
  H  H12  1  0.35967000  0.85693800  0.27372900  1
  H  H13  1  0.72546600  0.68347600  0.53894300  1
  H  H14  1  0.22546600  0.81652400  0.46105700  1
  H  H15  1  0.14033000  0.14306200  0.77372900  1
  H  H16  1  0.87178000  0.39662800  0.81081200  1
  H  H17  1  0.64033000  0.35693800  0.22627100  1
  H  H18  1  0.71389600  0.85098900  0.33038400  1
  H  H19  1  0.12822000  0.89662800  0.68918800  1
  H  H20  1  0.77453400  0.31652400  0.03894300  1
  H  H21  1  0.93132000  0.63493000  0.77086600  1
  H  H22  1  0.43132000  0.86507000  0.22913400  1
  H  H23  1  0.37178000  0.10337200  0.18918800  1
  H  H24  1  0.49771500  0.12142900  0.99319700  1
  H  H25  1  0.99771500  0.37857100  0.00680300  1
  H  H26  1  0.06868000  0.13493000  0.72913400  1
  H  H27  1  0.00228500  0.87857100  0.49319700  1
  C  C28  1  0.35600300  0.10371900  0.01701800  1
  C  C29  1  0.64399700  0.60371900  0.48298200  1
  C  C30  1  0.85600300  0.39628100  0.98298200  1
  C  C31  1  0.17571000  0.55100500  0.25335000  1
  C  C32  1  0.14399700  0.89628100  0.51701800  1
  C  C33  1  0.67571000  0.94899500  0.74665000  1
  C  C34  1  0.32429000  0.44899500  0.75335000  1
  C  C35  1  0.82429000  0.05100500  0.24665000  1
  O  O36  1  0.31831200  0.50868600  0.86113600  1
  O  O37  1  0.19376400  0.05646100  0.51802000  1
  O  O38  1  0.26201200  0.32749500  0.37435400  1
  O  O39  1  0.09805100  0.68478600  0.24160900  1
  O  O40  1  0.59805100  0.81521400  0.75839100  1
  O  O41  1  0.16587900  0.81744100  0.63157800  1
  O  O42  1  0.18168800  0.49131400  0.36113600  1
  O  O43  1  0.69376400  0.44353900  0.48198000  1
  O  O44  1  0.81831200  0.99131400  0.13886400  1
  O  O45  1  0.68168800  0.00868600  0.63886400  1
  O  O46  1  0.24760500  0.52308800  0.66648800  1
  O  O47  1  0.73798800  0.82749500  0.12564600  1
  O  O48  1  0.30623600  0.94353900  0.01802000  1
  O  O49  1  0.66587900  0.68255900  0.36842200  1
  O  O50  1  0.75239500  0.02308900  0.83351200  1
  O  O51  1  0.76201200  0.17250500  0.62564600  1
  O  O52  1  0.23798800  0.67250500  0.87435400  1
  O  O53  1  0.90194900  0.18478600  0.25839100  1
  O  O54  1  0.74760500  0.97691200  0.33351200  1
  O  O55  1  0.33412100  0.18255900  0.13157800  1
  O  O56  1  0.83412100  0.31744100  0.86842200  1
  O  O57  1  0.80623600  0.55646100  0.98198000  1
  O  O58  1  0.40194900  0.31521400  0.74160900  1
  O  O59  1  0.25239500  0.47691100  0.16648800  1
