# generated using pymatgen
data_Cs4CO4
_symmetry_space_group_name_H-M   'P 1'
_cell_length_a   7.27324180
_cell_length_b   7.27324180
_cell_length_c   7.61663657
_cell_angle_alpha   73.41135339
_cell_angle_beta   73.41135339
_cell_angle_gamma   41.71149402
_symmetry_Int_Tables_number   1
_chemical_formula_structural   Cs4CO4
_chemical_formula_sum   'Cs4 C1 O4'
_cell_volume   255.27679376
_cell_formula_units_Z   1
loop_
 _symmetry_equiv_pos_site_id
 _symmetry_equiv_pos_as_xyz
  1  'x, y, z'
loop_
 _atom_site_type_symbol
 _atom_site_label
 _atom_site_symmetry_multiplicity
 _atom_site_fract_x
 _atom_site_fract_y
 _atom_site_fract_z
 _atom_site_occupancy
  Cs  Cs0  1  0.45482100  0.77272500  0.18228500  1
  Cs  Cs1  1  0.80204400  0.48865000  0.63390400  1
  Cs  Cs2  1  0.51135000  0.19795600  0.36609600  1
  Cs  Cs3  1  0.22727500  0.54517900  0.81771500  1
  C  C4  1  0.99837400  0.00162600  0.50000000  1
  O  O5  1  0.22962800  0.91163600  0.55960400  1
  O  O6  1  0.78224000  0.10085100  0.65003800  1
  O  O7  1  0.08836400  0.77037200  0.44039600  1
  O  O8  1  0.89914900  0.21776000  0.34996200  1
