# generated using pymatgen
data_SrCo2As2(H2O5)2
_symmetry_space_group_name_H-M   'P 1'
_cell_length_a   13.10928800
_cell_length_b   7.59070100
_cell_length_c   9.23395044
_cell_angle_alpha   65.46186892
_cell_angle_beta   90.00000000
_cell_angle_gamma   90.00000000
_symmetry_Int_Tables_number   1
_chemical_formula_structural   SrCo2As2(H2O5)2
_chemical_formula_sum   'Sr4 Co8 As8 H16 O40'
_cell_volume   835.87166485
_cell_formula_units_Z   4
loop_
 _symmetry_equiv_pos_site_id
 _symmetry_equiv_pos_as_xyz
  1  'x, y, z'
loop_
 _atom_site_type_symbol
 _atom_site_label
 _atom_site_symmetry_multiplicity
 _atom_site_fract_x
 _atom_site_fract_y
 _atom_site_fract_z
 _atom_site_occupancy
  Sr  Sr0  1  0.12985900  0.99478300  0.25630200  1
  Sr  Sr1  1  0.87014100  0.00521700  0.74369800  1
  Sr  Sr2  1  0.37014100  0.99478300  0.75630200  1
  Sr  Sr3  1  0.62985900  0.00521700  0.24369800  1
  Co  Co4  1  0.25110400  0.50749800  0.99625200  1
  Co  Co5  1  0.74889600  0.49250200  0.00374800  1
  Co  Co6  1  0.50000000  0.50000000  0.00000000  1
  Co  Co7  1  0.24889600  0.50749800  0.49625200  1
  Co  Co8  1  0.75110400  0.49250200  0.50374800  1
  Co  Co9  1  0.00000000  0.50000000  0.50000000  1
  Co  Co10  1  0.50000000  0.50000000  0.50000000  1
  Co  Co11  1  0.00000000  0.50000000  0.00000000  1
  As  As12  1  0.13266200  0.21880300  0.83032800  1
  As  As13  1  0.63266200  0.78119700  0.66967200  1
  As  As14  1  0.88152400  0.22122000  0.31842500  1
  As  As15  1  0.36733800  0.21880300  0.33032800  1
  As  As16  1  0.11847600  0.77878000  0.68157500  1
  As  As17  1  0.86733800  0.78119700  0.16967200  1
  As  As18  1  0.61847600  0.22122000  0.81842500  1
  As  As19  1  0.38152400  0.77878000  0.18157500  1
  H  H20  1  0.41508600  0.10720800  0.10281600  1
  H  H21  1  0.87489400  0.44218000  0.79059300  1
  H  H22  1  0.91508600  0.89279200  0.39718400  1
  H  H23  1  0.87255400  0.67842400  0.60670300  1
  H  H24  1  0.87226600  0.24189700  0.96179400  1
  H  H25  1  0.58491400  0.89279200  0.89718400  1
  H  H26  1  0.12773400  0.75810300  0.03820600  1
  H  H27  1  0.12510600  0.55782000  0.20940700  1
  H  H28  1  0.37255400  0.32157600  0.89329700  1
  H  H29  1  0.62773400  0.24189700  0.46179400  1
  H  H30  1  0.62744600  0.67842400  0.10670300  1
  H  H31  1  0.37226600  0.75810300  0.53820600  1
  H  H32  1  0.08491400  0.10720800  0.60281600  1
  H  H33  1  0.37489400  0.55782000  0.70940700  1
  H  H34  1  0.62510600  0.44218000  0.29059300  1
  H  H35  1  0.12744600  0.32157600  0.39329700  1
  O  O36  1  0.86153700  0.00364200  0.01437800  1
  O  O37  1  0.13846300  0.99635800  0.98562200  1
  O  O38  1  0.27242800  0.75677400  0.28809000  1
  O  O39  1  0.37656800  0.45239800  0.88801000  1
  O  O40  1  0.62343200  0.54760200  0.11199000  1
  O  O41  1  0.25821800  0.26718800  0.21385700  1
  O  O42  1  0.88798900  0.97099500  0.45518500  1
  O  O43  1  0.63846300  0.00364200  0.51437800  1
  O  O44  1  0.96837600  0.77004700  0.29635000  1
  O  O45  1  0.99277200  0.25644300  0.21235700  1
  O  O46  1  0.12279900  0.67714200  0.54635000  1
  O  O47  1  0.37687000  0.38646100  0.41328400  1
  O  O48  1  0.37720100  0.67714200  0.04635000  1
  O  O49  1  0.62279900  0.32285800  0.95365000  1
  O  O50  1  0.12480900  0.61226500  0.08503200  1
  O  O51  1  0.24178200  0.26718800  0.71385700  1
  O  O52  1  0.49277200  0.74355700  0.28764300  1
  O  O53  1  0.87656800  0.54760200  0.61199000  1
  O  O54  1  0.62480900  0.38773500  0.41496800  1
  O  O55  1  0.87519100  0.38773500  0.91496800  1
  O  O56  1  0.11201100  0.02900500  0.54481500  1
  O  O57  1  0.12313000  0.38646100  0.91328400  1
  O  O58  1  0.75821800  0.73281200  0.28614300  1
  O  O59  1  0.61201100  0.97099500  0.95518500  1
  O  O60  1  0.87720100  0.32285800  0.45365000  1
  O  O61  1  0.38798900  0.02900500  0.04481500  1
  O  O62  1  0.37519100  0.61226500  0.58503200  1
  O  O63  1  0.00722800  0.74355700  0.78764300  1
  O  O64  1  0.77242800  0.24322600  0.21191000  1
  O  O65  1  0.87687000  0.61353900  0.08671600  1
  O  O66  1  0.72757200  0.24322600  0.71191000  1
  O  O67  1  0.22757200  0.75677400  0.78809000  1
  O  O68  1  0.36153700  0.99635800  0.48562200  1
  O  O69  1  0.74178200  0.73281200  0.78614300  1
  O  O70  1  0.62313000  0.61353900  0.58671600  1
  O  O71  1  0.03162400  0.22995300  0.70365000  1
  O  O72  1  0.50722800  0.25644300  0.71235700  1
  O  O73  1  0.12343200  0.45239800  0.38801000  1
  O  O74  1  0.53162400  0.77004700  0.79635000  1
  O  O75  1  0.46837600  0.22995300  0.20365000  1
