# generated using pymatgen
data_Ba3Nb2CoO9
_symmetry_space_group_name_H-M   'P 1'
_cell_length_a   5.82066922
_cell_length_b   10.21541682
_cell_length_c   7.20620662
_cell_angle_alpha   91.32126926
_cell_angle_beta   89.97924671
_cell_angle_gamma   89.99775262
_symmetry_Int_Tables_number   1
_chemical_formula_structural   Ba3Nb2CoO9
_chemical_formula_sum   'Ba6 Nb4 Co2 O18'
_cell_volume   428.37114250
_cell_formula_units_Z   2
loop_
 _symmetry_equiv_pos_site_id
 _symmetry_equiv_pos_as_xyz
  1  'x, y, z'
loop_
 _atom_site_type_symbol
 _atom_site_label
 _atom_site_symmetry_multiplicity
 _atom_site_fract_x
 _atom_site_fract_y
 _atom_site_fract_z
 _atom_site_occupancy
  Ba  Ba0  1  0.00000000  0.00000000  0.00000000  1
  Ba  Ba1  1  0.50000000  0.50000000  0.00000000  1
  Ba  Ba2  1  0.49987400  0.16813000  0.33438700  1
  Ba  Ba3  1  0.99986600  0.66812100  0.33445300  1
  Ba  Ba4  1  0.00013300  0.33187900  0.66554700  1
  Ba  Ba5  1  0.50012500  0.83187000  0.66561200  1
  Nb  Nb6  1  0.99982800  0.33523800  0.17799300  1
  Nb  Nb7  1  0.49983000  0.83519500  0.17805500  1
  Nb  Nb8  1  0.50017100  0.16480500  0.82194500  1
  Nb  Nb9  1  0.00017200  0.66476200  0.82200700  1
  Co  Co10  1  0.50000000  0.50000000  0.50000000  1
  Co  Co11  1  0.00000000  0.00000000  0.50000000  1
  O  O12  1  0.50000000  0.00000000  0.00000000  1
  O  O13  1  0.00000000  0.50000000  0.00000000  1
  O  O14  1  0.24994400  0.25003500  0.00009000  1
  O  O15  1  0.75005700  0.74996500  0.99991000  1
  O  O16  1  0.75005500  0.25003500  0.00009000  1
  O  O17  1  0.24994600  0.74996500  0.99991100  1
  O  O18  1  0.99980400  0.17797900  0.32520000  1
  O  O19  1  0.49980500  0.67797600  0.32520000  1
  O  O20  1  0.50019600  0.32202400  0.67480000  1
  O  O21  1  0.00019700  0.82202100  0.67480000  1
  O  O22  1  0.75417200  0.41841600  0.32555400  1
  O  O23  1  0.25425600  0.91832400  0.32547000  1
  O  O24  1  0.25527600  0.08154400  0.67406500  1
  O  O25  1  0.75519100  0.58145800  0.67398600  1
  O  O26  1  0.74574400  0.08167600  0.67453100  1
  O  O27  1  0.24582800  0.58158400  0.67444700  1
  O  O28  1  0.24481000  0.41854200  0.32601400  1
  O  O29  1  0.74472400  0.91845600  0.32593500  1
