# generated using pymatgen
data_Co3(PO4)2
_symmetry_space_group_name_H-M   'P 1'
_cell_length_a   4.80278400
_cell_length_b   6.01113349
_cell_length_c   10.37085324
_cell_angle_alpha   90.73295173
_cell_angle_beta   89.99837839
_cell_angle_gamma   90.00215214
_symmetry_Int_Tables_number   1
_chemical_formula_structural   Co3(PO4)2
_chemical_formula_sum   'Co6 P4 O16'
_cell_volume   299.38385730
_cell_formula_units_Z   2
loop_
 _symmetry_equiv_pos_site_id
 _symmetry_equiv_pos_as_xyz
  1  'x, y, z'
loop_
 _atom_site_type_symbol
 _atom_site_label
 _atom_site_symmetry_multiplicity
 _atom_site_fract_x
 _atom_site_fract_y
 _atom_site_fract_z
 _atom_site_occupancy
  Co  Co0  1  0.49999900  0.50032300  0.50005300  1
  Co  Co1  1  0.01669900  0.76337400  0.72444100  1
  Co  Co2  1  0.48187900  0.76354400  0.22438800  1
  Co  Co3  1  0.99990000  0.49960100  0.99991400  1
  Co  Co4  1  0.51703600  0.23674500  0.77552200  1
  Co  Co5  1  0.98186000  0.23645400  0.27563000  1
  P  P6  1  0.07430900  0.25722300  0.59695200  1
  P  P7  1  0.42603800  0.25736300  0.09701500  1
  P  P8  1  0.57403300  0.74279200  0.90303400  1
  P  P9  1  0.92609500  0.74264500  0.40299400  1
  O  O10  1  0.72854400  0.53260800  0.83963600  1
  O  O11  1  0.22868100  0.46756300  0.66024300  1
  O  O12  1  0.27229200  0.46822300  0.15997700  1
  O  O13  1  0.77240700  0.53172100  0.34007600  1
  O  O14  1  0.18576000  0.25374700  0.45652900  1
  O  O15  1  0.68551200  0.74599500  0.04347000  1
  O  O16  1  0.31436300  0.25313100  0.95664000  1
  O  O17  1  0.81420800  0.74697000  0.54336600  1
  O  O18  1  0.24645400  0.72584500  0.39637000  1
  O  O19  1  0.75383800  0.27473400  0.60377700  1
  O  O20  1  0.25355500  0.72521600  0.89621200  1
  O  O21  1  0.74641000  0.27414700  0.10368500  1
  O  O22  1  0.68735600  0.93729900  0.82094300  1
  O  O23  1  0.81263400  0.93655800  0.32050300  1
  O  O24  1  0.31250700  0.06336800  0.17947100  1
  O  O25  1  0.18763100  0.06281000  0.67915900  1
