# generated using pymatgen
data_Co3B7BrO13
_symmetry_space_group_name_H-M   'P 1'
_cell_length_a   8.64656200
_cell_length_b   8.65114800
_cell_length_c   12.24418700
_cell_angle_alpha   90.00000000
_cell_angle_beta   90.00000000
_cell_angle_gamma   90.00000000
_symmetry_Int_Tables_number   1
_chemical_formula_structural   Co3B7BrO13
_chemical_formula_sum   'Co12 B28 Br4 O52'
_cell_volume   915.89809450
_cell_formula_units_Z   4
loop_
 _symmetry_equiv_pos_site_id
 _symmetry_equiv_pos_as_xyz
  1  'x, y, z'
loop_
 _atom_site_type_symbol
 _atom_site_label
 _atom_site_symmetry_multiplicity
 _atom_site_fract_x
 _atom_site_fract_y
 _atom_site_fract_z
 _atom_site_occupancy
  Co  Co0  1  0.97002200  0.01400400  0.00295500  1
  Co  Co1  1  0.02997800  0.98599600  0.50295500  1
  Co  Co2  1  0.02997800  0.51400400  0.00295500  1
  Co  Co3  1  0.46863200  0.51550600  0.00066400  1
  Co  Co4  1  0.46863200  0.98449400  0.50066400  1
  Co  Co5  1  0.25322000  0.73983100  0.72616400  1
  Co  Co6  1  0.74678000  0.23983100  0.72616400  1
  Co  Co7  1  0.53136800  0.48449400  0.50066400  1
  Co  Co8  1  0.53136800  0.01550600  0.00066400  1
  Co  Co9  1  0.74678000  0.26016900  0.22616400  1
  Co  Co10  1  0.25322000  0.76016900  0.22616400  1
  Co  Co11  1  0.97002200  0.48599600  0.50295500  1
  B  B12  1  0.90403300  0.74639000  0.17032200  1
  B  B13  1  0.24657200  0.25673600  0.49776800  1
  B  B14  1  0.75055800  0.95713400  0.35241600  1
  B  B15  1  0.75342800  0.74326400  0.99776800  1
  B  B16  1  0.75055800  0.54286600  0.85241600  1
  B  B17  1  0.59749100  0.74644700  0.16986100  1
  B  B18  1  0.09596700  0.25361000  0.67032200  1
  B  B19  1  0.99655300  0.49800000  0.75047600  1
  B  B20  1  0.75040000  0.90577700  0.82264000  1
  B  B21  1  0.59749100  0.75355300  0.66986100  1
  B  B22  1  0.99655300  0.00200000  0.25047600  1
  B  B23  1  0.00344700  0.99800000  0.75047600  1
  B  B24  1  0.09596700  0.24639000  0.17032200  1
  B  B25  1  0.40250900  0.25355300  0.66986100  1
  B  B26  1  0.75040000  0.59422300  0.32264000  1
  B  B27  1  0.49637200  0.99786700  0.75026200  1
  B  B28  1  0.90403300  0.75361000  0.67032200  1
  B  B29  1  0.50362800  0.00213300  0.25026200  1
  B  B30  1  0.75342800  0.75673600  0.49776800  1
  B  B31  1  0.24944200  0.04286600  0.85241600  1
  B  B32  1  0.00344700  0.50200000  0.25047600  1
  B  B33  1  0.50362800  0.49786700  0.75026200  1
  B  B34  1  0.24944200  0.45713400  0.35241600  1
  B  B35  1  0.24960000  0.09422300  0.32264000  1
  B  B36  1  0.40250900  0.24644700  0.16986100  1
  B  B37  1  0.24657200  0.24326400  0.99776800  1
  B  B38  1  0.49637200  0.50213300  0.25026200  1
  B  B39  1  0.24960000  0.40577700  0.82264000  1
  Br  Br40  1  0.24833300  0.77140400  0.51128500  1
  Br  Br41  1  0.75166700  0.27140400  0.51128500  1
  Br  Br42  1  0.75166700  0.22859600  0.01128500  1
  Br  Br43  1  0.24833300  0.72859600  0.01128500  1
  O  O44  1  0.36358200  0.17913000  0.56645700  1
  O  O45  1  0.94166800  0.91041100  0.15641900  1
  O  O46  1  0.09001900  0.03643300  0.85403500  1
  O  O47  1  0.83875500  0.03304100  0.77232500  1
  O  O48  1  0.32822500  0.11661100  0.93572100  1
  O  O49  1  0.17557300  0.35793300  0.92456800  1
  O  O50  1  0.33055700  0.95725500  0.77633200  1
  O  O51  1  0.36358200  0.32087000  0.06645700  1
  O  O52  1  0.97359500  0.16708400  0.22872200  1
  O  O53  1  0.97359500  0.33291600  0.72872200  1
  O  O54  1  0.46097700  0.08920800  0.15193100  1
  O  O55  1  0.83875500  0.46695900  0.27232500  1
  O  O56  1  0.90998100  0.53643300  0.85403500  1
  O  O57  1  0.33055700  0.54274500  0.27633200  1
  O  O58  1  0.46097700  0.41079200  0.65193100  1
  O  O59  1  0.12518900  0.17270600  0.06489600  1
  O  O60  1  0.02640500  0.83291600  0.72872200  1
  O  O61  1  0.67177500  0.88338900  0.43572100  1
  O  O62  1  0.48312900  0.83630600  0.23033200  1
  O  O63  1  0.40853300  0.45113200  0.84404000  1
  O  O64  1  0.53902300  0.58920800  0.15193100  1
  O  O65  1  0.59146700  0.54886800  0.34404000  1
  O  O66  1  0.12518900  0.32729400  0.56489600  1
  O  O67  1  0.74983800  0.76995900  0.73851100  1
  O  O68  1  0.16124500  0.96695900  0.27232500  1
  O  O69  1  0.25016200  0.23004100  0.23851100  1
  O  O70  1  0.66944300  0.45725400  0.77633200  1
  O  O71  1  0.05833200  0.41041100  0.15641900  1
  O  O72  1  0.63641800  0.82087000  0.06645700  1
  O  O73  1  0.94166800  0.58958900  0.65641900  1
  O  O74  1  0.16124500  0.53304100  0.77232500  1
  O  O75  1  0.59146700  0.95113200  0.84404000  1
  O  O76  1  0.87481100  0.82729400  0.56489600  1
  O  O77  1  0.40853300  0.04886800  0.34404000  1
  O  O78  1  0.63641800  0.67913000  0.56645700  1
  O  O79  1  0.82442700  0.85793300  0.92456800  1
  O  O80  1  0.05833200  0.08958900  0.65641900  1
  O  O81  1  0.74983800  0.73004100  0.23851100  1
  O  O82  1  0.09001900  0.46356700  0.35403500  1
  O  O83  1  0.53902300  0.91079200  0.65193100  1
  O  O84  1  0.82442700  0.64206700  0.42456800  1
  O  O85  1  0.66944300  0.04274500  0.27633200  1
  O  O86  1  0.51687100  0.16369400  0.73033200  1
  O  O87  1  0.25016200  0.26995900  0.73851100  1
  O  O88  1  0.17557300  0.14206700  0.42456800  1
  O  O89  1  0.51687100  0.33630600  0.23033200  1
  O  O90  1  0.67177500  0.61661100  0.93572100  1
  O  O91  1  0.87481100  0.67270600  0.06489600  1
  O  O92  1  0.90998100  0.96356700  0.35403500  1
  O  O93  1  0.02640500  0.66708400  0.22872200  1
  O  O94  1  0.32822500  0.38338900  0.43572100  1
  O  O95  1  0.48312900  0.66369400  0.73033200  1
