# generated using pymatgen
data_SmMg2H7
_symmetry_space_group_name_H-M   'P 1'
_cell_length_a   6.21803300
_cell_length_b   6.21803300
_cell_length_c   9.35204600
_cell_angle_alpha   90.00000000
_cell_angle_beta   90.00000000
_cell_angle_gamma   90.00000000
_symmetry_Int_Tables_number   1
_chemical_formula_structural   SmMg2H7
_chemical_formula_sum   'Sm4 Mg8 H28'
_cell_volume   361.58689295
_cell_formula_units_Z   4
loop_
 _symmetry_equiv_pos_site_id
 _symmetry_equiv_pos_as_xyz
  1  'x, y, z'
loop_
 _atom_site_type_symbol
 _atom_site_label
 _atom_site_symmetry_multiplicity
 _atom_site_fract_x
 _atom_site_fract_y
 _atom_site_fract_z
 _atom_site_occupancy
  Sm  Sm0  1  0.77084200  0.22915800  0.75000000  1
  Sm  Sm1  1  0.22915800  0.77084200  0.25000000  1
  Sm  Sm2  1  0.72915800  0.72915800  0.50000000  1
  Sm  Sm3  1  0.27084200  0.27084200  0.00000000  1
  Mg  Mg4  1  0.53204800  0.23961300  0.39983000  1
  Mg  Mg5  1  0.46795200  0.76038700  0.89983000  1
  Mg  Mg6  1  0.73961300  0.96795200  0.14983000  1
  Mg  Mg7  1  0.26038700  0.03204800  0.64983000  1
  Mg  Mg8  1  0.76038700  0.46795200  0.10017000  1
  Mg  Mg9  1  0.23961300  0.53204800  0.60017000  1
  Mg  Mg10  1  0.96795200  0.73961300  0.85017000  1
  Mg  Mg11  1  0.03204800  0.26038700  0.35017000  1
  H  H12  1  0.54032200  0.47662400  0.62303000  1
  H  H13  1  0.45967800  0.52337600  0.12303000  1
  H  H14  1  0.97662400  0.95967800  0.37303000  1
  H  H15  1  0.02337600  0.04032200  0.87303000  1
  H  H16  1  0.52337600  0.45967800  0.87697000  1
  H  H17  1  0.47662400  0.54032200  0.37697000  1
  H  H18  1  0.95967800  0.97662400  0.62697000  1
  H  H19  1  0.04032200  0.02337600  0.12697000  1
  H  H20  1  0.57935600  0.06710400  0.57204800  1
  H  H21  1  0.42064400  0.93289600  0.07204800  1
  H  H22  1  0.56710400  0.92064400  0.32204800  1
  H  H23  1  0.43289600  0.07935600  0.82204800  1
  H  H24  1  0.93289600  0.42064400  0.92795200  1
  H  H25  1  0.06710400  0.57935600  0.42795200  1
  H  H26  1  0.92064400  0.56710400  0.67795200  1
  H  H27  1  0.07935600  0.43289600  0.17795200  1
  H  H28  1  0.81259700  0.34571300  0.49792600  1
  H  H29  1  0.18740300  0.65428700  0.99792600  1
  H  H30  1  0.84571300  0.68740300  0.24792600  1
  H  H31  1  0.15428700  0.31259700  0.74792600  1
  H  H32  1  0.65428700  0.18740300  0.00207400  1
  H  H33  1  0.34571300  0.81259700  0.50207400  1
  H  H34  1  0.68740300  0.84571300  0.75207400  1
  H  H35  1  0.31259700  0.15428700  0.25207400  1
  H  H36  1  0.25162400  0.74837600  0.75000000  1
  H  H37  1  0.74837600  0.25162400  0.25000000  1
  H  H38  1  0.24837600  0.24837600  0.50000000  1
  H  H39  1  0.75162400  0.75162400  0.00000000  1
