# generated using pymatgen
data_Cs3TaO8
_symmetry_space_group_name_H-M   'P 1'
_cell_length_a   6.81624762
_cell_length_b   6.81624762
_cell_length_c   6.81624762
_cell_angle_alpha   112.82968444
_cell_angle_beta   112.82968444
_cell_angle_gamma   102.94488772
_symmetry_Int_Tables_number   1
_chemical_formula_structural   Cs3TaO8
_chemical_formula_sum   'Cs3 Ta1 O8'
_cell_volume   241.45398989
_cell_formula_units_Z   1
loop_
 _symmetry_equiv_pos_site_id
 _symmetry_equiv_pos_as_xyz
  1  'x, y, z'
loop_
 _atom_site_type_symbol
 _atom_site_label
 _atom_site_symmetry_multiplicity
 _atom_site_fract_x
 _atom_site_fract_y
 _atom_site_fract_z
 _atom_site_occupancy
  Cs  Cs0  1  0.50000000  0.50000000  0.00000000  1
  Cs  Cs1  1  0.75000000  0.25000000  0.50000000  1
  Cs  Cs2  1  0.25000000  0.75000000  0.50000000  1
  Ta  Ta3  1  0.00000000  0.00000000  0.00000000  1
  O  O4  1  0.30441600  0.04852200  0.00000000  1
  O  O5  1  0.78607400  0.78607400  0.61066700  1
  O  O6  1  0.69558400  0.69558400  0.74410500  1
  O  O7  1  0.04852200  0.30441600  0.00000000  1
  O  O8  1  0.95147800  0.95147800  0.25589500  1
  O  O9  1  0.17540700  0.17540700  0.38933300  1
  O  O10  1  0.82459300  0.21392600  0.00000000  1
  O  O11  1  0.21392600  0.82459300  0.00000000  1
