# generated using pymatgen
data_K3Gd5(PO4)6
_symmetry_space_group_name_H-M   'P 1'
_cell_length_a   9.49727118
_cell_length_b   9.49727118
_cell_length_c   18.27290609
_cell_angle_alpha   67.60379289
_cell_angle_beta   67.60379289
_cell_angle_gamma   43.28593747
_symmetry_Int_Tables_number   1
_chemical_formula_structural   K3Gd5(PO4)6
_chemical_formula_sum   'K6 Gd10 P12 O48'
_cell_volume   1030.75772869
_cell_formula_units_Z   2
loop_
 _symmetry_equiv_pos_site_id
 _symmetry_equiv_pos_as_xyz
  1  'x, y, z'
loop_
 _atom_site_type_symbol
 _atom_site_label
 _atom_site_symmetry_multiplicity
 _atom_site_fract_x
 _atom_site_fract_y
 _atom_site_fract_z
 _atom_site_occupancy
  K  K0  1  0.02140000  0.82446300  0.57474500  1
  K  K1  1  0.17074800  0.82925200  0.75000000  1
  K  K2  1  0.82925200  0.17074800  0.25000000  1
  K  K3  1  0.17553700  0.97860000  0.92525500  1
  K  K4  1  0.82446300  0.02140000  0.07474500  1
  K  K5  1  0.97860000  0.17553700  0.42525500  1
  Gd  Gd6  1  0.34443400  0.09634000  0.20783800  1
  Gd  Gd7  1  0.09634000  0.34443400  0.70783800  1
  Gd  Gd8  1  0.73123200  0.55837900  0.01924500  1
  Gd  Gd9  1  0.90366000  0.65556600  0.29216200  1
  Gd  Gd10  1  0.26876800  0.44162100  0.98075500  1
  Gd  Gd11  1  0.55837900  0.73123200  0.51924500  1
  Gd  Gd12  1  0.36266500  0.63733500  0.25000000  1
  Gd  Gd13  1  0.44162100  0.26876800  0.48075500  1
  Gd  Gd14  1  0.63733500  0.36266500  0.75000000  1
  Gd  Gd15  1  0.65556600  0.90366000  0.79216200  1
  P  P16  1  0.17355300  0.41187500  0.84174600  1
  P  P17  1  0.58812500  0.82644700  0.65825400  1
  P  P18  1  0.94907400  0.77847600  0.41342900  1
  P  P19  1  0.77847600  0.94907400  0.91342900  1
  P  P20  1  0.52188900  0.33010800  0.61793200  1
  P  P21  1  0.66989200  0.47811100  0.88206800  1
  P  P22  1  0.05092600  0.22152400  0.58657100  1
  P  P23  1  0.41187500  0.17355300  0.34174600  1
  P  P24  1  0.33010800  0.52188900  0.11793200  1
  P  P25  1  0.82644700  0.58812500  0.15825400  1
  P  P26  1  0.47811100  0.66989200  0.38206800  1
  P  P27  1  0.22152400  0.05092600  0.08657100  1
  O  O28  1  0.99684200  0.19945400  0.07271200  1
  O  O29  1  0.03608800  0.77889100  0.31972500  1
  O  O30  1  0.15059200  0.64866300  0.18666100  1
  O  O31  1  0.80054600  0.00315800  0.42728800  1
  O  O32  1  0.41331900  0.98758600  0.71625000  1
  O  O33  1  0.74399800  0.35509200  0.96395800  1
  O  O34  1  0.58668100  0.01241400  0.28375000  1
  O  O35  1  0.33109500  0.42941000  0.82997400  1
  O  O36  1  0.62386800  0.12892800  0.96116200  1
  O  O37  1  0.96391200  0.22110900  0.68027500  1
  O  O38  1  0.68650100  0.60696800  0.37516100  1
  O  O39  1  0.16172000  0.29610300  0.57491100  1
  O  O40  1  0.19945400  0.99684200  0.57271200  1
  O  O41  1  0.83828000  0.70389700  0.42508900  1
  O  O42  1  0.48479300  0.52560100  0.86984000  1
  O  O43  1  0.25600200  0.64490800  0.03604200  1
  O  O44  1  0.01241400  0.58668100  0.78375000  1
  O  O45  1  0.87107200  0.37613200  0.53883800  1
  O  O46  1  0.47439900  0.51520700  0.63016000  1
  O  O47  1  0.37613200  0.87107200  0.03883800  1
  O  O48  1  0.64490700  0.25600200  0.53604200  1
  O  O49  1  0.71467200  0.79573100  0.18217400  1
  O  O50  1  0.20426900  0.28532800  0.31782600  1
  O  O51  1  0.42941000  0.33109500  0.32997400  1
  O  O52  1  0.92299600  0.58346300  0.06880600  1
  O  O53  1  0.77889100  0.03608800  0.81972500  1
  O  O54  1  0.60696800  0.68650100  0.87516100  1
  O  O55  1  0.29610300  0.16172000  0.07491100  1
  O  O56  1  0.39303200  0.31349900  0.12483900  1
  O  O57  1  0.31349900  0.39303200  0.62483900  1
  O  O58  1  0.00315800  0.80054600  0.92728800  1
  O  O59  1  0.41653700  0.07700400  0.43119400  1
  O  O60  1  0.98758600  0.41331900  0.21625000  1
  O  O61  1  0.66890500  0.57059000  0.17002600  1
  O  O62  1  0.58346300  0.92299600  0.56880600  1
  O  O63  1  0.52560100  0.48479300  0.36984000  1
  O  O64  1  0.22110900  0.96391200  0.18027500  1
  O  O65  1  0.35133700  0.84940800  0.31333900  1
  O  O66  1  0.28532800  0.20426900  0.81782600  1
  O  O67  1  0.79573100  0.71467200  0.68217400  1
  O  O68  1  0.70389700  0.83828000  0.92508900  1
  O  O69  1  0.12892800  0.62386800  0.46116200  1
  O  O70  1  0.64866300  0.15059200  0.68666100  1
  O  O71  1  0.51520700  0.47439900  0.13016000  1
  O  O72  1  0.84940800  0.35133700  0.81333900  1
  O  O73  1  0.35509300  0.74399800  0.46395800  1
  O  O74  1  0.57059000  0.66890500  0.67002600  1
  O  O75  1  0.07700400  0.41653700  0.93119400  1
