# generated using pymatgen
data_Co8Te(AsO8)2
_symmetry_space_group_name_H-M   'P 1'
_cell_length_a   12.31426180
_cell_length_b   12.31426180
_cell_length_c   8.70424300
_cell_angle_alpha   90.00000000
_cell_angle_beta   90.00000000
_cell_angle_gamma   151.60178896
_symmetry_Int_Tables_number   1
_chemical_formula_structural   Co8Te(AsO8)2
_chemical_formula_sum   'Co16 Te2 As4 O32'
_cell_volume   627.74988825
_cell_formula_units_Z   2
loop_
 _symmetry_equiv_pos_site_id
 _symmetry_equiv_pos_as_xyz
  1  'x, y, z'
loop_
 _atom_site_type_symbol
 _atom_site_label
 _atom_site_symmetry_multiplicity
 _atom_site_fract_x
 _atom_site_fract_y
 _atom_site_fract_z
 _atom_site_occupancy
  Co  Co0  1  0.67708200  0.82291800  0.75000000  1
  Co  Co1  1  0.05903800  0.94096200  0.62815400  1
  Co  Co2  1  0.44294700  0.05705300  0.25000000  1
  Co  Co3  1  0.86408000  0.13592000  0.02780100  1
  Co  Co4  1  0.55903800  0.44096200  0.87184600  1
  Co  Co5  1  0.94096200  0.05903800  0.37184600  1
  Co  Co6  1  0.13592000  0.86408000  0.97219900  1
  Co  Co7  1  0.82291800  0.67708200  0.25000000  1
  Co  Co8  1  0.32291800  0.17708200  0.25000000  1
  Co  Co9  1  0.94294700  0.55705300  0.25000000  1
  Co  Co10  1  0.44096200  0.55903800  0.12815400  1
  Co  Co11  1  0.05705300  0.44294700  0.75000000  1
  Co  Co12  1  0.55705300  0.94294700  0.75000000  1
  Co  Co13  1  0.63592000  0.36408000  0.52780100  1
  Co  Co14  1  0.17708200  0.32291800  0.75000000  1
  Co  Co15  1  0.36408000  0.63592000  0.47219900  1
  Te  Te16  1  0.00000000  0.00000000  0.00000000  1
  Te  Te17  1  0.50000000  0.50000000  0.50000000  1
  As  As18  1  0.69064600  0.30935400  0.89127900  1
  As  As19  1  0.19064600  0.80935400  0.60872100  1
  As  As20  1  0.30935400  0.69064600  0.10872100  1
  As  As21  1  0.80935400  0.19064600  0.39127900  1
  O  O22  1  0.83522400  0.71662100  0.99629000  1
  O  O23  1  0.63070500  0.36929500  0.28502200  1
  O  O24  1  0.16477600  0.28337900  0.00371000  1
  O  O25  1  0.74788200  0.25211800  0.77040100  1
  O  O26  1  0.13194100  0.86805900  0.73198700  1
  O  O27  1  0.24788200  0.75211800  0.72959900  1
  O  O28  1  0.33522400  0.21662100  0.50371000  1
  O  O29  1  0.00798600  0.99201400  0.22649800  1
  O  O30  1  0.45410800  0.08148900  0.00388000  1
  O  O31  1  0.36929500  0.63070500  0.71497800  1
  O  O32  1  0.50798600  0.49201400  0.27350200  1
  O  O33  1  0.54589200  0.91851100  0.99612000  1
  O  O34  1  0.58148900  0.95410800  0.50388000  1
  O  O35  1  0.04589200  0.41851100  0.50388000  1
  O  O36  1  0.08148900  0.45410800  0.99612000  1
  O  O37  1  0.49201400  0.50798600  0.72649800  1
  O  O38  1  0.21662100  0.33522400  0.49629000  1
  O  O39  1  0.86805900  0.13194100  0.26801300  1
  O  O40  1  0.75211800  0.24788200  0.27040100  1
  O  O41  1  0.28337900  0.16477600  0.99629000  1
  O  O42  1  0.63194100  0.36805900  0.76801300  1
  O  O43  1  0.71662100  0.83522400  0.00371000  1
  O  O44  1  0.66477600  0.78337900  0.49629000  1
  O  O45  1  0.13070500  0.86929500  0.21497800  1
  O  O46  1  0.99201400  0.00798600  0.77350200  1
  O  O47  1  0.95410800  0.58148900  0.49612000  1
  O  O48  1  0.91851100  0.54589200  0.00388000  1
  O  O49  1  0.78337900  0.66477600  0.50371000  1
  O  O50  1  0.41851100  0.04589200  0.49612000  1
  O  O51  1  0.25211800  0.74788200  0.22959900  1
  O  O52  1  0.36805900  0.63194100  0.23198700  1
  O  O53  1  0.86929500  0.13070500  0.78502200  1
