# generated using pymatgen
data_SrCo12O19
_symmetry_space_group_name_H-M   'P 1'
_cell_length_a   5.79608538
_cell_length_b   5.79608538
_cell_length_c   22.39899800
_cell_angle_alpha   90.00000000
_cell_angle_beta   90.00000000
_cell_angle_gamma   119.99999290
_symmetry_Int_Tables_number   1
_chemical_formula_structural   SrCo12O19
_chemical_formula_sum   'Sr2 Co24 O38'
_cell_volume   651.67161084
_cell_formula_units_Z   2
loop_
 _symmetry_equiv_pos_site_id
 _symmetry_equiv_pos_as_xyz
  1  'x, y, z'
loop_
 _atom_site_type_symbol
 _atom_site_label
 _atom_site_symmetry_multiplicity
 _atom_site_fract_x
 _atom_site_fract_y
 _atom_site_fract_z
 _atom_site_occupancy
  Sr  Sr0  1  0.66666700  0.33333300  0.25000000  1
  Sr  Sr1  1  0.33333300  0.66666700  0.75000000  1
  Co  Co2  1  0.16712200  0.83287800  0.88983000  1
  Co  Co3  1  0.66666700  0.33333300  0.80671900  1
  Co  Co4  1  0.83287800  0.16712200  0.38983000  1
  Co  Co5  1  0.66575600  0.83287800  0.61017000  1
  Co  Co6  1  0.00000000  0.00000000  0.00000000  1
  Co  Co7  1  0.66666700  0.33333300  0.52709400  1
  Co  Co8  1  0.83287800  0.66575600  0.11017000  1
  Co  Co9  1  0.33333300  0.66666700  0.47290600  1
  Co  Co10  1  0.33333300  0.66666700  0.02709400  1
  Co  Co11  1  0.16712200  0.33424400  0.61017000  1
  Co  Co12  1  0.83287800  0.16712200  0.11017000  1
  Co  Co13  1  0.33424400  0.16712200  0.11017000  1
  Co  Co14  1  0.83287800  0.66575600  0.38983000  1
  Co  Co15  1  0.16712200  0.33424400  0.88983000  1
  Co  Co16  1  0.00000000  0.00000000  0.50000000  1
  Co  Co17  1  0.66575600  0.83287800  0.88983000  1
  Co  Co18  1  0.66666700  0.33333300  0.97290600  1
  Co  Co19  1  0.33333300  0.66666700  0.19328100  1
  Co  Co20  1  0.16712200  0.83287800  0.61017000  1
  Co  Co21  1  0.00000000  0.00000000  0.25000000  1
  Co  Co22  1  0.33333300  0.66666700  0.30671900  1
  Co  Co23  1  0.66666700  0.33333300  0.69328100  1
  Co  Co24  1  0.00000000  0.00000000  0.75000000  1
  Co  Co25  1  0.33424400  0.16712200  0.38983000  1
  O  O26  1  0.33333300  0.66666700  0.56060200  1
  O  O27  1  0.66666700  0.33333300  0.06060200  1
  O  O28  1  0.00000000  0.00000000  0.83895100  1
  O  O29  1  0.50152300  0.00304600  0.84727500  1
  O  O30  1  0.49847700  0.99695400  0.34727500  1
  O  O31  1  0.00000000  0.00000000  0.16104900  1
  O  O32  1  0.33333300  0.66666700  0.93939800  1
  O  O33  1  0.70363800  0.85181900  0.44605300  1
  O  O34  1  0.49847700  0.50152300  0.34727500  1
  O  O35  1  0.50152300  0.49847700  0.84727500  1
  O  O36  1  0.14818100  0.29636200  0.05394700  1
  O  O37  1  0.14818100  0.85181900  0.05394700  1
  O  O38  1  0.29636200  0.14818100  0.94605300  1
  O  O39  1  0.49847700  0.50152300  0.15272500  1
  O  O40  1  0.85181900  0.70363800  0.55394700  1
  O  O41  1  0.50152300  0.00304600  0.65272500  1
  O  O42  1  0.99695400  0.49847700  0.84727500  1
  O  O43  1  0.85181900  0.14818100  0.55394700  1
  O  O44  1  0.18884400  0.81115600  0.25000000  1
  O  O45  1  0.50152300  0.49847700  0.65272500  1
  O  O46  1  0.00304600  0.50152300  0.34727500  1
  O  O47  1  0.81115600  0.62231200  0.75000000  1
  O  O48  1  0.14818100  0.85181900  0.44605300  1
  O  O49  1  0.81115600  0.18884400  0.75000000  1
  O  O50  1  0.00304600  0.50152300  0.15272500  1
  O  O51  1  0.49847700  0.99695400  0.15272500  1
  O  O52  1  0.85181900  0.70363800  0.94605300  1
  O  O53  1  0.14818100  0.29636200  0.44605300  1
  O  O54  1  0.99695400  0.49847700  0.65272500  1
  O  O55  1  0.70363800  0.85181900  0.05394700  1
  O  O56  1  0.85181900  0.14818100  0.94605300  1
  O  O57  1  0.29636200  0.14818100  0.55394700  1
  O  O58  1  0.00000000  0.00000000  0.33895100  1
  O  O59  1  0.66666700  0.33333300  0.43939800  1
  O  O60  1  0.62231200  0.81115600  0.25000000  1
  O  O61  1  0.00000000  0.00000000  0.66104900  1
  O  O62  1  0.37768800  0.18884400  0.75000000  1
  O  O63  1  0.18884400  0.37768800  0.25000000  1
