# generated using pymatgen
data_ZnCoP2O7
_symmetry_space_group_name_H-M   'P 1'
_cell_length_a   8.41778700
_cell_length_b   7.06567600
_cell_length_c   9.14607737
_cell_angle_alpha   66.78176812
_cell_angle_beta   90.00000000
_cell_angle_gamma   90.00000000
_symmetry_Int_Tables_number   1
_chemical_formula_structural   ZnCoP2O7
_chemical_formula_sum   'Zn4 Co4 P8 O28'
_cell_volume   499.92715803
_cell_formula_units_Z   4
loop_
 _symmetry_equiv_pos_site_id
 _symmetry_equiv_pos_as_xyz
  1  'x, y, z'
loop_
 _atom_site_type_symbol
 _atom_site_label
 _atom_site_symmetry_multiplicity
 _atom_site_fract_x
 _atom_site_fract_y
 _atom_site_fract_z
 _atom_site_occupancy
  Zn  Zn0  1  0.94159300  0.69746200  0.18119900  1
  Zn  Zn1  1  0.44159300  0.30253800  0.31880100  1
  Zn  Zn2  1  0.55840700  0.69746200  0.68119900  1
  Zn  Zn3  1  0.05840700  0.30253800  0.81880100  1
  Co  Co4  1  0.07110900  0.23281700  0.39251400  1
  Co  Co5  1  0.92889100  0.76718300  0.60748600  1
  Co  Co6  1  0.57110900  0.76718300  0.10748600  1
  Co  Co7  1  0.42889100  0.23281700  0.89251400  1
  P  P8  1  0.73337700  0.05947400  0.75947400  1
  P  P9  1  0.22610600  0.53250300  0.03122200  1
  P  P10  1  0.76662300  0.05947400  0.25947400  1
  P  P11  1  0.27389400  0.53250300  0.53122200  1
  P  P12  1  0.23337700  0.94052600  0.74052600  1
  P  P13  1  0.72610600  0.46749700  0.46877800  1
  P  P14  1  0.77389400  0.46749700  0.96877800  1
  P  P15  1  0.26662300  0.94052600  0.24052600  1
  O  O16  1  0.17438200  0.74883400  0.89809800  1
  O  O17  1  0.60985900  0.10860400  0.31624900  1
  O  O18  1  0.89014100  0.10860400  0.81624900  1
  O  O19  1  0.38891600  0.55391800  0.10103900  1
  O  O20  1  0.82561800  0.25116600  0.10190200  1
  O  O21  1  0.09677200  0.97618900  0.62056400  1
  O  O22  1  0.61108400  0.44608200  0.89896100  1
  O  O23  1  0.09161600  0.48459900  0.15417800  1
  O  O24  1  0.26506400  0.37610100  0.45214300  1
  O  O25  1  0.90322800  0.02381100  0.37943600  1
  O  O26  1  0.40322800  0.97618900  0.12056400  1
  O  O27  1  0.75677100  0.88054900  0.20306500  1
  O  O28  1  0.25677100  0.11945100  0.29693500  1
  O  O29  1  0.32561800  0.74883400  0.39809800  1
  O  O30  1  0.59677200  0.02381100  0.87943600  1
  O  O31  1  0.10985900  0.89139600  0.18375100  1
  O  O32  1  0.24322900  0.11945100  0.79693500  1
  O  O33  1  0.90838400  0.51540100  0.84582200  1
  O  O34  1  0.23493600  0.37610100  0.95214300  1
  O  O35  1  0.76506400  0.62389900  0.04785700  1
  O  O36  1  0.88891600  0.44608200  0.39896100  1
  O  O37  1  0.40838400  0.48459900  0.65417800  1
  O  O38  1  0.59161600  0.51540100  0.34582200  1
  O  O39  1  0.39014100  0.89139600  0.68375100  1
  O  O40  1  0.74322900  0.88054900  0.70306500  1
  O  O41  1  0.11108400  0.55391800  0.60103900  1
  O  O42  1  0.73493600  0.62389900  0.54785700  1
  O  O43  1  0.67438200  0.25116600  0.60190200  1
