# generated using pymatgen
data_CeP5
_symmetry_space_group_name_H-M   'P 1'
_cell_length_a   9.57692500
_cell_length_b   4.60790100
_cell_length_c   5.57481050
_cell_angle_alpha   71.06229162
_cell_angle_beta   90.00000000
_cell_angle_gamma   90.00000000
_symmetry_Int_Tables_number   1
_chemical_formula_structural   CeP5
_chemical_formula_sum   'Ce2 P10'
_cell_volume   232.69748639
_cell_formula_units_Z   2
loop_
 _symmetry_equiv_pos_site_id
 _symmetry_equiv_pos_as_xyz
  1  'x, y, z'
loop_
 _atom_site_type_symbol
 _atom_site_label
 _atom_site_symmetry_multiplicity
 _atom_site_fract_x
 _atom_site_fract_y
 _atom_site_fract_z
 _atom_site_occupancy
  Ce  Ce0  1  0.25000000  0.59710100  0.09455700  1
  Ce  Ce1  1  0.75000000  0.40289900  0.90544300  1
  P  P2  1  0.25000000  0.76409500  0.55345200  1
  P  P3  1  0.75000000  0.23590500  0.44654800  1
  P  P4  1  0.90551100  0.86695900  0.48049300  1
  P  P5  1  0.40551100  0.13304100  0.51950700  1
  P  P6  1  0.09448900  0.13304100  0.51950700  1
  P  P7  1  0.59448900  0.86695900  0.48049300  1
  P  P8  1  0.94293500  0.79076200  0.11181100  1
  P  P9  1  0.44293500  0.20923800  0.88818900  1
  P  P10  1  0.05706500  0.20923800  0.88818900  1
  P  P11  1  0.55706500  0.79076200  0.11181100  1
