# generated using pymatgen
data_Na4Co3P4O15
_symmetry_space_group_name_H-M   'P 1'
_cell_length_a   6.59514200
_cell_length_b   10.64139800
_cell_length_c   18.24516200
_cell_angle_alpha   90.00000000
_cell_angle_beta   90.00000000
_cell_angle_gamma   90.00000000
_symmetry_Int_Tables_number   1
_chemical_formula_structural   Na4Co3P4O15
_chemical_formula_sum   'Na16 Co12 P16 O60'
_cell_volume   1280.47340047
_cell_formula_units_Z   4
loop_
 _symmetry_equiv_pos_site_id
 _symmetry_equiv_pos_as_xyz
  1  'x, y, z'
loop_
 _atom_site_type_symbol
 _atom_site_label
 _atom_site_symmetry_multiplicity
 _atom_site_fract_x
 _atom_site_fract_y
 _atom_site_fract_z
 _atom_site_occupancy
  Na  Na0  1  0.31921100  0.47688000  0.99346400  1
  Na  Na1  1  0.81921100  0.52312000  0.00653600  1
  Na  Na2  1  0.81921100  0.97688000  0.50653600  1
  Na  Na3  1  0.31921100  0.02312000  0.49346400  1
  Na  Na4  1  0.35164600  0.24727200  0.79548700  1
  Na  Na5  1  0.85164600  0.75272800  0.20451300  1
  Na  Na6  1  0.85164600  0.74727200  0.70451300  1
  Na  Na7  1  0.35164600  0.25272800  0.29548700  1
  Na  Na8  1  0.92782400  0.76399800  0.89428500  1
  Na  Na9  1  0.42782400  0.23600200  0.10571500  1
  Na  Na10  1  0.42782400  0.26399800  0.60571500  1
  Na  Na11  1  0.92782400  0.73600200  0.39428500  1
  Na  Na12  1  0.17383700  0.04097100  0.96205700  1
  Na  Na13  1  0.67383700  0.95902900  0.03794300  1
  Na  Na14  1  0.67383700  0.54097100  0.53794300  1
  Na  Na15  1  0.17383700  0.45902900  0.46205700  1
  Co  Co16  1  0.60302900  0.00262200  0.83374500  1
  Co  Co17  1  0.10302900  0.99737800  0.16625500  1
  Co  Co18  1  0.10302900  0.50262200  0.66625500  1
  Co  Co19  1  0.60302900  0.49737800  0.33374500  1
  Co  Co20  1  0.09231000  0.99528600  0.63927400  1
  Co  Co21  1  0.59231000  0.00471400  0.36072600  1
  Co  Co22  1  0.59231000  0.49528600  0.86072600  1
  Co  Co23  1  0.09231000  0.50471400  0.13927400  1
  Co  Co24  1  0.82542400  0.24227500  0.74259100  1
  Co  Co25  1  0.32542400  0.75772500  0.25740900  1
  Co  Co26  1  0.32542400  0.74227500  0.75740900  1
  Co  Co27  1  0.82542400  0.25772500  0.24259100  1
  P  P28  1  0.09818100  0.00181800  0.79247500  1
  P  P29  1  0.59818100  0.99818200  0.20752500  1
  P  P30  1  0.59818100  0.50181800  0.70752500  1
  P  P31  1  0.09818100  0.49818200  0.29247500  1
  P  P32  1  0.58780100  0.98631200  0.67925600  1
  P  P33  1  0.08780100  0.01368800  0.32074400  1
  P  P34  1  0.08780100  0.48631200  0.82074400  1
  P  P35  1  0.58780100  0.51368800  0.17925600  1
  P  P36  1  0.95528000  0.23699900  0.06838900  1
  P  P37  1  0.45528000  0.76300100  0.93161100  1
  P  P38  1  0.45528000  0.73699900  0.43161100  1
  P  P39  1  0.95528000  0.26300100  0.56838900  1
  P  P40  1  0.64668800  0.22768200  0.94868200  1
  P  P41  1  0.14668800  0.77231800  0.05131800  1
  P  P42  1  0.14668800  0.72768200  0.55131800  1
  P  P43  1  0.64668800  0.27231800  0.44868200  1
  O  O44  1  0.05926400  0.11209200  0.73627400  1
  O  O45  1  0.55926400  0.88790800  0.26372600  1
  O  O46  1  0.55926400  0.61209200  0.76372600  1
  O  O47  1  0.05926400  0.38790800  0.23627400  1
  O  O48  1  0.91956500  0.97629900  0.84380700  1
  O  O49  1  0.41956500  0.02370100  0.15619300  1
  O  O50  1  0.41956500  0.47629900  0.65619300  1
  O  O51  1  0.91956500  0.52370100  0.34380700  1
  O  O52  1  0.28796400  0.03543800  0.83825200  1
  O  O53  1  0.78796400  0.96456200  0.16174800  1
  O  O54  1  0.78796400  0.53543800  0.66174800  1
  O  O55  1  0.28796400  0.46456200  0.33825200  1
  O  O56  1  0.12738700  0.88540900  0.73985700  1
  O  O57  1  0.62738700  0.11459100  0.26014300  1
  O  O58  1  0.62738700  0.38540900  0.76014300  1
  O  O59  1  0.12738700  0.61459100  0.23985700  1
  O  O60  1  0.61352300  0.10260900  0.73204300  1
  O  O61  1  0.11352300  0.89739100  0.26795700  1
  O  O62  1  0.11352300  0.60260900  0.76795700  1
  O  O63  1  0.61352300  0.39739100  0.23204300  1
  O  O64  1  0.40801800  0.01250400  0.62719700  1
  O  O65  1  0.90801800  0.98749600  0.37280300  1
  O  O66  1  0.90801800  0.51250400  0.87280300  1
  O  O67  1  0.40801800  0.48749600  0.12719700  1
  O  O68  1  0.55382100  0.87399600  0.73420200  1
  O  O69  1  0.05382100  0.12600400  0.26579800  1
  O  O70  1  0.05382100  0.37399600  0.76579800  1
  O  O71  1  0.55382100  0.62600400  0.23420200  1
  O  O72  1  0.78210800  0.95709600  0.63501000  1
  O  O73  1  0.28210800  0.04290400  0.36499000  1
  O  O74  1  0.28210800  0.45709600  0.86499000  1
  O  O75  1  0.78210800  0.54290400  0.13501000  1
  O  O76  1  0.87030500  0.19767200  0.98681100  1
  O  O77  1  0.37030500  0.80232800  0.01318900  1
  O  O78  1  0.37030500  0.69767200  0.51318900  1
  O  O79  1  0.87030500  0.30232800  0.48681100  1
  O  O80  1  0.06654100  0.36304000  0.05761000  1
  O  O81  1  0.56654100  0.63696000  0.94239000  1
  O  O82  1  0.56654100  0.86304000  0.44239000  1
  O  O83  1  0.06654100  0.13696000  0.55761000  1
  O  O84  1  0.78066300  0.24307500  0.12247800  1
  O  O85  1  0.28066300  0.75692500  0.87752200  1
  O  O86  1  0.28066300  0.74307500  0.37752200  1
  O  O87  1  0.78066300  0.25692500  0.62247800  1
  O  O88  1  0.10614400  0.13036100  0.08387000  1
  O  O89  1  0.60614400  0.86963900  0.91613000  1
  O  O90  1  0.60614400  0.63036100  0.41613000  1
  O  O91  1  0.10614400  0.36963900  0.58387000  1
  O  O92  1  0.61108900  0.36992700  0.95631200  1
  O  O93  1  0.11108900  0.63007300  0.04368800  1
  O  O94  1  0.11108900  0.86992700  0.54368800  1
  O  O95  1  0.61108900  0.13007300  0.45631200  1
  O  O96  1  0.67067500  0.18823300  0.86848100  1
  O  O97  1  0.17067500  0.81176700  0.13151900  1
  O  O98  1  0.17067500  0.68823300  0.63151900  1
  O  O99  1  0.67067500  0.31176700  0.36848100  1
  O  O100  1  0.49600300  0.14726300  0.99070500  1
  O  O101  1  0.99600300  0.85273700  0.00929500  1
  O  O102  1  0.99600300  0.64726300  0.50929500  1
  O  O103  1  0.49600300  0.35273700  0.49070500  1
