# generated using pymatgen
data_Rb(WO3)3
_symmetry_space_group_name_H-M   'P 1'
_cell_length_a   7.53594851
_cell_length_b   7.53594851
_cell_length_c   7.76764400
_cell_angle_alpha   90.00000000
_cell_angle_beta   90.00000000
_cell_angle_gamma   120.00000449
_symmetry_Int_Tables_number   1
_chemical_formula_structural   Rb(WO3)3
_chemical_formula_sum   'Rb2 W6 O18'
_cell_volume   382.02850613
_cell_formula_units_Z   2
loop_
 _symmetry_equiv_pos_site_id
 _symmetry_equiv_pos_as_xyz
  1  'x, y, z'
loop_
 _atom_site_type_symbol
 _atom_site_label
 _atom_site_symmetry_multiplicity
 _atom_site_fract_x
 _atom_site_fract_y
 _atom_site_fract_z
 _atom_site_occupancy
  Rb  Rb0  1  0.00000000  0.00000000  0.99908400  1
  Rb  Rb1  1  0.00000000  0.00000000  0.50555300  1
  W  W2  1  0.50490500  0.99998700  0.25812700  1
  W  W3  1  0.00001300  0.50491800  0.25812700  1
  W  W4  1  0.49508200  0.49509500  0.25812700  1
  W  W5  1  0.50163800  0.00000200  0.75813600  1
  W  W6  1  0.99999800  0.50163600  0.75813600  1
  W  W7  1  0.49836400  0.49836200  0.75813600  1
  O  O8  1  0.79179000  0.21267600  0.25747100  1
  O  O9  1  0.78732400  0.57911400  0.25747100  1
  O  O10  1  0.42088600  0.20821000  0.25747100  1
  O  O11  1  0.57920300  0.78733000  0.25872900  1
  O  O12  1  0.21267000  0.79187300  0.25872900  1
  O  O13  1  0.20812700  0.42079700  0.25872900  1
  O  O14  1  0.21151800  0.79089700  0.75752200  1
  O  O15  1  0.20910300  0.42062200  0.75752200  1
  O  O16  1  0.57937800  0.78848200  0.75752200  1
  O  O17  1  0.42084400  0.20923000  0.75870400  1
  O  O18  1  0.79077000  0.21161400  0.75870400  1
  O  O19  1  0.78838600  0.57915600  0.75870400  1
  O  O20  1  0.50419100  0.99890800  0.00808100  1
  O  O21  1  0.00109200  0.50528300  0.00808100  1
  O  O22  1  0.49471700  0.49580900  0.00808100  1
  O  O23  1  0.99897800  0.50336700  0.50803800  1
  O  O24  1  0.49663300  0.49561100  0.50803800  1
  O  O25  1  0.50438900  0.00102200  0.50803800  1
