# generated using pymatgen
data_Rb(WO3)3
_symmetry_space_group_name_H-M   'P 1'
_cell_length_a   7.53009340
_cell_length_b   7.53009340
_cell_length_c   3.88298900
_cell_angle_alpha   90.00000000
_cell_angle_beta   90.00000000
_cell_angle_gamma   119.99999470
_symmetry_Int_Tables_number   1
_chemical_formula_structural   Rb(WO3)3
_chemical_formula_sum   'Rb1 W3 O9'
_cell_volume   190.67666212
_cell_formula_units_Z   1
loop_
 _symmetry_equiv_pos_site_id
 _symmetry_equiv_pos_as_xyz
  1  'x, y, z'
loop_
 _atom_site_type_symbol
 _atom_site_label
 _atom_site_symmetry_multiplicity
 _atom_site_fract_x
 _atom_site_fract_y
 _atom_site_fract_z
 _atom_site_occupancy
  Rb  Rb0  1  0.00000000  0.00000000  0.00000000  1
  W  W1  1  0.50000000  0.50000000  0.50000000  1
  W  W2  1  0.50000000  0.00000000  0.50000000  1
  W  W3  1  0.00000000  0.50000000  0.50000000  1
  O  O4  1  0.21026500  0.78973500  0.50000000  1
  O  O5  1  0.42053100  0.21026500  0.50000000  1
  O  O6  1  0.50000000  0.00000000  0.00000000  1
  O  O7  1  0.78973500  0.57946900  0.50000000  1
  O  O8  1  0.50000000  0.50000000  0.00000000  1
  O  O9  1  0.00000000  0.50000000  0.00000000  1
  O  O10  1  0.57946900  0.78973500  0.50000000  1
  O  O11  1  0.78973500  0.21026500  0.50000000  1
  O  O12  1  0.21026500  0.42053100  0.50000000  1
