# generated using pymatgen
data_SiSe2
_symmetry_space_group_name_H-M   'P 1'
_cell_length_a   6.63583709
_cell_length_b   6.63583709
_cell_length_c   6.63583709
_cell_angle_alpha   126.90253482
_cell_angle_beta   113.64105002
_cell_angle_gamma   89.91628689
_symmetry_Int_Tables_number   1
_chemical_formula_structural   SiSe2
_chemical_formula_sum   'Si2 Se4'
_cell_volume   202.30803497
_cell_formula_units_Z   2
loop_
 _symmetry_equiv_pos_site_id
 _symmetry_equiv_pos_as_xyz
  1  'x, y, z'
loop_
 _atom_site_type_symbol
 _atom_site_label
 _atom_site_symmetry_multiplicity
 _atom_site_fract_x
 _atom_site_fract_y
 _atom_site_fract_z
 _atom_site_occupancy
  Si  Si0  1  0.00000000  0.75000000  0.75000000  1
  Si  Si1  1  0.00000000  0.25000000  0.25000000  1
  Se  Se2  1  0.95480000  0.63007700  0.32472300  1
  Se  Se3  1  0.30535400  0.13007700  0.17527700  1
  Se  Se4  1  0.04520000  0.36992300  0.67527700  1
  Se  Se5  1  0.69464600  0.86992300  0.82472300  1
