# generated using pymatgen
data_Ho8Mg12Zn61
_symmetry_space_group_name_H-M   'P 1'
_cell_length_a   12.19774957
_cell_length_b   12.19774957
_cell_length_c   12.19774957
_cell_angle_alpha   109.47122063
_cell_angle_beta   109.47122063
_cell_angle_gamma   109.47122063
_symmetry_Int_Tables_number   1
_chemical_formula_structural   Ho8Mg12Zn61
_chemical_formula_sum   'Ho8 Mg12 Zn61'
_cell_volume   1397.06704303
_cell_formula_units_Z   1
loop_
 _symmetry_equiv_pos_site_id
 _symmetry_equiv_pos_as_xyz
  1  'x, y, z'
loop_
 _atom_site_type_symbol
 _atom_site_label
 _atom_site_symmetry_multiplicity
 _atom_site_fract_x
 _atom_site_fract_y
 _atom_site_fract_z
 _atom_site_occupancy
  Ho  Ho0  1  0.00000000  0.00000000  0.62668400  1
  Ho  Ho1  1  0.00000000  0.37331600  0.00000000  1
  Ho  Ho2  1  0.00000000  0.00000000  0.37331600  1
  Ho  Ho3  1  0.00000000  0.62668400  0.00000000  1
  Ho  Ho4  1  0.37331600  0.37331600  0.37331600  1
  Ho  Ho5  1  0.62668400  0.62668400  0.62668400  1
  Ho  Ho6  1  0.37331600  0.00000000  0.00000000  1
  Ho  Ho7  1  0.62668400  0.00000000  0.00000000  1
  Mg  Mg8  1  0.11670400  0.31892000  0.43562400  1
  Mg  Mg9  1  0.31892000  0.20221600  0.88329600  1
  Mg  Mg10  1  0.56437600  0.88329600  0.68108000  1
  Mg  Mg11  1  0.11670400  0.68108000  0.79778400  1
  Mg  Mg12  1  0.31892000  0.43562400  0.11670400  1
  Mg  Mg13  1  0.88329600  0.68108000  0.56437600  1
  Mg  Mg14  1  0.43562400  0.11670400  0.31892000  1
  Mg  Mg15  1  0.68108000  0.56437600  0.88329600  1
  Mg  Mg16  1  0.79778400  0.11670400  0.68108000  1
  Mg  Mg17  1  0.68108000  0.79778400  0.11670400  1
  Mg  Mg18  1  0.20221600  0.88329600  0.31892000  1
  Mg  Mg19  1  0.88329600  0.31892000  0.20221600  1
  Zn  Zn20  1  0.15433600  0.09927300  0.25360800  1
  Zn  Zn21  1  0.82579900  0.14070700  0.31490700  1
  Zn  Zn22  1  0.22393100  0.56596300  0.97589700  1
  Zn  Zn23  1  0.48910800  0.31490700  0.17420100  1
  Zn  Zn24  1  0.75196600  0.97589700  0.40993400  1
  Zn  Zn25  1  0.43403700  0.02410300  0.77606900  1
  Zn  Zn26  1  0.34203300  0.59006600  0.56596300  1
  Zn  Zn27  1  0.22393100  0.24803400  0.65796700  1
  Zn  Zn28  1  0.59006600  0.24803400  0.02410300  1
  Zn  Zn29  1  0.05506300  0.15433600  0.90072700  1
  Zn  Zn30  1  0.24803400  0.02410300  0.59006600  1
  Zn  Zn31  1  0.59012000  0.50000000  0.09012000  1
  Zn  Zn32  1  0.84566400  0.09927300  0.94493700  1
  Zn  Zn33  1  0.02410300  0.77606900  0.43403700  1
  Zn  Zn34  1  0.97589700  0.22393100  0.56596300  1
  Zn  Zn35  1  0.68509300  0.82579900  0.51089200  1
  Zn  Zn36  1  0.40993400  0.43403700  0.65796700  1
  Zn  Zn37  1  0.56596300  0.34203300  0.59006600  1
  Zn  Zn38  1  0.94493700  0.84566400  0.09927300  1
  Zn  Zn39  1  0.40993400  0.75196600  0.97589700  1
  Zn  Zn40  1  0.65796700  0.22393100  0.24803400  1
  Zn  Zn41  1  0.28269900  0.78269900  0.50000000  1
  Zn  Zn42  1  0.78269900  0.50000000  0.28269900  1
  Zn  Zn43  1  0.31490700  0.17420100  0.48910800  1
  Zn  Zn44  1  0.25360800  0.15433600  0.09927300  1
  Zn  Zn45  1  0.71730100  0.21730100  0.50000000  1
  Zn  Zn46  1  0.09927300  0.25360800  0.15433600  1
  Zn  Zn47  1  0.65796700  0.40993400  0.43403700  1
  Zn  Zn48  1  0.74639200  0.84566400  0.90072700  1
  Zn  Zn49  1  0.82579900  0.51089200  0.68509300  1
  Zn  Zn50  1  0.90988000  0.40988000  0.50000000  1
  Zn  Zn51  1  0.77606900  0.43403700  0.02410300  1
  Zn  Zn52  1  0.31490700  0.82579900  0.14070700  1
  Zn  Zn53  1  0.14070700  0.31490700  0.82579900  1
  Zn  Zn54  1  0.50000000  0.71730100  0.21730100  1
  Zn  Zn55  1  0.68509300  0.17420100  0.85929300  1
  Zn  Zn56  1  0.15433600  0.90072700  0.05506300  1
  Zn  Zn57  1  0.97589700  0.40993400  0.75196600  1
  Zn  Zn58  1  0.17420100  0.85929300  0.68509300  1
  Zn  Zn59  1  0.02410300  0.59006600  0.24803400  1
  Zn  Zn60  1  0.84566400  0.90072700  0.74639200  1
  Zn  Zn61  1  0.56596300  0.97589700  0.22393100  1
  Zn  Zn62  1  0.00000000  0.00000000  0.00000000  1
  Zn  Zn63  1  0.85929300  0.68509300  0.17420100  1
  Zn  Zn64  1  0.40988000  0.50000000  0.90988000  1
  Zn  Zn65  1  0.50000000  0.90988000  0.40988000  1
  Zn  Zn66  1  0.17420100  0.48910800  0.31490700  1
  Zn  Zn67  1  0.09927300  0.94493700  0.84566400  1
  Zn  Zn68  1  0.90072700  0.74639200  0.84566400  1
  Zn  Zn69  1  0.59006600  0.56596300  0.34203300  1
  Zn  Zn70  1  0.24803400  0.65796700  0.22393100  1
  Zn  Zn71  1  0.51089200  0.68509300  0.82579900  1
  Zn  Zn72  1  0.34203300  0.77606900  0.75196600  1
  Zn  Zn73  1  0.43403700  0.65796700  0.40993400  1
  Zn  Zn74  1  0.09012000  0.59012000  0.50000000  1
  Zn  Zn75  1  0.77606900  0.75196600  0.34203300  1
  Zn  Zn76  1  0.75196600  0.34203300  0.77606900  1
  Zn  Zn77  1  0.21730100  0.50000000  0.71730100  1
  Zn  Zn78  1  0.90072700  0.05506300  0.15433600  1
  Zn  Zn79  1  0.50000000  0.28269900  0.78269900  1
  Zn  Zn80  1  0.50000000  0.09012000  0.59012000  1
