# generated using pymatgen
data_SmAs2Au
_symmetry_space_group_name_H-M   'P 1'
_cell_length_a   5.77854600
_cell_length_b   5.76690600
_cell_length_c   20.68530300
_cell_angle_alpha   90.00000000
_cell_angle_beta   90.00000000
_cell_angle_gamma   90.00000000
_symmetry_Int_Tables_number   1
_chemical_formula_structural   SmAs2Au
_chemical_formula_sum   'Sm8 As16 Au8'
_cell_volume   689.32389639
_cell_formula_units_Z   8
loop_
 _symmetry_equiv_pos_site_id
 _symmetry_equiv_pos_as_xyz
  1  'x, y, z'
loop_
 _atom_site_type_symbol
 _atom_site_label
 _atom_site_symmetry_multiplicity
 _atom_site_fract_x
 _atom_site_fract_y
 _atom_site_fract_z
 _atom_site_occupancy
  Sm  Sm0  1  0.01489100  0.75000000  0.38248000  1
  Sm  Sm1  1  0.98510900  0.25000000  0.61752000  1
  Sm  Sm2  1  0.01489100  0.25000000  0.11752000  1
  Sm  Sm3  1  0.98510900  0.75000000  0.88248000  1
  Sm  Sm4  1  0.51563500  0.25000000  0.38296800  1
  Sm  Sm5  1  0.48436500  0.75000000  0.61703200  1
  Sm  Sm6  1  0.51563500  0.75000000  0.11703200  1
  Sm  Sm7  1  0.48436500  0.25000000  0.88296800  1
  As  As8  1  0.01633600  0.25000000  0.34250100  1
  As  As9  1  0.98366400  0.75000000  0.65749900  1
  As  As10  1  0.01633600  0.75000000  0.15749900  1
  As  As11  1  0.98366400  0.25000000  0.84250100  1
  As  As12  1  0.51479500  0.75000000  0.34369100  1
  As  As13  1  0.48520500  0.25000000  0.65630900  1
  As  As14  1  0.51479500  0.25000000  0.15630900  1
  As  As15  1  0.48520500  0.75000000  0.84369100  1
  As  As16  1  0.75688000  0.97418300  0.49952500  1
  As  As17  1  0.24312000  0.47418300  0.50047500  1
  As  As18  1  0.75688000  0.02581700  0.00047500  1
  As  As19  1  0.24312000  0.52581700  0.99952500  1
  As  As20  1  0.24312000  0.02581700  0.50047500  1
  As  As21  1  0.75688000  0.52581700  0.49952500  1
  As  As22  1  0.24312000  0.97418300  0.99952500  1
  As  As23  1  0.75688000  0.47418300  0.00047500  1
  Au  Au24  1  0.26932000  0.50000000  0.25000000  1
  Au  Au25  1  0.73068000  0.00000000  0.75000000  1
  Au  Au26  1  0.73068000  0.50000000  0.75000000  1
  Au  Au27  1  0.26932000  0.00000000  0.25000000  1
  Au  Au28  1  0.76792700  0.50000000  0.25000000  1
  Au  Au29  1  0.23207300  0.00000000  0.75000000  1
  Au  Au30  1  0.23207300  0.50000000  0.75000000  1
  Au  Au31  1  0.76792700  0.00000000  0.25000000  1
