# generated using pymatgen
data_Na2YbMoPO8
_symmetry_space_group_name_H-M   'P 1'
_cell_length_a   11.53277500
_cell_length_b   11.53277500
_cell_length_c   11.53277500
_cell_angle_alpha   144.77483444
_cell_angle_beta   115.58471329
_cell_angle_gamma   75.59722730
_symmetry_Int_Tables_number   1
_chemical_formula_structural   Na2YbMoPO8
_chemical_formula_sum   'Na8 Yb4 Mo4 P4 O32'
_cell_volume   781.87866417
_cell_formula_units_Z   4
loop_
 _symmetry_equiv_pos_site_id
 _symmetry_equiv_pos_as_xyz
  1  'x, y, z'
loop_
 _atom_site_type_symbol
 _atom_site_label
 _atom_site_symmetry_multiplicity
 _atom_site_fract_x
 _atom_site_fract_y
 _atom_site_fract_z
 _atom_site_occupancy
  Na  Na0  1  0.71575000  0.14307000  0.55771900  1
  Na  Na1  1  0.78425000  0.34196900  0.42732000  1
  Na  Na2  1  0.28425000  0.85693000  0.44228100  1
  Na  Na3  1  0.91465000  0.84196900  0.05771900  1
  Na  Na4  1  0.58535000  0.64307000  0.92732000  1
  Na  Na5  1  0.08535000  0.15803100  0.94228100  1
  Na  Na6  1  0.21575000  0.65803100  0.57268000  1
  Na  Na7  1  0.41465000  0.35693000  0.07268000  1
  Yb  Yb8  1  0.81909200  0.75000000  0.56909200  1
  Yb  Yb9  1  0.68090800  0.25000000  0.93090800  1
  Yb  Yb10  1  0.31909200  0.75000000  0.06909200  1
  Yb  Yb11  1  0.18090800  0.25000000  0.43090800  1
  Mo  Mo12  1  0.07171200  0.32171200  0.75000000  1
  Mo  Mo13  1  0.92828800  0.67828800  0.25000000  1
  Mo  Mo14  1  0.42828800  0.17828800  0.25000000  1
  Mo  Mo15  1  0.57171200  0.82171200  0.75000000  1
  P  P16  1  0.93227000  0.25000000  0.18227000  1
  P  P17  1  0.43227000  0.25000000  0.68227000  1
  P  P18  1  0.06773000  0.75000000  0.81773000  1
  P  P19  1  0.56773000  0.75000000  0.31773000  1
  O  O20  1  0.15487100  0.58580200  0.71885300  1
  O  O21  1  0.84512900  0.41419800  0.28114700  1
  O  O22  1  0.07398700  0.33606000  0.27261700  1
  O  O23  1  0.92601300  0.66394000  0.72738300  1
  O  O24  1  0.56344300  0.80137000  0.22738300  1
  O  O25  1  0.86694900  0.08580200  0.93093100  1
  O  O26  1  0.60232300  0.26934500  0.40700100  1
  O  O27  1  0.39456500  0.91240800  0.06245600  1
  O  O28  1  0.13305100  0.91419800  0.06906900  1
  O  O29  1  0.57398700  0.30137000  0.73792800  1
  O  O30  1  0.89767700  0.30467800  0.66702200  1
  O  O31  1  0.89456500  0.83210900  0.48215800  1
  O  O32  1  0.43655700  0.19863000  0.77261700  1
  O  O33  1  0.10543500  0.16789100  0.51784200  1
  O  O34  1  0.36694900  0.43601900  0.78114700  1
  O  O35  1  0.60543500  0.08759200  0.93754400  1
  O  O36  1  0.84995200  0.41240800  0.01784200  1
  O  O37  1  0.15004800  0.58759200  0.98215800  1
  O  O38  1  0.63765700  0.80467800  0.90700100  1
  O  O39  1  0.13765700  0.23065500  0.83297800  1
  O  O40  1  0.65004800  0.66789100  0.56245600  1
  O  O41  1  0.63305100  0.56398100  0.21885300  1
  O  O42  1  0.06344300  0.83606000  0.76207200  1
  O  O43  1  0.10232300  0.69532200  0.33297800  1
  O  O44  1  0.36234300  0.19532200  0.09299900  1
  O  O45  1  0.39767700  0.73065500  0.59299900  1
  O  O46  1  0.34512900  0.06398100  0.43093100  1
  O  O47  1  0.65487100  0.93601900  0.56906900  1
  O  O48  1  0.42601300  0.69863000  0.26207200  1
  O  O49  1  0.86234300  0.76934500  0.16702200  1
  O  O50  1  0.93655700  0.16394000  0.23792800  1
  O  O51  1  0.34995200  0.33210900  0.43754400  1
