# generated using pymatgen
data_Sc3RhC4
_symmetry_space_group_name_H-M   'P 1'
_cell_length_a   6.77317260
_cell_length_b   6.77317260
_cell_length_c   5.62866077
_cell_angle_alpha   83.53610860
_cell_angle_beta   83.53610860
_cell_angle_gamma   130.89717939
_symmetry_Int_Tables_number   1
_chemical_formula_structural   Sc3RhC4
_chemical_formula_sum   'Sc6 Rh2 C8'
_cell_volume   187.88408617
_cell_formula_units_Z   2
loop_
 _symmetry_equiv_pos_site_id
 _symmetry_equiv_pos_as_xyz
  1  'x, y, z'
loop_
 _atom_site_type_symbol
 _atom_site_label
 _atom_site_symmetry_multiplicity
 _atom_site_fract_x
 _atom_site_fract_y
 _atom_site_fract_z
 _atom_site_occupancy
  Sc  Sc0  1  0.24089100  0.24089100  0.24028700  1
  Sc  Sc1  1  0.18845400  0.81154600  0.00000000  1
  Sc  Sc2  1  0.68979800  0.31020200  0.50000000  1
  Sc  Sc3  1  0.75910900  0.75910900  0.75971300  1
  Sc  Sc4  1  0.31020200  0.68979800  0.50000000  1
  Sc  Sc5  1  0.81154600  0.18845400  0.00000000  1
  Rh  Rh6  1  0.73115500  0.73115500  0.26910400  1
  Rh  Rh7  1  0.26884500  0.26884500  0.73089600  1
  C  C8  1  0.79317000  0.05018800  0.41818700  1
  C  C9  1  0.54749400  0.28936000  0.92177000  1
  C  C10  1  0.94981200  0.20683000  0.58181300  1
  C  C11  1  0.20683000  0.94981200  0.58181300  1
  C  C12  1  0.45250600  0.71064000  0.07823000  1
  C  C13  1  0.71064000  0.45250600  0.07823000  1
  C  C14  1  0.28936000  0.54749400  0.92177000  1
  C  C15  1  0.05018800  0.79317000  0.41818700  1
