# generated using pymatgen
data_CdI2
_symmetry_space_group_name_H-M   'P 1'
_cell_length_a   4.33283100
_cell_length_b   4.33283100
_cell_length_c   59.28796700
_cell_angle_alpha   90.00000000
_cell_angle_beta   90.00000000
_cell_angle_gamma   120.00001520
_symmetry_Int_Tables_number   1
_chemical_formula_structural   CdI2
_chemical_formula_sum   'Cd8 I16'
_cell_volume   963.91918164
_cell_formula_units_Z   8
loop_
 _symmetry_equiv_pos_site_id
 _symmetry_equiv_pos_as_xyz
  1  'x, y, z'
loop_
 _atom_site_type_symbol
 _atom_site_label
 _atom_site_symmetry_multiplicity
 _atom_site_fract_x
 _atom_site_fract_y
 _atom_site_fract_z
 _atom_site_occupancy
  Cd  Cd0  1  0.00000000  0.00000000  0.50000000  1
  Cd  Cd1  1  0.00000000  0.00000000  0.74999900  1
  Cd  Cd2  1  0.33333300  0.66666700  0.37500500  1
  Cd  Cd3  1  0.00000000  0.00000000  0.00000000  1
  Cd  Cd4  1  0.66666700  0.33333300  0.62499500  1
  Cd  Cd5  1  0.33333300  0.66666700  0.12500800  1
  Cd  Cd6  1  0.66666700  0.33333300  0.87499200  1
  Cd  Cd7  1  0.00000000  0.00000000  0.25000100  1
  I  I8  1  0.00000000  0.00000000  0.59585300  1
  I  I9  1  0.66666700  0.33333300  0.97088000  1
  I  I10  1  0.66666700  0.33333300  0.34588700  1
  I  I11  1  0.00000000  0.00000000  0.15415000  1
  I  I12  1  0.33333300  0.66666700  0.77911500  1
  I  I13  1  0.33333300  0.66666700  0.52911400  1
  I  I14  1  0.33333300  0.66666700  0.90411100  1
  I  I15  1  0.66666700  0.33333300  0.22088500  1
  I  I16  1  0.66666700  0.33333300  0.09588900  1
  I  I17  1  0.33333300  0.66666700  0.65411300  1
  I  I18  1  0.33333300  0.66666700  0.02912000  1
  I  I19  1  0.66666700  0.33333300  0.72088400  1
  I  I20  1  0.00000000  0.00000000  0.40414700  1
  I  I21  1  0.00000000  0.00000000  0.84585000  1
  I  I22  1  0.33333300  0.66666700  0.27911600  1
  I  I23  1  0.66666700  0.33333300  0.47088600  1
