# generated using pymatgen
data_Yb4Mn2Sn5
_symmetry_space_group_name_H-M   'P 1'
_cell_length_a   8.67355109
_cell_length_b   8.67355109
_cell_length_c   7.69440776
_cell_angle_alpha   73.21039628
_cell_angle_beta   73.21039628
_cell_angle_gamma   30.90067150
_symmetry_Int_Tables_number   1
_chemical_formula_structural   Yb4Mn2Sn5
_chemical_formula_sum   'Yb4 Mn2 Sn5'
_cell_volume   283.60782877
_cell_formula_units_Z   1
loop_
 _symmetry_equiv_pos_site_id
 _symmetry_equiv_pos_as_xyz
  1  'x, y, z'
loop_
 _atom_site_type_symbol
 _atom_site_label
 _atom_site_symmetry_multiplicity
 _atom_site_fract_x
 _atom_site_fract_y
 _atom_site_fract_z
 _atom_site_occupancy
  Yb  Yb0  1  0.07949400  0.07949400  0.13679400  1
  Yb  Yb1  1  0.15026300  0.15026300  0.56242200  1
  Yb  Yb2  1  0.92050600  0.92050600  0.86320600  1
  Yb  Yb3  1  0.84973700  0.84973700  0.43757800  1
  Mn  Mn4  1  0.72399200  0.72399200  0.88863900  1
  Mn  Mn5  1  0.27600800  0.27600800  0.11136100  1
  Sn  Sn6  1  0.57075600  0.57075600  0.83864600  1
  Sn  Sn7  1  0.69593900  0.69593900  0.25589900  1
  Sn  Sn8  1  0.50000000  0.50000000  0.50000000  1
  Sn  Sn9  1  0.42924400  0.42924400  0.16135400  1
  Sn  Sn10  1  0.30406100  0.30406100  0.74410100  1
