# generated using pymatgen
data_CdI2
_symmetry_space_group_name_H-M   'P 1'
_cell_length_a   4.33268451
_cell_length_b   4.33268451
_cell_length_c   67.07753100
_cell_angle_alpha   90.00000000
_cell_angle_beta   90.00000000
_cell_angle_gamma   120.00000779
_symmetry_Int_Tables_number   1
_chemical_formula_structural   CdI2
_chemical_formula_sum   'Cd9 I18'
_cell_volume   1090.49028099
_cell_formula_units_Z   9
loop_
 _symmetry_equiv_pos_site_id
 _symmetry_equiv_pos_as_xyz
  1  'x, y, z'
loop_
 _atom_site_type_symbol
 _atom_site_label
 _atom_site_symmetry_multiplicity
 _atom_site_fract_x
 _atom_site_fract_y
 _atom_site_fract_z
 _atom_site_occupancy
  Cd  Cd0  1  0.00000000  0.00000000  0.00000000  1
  Cd  Cd1  1  0.66666700  0.33333300  0.11115800  1
  Cd  Cd2  1  0.00000000  0.00000000  0.77780800  1
  Cd  Cd3  1  0.00000000  0.00000000  0.44451000  1
  Cd  Cd4  1  0.66666700  0.33333300  0.33335900  1
  Cd  Cd5  1  0.33333300  0.66666700  0.66664100  1
  Cd  Cd6  1  0.00000000  0.00000000  0.55549000  1
  Cd  Cd7  1  0.00000000  0.00000000  0.22219200  1
  Cd  Cd8  1  0.33333300  0.66666700  0.88884200  1
  I  I9  1  0.66666700  0.33333300  0.86322900  1
  I  I10  1  0.00000000  0.00000000  0.30760400  1
  I  I11  1  0.33333300  0.66666700  0.35910500  1
  I  I12  1  0.00000000  0.00000000  0.91467700  1
  I  I13  1  0.66666700  0.33333300  0.41876700  1
  I  I14  1  0.66666700  0.33333300  0.75205300  1
  I  I15  1  0.33333300  0.66666700  0.47025900  1
  I  I16  1  0.00000000  0.00000000  0.69239600  1
  I  I17  1  0.33333300  0.66666700  0.13677100  1
  I  I18  1  0.33333300  0.66666700  0.24794700  1
  I  I19  1  0.66666700  0.33333300  0.64089500  1
  I  I20  1  0.00000000  0.00000000  0.08532300  1
  I  I21  1  0.66666700  0.33333300  0.19651200  1
  I  I22  1  0.33333300  0.66666700  0.02572700  1
  I  I23  1  0.33333300  0.66666700  0.58123300  1
  I  I24  1  0.66666700  0.33333300  0.97427300  1
  I  I25  1  0.33333300  0.66666700  0.80348800  1
  I  I26  1  0.66666700  0.33333300  0.52974100  1
