# generated using pymatgen
data_TlCoCl3
_symmetry_space_group_name_H-M   'P 1'
_cell_length_a   12.15489625
_cell_length_b   12.15489625
_cell_length_c   5.89122600
_cell_angle_alpha   90.00000000
_cell_angle_beta   90.00000000
_cell_angle_gamma   120.00000134
_symmetry_Int_Tables_number   1
_chemical_formula_structural   TlCoCl3
_chemical_formula_sum   'Tl6 Co6 Cl18'
_cell_volume   753.76995297
_cell_formula_units_Z   6
loop_
 _symmetry_equiv_pos_site_id
 _symmetry_equiv_pos_as_xyz
  1  'x, y, z'
loop_
 _atom_site_type_symbol
 _atom_site_label
 _atom_site_symmetry_multiplicity
 _atom_site_fract_x
 _atom_site_fract_y
 _atom_site_fract_z
 _atom_site_occupancy
  Tl  Tl0  1  0.00000000  0.66660000  0.25062900  1
  Tl  Tl1  1  0.33340000  0.00000000  0.75062900  1
  Tl  Tl2  1  0.66660000  0.66660000  0.75062900  1
  Tl  Tl3  1  0.33340000  0.33340000  0.25062900  1
  Tl  Tl4  1  0.66660000  0.00000000  0.25062900  1
  Tl  Tl5  1  0.00000000  0.33340000  0.75062900  1
  Co  Co6  1  0.66666700  0.33333300  0.53563000  1
  Co  Co7  1  0.33333300  0.66666700  0.03563000  1
  Co  Co8  1  0.66666700  0.33333300  0.03563000  1
  Co  Co9  1  0.00000000  0.00000000  0.46365600  1
  Co  Co10  1  0.00000000  0.00000000  0.96365600  1
  Co  Co11  1  0.33333300  0.66666700  0.53563000  1
  Cl  Cl12  1  0.15845600  0.00000000  0.21149800  1
  Cl  Cl13  1  0.17498500  0.66684400  0.78743400  1
  Cl  Cl14  1  0.82501500  0.49185900  0.78743400  1
  Cl  Cl15  1  0.50814100  0.17498500  0.28743400  1
  Cl  Cl16  1  0.33315600  0.50814100  0.78743400  1
  Cl  Cl17  1  0.49185900  0.82501500  0.78743400  1
  Cl  Cl18  1  0.50814100  0.33315600  0.78743400  1
  Cl  Cl19  1  0.49185900  0.66684400  0.28743400  1
  Cl  Cl20  1  0.15845600  0.15845600  0.71149800  1
  Cl  Cl21  1  0.17498500  0.50814100  0.28743400  1
  Cl  Cl22  1  0.33315600  0.82501500  0.28743400  1
  Cl  Cl23  1  0.00000000  0.84154400  0.71149800  1
  Cl  Cl24  1  0.84154400  0.84154400  0.21149800  1
  Cl  Cl25  1  0.66684400  0.17498500  0.78743400  1
  Cl  Cl26  1  0.00000000  0.15845600  0.21149800  1
  Cl  Cl27  1  0.84154400  0.00000000  0.71149800  1
  Cl  Cl28  1  0.66684400  0.49185900  0.28743400  1
  Cl  Cl29  1  0.82501500  0.33315600  0.28743400  1
