# generated using pymatgen
data_Sc
_symmetry_space_group_name_H-M   'P 1'
_cell_length_a   5.12291458
_cell_length_b   5.12291458
_cell_length_c   5.12291458
_cell_angle_alpha   106.15609298
_cell_angle_beta   106.15609298
_cell_angle_gamma   116.32675319
_symmetry_Int_Tables_number   1
_chemical_formula_structural   Sc
_chemical_formula_sum   Sc4
_cell_volume   102.37328364
_cell_formula_units_Z   4
loop_
 _symmetry_equiv_pos_site_id
 _symmetry_equiv_pos_as_xyz
  1  'x, y, z'
loop_
 _atom_site_type_symbol
 _atom_site_label
 _atom_site_symmetry_multiplicity
 _atom_site_fract_x
 _atom_site_fract_y
 _atom_site_fract_z
 _atom_site_occupancy
  Sc  Sc0  1  0.66457600  0.16457600  0.82915200  1
  Sc  Sc1  1  0.33542400  0.83542400  0.17084800  1
  Sc  Sc2  1  0.83542400  0.66457600  0.50000000  1
  Sc  Sc3  1  0.16457600  0.33542400  0.50000000  1
