# generated using pymatgen
data_H8PtCN8
_symmetry_space_group_name_H-M   'P 1'
_cell_length_a   7.79520700
_cell_length_b   7.18554000
_cell_length_c   13.90218249
_cell_angle_alpha   83.90005600
_cell_angle_beta   90.00000000
_cell_angle_gamma   90.00000000
_symmetry_Int_Tables_number   1
_chemical_formula_structural   H8PtCN8
_chemical_formula_sum   'H32 Pt4 C4 N32'
_cell_volume   774.29081329
_cell_formula_units_Z   4
loop_
 _symmetry_equiv_pos_site_id
 _symmetry_equiv_pos_as_xyz
  1  'x, y, z'
loop_
 _atom_site_type_symbol
 _atom_site_label
 _atom_site_symmetry_multiplicity
 _atom_site_fract_x
 _atom_site_fract_y
 _atom_site_fract_z
 _atom_site_occupancy
  H  H0  1  0.45847900  0.95911000  0.11510700  1
  H  H1  1  0.49621700  0.73493900  0.10067100  1
  H  H2  1  0.55055700  0.24286500  0.31618100  1
  H  H3  1  0.99921800  0.68966000  0.48440300  1
  H  H4  1  0.50378300  0.26506100  0.89932900  1
  H  H5  1  0.37514100  0.38364500  0.43391600  1
  H  H6  1  0.87514100  0.11635500  0.56608400  1
  H  H7  1  0.05055700  0.25713500  0.68381900  1
  H  H8  1  0.22298100  0.66137000  0.46181700  1
  H  H9  1  0.45079100  0.04223200  0.33748100  1
  H  H10  1  0.62485900  0.61635500  0.56608400  1
  H  H11  1  0.94944300  0.74286500  0.31618100  1
  H  H12  1  0.44944300  0.75713500  0.68381900  1
  H  H13  1  0.54920900  0.95776800  0.66251900  1
  H  H14  1  0.72298100  0.83863000  0.53818300  1
  H  H15  1  0.99621700  0.76506100  0.89932900  1
  H  H16  1  0.54152100  0.04089000  0.88489300  1
  H  H17  1  0.83127800  0.65274900  0.95479800  1
  H  H18  1  0.27701900  0.16137000  0.46181700  1
  H  H19  1  0.00078200  0.31034000  0.51559700  1
  H  H20  1  0.04920900  0.54223200  0.33748100  1
  H  H21  1  0.33127800  0.84725100  0.04520200  1
  H  H22  1  0.66872200  0.15274900  0.95479800  1
  H  H23  1  0.49921800  0.81034000  0.51559700  1
  H  H24  1  0.95079100  0.45776800  0.66251900  1
  H  H25  1  0.77701900  0.33863000  0.53818300  1
  H  H26  1  0.95847900  0.54089000  0.88489300  1
  H  H27  1  0.50078200  0.18966000  0.48440300  1
  H  H28  1  0.04152100  0.45911000  0.11510700  1
  H  H29  1  0.16872200  0.34725100  0.04520200  1
  H  H30  1  0.00378300  0.23493900  0.10067100  1
  H  H31  1  0.12485900  0.88364500  0.43391600  1
  Pt  Pt32  1  0.23829900  0.75886100  0.22426000  1
  Pt  Pt33  1  0.26170100  0.25886100  0.22426000  1
  Pt  Pt34  1  0.73829900  0.74113900  0.77574000  1
  Pt  Pt35  1  0.76170100  0.24113900  0.77574000  1
  C  C36  1  0.39442900  0.23250700  0.43510500  1
  C  C37  1  0.60557100  0.76749300  0.56489500  1
  C  C38  1  0.10557100  0.73250700  0.43510500  1
  C  C39  1  0.89442900  0.26749300  0.56489500  1
  N  N40  1  0.33104300  0.52234900  0.91500900  1
  N  N41  1  0.40116100  0.83165300  0.10812800  1
  N  N42  1  0.09883900  0.33165300  0.10812800  1
  N  N43  1  0.06264600  0.27146500  0.31922300  1
  N  N44  1  0.94155900  0.16527900  0.32285900  1
  N  N45  1  0.55844100  0.66527900  0.32285900  1
  N  N46  1  0.82125400  0.06830200  0.33297700  1
  N  N47  1  0.93352800  0.31442100  0.66366400  1
  N  N48  1  0.46094300  0.24281100  0.12992500  1
  N  N49  1  0.06412100  0.13367300  0.89023300  1
  N  N50  1  0.32125400  0.43169800  0.66702300  1
  N  N51  1  0.53905700  0.75718900  0.87007500  1
  N  N52  1  0.43352800  0.18557900  0.33633600  1
  N  N53  1  0.59883900  0.16834700  0.89187200  1
  N  N54  1  0.93587900  0.86632700  0.10976700  1
  N  N55  1  0.56412100  0.36632700  0.10976700  1
  N  N56  1  0.16895700  0.02234900  0.91500900  1
  N  N57  1  0.56647200  0.81442100  0.66366400  1
  N  N58  1  0.06647200  0.68557900  0.33633600  1
  N  N59  1  0.66895700  0.47765100  0.08499100  1
  N  N60  1  0.05844100  0.83472100  0.67714100  1
  N  N61  1  0.03905700  0.74281100  0.12992500  1
  N  N62  1  0.43735400  0.77146500  0.31922300  1
  N  N63  1  0.67874600  0.56830200  0.33297700  1
  N  N64  1  0.83104300  0.97765100  0.08499100  1
  N  N65  1  0.93735400  0.72853500  0.68077700  1
  N  N66  1  0.44155900  0.33472100  0.67714100  1
  N  N67  1  0.17874600  0.93169800  0.66702300  1
  N  N68  1  0.96094300  0.25718900  0.87007500  1
  N  N69  1  0.56264600  0.22853500  0.68077700  1
  N  N70  1  0.43587900  0.63367300  0.89023300  1
  N  N71  1  0.90116100  0.66834700  0.89187200  1
