# generated using pymatgen
data_ZnH16C4(Br2N)2
_symmetry_space_group_name_H-M   'P 1'
_cell_length_a   12.25963200
_cell_length_b   8.94329700
_cell_length_c   16.63346608
_cell_angle_alpha   57.63509831
_cell_angle_beta   90.00000000
_cell_angle_gamma   90.00000000
_symmetry_Int_Tables_number   1
_chemical_formula_structural   ZnH16C4(Br2N)2
_chemical_formula_sum   'Zn4 H64 C16 Br16 N8'
_cell_volume   1540.41492652
_cell_formula_units_Z   4
loop_
 _symmetry_equiv_pos_site_id
 _symmetry_equiv_pos_as_xyz
  1  'x, y, z'
loop_
 _atom_site_type_symbol
 _atom_site_label
 _atom_site_symmetry_multiplicity
 _atom_site_fract_x
 _atom_site_fract_y
 _atom_site_fract_z
 _atom_site_occupancy
  Zn  Zn0  1  0.79957600  0.25876100  0.91918400  1
  Zn  Zn1  1  0.20042400  0.74123900  0.08081600  1
  Zn  Zn2  1  0.70042400  0.25876100  0.41918400  1
  Zn  Zn3  1  0.29957600  0.74123900  0.58081600  1
  H  H4  1  0.69757100  0.56067400  0.57146400  1
  H  H5  1  0.99057600  0.77930400  0.25977100  1
  H  H6  1  0.31603700  0.56395000  0.86478700  1
  H  H7  1  0.49057600  0.22069600  0.24022900  1
  H  H8  1  0.18396300  0.56395000  0.36478700  1
  H  H9  1  0.90026600  0.77438800  0.81441700  1
  H  H10  1  0.57823000  0.91868100  0.79076400  1
  H  H11  1  0.04299100  0.39425100  0.31734400  1
  H  H12  1  0.92561200  0.96984600  0.87010200  1
  H  H13  1  0.71601900  0.82380300  0.04389300  1
  H  H14  1  0.40026600  0.22561200  0.68558300  1
  H  H15  1  0.97751200  0.71824700  0.55656500  1
  H  H16  1  0.80242900  0.56067400  0.07146400  1
  H  H17  1  0.42561200  0.03015400  0.62989800  1
  H  H18  1  0.78398100  0.82380300  0.54389300  1
  H  H19  1  0.17511900  0.39843600  0.48995000  1
  H  H20  1  0.21601900  0.17619700  0.45610700  1
  H  H21  1  0.47663500  0.33090400  0.57680600  1
  H  H22  1  0.95700900  0.60574900  0.68265600  1
  H  H23  1  0.59973400  0.77438800  0.31441700  1
  H  H24  1  0.32488100  0.39843600  0.98995000  1
  H  H25  1  0.93204500  0.10338500  0.69855800  1
  H  H26  1  0.02336500  0.33090400  0.07680600  1
  H  H27  1  0.05481700  0.15738700  0.39057800  1
  H  H28  1  0.44518300  0.15738700  0.89057800  1
  H  H29  1  0.06795500  0.89661500  0.30144200  1
  H  H30  1  0.22853500  0.32792400  0.33829200  1
  H  H31  1  0.04615600  0.75356700  0.81208200  1
  H  H32  1  0.56177900  0.06030000  0.62284500  1
  H  H33  1  0.52248800  0.71824700  0.05656500  1
  H  H34  1  0.68396300  0.43605000  0.13521300  1
  H  H35  1  0.28398100  0.17619700  0.95610700  1
  H  H36  1  0.30242900  0.43932600  0.42853600  1
  H  H37  1  0.67511900  0.60156400  0.01005000  1
  H  H38  1  0.07823000  0.08131900  0.70923600  1
  H  H39  1  0.06177900  0.93970000  0.87715500  1
  H  H40  1  0.42177000  0.08131900  0.20923600  1
  H  H41  1  0.55481700  0.84261300  0.10942200  1
  H  H42  1  0.07438800  0.03015400  0.12989800  1
  H  H43  1  0.97663500  0.66909600  0.92319400  1
  H  H44  1  0.47751200  0.28175300  0.94343500  1
  H  H45  1  0.54615600  0.24643300  0.68791800  1
  H  H46  1  0.19757100  0.43932600  0.92853600  1
  H  H47  1  0.50942400  0.77930400  0.75977100  1
  H  H48  1  0.27146500  0.32792400  0.83829200  1
  H  H49  1  0.45700900  0.39425100  0.81734400  1
  H  H50  1  0.54299100  0.60574900  0.18265600  1
  H  H51  1  0.43822100  0.93970000  0.37715500  1
  H  H52  1  0.43204500  0.89661500  0.80144200  1
  H  H53  1  0.93822100  0.06030000  0.12284500  1
  H  H54  1  0.77146500  0.67207600  0.66170800  1
  H  H55  1  0.52336500  0.66909600  0.42319400  1
  H  H56  1  0.45384400  0.75356700  0.31208200  1
  H  H57  1  0.72853500  0.67207600  0.16170800  1
  H  H58  1  0.92177000  0.91868100  0.29076400  1
  H  H59  1  0.57438800  0.96984600  0.37010200  1
  H  H60  1  0.09973400  0.22561200  0.18558300  1
  H  H61  1  0.56795500  0.10338500  0.19855800  1
  H  H62  1  0.95384400  0.24643300  0.18791800  1
  H  H63  1  0.00942400  0.22069600  0.74022900  1
  H  H64  1  0.02248800  0.28175300  0.44343500  1
  H  H65  1  0.81603700  0.43605000  0.63521300  1
  H  H66  1  0.94518300  0.84261300  0.60942200  1
  H  H67  1  0.82488100  0.60156400  0.51005000  1
  C  C68  1  0.99644300  0.90050700  0.26074800  1
  C  C69  1  0.52233800  0.77369600  0.34756100  1
  C  C70  1  0.50355700  0.90050700  0.76074800  1
  C  C71  1  0.21369400  0.43499400  0.42237700  1
  C  C72  1  0.47766200  0.22630400  0.65243900  1
  C  C73  1  0.02233800  0.22630400  0.15243900  1
  C  C74  1  0.56843900  0.71809500  0.11307600  1
  C  C75  1  0.97766200  0.77369600  0.84756100  1
  C  C76  1  0.43156100  0.28190500  0.88692400  1
  C  C77  1  0.49644300  0.09949300  0.23925200  1
  C  C78  1  0.93156100  0.71809500  0.61307600  1
  C  C79  1  0.78630600  0.56500600  0.57762300  1
  C  C80  1  0.00355700  0.09949300  0.73925200  1
  C  C81  1  0.71369400  0.56500600  0.07762300  1
  C  C82  1  0.06843900  0.28190500  0.38692400  1
  C  C83  1  0.28630600  0.43499400  0.92237700  1
  Br  Br84  1  0.21254600  0.45557400  0.67975200  1
  Br  Br85  1  0.24622100  0.88343100  0.41363500  1
  Br  Br86  1  0.74622100  0.11656900  0.08636500  1
  Br  Br87  1  0.25377900  0.88343100  0.91363500  1
  Br  Br88  1  0.76288100  0.04846700  0.37464900  1
  Br  Br89  1  0.49597700  0.71073300  0.59765100  1
  Br  Br90  1  0.75377900  0.11656900  0.58636500  1
  Br  Br91  1  0.50402300  0.28926700  0.40234900  1
  Br  Br92  1  0.71254600  0.54442600  0.82024800  1
  Br  Br93  1  0.99597700  0.28926700  0.90234900  1
  Br  Br94  1  0.78745400  0.54442600  0.32024800  1
  Br  Br95  1  0.28745400  0.45557400  0.17975200  1
  Br  Br96  1  0.23711900  0.95153300  0.62535100  1
  Br  Br97  1  0.00402300  0.71073300  0.09765100  1
  Br  Br98  1  0.73711900  0.04846700  0.87464900  1
  Br  Br99  1  0.26288100  0.95153300  0.12535100  1
  N  N100  1  0.00780900  0.05309500  0.16079100  1
  N  N101  1  0.18728600  0.29785400  0.40041900  1
  N  N102  1  0.49219100  0.05309500  0.66079100  1
  N  N103  1  0.31271400  0.29785400  0.90041900  1
  N  N104  1  0.81271400  0.70214600  0.59958100  1
  N  N105  1  0.50780900  0.94690500  0.33920900  1
  N  N106  1  0.68728600  0.70214600  0.09958100  1
  N  N107  1  0.99219100  0.94690500  0.83920900  1
