# generated using pymatgen
data_Mn11Si19
_symmetry_space_group_name_H-M   'P 1'
_cell_length_a   5.49093527
_cell_length_b   5.49093527
_cell_length_c   47.72219037
_cell_angle_alpha   90.00000000
_cell_angle_beta   90.00000000
_cell_angle_gamma   90.00000000
_symmetry_Int_Tables_number   1
_chemical_formula_structural   Mn11Si19
_chemical_formula_sum   'Mn44 Si76'
_cell_volume   1438.84170352
_cell_formula_units_Z   4
loop_
 _symmetry_equiv_pos_site_id
 _symmetry_equiv_pos_as_xyz
  1  'x, y, z'
loop_
 _atom_site_type_symbol
 _atom_site_label
 _atom_site_symmetry_multiplicity
 _atom_site_fract_x
 _atom_site_fract_y
 _atom_site_fract_z
 _atom_site_occupancy
  Mn  Mn0  1  0.00000000  0.50000000  0.52362585  1
  Mn  Mn1  1  0.00000000  0.50000000  0.43023076  1
  Mn  Mn2  1  0.50000000  0.00000000  0.11151863  1
  Mn  Mn3  1  0.50000000  0.50000000  0.95256019  1
  Mn  Mn4  1  0.50000000  0.00000000  0.56976924  1
  Mn  Mn5  1  0.50000000  0.50000000  0.77079706  1
  Mn  Mn6  1  0.50000000  0.00000000  0.47637415  1
  Mn  Mn7  1  0.00000000  0.50000000  0.70627545  1
  Mn  Mn8  1  0.50000000  0.00000000  0.93023076  1
  Mn  Mn9  1  0.00000000  0.50000000  0.61151863  1
  Mn  Mn10  1  0.50000000  0.00000000  0.29372455  1
  Mn  Mn11  1  0.50000000  0.00000000  0.84111985  1
  Mn  Mn12  1  0.00000000  0.00000000  0.91003645  1
  Mn  Mn13  1  0.00000000  0.00000000  0.45256019  1
  Mn  Mn14  1  0.00000000  0.50000000  0.79372455  1
  Mn  Mn15  1  0.00000000  0.00000000  0.27079706  1
  Mn  Mn16  1  0.50000000  0.50000000  0.58996355  1
  Mn  Mn17  1  0.50000000  0.50000000  0.04743981  1
  Mn  Mn18  1  0.00000000  0.00000000  0.00000000  1
  Mn  Mn19  1  0.00000000  0.00000000  0.72920294  1
  Mn  Mn20  1  0.50000000  0.50000000  0.13512452  1
  Mn  Mn21  1  0.50000000  0.00000000  0.38848137  1
  Mn  Mn22  1  0.50000000  0.50000000  0.86487548  1
  Mn  Mn23  1  0.50000000  0.50000000  0.22920294  1
  Mn  Mn24  1  0.00000000  0.50000000  0.34111985  1
  Mn  Mn25  1  0.00000000  0.50000000  0.06976924  1
  Mn  Mn26  1  0.50000000  0.00000000  0.02362585  1
  Mn  Mn27  1  0.00000000  0.50000000  0.15888015  1
  Mn  Mn28  1  0.50000000  0.50000000  0.41003645  1
  Mn  Mn29  1  0.50000000  0.00000000  0.65888015  1
  Mn  Mn30  1  0.00000000  0.00000000  0.08996355  1
  Mn  Mn31  1  0.50000000  0.00000000  0.75000000  1
  Mn  Mn32  1  0.50000000  0.50000000  0.50000000  1
  Mn  Mn33  1  0.00000000  0.00000000  0.63512452  1
  Mn  Mn34  1  0.00000000  0.00000000  0.81760394  1
  Mn  Mn35  1  0.00000000  0.50000000  0.97637415  1
  Mn  Mn36  1  0.50000000  0.50000000  0.68239606  1
  Mn  Mn37  1  0.50000000  0.00000000  0.20627545  1
  Mn  Mn38  1  0.00000000  0.50000000  0.25000000  1
  Mn  Mn39  1  0.00000000  0.00000000  0.54743981  1
  Mn  Mn40  1  0.50000000  0.50000000  0.31760394  1
  Mn  Mn41  1  0.00000000  0.00000000  0.36487548  1
  Mn  Mn42  1  0.00000000  0.50000000  0.88848137  1
  Mn  Mn43  1  0.00000000  0.00000000  0.18239606  1
  Si  Si44  1  0.31983072  0.34220330  0.27489204  1
  Si  Si45  1  0.34695065  0.25877425  0.17168009  1
  Si  Si46  1  0.34705831  0.71772441  0.35678867  1
  Si  Si47  1  0.15364879  0.70428108  0.30055882  1
  Si  Si48  1  0.66553102  0.16553102  0.25000000  1
  Si  Si49  1  0.65986720  0.82586200  0.43327573  1
  Si  Si50  1  0.17413800  0.65986720  0.56672427  1
  Si  Si51  1  0.65306371  0.22941579  0.98574642  1
  Si  Si52  1  0.19547408  0.15409247  0.95851715  1
  Si  Si53  1  0.28227559  0.34705831  0.64321133  1
  Si  Si54  1  0.65294169  0.28227559  0.35678867  1
  Si  Si55  1  0.78227559  0.15294169  0.14321133  1
  Si  Si56  1  0.27058421  0.84693629  0.51425358  1
  Si  Si57  1  0.84013280  0.32586200  0.93327573  1
  Si  Si58  1  0.25877425  0.65304935  0.82831991  1
  Si  Si59  1  0.34437982  0.81188340  0.61673019  1
  Si  Si60  1  0.15294169  0.21772441  0.85678867  1
  Si  Si61  1  0.32586200  0.15986720  0.06672427  1
  Si  Si62  1  0.34590753  0.30452592  0.54148285  1
  Si  Si63  1  0.84635121  0.29571892  0.30055882  1
  Si  Si64  1  0.75877425  0.84695065  0.32831991  1
  Si  Si65  1  0.84590753  0.19547408  0.04148285  1
  Si  Si66  1  0.31188340  0.84437982  0.88326981  1
  Si  Si67  1  0.74122575  0.34695065  0.82831991  1
  Si  Si68  1  0.33782796  0.33032223  0.90830119  1
  Si  Si69  1  0.16553102  0.33446898  0.75000000  1
  Si  Si70  1  0.65409247  0.69547408  0.54148285  1
  Si  Si71  1  0.29571892  0.15364879  0.69944118  1
  Si  Si72  1  0.70428108  0.84635121  0.69944118  1
  Si  Si73  1  0.22941579  0.34693629  0.01425358  1
  Si  Si74  1  0.79571892  0.34635121  0.19944118  1
  Si  Si75  1  0.84705831  0.78227559  0.85678867  1
  Si  Si76  1  0.21772441  0.84705831  0.14321133  1
  Si  Si77  1  0.83032223  0.83782796  0.59169881  1
  Si  Si78  1  0.33032223  0.66217204  0.09169881  1
  Si  Si79  1  0.80452592  0.84590753  0.95851715  1
  Si  Si80  1  0.71772441  0.65294169  0.64321133  1
  Si  Si81  1  0.77058421  0.65306371  0.01425358  1
  Si  Si82  1  0.16217204  0.83032223  0.40830119  1
  Si  Si83  1  0.83782796  0.16967777  0.40830119  1
  Si  Si84  1  0.65364879  0.79571892  0.80055882  1
  Si  Si85  1  0.16967777  0.16217204  0.59169881  1
  Si  Si86  1  0.67413800  0.84013280  0.06672427  1
  Si  Si87  1  0.72941579  0.15306371  0.51425358  1
  Si  Si88  1  0.34635121  0.20428108  0.80055882  1
  Si  Si89  1  0.84437982  0.68811660  0.11673019  1
  Si  Si90  1  0.65562018  0.18811660  0.61673019  1
  Si  Si91  1  0.68811660  0.15562018  0.88326981  1
  Si  Si92  1  0.30452592  0.65409247  0.45851715  1
  Si  Si93  1  0.18811660  0.34437982  0.38326981  1
  Si  Si94  1  0.15304935  0.75877425  0.67168009  1
  Si  Si95  1  0.34693629  0.77058421  0.98574642  1
  Si  Si96  1  0.18016928  0.84220330  0.77489204  1
  Si  Si97  1  0.84220330  0.81983072  0.22510796  1
  Si  Si98  1  0.81983072  0.15779670  0.77489204  1
  Si  Si99  1  0.84693629  0.72941579  0.48574642  1
  Si  Si100  1  0.81188340  0.65562018  0.38326981  1
  Si  Si101  1  0.82586200  0.34013280  0.56672427  1
  Si  Si102  1  0.68016928  0.65779670  0.27489204  1
  Si  Si103  1  0.20428108  0.65364879  0.19944118  1
  Si  Si104  1  0.24122575  0.15304935  0.32831991  1
  Si  Si105  1  0.69547408  0.34590753  0.45851715  1
  Si  Si106  1  0.66967777  0.33782796  0.09169881  1
  Si  Si107  1  0.34013280  0.17413800  0.43327573  1
  Si  Si108  1  0.15562018  0.31188340  0.11673019  1
  Si  Si109  1  0.84695065  0.24122575  0.67168009  1
  Si  Si110  1  0.83446898  0.66553102  0.75000000  1
  Si  Si111  1  0.65304935  0.74122575  0.17168009  1
  Si  Si112  1  0.15779670  0.18016928  0.22510796  1
  Si  Si113  1  0.33446898  0.83446898  0.25000000  1
  Si  Si114  1  0.66217204  0.66967777  0.90830119  1
  Si  Si115  1  0.34220330  0.68016928  0.72510796  1
  Si  Si116  1  0.15986720  0.67413800  0.93327573  1
  Si  Si117  1  0.15306371  0.27058421  0.48574642  1
  Si  Si118  1  0.65779670  0.31983072  0.72510796  1
  Si  Si119  1  0.15409247  0.80452592  0.04148285  1
