# generated using pymatgen
data_Dy12C6I17
_symmetry_space_group_name_H-M   'P 1'
_cell_length_a   11.60890795
_cell_length_b   11.60890795
_cell_length_c   18.71395836
_cell_angle_alpha   89.25728336
_cell_angle_beta   89.25728336
_cell_angle_gamma   63.75276568
_symmetry_Int_Tables_number   1
_chemical_formula_structural   Dy12C6I17
_chemical_formula_sum   'Dy24 C12 I34'
_cell_volume   2261.72060072
_cell_formula_units_Z   2
loop_
 _symmetry_equiv_pos_site_id
 _symmetry_equiv_pos_as_xyz
  1  'x, y, z'
loop_
 _atom_site_type_symbol
 _atom_site_label
 _atom_site_symmetry_multiplicity
 _atom_site_fract_x
 _atom_site_fract_y
 _atom_site_fract_z
 _atom_site_occupancy
  Dy  Dy0  1  0.69852500  0.29699700  0.47682200  1
  Dy  Dy1  1  0.53165700  0.54757900  0.12532800  1
  Dy  Dy2  1  0.98439600  0.92130000  0.84763800  1
  Dy  Dy3  1  0.41884000  0.89051700  0.61767700  1
  Dy  Dy4  1  0.33778900  0.80457800  0.78768400  1
  Dy  Dy5  1  0.45242100  0.46834300  0.37467200  1
  Dy  Dy6  1  0.07870000  0.01560400  0.65236200  1
  Dy  Dy7  1  0.01560400  0.07870000  0.15236200  1
  Dy  Dy8  1  0.46834300  0.45242100  0.87467200  1
  Dy  Dy9  1  0.66221100  0.19542200  0.21231600  1
  Dy  Dy10  1  0.10948300  0.58116000  0.88232300  1
  Dy  Dy11  1  0.80457800  0.33778900  0.28768400  1
  Dy  Dy12  1  0.35767500  0.36253700  0.05003900  1
  Dy  Dy13  1  0.29699700  0.69852500  0.97682200  1
  Dy  Dy14  1  0.19542200  0.66221100  0.71231600  1
  Dy  Dy15  1  0.70300300  0.30147500  0.02317800  1
  Dy  Dy16  1  0.58116000  0.10948300  0.38232300  1
  Dy  Dy17  1  0.54757900  0.53165700  0.62532800  1
  Dy  Dy18  1  0.30147500  0.70300300  0.52317800  1
  Dy  Dy19  1  0.63746300  0.64232500  0.44996100  1
  Dy  Dy20  1  0.64232500  0.63746300  0.94996100  1
  Dy  Dy21  1  0.89051700  0.41884000  0.11767700  1
  Dy  Dy22  1  0.36253700  0.35767500  0.55003900  1
  Dy  Dy23  1  0.92130000  0.98439600  0.34763800  1
  C  C24  1  0.46726900  0.46475600  0.51214800  1
  C  C25  1  0.82981700  0.25322400  0.15374700  1
  C  C26  1  0.53524400  0.53273100  0.98785200  1
  C  C27  1  0.28692500  0.63122600  0.84966100  1
  C  C28  1  0.74677600  0.17018300  0.34625300  1
  C  C29  1  0.53273100  0.53524400  0.48785200  1
  C  C30  1  0.25322400  0.82981700  0.65374700  1
  C  C31  1  0.46475600  0.46726900  0.01214800  1
  C  C32  1  0.36877400  0.71307500  0.65033900  1
  C  C33  1  0.71307500  0.36877400  0.15033900  1
  C  C34  1  0.63122600  0.28692500  0.34966100  1
  C  C35  1  0.17018300  0.74677600  0.84625300  1
  I  I36  1  0.57334600  0.62793300  0.29238500  1
  I  I37  1  0.80749500  0.28589600  0.63608400  1
  I  I38  1  0.50291400  0.03624900  0.24855900  1
  I  I39  1  0.90517800  0.89121700  0.69769000  1
  I  I40  1  0.70652100  0.68993900  0.59965600  1
  I  I41  1  0.60597000  0.09814600  0.54698600  1
  I  I42  1  0.49708600  0.96375100  0.75144100  1
  I  I43  1  0.39972000  0.89231500  0.93845500  1
  I  I44  1  0.00000000  0.00000000  0.50000000  1
  I  I45  1  0.71410400  0.19250500  0.86391600  1
  I  I46  1  0.29347900  0.31006100  0.40034400  1
  I  I47  1  0.31006100  0.29347900  0.90034400  1
  I  I48  1  0.90185400  0.39403000  0.95301400  1
  I  I49  1  0.39403000  0.90185400  0.45301400  1
  I  I50  1  0.89231500  0.39972000  0.43845500  1
  I  I51  1  0.96375100  0.49708600  0.25144100  1
  I  I52  1  0.60028000  0.10768500  0.06154500  1
  I  I53  1  0.37206700  0.42665400  0.20761500  1
  I  I54  1  0.89121700  0.90517800  0.19769000  1
  I  I55  1  0.68993900  0.70652100  0.09965600  1
  I  I56  1  0.82305100  0.78527900  0.89848200  1
  I  I57  1  0.03624900  0.50291400  0.74855900  1
  I  I58  1  0.09814600  0.60597000  0.04698600  1
  I  I59  1  0.17694900  0.21472100  0.10151800  1
  I  I60  1  0.62793300  0.57334600  0.79238500  1
  I  I61  1  0.42665400  0.37206700  0.70761500  1
  I  I62  1  0.78527900  0.82305100  0.39848200  1
  I  I63  1  0.00000000  0.00000000  0.00000000  1
  I  I64  1  0.19250500  0.71410400  0.36391600  1
  I  I65  1  0.21472100  0.17694900  0.60151800  1
  I  I66  1  0.10768500  0.60028000  0.56154500  1
  I  I67  1  0.10878300  0.09482200  0.80231000  1
  I  I68  1  0.09482200  0.10878300  0.30231000  1
  I  I69  1  0.28589600  0.80749500  0.13608400  1
