# generated using pymatgen
data_TlCoCl3
_symmetry_space_group_name_H-M   'P 1'
_cell_length_a   5.88928100
_cell_length_b   12.20024500
_cell_length_c   14.01640900
_cell_angle_alpha   90.00000000
_cell_angle_beta   90.00000000
_cell_angle_gamma   90.00000000
_symmetry_Int_Tables_number   1
_chemical_formula_structural   TlCoCl3
_chemical_formula_sum   'Tl8 Co8 Cl24'
_cell_volume   1007.08839270
_cell_formula_units_Z   8
loop_
 _symmetry_equiv_pos_site_id
 _symmetry_equiv_pos_as_xyz
  1  'x, y, z'
loop_
 _atom_site_type_symbol
 _atom_site_label
 _atom_site_symmetry_multiplicity
 _atom_site_fract_x
 _atom_site_fract_y
 _atom_site_fract_z
 _atom_site_occupancy
  Tl  Tl0  1  0.75073800  0.58153500  0.87682900  1
  Tl  Tl1  1  0.25073800  0.91846500  0.87682900  1
  Tl  Tl2  1  0.24926200  0.41846500  0.12317100  1
  Tl  Tl3  1  0.74926200  0.58153500  0.37682900  1
  Tl  Tl4  1  0.24926200  0.91846500  0.37682900  1
  Tl  Tl5  1  0.75073800  0.08153500  0.62317100  1
  Tl  Tl6  1  0.74926200  0.08153500  0.12317100  1
  Tl  Tl7  1  0.25073800  0.41846500  0.62317100  1
  Co  Co8  1  0.54281900  0.25026400  0.87451300  1
  Co  Co9  1  0.54281900  0.75026400  0.62548700  1
  Co  Co10  1  0.45718100  0.74973600  0.12548700  1
  Co  Co11  1  0.45718100  0.24973600  0.37451300  1
  Co  Co12  1  0.04281900  0.24973600  0.87451300  1
  Co  Co13  1  0.95718100  0.25026400  0.37451300  1
  Co  Co14  1  0.95718100  0.75026400  0.12548700  1
  Co  Co15  1  0.04281900  0.74973600  0.62548700  1
  Cl  Cl16  1  0.79449600  0.59146600  0.62532600  1
  Cl  Cl17  1  0.70408100  0.32886700  0.25588000  1
  Cl  Cl18  1  0.79469600  0.32843300  0.99444800  1
  Cl  Cl19  1  0.79591900  0.32886700  0.75588000  1
  Cl  Cl20  1  0.20530400  0.17156700  0.49444800  1
  Cl  Cl21  1  0.20550400  0.90853400  0.12532600  1
  Cl  Cl22  1  0.70550400  0.59146600  0.12532600  1
  Cl  Cl23  1  0.70530400  0.82843300  0.00555200  1
  Cl  Cl24  1  0.79469600  0.82843300  0.50555200  1
  Cl  Cl25  1  0.70530400  0.32843300  0.49444800  1
  Cl  Cl26  1  0.29449600  0.90853400  0.62532600  1
  Cl  Cl27  1  0.20408100  0.67113300  0.24412000  1
  Cl  Cl28  1  0.29469600  0.17156700  0.99444800  1
  Cl  Cl29  1  0.20530400  0.67156700  0.00555200  1
  Cl  Cl30  1  0.29591900  0.17113300  0.75588000  1
  Cl  Cl31  1  0.20550400  0.40853400  0.37467400  1
  Cl  Cl32  1  0.79591900  0.82886700  0.74412000  1
  Cl  Cl33  1  0.29449600  0.40853400  0.87467400  1
  Cl  Cl34  1  0.79449600  0.09146600  0.87467400  1
  Cl  Cl35  1  0.70550400  0.09146600  0.37467400  1
  Cl  Cl36  1  0.29469600  0.67156700  0.50555200  1
  Cl  Cl37  1  0.70408100  0.82886700  0.24412000  1
  Cl  Cl38  1  0.20408100  0.17113300  0.25588000  1
  Cl  Cl39  1  0.29591900  0.67113300  0.74412000  1
