# generated using pymatgen
data_Sr11Ga4Sn3
_symmetry_space_group_name_H-M   'P 1'
_cell_length_a   12.24444346
_cell_length_b   12.24444346
_cell_length_c   12.24444346
_cell_angle_alpha   60.00000000
_cell_angle_beta   60.00000000
_cell_angle_gamma   60.00000000
_symmetry_Int_Tables_number   1
_chemical_formula_structural   Sr11Ga4Sn3
_chemical_formula_sum   'Sr22 Ga8 Sn6'
_cell_volume   1298.08207327
_cell_formula_units_Z   2
loop_
 _symmetry_equiv_pos_site_id
 _symmetry_equiv_pos_as_xyz
  1  'x, y, z'
loop_
 _atom_site_type_symbol
 _atom_site_label
 _atom_site_symmetry_multiplicity
 _atom_site_fract_x
 _atom_site_fract_y
 _atom_site_fract_z
 _atom_site_occupancy
  Sr  Sr0  1  0.86929300  0.86929300  0.39212000  1
  Sr  Sr1  1  0.60788000  0.13070700  0.13070700  1
  Sr  Sr2  1  0.86929300  0.39212000  0.86929300  1
  Sr  Sr3  1  0.13070700  0.13070700  0.13070700  1
  Sr  Sr4  1  0.39212000  0.86929300  0.86929300  1
  Sr  Sr5  1  0.86929300  0.86929300  0.86929300  1
  Sr  Sr6  1  0.16552700  0.83447300  0.50000000  1
  Sr  Sr7  1  0.83447300  0.50000000  0.50000000  1
  Sr  Sr8  1  0.13070700  0.13070700  0.60788000  1
  Sr  Sr9  1  0.83447300  0.16552700  0.50000000  1
  Sr  Sr10  1  0.16552700  0.50000000  0.50000000  1
  Sr  Sr11  1  0.13070700  0.60788000  0.13070700  1
  Sr  Sr12  1  0.50000000  0.50000000  0.16552700  1
  Sr  Sr13  1  0.50000000  0.16552700  0.83447300  1
  Sr  Sr14  1  0.50000000  0.83447300  0.16552700  1
  Sr  Sr15  1  0.50000000  0.50000000  0.50000000  1
  Sr  Sr16  1  0.50000000  0.50000000  0.83447300  1
  Sr  Sr17  1  0.50000000  0.16552700  0.50000000  1
  Sr  Sr18  1  0.16552700  0.50000000  0.83447300  1
  Sr  Sr19  1  0.00000000  0.00000000  0.00000000  1
  Sr  Sr20  1  0.50000000  0.83447300  0.50000000  1
  Sr  Sr21  1  0.83447300  0.50000000  0.16552700  1
  Ga  Ga22  1  0.69369700  0.91891000  0.69369700  1
  Ga  Ga23  1  0.69369700  0.69369700  0.91891000  1
  Ga  Ga24  1  0.69369700  0.69369700  0.69369700  1
  Ga  Ga25  1  0.30630300  0.08109000  0.30630300  1
  Ga  Ga26  1  0.91891000  0.69369700  0.69369700  1
  Ga  Ga27  1  0.30630300  0.30630300  0.08109000  1
  Ga  Ga28  1  0.08109000  0.30630300  0.30630300  1
  Ga  Ga29  1  0.30630300  0.30630300  0.30630300  1
  Sn  Sn30  1  0.78315500  0.21684500  0.78315500  1
  Sn  Sn31  1  0.78315500  0.21684500  0.21684500  1
  Sn  Sn32  1  0.21684500  0.78315500  0.21684500  1
  Sn  Sn33  1  0.21684500  0.78315500  0.78315500  1
  Sn  Sn34  1  0.78315500  0.78315500  0.21684500  1
  Sn  Sn35  1  0.21684500  0.21684500  0.78315500  1
