# generated using pymatgen
data_SrCd(IO2)4
_symmetry_space_group_name_H-M   'P 1'
_cell_length_a   8.62242100
_cell_length_b   15.41216500
_cell_length_c   20.78463800
_cell_angle_alpha   90.00000000
_cell_angle_beta   90.00000000
_cell_angle_gamma   90.00000000
_symmetry_Int_Tables_number   1
_chemical_formula_structural   SrCd(IO2)4
_chemical_formula_sum   'Sr8 Cd8 I32 O64'
_cell_volume   2762.07418428
_cell_formula_units_Z   8
loop_
 _symmetry_equiv_pos_site_id
 _symmetry_equiv_pos_as_xyz
  1  'x, y, z'
loop_
 _atom_site_type_symbol
 _atom_site_label
 _atom_site_symmetry_multiplicity
 _atom_site_fract_x
 _atom_site_fract_y
 _atom_site_fract_z
 _atom_site_occupancy
  Sr  Sr0  1  0.26583700  0.51955900  0.94970300  1
  Sr  Sr1  1  0.76583700  0.98044100  0.55029700  1
  Sr  Sr2  1  0.73416300  0.48044100  0.44970300  1
  Sr  Sr3  1  0.23416300  0.01955900  0.05029700  1
  Sr  Sr4  1  0.73416300  0.48044100  0.05029700  1
  Sr  Sr5  1  0.23416300  0.01955900  0.44970300  1
  Sr  Sr6  1  0.26583700  0.51955900  0.55029700  1
  Sr  Sr7  1  0.76583700  0.98044100  0.94970300  1
  Cd  Cd8  1  0.65221400  0.78415500  0.25000000  1
  Cd  Cd9  1  0.15221400  0.71584500  0.25000000  1
  Cd  Cd10  1  0.34778600  0.21584500  0.75000000  1
  Cd  Cd11  1  0.84778600  0.28415500  0.75000000  1
  Cd  Cd12  1  0.34382300  0.28251300  0.25000000  1
  Cd  Cd13  1  0.84382300  0.21748700  0.25000000  1
  Cd  Cd14  1  0.65617700  0.71748700  0.75000000  1
  Cd  Cd15  1  0.15617700  0.78251300  0.75000000  1
  I  I16  1  0.56127200  0.08081600  0.25000000  1
  I  I17  1  0.06127200  0.41918400  0.25000000  1
  I  I18  1  0.43872800  0.91918400  0.75000000  1
  I  I19  1  0.93872800  0.58081600  0.75000000  1
  I  I20  1  0.86055500  0.64495700  0.25000000  1
  I  I21  1  0.36055500  0.85504300  0.25000000  1
  I  I22  1  0.13944500  0.35504300  0.75000000  1
  I  I23  1  0.63944500  0.14495700  0.75000000  1
  I  I24  1  0.48976600  0.65226900  0.08980200  1
  I  I25  1  0.98976600  0.84773100  0.41019800  1
  I  I26  1  0.51023400  0.34773100  0.58980200  1
  I  I27  1  0.01023400  0.15226900  0.91019800  1
  I  I28  1  0.51023400  0.34773100  0.91019800  1
  I  I29  1  0.01023400  0.15226900  0.58980200  1
  I  I30  1  0.48976600  0.65226900  0.41019800  1
  I  I31  1  0.98976600  0.84773100  0.08980200  1
  I  I32  1  0.42255600  0.57709100  0.25000000  1
  I  I33  1  0.92255600  0.92290900  0.25000000  1
  I  I34  1  0.57744400  0.42290900  0.75000000  1
  I  I35  1  0.07744400  0.07709100  0.75000000  1
  I  I36  1  0.49515300  0.16692200  0.10070500  1
  I  I37  1  0.99515300  0.33307800  0.39929500  1
  I  I38  1  0.50484700  0.83307800  0.60070500  1
  I  I39  1  0.00484700  0.66692200  0.89929500  1
  I  I40  1  0.50484700  0.83307800  0.89929500  1
  I  I41  1  0.00484700  0.66692200  0.60070500  1
  I  I42  1  0.49515300  0.16692200  0.39929500  1
  I  I43  1  0.99515300  0.33307800  0.10070500  1
  I  I44  1  0.13278400  0.14130300  0.25000000  1
  I  I45  1  0.63278400  0.35869700  0.25000000  1
  I  I46  1  0.86721600  0.85869700  0.75000000  1
  I  I47  1  0.36721600  0.64130300  0.75000000  1
  O  O48  1  0.19552400  0.36806300  0.31558200  1
  O  O49  1  0.69552400  0.13193700  0.18441800  1
  O  O50  1  0.80447600  0.63193700  0.81558200  1
  O  O51  1  0.30447600  0.86806300  0.68441800  1
  O  O52  1  0.80447600  0.63193700  0.68441800  1
  O  O53  1  0.30447600  0.86806300  0.81558200  1
  O  O54  1  0.19552400  0.36806300  0.18441800  1
  O  O55  1  0.69552400  0.13193700  0.31558200  1
  O  O56  1  0.49259800  0.95639900  0.49361800  1
  O  O57  1  0.99259800  0.54360100  0.00638200  1
  O  O58  1  0.50740200  0.04360100  0.99361800  1
  O  O59  1  0.00740200  0.45639900  0.50638200  1
  O  O60  1  0.50740200  0.04360100  0.50638200  1
  O  O61  1  0.00740200  0.45639900  0.99361800  1
  O  O62  1  0.49259800  0.95639900  0.00638200  1
  O  O63  1  0.99259800  0.54360100  0.49361800  1
  O  O64  1  0.02805800  0.09117200  0.51370600  1
  O  O65  1  0.52805800  0.40882800  0.98629400  1
  O  O66  1  0.97194200  0.90882800  0.01370600  1
  O  O67  1  0.47194200  0.59117200  0.48629400  1
  O  O68  1  0.97194200  0.90882800  0.48629400  1
  O  O69  1  0.47194200  0.59117200  0.01370600  1
  O  O70  1  0.02805800  0.09117200  0.98629400  1
  O  O71  1  0.52805800  0.40882800  0.51370600  1
  O  O72  1  0.78811500  0.87554600  0.18476500  1
  O  O73  1  0.28811500  0.62445400  0.31523500  1
  O  O74  1  0.21188500  0.12445400  0.68476500  1
  O  O75  1  0.71188500  0.37554600  0.81523500  1
  O  O76  1  0.21188500  0.12445400  0.81523500  1
  O  O77  1  0.71188500  0.37554600  0.68476500  1
  O  O78  1  0.78811500  0.87554600  0.31523500  1
  O  O79  1  0.28811500  0.62445400  0.18476500  1
  O  O80  1  0.05974500  0.94370500  0.13622000  1
  O  O81  1  0.55974500  0.55629500  0.36378000  1
  O  O82  1  0.94025500  0.05629500  0.63622000  1
  O  O83  1  0.44025500  0.44370500  0.86378000  1
  O  O84  1  0.94025500  0.05629500  0.86378000  1
  O  O85  1  0.44025500  0.44370500  0.63622000  1
  O  O86  1  0.05974500  0.94370500  0.36378000  1
  O  O87  1  0.55974500  0.55629500  0.13622000  1
  O  O88  1  0.82403600  0.20422200  0.57884100  1
  O  O89  1  0.32403600  0.29577800  0.92115900  1
  O  O90  1  0.17596400  0.79577800  0.07884100  1
  O  O91  1  0.67596400  0.70422200  0.42115900  1
  O  O92  1  0.17596400  0.79577800  0.42115900  1
  O  O93  1  0.67596400  0.70422200  0.07884100  1
  O  O94  1  0.82403600  0.20422200  0.92115900  1
  O  O95  1  0.32403600  0.29577800  0.57884100  1
  O  O96  1  0.30305100  0.18573000  0.06145000  1
  O  O97  1  0.80305100  0.31427000  0.43855000  1
  O  O98  1  0.69694900  0.81427000  0.56145000  1
  O  O99  1  0.19694900  0.68573000  0.93855000  1
  O  O100  1  0.69694900  0.81427000  0.93855000  1
  O  O101  1  0.19694900  0.68573000  0.56145000  1
  O  O102  1  0.30305100  0.18573000  0.43855000  1
  O  O103  1  0.80305100  0.31427000  0.06145000  1
  O  O104  1  0.92832100  0.43649400  0.35756100  1
  O  O105  1  0.42832100  0.06350600  0.14243900  1
  O  O106  1  0.07167900  0.56350600  0.85756100  1
  O  O107  1  0.57167900  0.93649400  0.64243900  1
  O  O108  1  0.07167900  0.56350600  0.64243900  1
  O  O109  1  0.57167900  0.93649400  0.85756100  1
  O  O110  1  0.92832100  0.43649400  0.14243900  1
  O  O111  1  0.42832100  0.06350600  0.35756100  1
