# generated using pymatgen
data_ReNCl4
_symmetry_space_group_name_H-M   'P 1'
_cell_length_a   6.55375976
_cell_length_b   6.55375976
_cell_length_c   6.55375976
_cell_angle_alpha   95.63047589
_cell_angle_beta   95.63047589
_cell_angle_gamma   143.49216336
_symmetry_Int_Tables_number   1
_chemical_formula_structural   ReNCl4
_chemical_formula_sum   'Re1 N1 Cl4'
_cell_volume   159.04340223
_cell_formula_units_Z   1
loop_
 _symmetry_equiv_pos_site_id
 _symmetry_equiv_pos_as_xyz
  1  'x, y, z'
loop_
 _atom_site_type_symbol
 _atom_site_label
 _atom_site_symmetry_multiplicity
 _atom_site_fract_x
 _atom_site_fract_y
 _atom_site_fract_z
 _atom_site_occupancy
  Re  Re0  1  0.98557900  0.98557900  0.00000000  1
  N  N1  1  0.57381800  0.57381800  0.00000000  1
  Cl  Cl2  1  0.82141900  0.00363700  0.68230500  1
  Cl  Cl3  1  0.13911400  0.82141900  0.81778100  1
  Cl  Cl4  1  0.00363700  0.32133300  0.18221900  1
  Cl  Cl5  1  0.32133300  0.13911400  0.31769500  1
