# generated using pymatgen
data_ScCu3HgSe4
_symmetry_space_group_name_H-M   'P 1'
_cell_length_a   5.94540200
_cell_length_b   5.94540200
_cell_length_c   5.94540200
_cell_angle_alpha   90.00000000
_cell_angle_beta   90.00000000
_cell_angle_gamma   90.00000000
_symmetry_Int_Tables_number   1
_chemical_formula_structural   ScCu3HgSe4
_chemical_formula_sum   'Sc1 Cu3 Hg1 Se4'
_cell_volume   210.15691020
_cell_formula_units_Z   1
loop_
 _symmetry_equiv_pos_site_id
 _symmetry_equiv_pos_as_xyz
  1  'x, y, z'
loop_
 _atom_site_type_symbol
 _atom_site_label
 _atom_site_symmetry_multiplicity
 _atom_site_fract_x
 _atom_site_fract_y
 _atom_site_fract_z
 _atom_site_occupancy
  Sc  Sc0  1  0.00000000  0.00000000  0.00000000  1
  Cu  Cu1  1  0.00000000  0.50000000  0.00000000  1
  Cu  Cu2  1  0.00000000  0.00000000  0.50000000  1
  Cu  Cu3  1  0.50000000  0.00000000  0.00000000  1
  Hg  Hg4  1  0.50000000  0.50000000  0.50000000  1
  Se  Se5  1  0.24263400  0.24263400  0.24263400  1
  Se  Se6  1  0.75736600  0.75736600  0.24263400  1
  Se  Se7  1  0.24263400  0.75736600  0.75736600  1
  Se  Se8  1  0.75736600  0.24263400  0.75736600  1
