# generated using pymatgen
data_Si2H2O3
_symmetry_space_group_name_H-M   'P 1'
_cell_length_a   8.56964000
_cell_length_b   10.66326132
_cell_length_c   12.26447011
_cell_angle_alpha   81.69406755
_cell_angle_beta   70.41649165
_cell_angle_gamma   66.78634631
_symmetry_Int_Tables_number   1
_chemical_formula_structural   Si2H2O3
_chemical_formula_sum   'Si20 H20 O30'
_cell_volume   970.31838495
_cell_formula_units_Z   10
loop_
 _symmetry_equiv_pos_site_id
 _symmetry_equiv_pos_as_xyz
  1  'x, y, z'
loop_
 _atom_site_type_symbol
 _atom_site_label
 _atom_site_symmetry_multiplicity
 _atom_site_fract_x
 _atom_site_fract_y
 _atom_site_fract_z
 _atom_site_occupancy
  Si  Si0  1  0.80739700  0.85824700  0.86869900  1
  Si  Si1  1  0.00900000  0.71263400  0.60432500  1
  Si  Si2  1  0.16965800  0.11797900  0.12522000  1
  Si  Si3  1  0.99386600  0.34352100  0.34262400  1
  Si  Si4  1  0.13754800  0.14526000  0.66750600  1
  Si  Si5  1  0.34651400  0.44920000  0.75733800  1
  Si  Si6  1  0.02129000  0.86889700  0.22596800  1
  Si  Si7  1  0.80122400  0.59140800  0.18090100  1
  Si  Si8  1  0.47162000  0.97079000  0.77200800  1
  Si  Si9  1  0.69633600  0.49329500  0.72262800  1
  Si  Si10  1  0.60510400  0.99322900  0.20819100  1
  Si  Si11  1  0.27977900  0.49529400  0.34376200  1
  Si  Si12  1  0.66152600  0.73932600  0.54006000  1
  Si  Si13  1  0.57870700  0.75566300  0.94149500  1
  Si  Si14  1  0.38427900  0.18114700  0.47131700  1
  Si  Si15  1  0.48623300  0.32007700  0.06211700  1
  Si  Si16  1  0.25992300  0.88092000  0.47529600  1
  Si  Si17  1  0.04242400  0.62841800  0.00290300  1
  Si  Si18  1  0.74653800  0.14980700  0.52740700  1
  Si  Si19  1  0.86061800  0.37115600  0.97993300  1
  H  H20  1  0.85004300  0.03996100  0.90883100  1
  H  H21  1  0.29131000  0.49149600  0.58556700  1
  H  H22  1  0.38325100  0.58899600  0.87300900  1
  H  H23  1  0.55761100  0.48626900  0.34144700  1
  H  H24  1  0.72431500  0.17369000  0.13900800  1
  H  H25  1  0.48394000  0.26295400  0.28648100  1
  H  H26  1  0.46487200  0.65839900  0.46794800  1
  H  H27  1  0.23862900  0.72859100  0.00253700  1
  H  H28  1  0.09145200  0.16000500  0.93113400  1
  H  H29  1  0.75213200  0.38813400  0.51016000  1
  H  H30  1  0.03121900  0.88465300  0.69821800  1
  H  H31  1  0.91823900  0.15981000  0.29934900  1
  H  H32  1  0.30155100  0.90346200  0.64758900  1
  H  H33  1  0.05222100  0.46480200  0.89262500  1
  H  H34  1  0.76858400  0.04940800  0.36414300  1
  H  H35  1  0.86036000  0.35166700  0.17197300  1
  H  H36  1  0.45008800  0.75883700  0.72962500  1
  H  H37  1  0.79388800  0.54472200  0.85229000  1
  H  H38  1  0.37526700  0.00096400  0.38623800  1
  H  H39  1  0.32458900  0.54194400  0.14103400  1
  O  O40  1  0.76368100  0.02143200  0.88493300  1
  O  O41  1  0.24409300  0.54947100  0.65331100  1
  O  O42  1  0.11545400  0.97964900  0.15640900  1
  O  O43  1  0.90736400  0.48911300  0.27407700  1
  O  O44  1  0.26609600  0.07803000  0.75756700  1
  O  O45  1  0.42907700  0.57093200  0.78786100  1
  O  O46  1  0.81007000  0.94884200  0.22151300  1
  O  O47  1  0.43136500  0.54273200  0.37287300  1
  O  O48  1  0.41309100  0.86901500  0.88982800  1
  O  O49  1  0.69312200  0.58010200  0.59624200  1
  O  O50  1  0.59834900  0.18382200  0.16410600  1
  O  O51  1  0.40371900  0.30834500  0.36242600  1
  O  O52  1  0.45665600  0.74545500  0.49384900  1
  O  O53  1  0.23643100  0.63624800  0.00923700  1
  O  O54  1  0.53796300  0.17760900  0.52554900  1
  O  O55  1  0.67663400  0.34440200  0.99153700  1
  O  O56  1  0.95234400  0.77780800  0.94433000  1
  O  O57  1  0.12598100  0.79419200  0.50743600  1
  O  O58  1  0.00794800  0.20404500  0.00493700  1
  O  O59  1  0.78390200  0.32963500  0.44468100  1
  O  O60  1  0.96378500  0.82198700  0.72571700  1
  O  O61  1  0.97868000  0.22392800  0.24068200  1
  O  O62  1  0.19641500  0.95513900  0.61720600  1
  O  O63  1  0.14084700  0.51295000  0.88419500  1
  O  O64  1  0.85087700  0.07471200  0.38754800  1
  O  O65  1  0.81005900  0.42790300  0.12038900  1
  O  O66  1  0.48817600  0.82666700  0.67467900  1
  O  O67  1  0.70700000  0.61349700  0.81330200  1
  O  O68  1  0.47261300  0.05228100  0.36414700  1
  O  O69  1  0.38309000  0.46101500  0.18416500  1
