# generated using pymatgen
data_SiPb(OF3)2
_symmetry_space_group_name_H-M   'P 1'
_cell_length_a   9.70687045
_cell_length_b   9.70687045
_cell_length_c   16.42218606
_cell_angle_alpha   72.32271977
_cell_angle_beta   72.32271977
_cell_angle_gamma   50.49670440
_symmetry_Int_Tables_number   1
_chemical_formula_structural   SiPb(OF3)2
_chemical_formula_sum   'Si8 Pb8 O16 F48'
_cell_volume   1124.62269133
_cell_formula_units_Z   8
loop_
 _symmetry_equiv_pos_site_id
 _symmetry_equiv_pos_as_xyz
  1  'x, y, z'
loop_
 _atom_site_type_symbol
 _atom_site_label
 _atom_site_symmetry_multiplicity
 _atom_site_fract_x
 _atom_site_fract_y
 _atom_site_fract_z
 _atom_site_occupancy
  Si  Si0  1  0.46141400  0.31859900  0.40524900  1
  Si  Si1  1  0.68140100  0.53858600  0.09475100  1
  Si  Si2  1  0.53858600  0.68140100  0.59475100  1
  Si  Si3  1  0.31859900  0.46141400  0.90524900  1
  Si  Si4  1  0.19475800  0.04346800  0.31735500  1
  Si  Si5  1  0.95653200  0.80524200  0.18264500  1
  Si  Si6  1  0.80524200  0.95653200  0.68264500  1
  Si  Si7  1  0.04346800  0.19475800  0.81735500  1
  Pb  Pb8  1  0.43586600  0.29060400  0.16440700  1
  Pb  Pb9  1  0.70939600  0.56413400  0.33559300  1
  Pb  Pb10  1  0.56413400  0.70939600  0.83559300  1
  Pb  Pb11  1  0.29060400  0.43586600  0.66440700  1
  Pb  Pb12  1  0.19718700  0.09060500  0.05412100  1
  Pb  Pb13  1  0.90939500  0.80281300  0.44587900  1
  Pb  Pb14  1  0.80281300  0.90939500  0.94587900  1
  Pb  Pb15  1  0.09060500  0.19718700  0.55412100  1
  O  O16  1  0.84497200  0.15502800  0.25000000  1
  O  O17  1  0.15502800  0.84497200  0.75000000  1
  O  O18  1  0.30709200  0.69290800  0.25000000  1
  O  O19  1  0.69290800  0.30709200  0.75000000  1
  O  O20  1  0.27149100  0.22709500  0.60339500  1
  O  O21  1  0.77290500  0.72850900  0.89660500  1
  O  O22  1  0.72850900  0.77290500  0.39660500  1
  O  O23  1  0.22709500  0.27149100  0.10339500  1
  O  O24  1  0.03398400  0.50630200  0.56831500  1
  O  O25  1  0.49369800  0.96601600  0.93168500  1
  O  O26  1  0.96601600  0.49369800  0.43168500  1
  O  O27  1  0.50630200  0.03398400  0.06831500  1
  O  O28  1  0.14372800  0.66404800  0.52565100  1
  O  O29  1  0.33595200  0.85627200  0.97434900  1
  O  O30  1  0.85627200  0.33595200  0.47434900  1
  O  O31  1  0.66404800  0.14372800  0.02565100  1
  F  F32  1  0.25869800  0.52792400  0.38976400  1
  F  F33  1  0.47207600  0.74130200  0.11023600  1
  F  F34  1  0.74130200  0.47207600  0.61023600  1
  F  F35  1  0.52792400  0.25869800  0.88976400  1
  F  F36  1  0.46240400  0.27453300  0.31169000  1
  F  F37  1  0.72546700  0.53759600  0.18831000  1
  F  F38  1  0.53759600  0.72546700  0.68831000  1
  F  F39  1  0.27453300  0.46240400  0.81169000  1
  F  F40  1  0.57718000  0.40652800  0.34745900  1
  F  F41  1  0.59347200  0.42282000  0.15254100  1
  F  F42  1  0.42282000  0.59347200  0.65254100  1
  F  F43  1  0.40652800  0.57718000  0.84745900  1
  F  F44  1  0.35462600  0.22005900  0.45960900  1
  F  F45  1  0.77994100  0.64537400  0.04039100  1
  F  F46  1  0.64537400  0.77994100  0.54039100  1
  F  F47  1  0.22005900  0.35462600  0.95960900  1
  F  F48  1  0.45910900  0.36103300  0.49849200  1
  F  F49  1  0.63896700  0.54089100  0.00150800  1
  F  F50  1  0.54089100  0.63896700  0.50150800  1
  F  F51  1  0.36103300  0.45910900  0.99849200  1
  F  F52  1  0.66800900  0.11083400  0.41673100  1
  F  F53  1  0.88916600  0.33199100  0.08326900  1
  F  F54  1  0.33199100  0.88916600  0.58326900  1
  F  F55  1  0.11083400  0.66800900  0.91673100  1
  F  F56  1  0.21220200  0.06207300  0.41309500  1
  F  F57  1  0.93792700  0.78779800  0.08690500  1
  F  F58  1  0.78779800  0.93792700  0.58690500  1
  F  F59  1  0.06207300  0.21220200  0.91309500  1
  F  F60  1  0.34993700  0.08362800  0.26276600  1
  F  F61  1  0.91637200  0.65006300  0.23723400  1
  F  F62  1  0.65006300  0.91637200  0.73723400  1
  F  F63  1  0.08362800  0.34993700  0.76276600  1
  F  F64  1  0.02232000  0.27043400  0.30021400  1
  F  F65  1  0.72956600  0.97768000  0.19978600  1
  F  F66  1  0.97768000  0.72956600  0.69978600  1
  F  F67  1  0.27043400  0.02232000  0.80021400  1
  F  F68  1  0.04167000  0.99878400  0.36884800  1
  F  F69  1  0.00121600  0.95833000  0.13115200  1
  F  F70  1  0.95833000  0.00121600  0.63115200  1
  F  F71  1  0.99878400  0.04167000  0.86884800  1
  F  F72  1  0.36925900  0.81405800  0.33083900  1
  F  F73  1  0.18594200  0.63074100  0.16916100  1
  F  F74  1  0.63074100  0.18594200  0.66916100  1
  F  F75  1  0.81405800  0.36925900  0.83083900  1
  F  F76  1  0.17816100  0.02345100  0.21926600  1
  F  F77  1  0.97654900  0.82183900  0.28073400  1
  F  F78  1  0.82183900  0.97654900  0.78073400  1
  F  F79  1  0.02345100  0.17816100  0.71926600  1
