# generated using pymatgen
data_SiO2
_symmetry_space_group_name_H-M   'P 1'
_cell_length_a   2.70132227
_cell_length_b   2.70132486
_cell_length_c   15.13663126
_cell_angle_alpha   90.13612436
_cell_angle_beta   89.86538128
_cell_angle_gamma   119.99945930
_symmetry_Int_Tables_number   1
_chemical_formula_structural   SiO2
_chemical_formula_sum   'Si3 O6'
_cell_volume   95.65635472
_cell_formula_units_Z   3
loop_
 _symmetry_equiv_pos_site_id
 _symmetry_equiv_pos_as_xyz
  1  'x, y, z'
loop_
 _atom_site_type_symbol
 _atom_site_label
 _atom_site_symmetry_multiplicity
 _atom_site_fract_x
 _atom_site_fract_y
 _atom_site_fract_z
 _atom_site_occupancy
  Si  Si0  1  0.81548000  0.00043800  0.66624600  1
  Si  Si1  1  0.18401700  0.18402900  0.00000400  1
  Si  Si2  1  0.00048700  0.81551900  0.33375000  1
  O  O3  1  0.85103800  0.51678100  0.93957400  1
  O  O4  1  0.48274600  0.33315400  0.60607300  1
  O  O5  1  0.51678600  0.85106900  0.06042900  1
  O  O6  1  0.66777500  0.14846800  0.27306600  1
  O  O7  1  0.14844900  0.66774200  0.72693300  1
  O  O8  1  0.33322100  0.48280000  0.39392600  1
