# generated using pymatgen
data_La16Al13
_symmetry_space_group_name_H-M   'P 1'
_cell_length_a   9.15293505
_cell_length_b   9.15293505
_cell_length_c   11.23199300
_cell_angle_alpha   90.00000000
_cell_angle_beta   90.00000000
_cell_angle_gamma   119.99999314
_symmetry_Int_Tables_number   1
_chemical_formula_structural   La16Al13
_chemical_formula_sum   'La16 Al13'
_cell_volume   814.90737293
_cell_formula_units_Z   1
loop_
 _symmetry_equiv_pos_site_id
 _symmetry_equiv_pos_as_xyz
  1  'x, y, z'
loop_
 _atom_site_type_symbol
 _atom_site_label
 _atom_site_symmetry_multiplicity
 _atom_site_fract_x
 _atom_site_fract_y
 _atom_site_fract_z
 _atom_site_occupancy
  La  La0  1  0.00000000  0.26121900  0.00000000  1
  La  La1  1  0.61361000  0.00000000  0.16336900  1
  La  La2  1  0.26121900  0.00000000  0.00000000  1
  La  La3  1  0.00000000  0.61361000  0.83663100  1
  La  La4  1  0.33333300  0.66666700  0.66279800  1
  La  La5  1  0.33333300  0.66666700  0.33720200  1
  La  La6  1  0.66666700  0.33333300  0.66279800  1
  La  La7  1  0.00000000  0.61361000  0.16336900  1
  La  La8  1  0.38639000  0.38639000  0.16336900  1
  La  La9  1  0.77091500  0.00000000  0.50000000  1
  La  La10  1  0.66666700  0.33333300  0.33720200  1
  La  La11  1  0.73878100  0.73878100  0.00000000  1
  La  La12  1  0.22908500  0.22908500  0.50000000  1
  La  La13  1  0.00000000  0.77091500  0.50000000  1
  La  La14  1  0.61361000  0.00000000  0.83663100  1
  La  La15  1  0.38639000  0.38639000  0.83663100  1
  Al  Al16  1  0.00000000  0.00000000  0.76387400  1
  Al  Al17  1  0.00000000  0.28607500  0.71044300  1
  Al  Al18  1  0.42079300  0.00000000  0.50000000  1
  Al  Al19  1  0.28607500  0.00000000  0.28955700  1
  Al  Al20  1  0.00000000  0.28607500  0.28955700  1
  Al  Al21  1  0.71392500  0.71392500  0.28955700  1
  Al  Al22  1  0.57920700  0.57920700  0.50000000  1
  Al  Al23  1  0.00000000  0.42079300  0.50000000  1
  Al  Al24  1  0.00000000  0.00000000  0.23612600  1
  Al  Al25  1  0.71392500  0.71392500  0.71044300  1
  Al  Al26  1  0.66666700  0.33333300  0.00000000  1
  Al  Al27  1  0.33333300  0.66666700  0.00000000  1
  Al  Al28  1  0.28607500  0.00000000  0.71044300  1
