# generated using pymatgen
data_FeSe2NCl6
_symmetry_space_group_name_H-M   'P 1'
_cell_length_a   11.82471000
_cell_length_b   10.21906000
_cell_length_c   10.93136585
_cell_angle_alpha   65.60837195
_cell_angle_beta   90.00000000
_cell_angle_gamma   90.00000000
_symmetry_Int_Tables_number   1
_chemical_formula_structural   FeSe2NCl6
_chemical_formula_sum   'Fe4 Se8 N4 Cl24'
_cell_volume   1203.01821188
_cell_formula_units_Z   4
loop_
 _symmetry_equiv_pos_site_id
 _symmetry_equiv_pos_as_xyz
  1  'x, y, z'
loop_
 _atom_site_type_symbol
 _atom_site_label
 _atom_site_symmetry_multiplicity
 _atom_site_fract_x
 _atom_site_fract_y
 _atom_site_fract_z
 _atom_site_occupancy
  Fe  Fe0  1  0.80666200  0.67331900  0.01218900  1
  Fe  Fe1  1  0.69333800  0.67331900  0.51218900  1
  Fe  Fe2  1  0.30666200  0.32668100  0.48781100  1
  Fe  Fe3  1  0.19333800  0.32668100  0.98781100  1
  Se  Se4  1  0.68308900  0.28811200  0.37717600  1
  Se  Se5  1  0.31691100  0.71188800  0.62282400  1
  Se  Se6  1  0.95493500  0.22694700  0.45194800  1
  Se  Se7  1  0.81691100  0.28811200  0.87717600  1
  Se  Se8  1  0.54506500  0.22694700  0.95194800  1
  Se  Se9  1  0.45493500  0.77305300  0.04805200  1
  Se  Se10  1  0.18308900  0.71188800  0.12282400  1
  Se  Se11  1  0.04506500  0.77305300  0.54805200  1
  N  N12  1  0.32888900  0.71326000  0.12975400  1
  N  N13  1  0.17111100  0.71326000  0.62975400  1
  N  N14  1  0.82888900  0.28674000  0.37024600  1
  N  N15  1  0.67111100  0.28674000  0.87024600  1
  Cl  Cl16  1  0.91701500  0.66600500  0.17736100  1
  Cl  Cl17  1  0.58298500  0.66600500  0.67736100  1
  Cl  Cl18  1  0.40472300  0.35229800  0.64720200  1
  Cl  Cl19  1  0.09527700  0.35229800  0.14720200  1
  Cl  Cl20  1  0.42183600  0.92365800  0.83988600  1
  Cl  Cl21  1  0.28788800  0.12197200  0.06622400  1
  Cl  Cl22  1  0.90472300  0.64770200  0.85279800  1
  Cl  Cl23  1  0.21211200  0.12197200  0.56622400  1
  Cl  Cl24  1  0.07816400  0.92365800  0.33988600  1
  Cl  Cl25  1  0.36605100  0.86687100  0.42143300  1
  Cl  Cl26  1  0.08298500  0.33399500  0.82263900  1
  Cl  Cl27  1  0.92183600  0.07634200  0.66011400  1
  Cl  Cl28  1  0.13394900  0.86687100  0.92143300  1
  Cl  Cl29  1  0.57816400  0.07634200  0.16011400  1
  Cl  Cl30  1  0.32101600  0.50469600  0.91281800  1
  Cl  Cl31  1  0.78788800  0.87802800  0.43377600  1
  Cl  Cl32  1  0.17898400  0.50469600  0.41281800  1
  Cl  Cl33  1  0.67898400  0.49530400  0.08718200  1
  Cl  Cl34  1  0.41701500  0.33399500  0.32263900  1
  Cl  Cl35  1  0.82101600  0.49530400  0.58718200  1
  Cl  Cl36  1  0.59527700  0.64770200  0.35279800  1
  Cl  Cl37  1  0.86605100  0.13312900  0.07856700  1
  Cl  Cl38  1  0.63394900  0.13312900  0.57856700  1
  Cl  Cl39  1  0.71211200  0.87802800  0.93377600  1
