# generated using pymatgen
data_NbCl5
_symmetry_space_group_name_H-M   'P 1'
_cell_length_a   10.75808000
_cell_length_b   8.44681000
_cell_length_c   11.96812903
_cell_angle_alpha   45.74019629
_cell_angle_beta   90.00000000
_cell_angle_gamma   90.00000000
_symmetry_Int_Tables_number   1
_chemical_formula_structural   NbCl5
_chemical_formula_sum   'Nb4 Cl20'
_cell_volume   778.89243224
_cell_formula_units_Z   4
loop_
 _symmetry_equiv_pos_site_id
 _symmetry_equiv_pos_as_xyz
  1  'x, y, z'
loop_
 _atom_site_type_symbol
 _atom_site_label
 _atom_site_symmetry_multiplicity
 _atom_site_fract_x
 _atom_site_fract_y
 _atom_site_fract_z
 _atom_site_occupancy
  Nb  Nb0  1  0.13486100  0.10651900  0.34245100  1
  Nb  Nb1  1  0.63486100  0.89348100  0.15754900  1
  Nb  Nb2  1  0.36513900  0.10651900  0.84245100  1
  Nb  Nb3  1  0.86513900  0.89348100  0.65754900  1
  Cl  Cl4  1  0.38229700  0.28338500  0.58738700  1
  Cl  Cl5  1  0.10464200  0.90626400  0.63144000  1
  Cl  Cl6  1  0.37909000  0.43341200  0.78416000  1
  Cl  Cl7  1  0.62091000  0.56658800  0.21584000  1
  Cl  Cl8  1  0.11770300  0.28338500  0.08738700  1
  Cl  Cl9  1  0.88229700  0.71661500  0.91261300  1
  Cl  Cl10  1  0.61463400  0.24332700  0.06488600  1
  Cl  Cl11  1  0.11463400  0.75667300  0.43511400  1
  Cl  Cl12  1  0.65492800  0.92299500  0.61980100  1
  Cl  Cl13  1  0.89535800  0.09373600  0.36856000  1
  Cl  Cl14  1  0.88536600  0.24332700  0.56488600  1
  Cl  Cl15  1  0.87909000  0.56658800  0.71584000  1
  Cl  Cl16  1  0.84507200  0.92299500  0.11980100  1
  Cl  Cl17  1  0.12091000  0.43341200  0.28416000  1
  Cl  Cl18  1  0.60464200  0.09373600  0.86856000  1
  Cl  Cl19  1  0.39535800  0.90626400  0.13144000  1
  Cl  Cl20  1  0.34507200  0.07700500  0.38019900  1
  Cl  Cl21  1  0.38536600  0.75667300  0.93511400  1
  Cl  Cl22  1  0.61770300  0.71661500  0.41261300  1
  Cl  Cl23  1  0.15492800  0.07700500  0.88019900  1
