# generated using pymatgen
data_SbO2
_symmetry_space_group_name_H-M   'P 1'
_cell_length_a   5.58140700
_cell_length_b   6.06620900
_cell_length_c   10.49122500
_cell_angle_alpha   90.00000000
_cell_angle_beta   90.00000000
_cell_angle_gamma   90.00000000
_symmetry_Int_Tables_number   1
_chemical_formula_structural   SbO2
_chemical_formula_sum   'Sb8 O16'
_cell_volume   355.21170066
_cell_formula_units_Z   8
loop_
 _symmetry_equiv_pos_site_id
 _symmetry_equiv_pos_as_xyz
  1  'x, y, z'
loop_
 _atom_site_type_symbol
 _atom_site_label
 _atom_site_symmetry_multiplicity
 _atom_site_fract_x
 _atom_site_fract_y
 _atom_site_fract_z
 _atom_site_occupancy
  Sb  Sb0  1  0.15221200  0.00000000  0.00000000  1
  Sb  Sb1  1  0.84778800  0.00000000  0.50000000  1
  Sb  Sb2  1  0.00000000  0.59587400  0.25000000  1
  Sb  Sb3  1  0.50000000  0.90412600  0.25000000  1
  Sb  Sb4  1  0.34778800  0.50000000  0.50000000  1
  Sb  Sb5  1  0.00000000  0.40412600  0.75000000  1
  Sb  Sb6  1  0.65221200  0.50000000  0.00000000  1
  Sb  Sb7  1  0.50000000  0.09587400  0.75000000  1
  O  O8  1  0.39285500  0.87242200  0.87243800  1
  O  O9  1  0.89285500  0.62757800  0.87243800  1
  O  O10  1  0.27089100  0.29438700  0.86597200  1
  O  O11  1  0.72910900  0.29438700  0.63402800  1
  O  O12  1  0.10714500  0.37242200  0.37243800  1
  O  O13  1  0.22910900  0.79438700  0.36597200  1
  O  O14  1  0.39285500  0.12757800  0.12756200  1
  O  O15  1  0.77089100  0.20561300  0.86597200  1
  O  O16  1  0.89285500  0.37242200  0.12756200  1
  O  O17  1  0.60714500  0.12757800  0.37243800  1
  O  O18  1  0.77089100  0.79438700  0.13402800  1
  O  O19  1  0.22910900  0.20561300  0.63402800  1
  O  O20  1  0.10714500  0.62757800  0.62756200  1
  O  O21  1  0.27089100  0.70561300  0.13402800  1
  O  O22  1  0.60714500  0.87242200  0.62756200  1
  O  O23  1  0.72910900  0.70561300  0.36597200  1
