# generated using pymatgen
data_CdBr2
_symmetry_space_group_name_H-M   'P 1'
_cell_length_a   13.77249727
_cell_length_b   13.77249727
_cell_length_c   13.77249729
_cell_angle_alpha   16.99297984
_cell_angle_beta   16.99297984
_cell_angle_gamma   16.99297784
_symmetry_Int_Tables_number   1
_chemical_formula_structural   CdBr2
_chemical_formula_sum   'Cd2 Br4'
_cell_volume   194.65365808
_cell_formula_units_Z   2
loop_
 _symmetry_equiv_pos_site_id
 _symmetry_equiv_pos_as_xyz
  1  'x, y, z'
loop_
 _atom_site_type_symbol
 _atom_site_label
 _atom_site_symmetry_multiplicity
 _atom_site_fract_x
 _atom_site_fract_y
 _atom_site_fract_z
 _atom_site_occupancy
  Cd  Cd0  1  0.00000000  0.00000000  0.00000000  1
  Cd  Cd1  1  0.50000000  0.50000000  0.50000000  1
  Br  Br2  1  0.20536200  0.20536200  0.20536200  1
  Br  Br3  1  0.79463800  0.79463800  0.79463800  1
  Br  Br4  1  0.62797200  0.62797200  0.62797200  1
  Br  Br5  1  0.37202800  0.37202800  0.37202800  1
