# generated using pymatgen
data_Rb4TmI6
_symmetry_space_group_name_H-M   'P 1'
_cell_length_a   10.19499055
_cell_length_b   10.19499055
_cell_length_c   10.19498985
_cell_angle_alpha   90.15911773
_cell_angle_beta   90.15911773
_cell_angle_gamma   90.15911643
_symmetry_Int_Tables_number   1
_chemical_formula_structural   Rb4TmI6
_chemical_formula_sum   'Rb8 Tm2 I12'
_cell_volume   1059.63286317
_cell_formula_units_Z   2
loop_
 _symmetry_equiv_pos_site_id
 _symmetry_equiv_pos_as_xyz
  1  'x, y, z'
loop_
 _atom_site_type_symbol
 _atom_site_label
 _atom_site_symmetry_multiplicity
 _atom_site_fract_x
 _atom_site_fract_y
 _atom_site_fract_z
 _atom_site_occupancy
  Rb  Rb0  1  0.86963400  0.25000000  0.63036600  1
  Rb  Rb1  1  0.36963400  0.13036600  0.75000000  1
  Rb  Rb2  1  0.75000000  0.36963400  0.13036600  1
  Rb  Rb3  1  0.13036600  0.75000000  0.36963400  1
  Rb  Rb4  1  0.25000000  0.25000000  0.25000000  1
  Rb  Rb5  1  0.63036600  0.86963400  0.25000000  1
  Rb  Rb6  1  0.25000000  0.63036600  0.86963400  1
  Rb  Rb7  1  0.75000000  0.75000000  0.75000000  1
  Tm  Tm8  1  0.50000000  0.50000000  0.50000000  1
  Tm  Tm9  1  0.00000000  0.00000000  0.00000000  1
  I  I10  1  0.71098200  0.05729400  0.93272100  1
  I  I11  1  0.28901800  0.94270600  0.06727900  1
  I  I12  1  0.56727900  0.44270600  0.78901800  1
  I  I13  1  0.06727900  0.28901800  0.94270600  1
  I  I14  1  0.21098200  0.43272100  0.55729400  1
  I  I15  1  0.78901800  0.56727900  0.44270600  1
  I  I16  1  0.05729400  0.93272100  0.71098200  1
  I  I17  1  0.43272100  0.55729400  0.21098200  1
  I  I18  1  0.55729400  0.21098200  0.43272100  1
  I  I19  1  0.44270600  0.78901800  0.56727900  1
  I  I20  1  0.93272100  0.71098200  0.05729400  1
  I  I21  1  0.94270600  0.06727900  0.28901800  1
