# generated using pymatgen
data_NaAg(CN)2
_symmetry_space_group_name_H-M   'P 1'
_cell_length_a   3.84354959
_cell_length_b   3.84354959
_cell_length_c   17.64199814
_cell_angle_alpha   88.71636565
_cell_angle_beta   88.71636565
_cell_angle_gamma   59.55760557
_symmetry_Int_Tables_number   1
_chemical_formula_structural   NaAg(CN)2
_chemical_formula_sum   'Na2 Ag2 C4 N4'
_cell_volume   224.61840634
_cell_formula_units_Z   2
loop_
 _symmetry_equiv_pos_site_id
 _symmetry_equiv_pos_as_xyz
  1  'x, y, z'
loop_
 _atom_site_type_symbol
 _atom_site_label
 _atom_site_symmetry_multiplicity
 _atom_site_fract_x
 _atom_site_fract_y
 _atom_site_fract_z
 _atom_site_occupancy
  Na  Na0  1  0.04745500  0.95254500  0.75000000  1
  Na  Na1  1  0.95254500  0.04745500  0.25000000  1
  Ag  Ag2  1  0.50000000  0.00000000  0.00000000  1
  Ag  Ag3  1  0.00000000  0.50000000  0.50000000  1
  C  C4  1  0.80854800  0.58534500  0.61108100  1
  C  C5  1  0.41465500  0.19145200  0.88891900  1
  C  C6  1  0.19145200  0.41465500  0.38891900  1
  C  C7  1  0.58534500  0.80854800  0.11108100  1
  N  N8  1  0.70731900  0.63077100  0.67510700  1
  N  N9  1  0.29268100  0.36922900  0.32489300  1
  N  N10  1  0.63077100  0.70731900  0.17510700  1
  N  N11  1  0.36922900  0.29268100  0.82489300  1
