# generated using pymatgen
data_Yb3(Ga2Ge3)2
_symmetry_space_group_name_H-M   'P 1'
_cell_length_a   12.14685615
_cell_length_b   12.14685615
_cell_length_c   10.85303797
_cell_angle_alpha   88.86455981
_cell_angle_beta   88.86455981
_cell_angle_gamma   20.24511145
_symmetry_Int_Tables_number   1
_chemical_formula_structural   Yb3(Ga2Ge3)2
_chemical_formula_sum   'Yb6 Ga8 Ge12'
_cell_volume   554.00494975
_cell_formula_units_Z   2
loop_
 _symmetry_equiv_pos_site_id
 _symmetry_equiv_pos_as_xyz
  1  'x, y, z'
loop_
 _atom_site_type_symbol
 _atom_site_label
 _atom_site_symmetry_multiplicity
 _atom_site_fract_x
 _atom_site_fract_y
 _atom_site_fract_z
 _atom_site_occupancy
  Yb  Yb0  1  0.64440000  0.64440000  0.89358600  1
  Yb  Yb1  1  0.17621200  0.17621200  0.45320200  1
  Yb  Yb2  1  0.52348300  0.52348300  0.16614800  1
  Yb  Yb3  1  0.82378800  0.82378800  0.54679800  1
  Yb  Yb4  1  0.35560000  0.35560000  0.10641400  1
  Yb  Yb5  1  0.47651700  0.47651700  0.83385200  1
  Ga  Ga6  1  0.42158600  0.42158600  0.58776200  1
  Ga  Ga7  1  0.57841400  0.57841400  0.41223800  1
  Ga  Ga8  1  0.75939200  0.75939200  0.25810300  1
  Ga  Ga9  1  0.93470900  0.93470900  0.26891900  1
  Ga  Ga10  1  0.24060800  0.24060800  0.74189700  1
  Ga  Ga11  1  0.13605100  0.13605100  0.11652500  1
  Ga  Ga12  1  0.86394900  0.86394900  0.88347500  1
  Ga  Ga13  1  0.06529100  0.06529100  0.73108100  1
  Ge  Ge14  1  0.70909300  0.70909300  0.64015000  1
  Ge  Ge15  1  0.02374100  0.02374100  0.39492800  1
  Ge  Ge16  1  0.65216000  0.65216000  0.23696200  1
  Ge  Ge17  1  0.22519400  0.22519400  0.97283900  1
  Ge  Ge18  1  0.94810000  0.94810000  0.03498700  1
  Ge  Ge19  1  0.60474300  0.60474300  0.63492800  1
  Ge  Ge20  1  0.97625900  0.97625900  0.60507200  1
  Ge  Ge21  1  0.05190000  0.05190000  0.96501300  1
  Ge  Ge22  1  0.77480600  0.77480600  0.02716100  1
  Ge  Ge23  1  0.39525700  0.39525700  0.36507200  1
  Ge  Ge24  1  0.34784000  0.34784000  0.76303800  1
  Ge  Ge25  1  0.29090700  0.29090700  0.35985000  1
