# generated using pymatgen
data_Nd6Fe13Sb
_symmetry_space_group_name_H-M   'P 1'
_cell_length_a   13.03642993
_cell_length_b   13.03642993
_cell_length_c   13.03642993
_cell_angle_alpha   143.95074712
_cell_angle_beta   143.95074712
_cell_angle_gamma   51.90094896
_symmetry_Int_Tables_number   1
_chemical_formula_structural   Nd6Fe13Sb
_chemical_formula_sum   'Nd12 Fe26 Sb2'
_cell_volume   762.94279493
_cell_formula_units_Z   2
loop_
 _symmetry_equiv_pos_site_id
 _symmetry_equiv_pos_as_xyz
  1  'x, y, z'
loop_
 _atom_site_type_symbol
 _atom_site_label
 _atom_site_symmetry_multiplicity
 _atom_site_fract_x
 _atom_site_fract_y
 _atom_site_fract_z
 _atom_site_occupancy
  Nd  Nd0  1  0.89593900  0.89593900  0.00000000  1
  Nd  Nd1  1  0.47743700  0.97743700  0.82509400  1
  Nd  Nd2  1  0.34765700  0.52256300  0.50000000  1
  Nd  Nd3  1  0.84765700  0.34765700  0.82509400  1
  Nd  Nd4  1  0.52256300  0.02256300  0.17490600  1
  Nd  Nd5  1  0.65234300  0.47743700  0.50000000  1
  Nd  Nd6  1  0.10406100  0.10406100  0.00000000  1
  Nd  Nd7  1  0.39593900  0.39593900  0.00000000  1
  Nd  Nd8  1  0.15234300  0.65234300  0.17490600  1
  Nd  Nd9  1  0.60406100  0.60406100  0.00000000  1
  Nd  Nd10  1  0.02256300  0.84765700  0.50000000  1
  Nd  Nd11  1  0.97743700  0.15234300  0.50000000  1
  Fe  Fe12  1  0.70957700  0.43329900  0.14287600  1
  Fe  Fe13  1  0.52027100  0.79277500  0.50000000  1
  Fe  Fe14  1  0.20722500  0.70722500  0.72749600  1
  Fe  Fe15  1  0.56670100  0.70957700  0.27627800  1
  Fe  Fe16  1  0.79042300  0.93329900  0.72372200  1
  Fe  Fe17  1  0.38002100  0.88002100  0.14290500  1
  Fe  Fe18  1  0.26288400  0.76288400  0.14290500  1
  Fe  Fe19  1  0.97972900  0.47972900  0.27250400  1
  Fe  Fe20  1  0.93329900  0.20957700  0.14287600  1
  Fe  Fe21  1  0.23711600  0.38002100  0.50000000  1
  Fe  Fe22  1  0.79277500  0.29277500  0.27250400  1
  Fe  Fe23  1  0.47972900  0.20722500  0.50000000  1
  Fe  Fe24  1  0.73711600  0.23711600  0.85709500  1
  Fe  Fe25  1  0.43329900  0.29042300  0.72372200  1
  Fe  Fe26  1  0.29042300  0.56670100  0.85712400  1
  Fe  Fe27  1  0.00000000  0.50000000  0.50000000  1
  Fe  Fe28  1  0.02027100  0.52027100  0.72749600  1
  Fe  Fe29  1  0.20957700  0.06670100  0.27627800  1
  Fe  Fe30  1  0.11997900  0.26288400  0.50000000  1
  Fe  Fe31  1  0.88002100  0.73711600  0.50000000  1
  Fe  Fe32  1  0.61997900  0.11997900  0.85709500  1
  Fe  Fe33  1  0.06670100  0.79042300  0.85712400  1
  Fe  Fe34  1  0.76288400  0.61997900  0.50000000  1
  Fe  Fe35  1  0.50000000  0.00000000  0.50000000  1
  Fe  Fe36  1  0.29277500  0.02027100  0.50000000  1
  Fe  Fe37  1  0.70722500  0.97972900  0.50000000  1
  Sb  Sb38  1  0.75000000  0.75000000  0.00000000  1
  Sb  Sb39  1  0.25000000  0.25000000  0.00000000  1
