# generated using pymatgen
data_Ni21(SnP3)2
_symmetry_space_group_name_H-M   'P 1'
_cell_length_a   7.85102922
_cell_length_b   7.85102922
_cell_length_c   7.85102922
_cell_angle_alpha   60.00000000
_cell_angle_beta   60.00000000
_cell_angle_gamma   60.00000000
_symmetry_Int_Tables_number   1
_chemical_formula_structural   Ni21(SnP3)2
_chemical_formula_sum   'Ni21 Sn2 P6'
_cell_volume   342.18800608
_cell_formula_units_Z   1
loop_
 _symmetry_equiv_pos_site_id
 _symmetry_equiv_pos_as_xyz
  1  'x, y, z'
loop_
 _atom_site_type_symbol
 _atom_site_label
 _atom_site_symmetry_multiplicity
 _atom_site_fract_x
 _atom_site_fract_y
 _atom_site_fract_z
 _atom_site_occupancy
  Ni  Ni0  1  0.00000000  0.65193700  0.00000000  1
  Ni  Ni1  1  0.15151100  0.61616300  0.61616300  1
  Ni  Ni2  1  0.00000000  0.00000000  0.65193700  1
  Ni  Ni3  1  0.00000000  0.00000000  0.34806300  1
  Ni  Ni4  1  0.65193700  0.00000000  0.34806300  1
  Ni  Ni5  1  0.34806300  0.00000000  0.00000000  1
  Ni  Ni6  1  0.84848900  0.38383700  0.38383700  1
  Ni  Ni7  1  0.00000000  0.65193700  0.34806300  1
  Ni  Ni8  1  0.61616300  0.61616300  0.61616300  1
  Ni  Ni9  1  0.38383700  0.84848900  0.38383700  1
  Ni  Ni10  1  0.65193700  0.34806300  0.00000000  1
  Ni  Ni11  1  0.00000000  0.34806300  0.65193700  1
  Ni  Ni12  1  0.34806300  0.65193700  0.00000000  1
  Ni  Ni13  1  0.34806300  0.00000000  0.65193700  1
  Ni  Ni14  1  0.38383700  0.38383700  0.38383700  1
  Ni  Ni15  1  0.65193700  0.00000000  0.00000000  1
  Ni  Ni16  1  0.00000000  0.34806300  0.00000000  1
  Ni  Ni17  1  0.61616300  0.61616300  0.15151100  1
  Ni  Ni18  1  0.38383700  0.38383700  0.84848900  1
  Ni  Ni19  1  0.61616300  0.15151100  0.61616300  1
  Ni  Ni20  1  0.00000000  0.00000000  0.00000000  1
  Sn  Sn21  1  0.75000000  0.75000000  0.75000000  1
  Sn  Sn22  1  0.25000000  0.25000000  0.25000000  1
  P  P23  1  0.26189500  0.73810500  0.26189500  1
  P  P24  1  0.73810500  0.73810500  0.26189500  1
  P  P25  1  0.73810500  0.26189500  0.26189500  1
  P  P26  1  0.26189500  0.73810500  0.73810500  1
  P  P27  1  0.26189500  0.26189500  0.73810500  1
  P  P28  1  0.73810500  0.26189500  0.73810500  1
