# generated using pymatgen
data_SbAsN(O2F)2
_symmetry_space_group_name_H-M   'P 1'
_cell_length_a   8.60370600
_cell_length_b   7.63962000
_cell_length_c   11.15992613
_cell_angle_alpha   86.14938772
_cell_angle_beta   90.00000000
_cell_angle_gamma   90.00000000
_symmetry_Int_Tables_number   1
_chemical_formula_structural   SbAsN(O2F)2
_chemical_formula_sum   'Sb4 As4 N4 O16 F8'
_cell_volume   731.87536009
_cell_formula_units_Z   4
loop_
 _symmetry_equiv_pos_site_id
 _symmetry_equiv_pos_as_xyz
  1  'x, y, z'
loop_
 _atom_site_type_symbol
 _atom_site_label
 _atom_site_symmetry_multiplicity
 _atom_site_fract_x
 _atom_site_fract_y
 _atom_site_fract_z
 _atom_site_occupancy
  Sb  Sb0  1  0.65489800  0.68690100  0.37544800  1
  Sb  Sb1  1  0.15489800  0.31309900  0.12455200  1
  Sb  Sb2  1  0.34510200  0.31309900  0.62455200  1
  Sb  Sb3  1  0.84510200  0.68690100  0.87544800  1
  As  As4  1  0.56558300  0.65817900  0.67679300  1
  As  As5  1  0.06558300  0.34182100  0.82320700  1
  As  As6  1  0.43441700  0.34182100  0.32320700  1
  As  As7  1  0.93441700  0.65817900  0.17679300  1
  N  N8  1  0.55415100  0.19965600  0.97856700  1
  N  N9  1  0.05415100  0.80034400  0.52143300  1
  N  N10  1  0.44584900  0.80034400  0.02143300  1
  N  N11  1  0.94584900  0.19965600  0.47856700  1
  O  O12  1  0.73372100  0.65664000  0.21112800  1
  O  O13  1  0.23372100  0.34336000  0.28887200  1
  O  O14  1  0.26627900  0.34336000  0.78887200  1
  O  O15  1  0.76627900  0.65664000  0.71112800  1
  O  O16  1  0.55341100  0.24384000  0.23488500  1
  O  O17  1  0.05341100  0.75616000  0.26511500  1
  O  O18  1  0.44658900  0.75616000  0.76511500  1
  O  O19  1  0.94658900  0.24384000  0.73488500  1
  O  O20  1  0.53971000  0.42641200  0.66462500  1
  O  O21  1  0.03971000  0.57358800  0.83537500  1
  O  O22  1  0.46029000  0.57358800  0.33537500  1
  O  O23  1  0.96029000  0.42641200  0.16462500  1
  O  O24  1  0.43967900  0.25005500  0.47176400  1
  O  O25  1  0.93967900  0.74994500  0.02823600  1
  O  O26  1  0.56032100  0.74994500  0.52823600  1
  O  O27  1  0.06032100  0.25005500  0.97176400  1
  F  F28  1  0.80000300  0.52685000  0.44814300  1
  F  F29  1  0.30000300  0.47315000  0.05185700  1
  F  F30  1  0.19999700  0.47315000  0.55185700  1
  F  F31  1  0.69999700  0.52685000  0.94814300  1
  F  F32  1  0.79077700  0.92711200  0.85587200  1
  F  F33  1  0.29077700  0.07288800  0.64412800  1
  F  F34  1  0.20922300  0.07288800  0.14412800  1
  F  F35  1  0.70922300  0.92711200  0.35587200  1
