# generated using pymatgen
data_PrAu6
_symmetry_space_group_name_H-M   'P 1'
_cell_length_a   5.60783132
_cell_length_b   5.60783132
_cell_length_c   9.27254721
_cell_angle_alpha   82.71302704
_cell_angle_beta   82.71302704
_cell_angle_gamma   89.98085486
_symmetry_Int_Tables_number   1
_chemical_formula_structural   PrAu6
_chemical_formula_sum   'Pr2 Au12'
_cell_volume   286.87285094
_cell_formula_units_Z   2
loop_
 _symmetry_equiv_pos_site_id
 _symmetry_equiv_pos_as_xyz
  1  'x, y, z'
loop_
 _atom_site_type_symbol
 _atom_site_label
 _atom_site_symmetry_multiplicity
 _atom_site_fract_x
 _atom_site_fract_y
 _atom_site_fract_z
 _atom_site_occupancy
  Pr  Pr0  1  0.68522800  0.31477200  0.25000000  1
  Pr  Pr1  1  0.31477200  0.68522800  0.75000000  1
  Au  Au2  1  0.22086900  0.38440100  0.08119800  1
  Au  Au3  1  0.61559900  0.77913100  0.41880200  1
  Au  Au4  1  0.95815500  0.84312000  0.13656400  1
  Au  Au5  1  0.84312000  0.95815500  0.63656400  1
  Au  Au6  1  0.04184500  0.15688000  0.86343600  1
  Au  Au7  1  0.16607900  0.54109100  0.37231700  1
  Au  Au8  1  0.45890900  0.83392100  0.12768300  1
  Au  Au9  1  0.15688000  0.04184500  0.36343600  1
  Au  Au10  1  0.38440100  0.22086900  0.58119800  1
  Au  Au11  1  0.54109100  0.16607900  0.87231700  1
  Au  Au12  1  0.77913100  0.61559900  0.91880200  1
  Au  Au13  1  0.83392100  0.45890900  0.62768300  1
