# generated using pymatgen
data_CsAuN12
_symmetry_space_group_name_H-M   'P 1'
_cell_length_a   7.68339325
_cell_length_b   7.68339325
_cell_length_c   8.88424967
_cell_angle_alpha   89.16079216
_cell_angle_beta   89.16079216
_cell_angle_gamma   93.59806895
_symmetry_Int_Tables_number   1
_chemical_formula_structural   CsAuN12
_chemical_formula_sum   'Cs2 Au2 N24'
_cell_volume   523.32387344
_cell_formula_units_Z   2
loop_
 _symmetry_equiv_pos_site_id
 _symmetry_equiv_pos_as_xyz
  1  'x, y, z'
loop_
 _atom_site_type_symbol
 _atom_site_label
 _atom_site_symmetry_multiplicity
 _atom_site_fract_x
 _atom_site_fract_y
 _atom_site_fract_z
 _atom_site_occupancy
  Cs  Cs0  1  0.08442800  0.91557200  0.25000000  1
  Cs  Cs1  1  0.91557200  0.08442800  0.75000000  1
  Au  Au2  1  0.49335300  0.50664700  0.25000000  1
  Au  Au3  1  0.50664700  0.49335300  0.75000000  1
  N  N4  1  0.10336900  0.30065000  0.03332000  1
  N  N5  1  0.30065000  0.10336900  0.53332000  1
  N  N6  1  0.60782800  0.17957800  0.13782700  1
  N  N7  1  0.39217200  0.82042200  0.86217300  1
  N  N8  1  0.23968600  0.53000000  0.17409000  1
  N  N9  1  0.74566400  0.52104800  0.32654700  1
  N  N10  1  0.09373100  0.71949100  0.60053100  1
  N  N11  1  0.89663100  0.69935000  0.96668000  1
  N  N12  1  0.47000000  0.76031400  0.32591000  1
  N  N13  1  0.17442300  0.41007100  0.10226500  1
  N  N14  1  0.82042200  0.39217200  0.36217300  1
  N  N15  1  0.17957800  0.60782800  0.63782700  1
  N  N16  1  0.58992900  0.82557700  0.39773500  1
  N  N17  1  0.82557700  0.58992900  0.89773500  1
  N  N18  1  0.69935000  0.89663100  0.46668000  1
  N  N19  1  0.90626900  0.28050900  0.39946900  1
  N  N20  1  0.28050900  0.90626900  0.89946900  1
  N  N21  1  0.47895200  0.25433600  0.17345300  1
  N  N22  1  0.76031400  0.47000000  0.82591000  1
  N  N23  1  0.53000000  0.23968600  0.67409000  1
  N  N24  1  0.41007100  0.17442300  0.60226500  1
  N  N25  1  0.71949100  0.09373100  0.10053100  1
  N  N26  1  0.52104800  0.74566400  0.82654700  1
  N  N27  1  0.25433600  0.47895200  0.67345300  1
