# generated using pymatgen
data_Na3AlH6
_symmetry_space_group_name_H-M   'P 1'
_cell_length_a   5.46783500
_cell_length_b   9.22359700
_cell_length_c   17.77279800
_cell_angle_alpha   90.00000000
_cell_angle_beta   90.00000000
_cell_angle_gamma   90.00000000
_symmetry_Int_Tables_number   1
_chemical_formula_structural   Na3AlH6
_chemical_formula_sum   'Na24 Al8 H48'
_cell_volume   896.33741438
_cell_formula_units_Z   8
loop_
 _symmetry_equiv_pos_site_id
 _symmetry_equiv_pos_as_xyz
  1  'x, y, z'
loop_
 _atom_site_type_symbol
 _atom_site_label
 _atom_site_symmetry_multiplicity
 _atom_site_fract_x
 _atom_site_fract_y
 _atom_site_fract_z
 _atom_site_occupancy
  Na  Na0  1  0.30223100  0.08923000  0.34723900  1
  Na  Na1  1  0.74543100  0.58278600  0.94830600  1
  Na  Na2  1  0.18959100  0.74920800  0.83536100  1
  Na  Na3  1  0.25456900  0.41721400  0.05169400  1
  Na  Na4  1  0.81040900  0.25079200  0.33536100  1
  Na  Na5  1  0.30223100  0.41077000  0.65276100  1
  Na  Na6  1  0.25456900  0.08278600  0.94830600  1
  Na  Na7  1  0.69776900  0.91077000  0.84723900  1
  Na  Na8  1  0.81040900  0.25079200  0.16463900  1
  Na  Na9  1  0.69776900  0.58923000  0.15276100  1
  Na  Na10  1  0.74543100  0.91721400  0.05169400  1
  Na  Na11  1  0.69776900  0.58923000  0.34723900  1
  Na  Na12  1  0.81040900  0.24920800  0.83536100  1
  Na  Na13  1  0.81040900  0.24920800  0.66463900  1
  Na  Na14  1  0.18959100  0.75079200  0.16463900  1
  Na  Na15  1  0.25456900  0.08278600  0.55169400  1
  Na  Na16  1  0.69776900  0.91077000  0.65276100  1
  Na  Na17  1  0.74543100  0.91721400  0.44830600  1
  Na  Na18  1  0.30223100  0.08923000  0.15276100  1
  Na  Na19  1  0.25456900  0.41721400  0.44830600  1
  Na  Na20  1  0.30223100  0.41077000  0.84723900  1
  Na  Na21  1  0.18959100  0.74920800  0.66463900  1
  Na  Na22  1  0.74543100  0.58278600  0.55169400  1
  Na  Na23  1  0.18959100  0.75079200  0.33536100  1
  Al  Al24  1  0.78316100  0.25000000  0.00000000  1
  Al  Al25  1  0.78316100  0.25000000  0.50000000  1
  Al  Al26  1  0.74193500  0.57726100  0.75000000  1
  Al  Al27  1  0.21683900  0.75000000  0.50000000  1
  Al  Al28  1  0.74193500  0.92273900  0.25000000  1
  Al  Al29  1  0.25806500  0.07726100  0.75000000  1
  Al  Al30  1  0.21683900  0.75000000  0.00000000  1
  Al  Al31  1  0.25806500  0.42273900  0.25000000  1
  H  H32  1  0.97806300  0.81223500  0.56075600  1
  H  H33  1  0.22094300  0.58840600  0.94978400  1
  H  H34  1  0.95026100  0.97152500  0.17871800  1
  H  H35  1  0.04973900  0.47152500  0.32128200  1
  H  H36  1  0.77905700  0.41159400  0.44978400  1
  H  H37  1  0.44016000  0.67331400  0.43869900  1
  H  H38  1  0.22094300  0.91159400  0.44978400  1
  H  H39  1  0.13555400  0.24236200  0.25000000  1
  H  H40  1  0.02193700  0.31223500  0.93924400  1
  H  H41  1  0.61747400  0.10109200  0.25000000  1
  H  H42  1  0.02193700  0.18776500  0.43924400  1
  H  H43  1  0.95026100  0.52847500  0.82128200  1
  H  H44  1  0.38252600  0.89890800  0.75000000  1
  H  H45  1  0.46509100  0.37482400  0.17804900  1
  H  H46  1  0.77905700  0.08840600  0.55021600  1
  H  H47  1  0.46509100  0.12517600  0.67804900  1
  H  H48  1  0.46509100  0.12517600  0.82195100  1
  H  H49  1  0.53490900  0.62517600  0.82195100  1
  H  H50  1  0.04973900  0.02847500  0.82128200  1
  H  H51  1  0.86444600  0.75763800  0.75000000  1
  H  H52  1  0.86444600  0.74236200  0.25000000  1
  H  H53  1  0.55984000  0.32668600  0.56130100  1
  H  H54  1  0.44016000  0.67331400  0.06130100  1
  H  H55  1  0.97806300  0.68776500  0.06075600  1
  H  H56  1  0.95026100  0.97152500  0.32128200  1
  H  H57  1  0.55984000  0.32668600  0.93869900  1
  H  H58  1  0.13555400  0.25763800  0.75000000  1
  H  H59  1  0.61747400  0.39890800  0.75000000  1
  H  H60  1  0.97806300  0.68776500  0.43924400  1
  H  H61  1  0.44016000  0.82668600  0.93869900  1
  H  H62  1  0.55984000  0.17331400  0.06130100  1
  H  H63  1  0.53490900  0.87482400  0.32195100  1
  H  H64  1  0.04973900  0.02847500  0.67871800  1
  H  H65  1  0.53490900  0.62517600  0.67804900  1
  H  H66  1  0.53490900  0.87482400  0.17804900  1
  H  H67  1  0.77905700  0.08840600  0.94978400  1
  H  H68  1  0.95026100  0.52847500  0.67871800  1
  H  H69  1  0.44016000  0.82668600  0.56130100  1
  H  H70  1  0.02193700  0.31223500  0.56075600  1
  H  H71  1  0.38252600  0.60109200  0.25000000  1
  H  H72  1  0.02193700  0.18776500  0.06075600  1
  H  H73  1  0.22094300  0.91159400  0.05021600  1
  H  H74  1  0.77905700  0.41159400  0.05021600  1
  H  H75  1  0.04973900  0.47152500  0.17871800  1
  H  H76  1  0.55984000  0.17331400  0.43869900  1
  H  H77  1  0.46509100  0.37482400  0.32195100  1
  H  H78  1  0.22094300  0.58840600  0.55021600  1
  H  H79  1  0.97806300  0.81223500  0.93924400  1
