# generated using pymatgen
data_Sc2H10S3O17
_symmetry_space_group_name_H-M   'P 1'
_cell_length_a   6.64929845
_cell_length_b   12.04682536
_cell_length_c   11.83969649
_cell_angle_alpha   89.96643167
_cell_angle_beta   99.76060953
_cell_angle_gamma   85.05267127
_symmetry_Int_Tables_number   1
_chemical_formula_structural   Sc2H10S3O17
_chemical_formula_sum   'Sc4 H20 S6 O34'
_cell_volume   931.07227761
_cell_formula_units_Z   2
loop_
 _symmetry_equiv_pos_site_id
 _symmetry_equiv_pos_as_xyz
  1  'x, y, z'
loop_
 _atom_site_type_symbol
 _atom_site_label
 _atom_site_symmetry_multiplicity
 _atom_site_fract_x
 _atom_site_fract_y
 _atom_site_fract_z
 _atom_site_occupancy
  Sc  Sc0  1  0.34632400  0.86334800  0.29628200  1
  Sc  Sc1  1  0.00000000  0.50000000  0.00000000  1
  Sc  Sc2  1  0.65367600  0.13665200  0.70371800  1
  Sc  Sc3  1  0.00000000  0.50000000  0.50000000  1
  H  H4  1  0.59791400  0.15048400  0.00042500  1
  H  H5  1  0.88367400  0.71464800  0.53595000  1
  H  H6  1  0.69341000  0.89777900  0.22273000  1
  H  H7  1  0.76038500  0.38856500  0.33674600  1
  H  H8  1  0.62537700  0.98201900  0.72138700  1
  H  H9  1  0.29194000  0.11717700  0.97302400  1
  H  H10  1  0.69085600  0.72977000  0.40568800  1
  H  H11  1  0.30914400  0.27023000  0.59431200  1
  H  H12  1  0.71802100  0.72293600  0.84643100  1
  H  H13  1  0.53889100  0.09566400  0.36401500  1
  H  H14  1  0.34110900  0.32562900  0.17506400  1
  H  H15  1  0.70806000  0.88282300  0.02697600  1
  H  H16  1  0.28197900  0.27706400  0.15356900  1
  H  H17  1  0.46110900  0.90433600  0.63598500  1
  H  H18  1  0.11632600  0.28535200  0.46405000  1
  H  H19  1  0.23961500  0.61143500  0.66325400  1
  H  H20  1  0.37462300  0.01798100  0.27861300  1
  H  H21  1  0.30659000  0.10222100  0.77727000  1
  H  H22  1  0.40208600  0.84951600  0.99957500  1
  H  H23  1  0.65889100  0.67437100  0.82493600  1
  S  S24  1  0.11229400  0.77855100  0.02236600  1
  S  S25  1  0.19716500  0.82001900  0.54092600  1
  S  S26  1  0.69741400  0.54561500  0.21286000  1
  S  S27  1  0.80283500  0.17998100  0.45907400  1
  S  S28  1  0.88770600  0.22144900  0.97763400  1
  S  S29  1  0.30258600  0.45438500  0.78714000  1
  O  O30  1  0.58001700  0.90902900  0.05806600  1
  O  O31  1  0.99047300  0.15777800  0.41308200  1
  O  O32  1  0.92727400  0.84700000  0.97518600  1
  O  O33  1  0.17914400  0.79542300  0.14612200  1
  O  O34  1  0.15544800  0.83151300  0.41186100  1
  O  O35  1  0.08720500  0.65782400  0.00209100  1
  O  O36  1  0.72286400  0.40294000  0.68226400  1
  O  O37  1  0.41089300  0.21012100  0.63479100  1
  O  O38  1  0.68460200  0.28591400  0.42049700  1
  O  O39  1  0.27782100  0.53569000  0.40163200  1
  O  O40  1  0.61278700  0.84789500  0.17046000  1
  O  O41  1  0.86788700  0.53272200  0.13733500  1
  O  O42  1  0.27713600  0.59706000  0.31773600  1
  O  O43  1  0.82572200  0.46055400  0.32982200  1
  O  O44  1  0.47356700  0.51672300  0.83865400  1
  O  O45  1  0.28705600  0.80180000  0.95758300  1
  O  O46  1  0.91279500  0.34217600  0.99790900  1
  O  O47  1  0.13211300  0.46727800  0.86266500  1
  O  O48  1  0.72217900  0.46431000  0.59836800  1
  O  O49  1  0.85872600  0.64942000  0.48696800  1
  O  O50  1  0.71294400  0.19820000  0.04241700  1
  O  O51  1  0.66191000  0.08123200  0.42584800  1
  O  O52  1  0.17427800  0.53944600  0.67017800  1
  O  O53  1  0.07272600  0.15300000  0.02481400  1
  O  O54  1  0.14127400  0.35058000  0.51303200  1
  O  O55  1  0.84455200  0.16848700  0.58813900  1
  O  O56  1  0.58910700  0.78987900  0.36520900  1
  O  O57  1  0.52643300  0.48327700  0.16134600  1
  O  O58  1  0.82085600  0.20457700  0.85387800  1
  O  O59  1  0.41998300  0.09097100  0.94193400  1
  O  O60  1  0.31539800  0.71408600  0.57950300  1
  O  O61  1  0.33809000  0.91876800  0.57415200  1
  O  O62  1  0.38721300  0.15210500  0.82954000  1
  O  O63  1  0.00952700  0.84222200  0.58691800  1
