# generated using pymatgen
data_SbH2C(O2F3)2
_symmetry_space_group_name_H-M   'P 1'
_cell_length_a   8.36836499
_cell_length_b   8.36836499
_cell_length_c   13.31058665
_cell_angle_alpha   74.67897676
_cell_angle_beta   105.32102324
_cell_angle_gamma   114.86945023
_symmetry_Int_Tables_number   1
_chemical_formula_structural   SbH2C(O2F3)2
_chemical_formula_sum   'Sb4 H8 C4 O16 F24'
_cell_volume   803.05756318
_cell_formula_units_Z   4
loop_
 _symmetry_equiv_pos_site_id
 _symmetry_equiv_pos_as_xyz
  1  'x, y, z'
loop_
 _atom_site_type_symbol
 _atom_site_label
 _atom_site_symmetry_multiplicity
 _atom_site_fract_x
 _atom_site_fract_y
 _atom_site_fract_z
 _atom_site_occupancy
  Sb  Sb0  1  0.75498500  0.19498600  0.63922900  1
  Sb  Sb1  1  0.19498600  0.75498500  0.86077100  1
  Sb  Sb2  1  0.24501500  0.80501400  0.36077100  1
  Sb  Sb3  1  0.80501400  0.24501500  0.13922900  1
  H  H4  1  0.26955500  0.22918100  0.09631300  1
  H  H5  1  0.22918100  0.26955500  0.40368700  1
  H  H6  1  0.73044500  0.77081900  0.90368700  1
  H  H7  1  0.77081900  0.73044500  0.59631300  1
  H  H8  1  0.05170700  0.17702000  0.84055700  1
  H  H9  1  0.17702000  0.05170700  0.65944300  1
  H  H10  1  0.94829300  0.82298000  0.15944300  1
  H  H11  1  0.82298000  0.94829300  0.34055700  1
  C  C12  1  0.08231700  0.08732000  0.99952500  1
  C  C13  1  0.08732000  0.08231700  0.50047500  1
  C  C14  1  0.91768300  0.91268000  0.00047400  1
  C  C15  1  0.91268000  0.91768300  0.49952600  1
  O  O16  1  0.16918400  0.11157400  0.09299200  1
  O  O17  1  0.11157400  0.16918400  0.40700800  1
  O  O18  1  0.83081600  0.88842600  0.90700800  1
  O  O19  1  0.88842600  0.83081600  0.59299200  1
  O  O20  1  0.12917000  0.19488400  0.91710700  1
  O  O21  1  0.19488400  0.12917000  0.58289300  1
  O  O22  1  0.87083000  0.80511600  0.08289300  1
  O  O23  1  0.80511600  0.87083000  0.41710700  1
  O  O24  1  0.46720700  0.61267200  0.13557600  1
  O  O25  1  0.61267200  0.46720700  0.36442400  1
  O  O26  1  0.53279300  0.38732800  0.86442400  1
  O  O27  1  0.38732800  0.53279300  0.63557600  1
  O  O28  1  0.45214200  0.46174100  0.13154400  1
  O  O29  1  0.46174100  0.45214200  0.36845600  1
  O  O30  1  0.54785800  0.53825900  0.86845600  1
  O  O31  1  0.53825900  0.54785800  0.63154400  1
  F  F32  1  0.84581300  0.17086800  0.52672900  1
  F  F33  1  0.17086800  0.84581300  0.97327100  1
  F  F34  1  0.15418700  0.82913200  0.47327100  1
  F  F35  1  0.82913200  0.15418700  0.02672900  1
  F  F36  1  0.68844100  0.22030400  0.75831200  1
  F  F37  1  0.22030400  0.68844100  0.74168800  1
  F  F38  1  0.31155900  0.77969600  0.24168800  1
  F  F39  1  0.77969600  0.31155900  0.25831200  1
  F  F40  1  0.98586000  0.19516300  0.73201500  1
  F  F41  1  0.19516300  0.98586000  0.76798500  1
  F  F42  1  0.01414000  0.80483700  0.26798500  1
  F  F43  1  0.80483700  0.01414000  0.23201500  1
  F  F44  1  0.66530900  0.94001500  0.67846200  1
  F  F45  1  0.94001500  0.66530900  0.82153800  1
  F  F46  1  0.33469100  0.05998500  0.32153800  1
  F  F47  1  0.05998500  0.33469100  0.17846200  1
  F  F48  1  0.53497600  0.18909200  0.54909800  1
  F  F49  1  0.18909200  0.53497600  0.95090200  1
  F  F50  1  0.46502400  0.81090800  0.45090200  1
  F  F51  1  0.81090800  0.46502400  0.04909800  1
  F  F52  1  0.86344100  0.44792400  0.59894200  1
  F  F53  1  0.44792400  0.86344100  0.90105800  1
  F  F54  1  0.13655900  0.55207600  0.40105800  1
  F  F55  1  0.55207600  0.13655900  0.09894200  1
