# generated using pymatgen
data_TlAu(CN)2
_symmetry_space_group_name_H-M   'P 1'
_cell_length_a   7.16803400
_cell_length_b   9.20928000
_cell_length_c   30.88857500
_cell_angle_alpha   90.00000000
_cell_angle_beta   90.00000000
_cell_angle_gamma   90.00000000
_symmetry_Int_Tables_number   1
_chemical_formula_structural   TlAu(CN)2
_chemical_formula_sum   'Tl16 Au16 C32 N32'
_cell_volume   2039.02996157
_cell_formula_units_Z   16
loop_
 _symmetry_equiv_pos_site_id
 _symmetry_equiv_pos_as_xyz
  1  'x, y, z'
loop_
 _atom_site_type_symbol
 _atom_site_label
 _atom_site_symmetry_multiplicity
 _atom_site_fract_x
 _atom_site_fract_y
 _atom_site_fract_z
 _atom_site_occupancy
  Tl  Tl0  1  0.78055300  0.91340600  0.28273000  1
  Tl  Tl1  1  0.78055300  0.41340600  0.71727000  1
  Tl  Tl2  1  0.77615500  0.08259800  0.53068600  1
  Tl  Tl3  1  0.71944700  0.41340600  0.21727000  1
  Tl  Tl4  1  0.77615500  0.58259800  0.46931400  1
  Tl  Tl5  1  0.27615500  0.41740200  0.03068600  1
  Tl  Tl6  1  0.21944700  0.08659400  0.71727000  1
  Tl  Tl7  1  0.72384500  0.58259800  0.96931400  1
  Tl  Tl8  1  0.28055300  0.58659400  0.78273000  1
  Tl  Tl9  1  0.22384500  0.91740200  0.46931400  1
  Tl  Tl10  1  0.71944700  0.91340600  0.78273000  1
  Tl  Tl11  1  0.72384500  0.08259800  0.03068600  1
  Tl  Tl12  1  0.22384500  0.41740200  0.53068600  1
  Tl  Tl13  1  0.27615500  0.91740200  0.96931400  1
  Tl  Tl14  1  0.28055300  0.08659400  0.21727000  1
  Tl  Tl15  1  0.21944700  0.58659400  0.28273000  1
  Au  Au16  1  0.00000000  0.25000000  0.36848900  1
  Au  Au17  1  0.49786600  0.08220300  0.62371500  1
  Au  Au18  1  0.50213400  0.41779700  0.62371500  1
  Au  Au19  1  0.00000000  0.25000000  0.87895100  1
  Au  Au20  1  0.99786600  0.91779700  0.87628500  1
  Au  Au21  1  0.50213400  0.91779700  0.37628500  1
  Au  Au22  1  0.00213400  0.58220300  0.87628500  1
  Au  Au23  1  0.50000000  0.75000000  0.13151100  1
  Au  Au24  1  0.50000000  0.25000000  0.86848900  1
  Au  Au25  1  0.50000000  0.75000000  0.62104900  1
  Au  Au26  1  0.00000000  0.75000000  0.12104900  1
  Au  Au27  1  0.00213400  0.08220300  0.12371500  1
  Au  Au28  1  0.49786600  0.58220300  0.37628500  1
  Au  Au29  1  0.50000000  0.25000000  0.37895100  1
  Au  Au30  1  0.99786600  0.41779700  0.12371500  1
  Au  Au31  1  0.00000000  0.75000000  0.63151100  1
  C  C32  1  0.71481200  0.58816000  0.33559600  1
  C  C33  1  0.21873800  0.08679000  0.08294100  1
  C  C34  1  0.78518800  0.58816000  0.83559600  1
  C  C35  1  0.00000000  0.75000000  0.56691600  1
  C  C36  1  0.21481200  0.91184000  0.83559600  1
  C  C37  1  0.00000000  0.75000000  0.18582400  1
  C  C38  1  0.50000000  0.75000000  0.19627100  1
  C  C39  1  0.21873800  0.58679000  0.91705900  1
  C  C40  1  0.50000000  0.75000000  0.55614700  1
  C  C41  1  0.00000000  0.25000000  0.94385300  1
  C  C42  1  0.28126200  0.58679000  0.41705900  1
  C  C43  1  0.00000000  0.25000000  0.30372900  1
  C  C44  1  0.50000000  0.25000000  0.31417600  1
  C  C45  1  0.00000000  0.75000000  0.69627100  1
  C  C46  1  0.78518800  0.08816000  0.16440400  1
  C  C47  1  0.28518800  0.41184000  0.66440400  1
  C  C48  1  0.50000000  0.25000000  0.80372900  1
  C  C49  1  0.71873800  0.91321000  0.41705900  1
  C  C50  1  0.71481200  0.08816000  0.66440400  1
  C  C51  1  0.21481200  0.41184000  0.16440400  1
  C  C52  1  0.50000000  0.75000000  0.68582400  1
  C  C53  1  0.71873800  0.41321000  0.58294100  1
  C  C54  1  0.28518800  0.91184000  0.33559600  1
  C  C55  1  0.78126200  0.41321000  0.08294100  1
  C  C56  1  0.78126200  0.91321000  0.91705900  1
  C  C57  1  0.50000000  0.75000000  0.06691600  1
  C  C58  1  0.50000000  0.25000000  0.93308400  1
  C  C59  1  0.28126200  0.08679000  0.58294100  1
  C  C60  1  0.50000000  0.25000000  0.44385300  1
  C  C61  1  0.00000000  0.25000000  0.81417600  1
  C  C62  1  0.00000000  0.75000000  0.05614700  1
  C  C63  1  0.00000000  0.25000000  0.43308400  1
  N  N64  1  0.33967900  0.59555200  0.94256200  1
  N  N65  1  0.50000000  0.75000000  0.23446100  1
  N  N66  1  0.33967900  0.09555200  0.05743800  1
  N  N67  1  0.66235000  0.09802400  0.18937700  1
  N  N68  1  0.33765000  0.90197600  0.81062300  1
  N  N69  1  0.00000000  0.75000000  0.22396200  1
  N  N70  1  0.66032100  0.90444800  0.94256200  1
  N  N71  1  0.00000000  0.75000000  0.73446100  1
  N  N72  1  0.50000000  0.75000000  0.72396200  1
  N  N73  1  0.50000000  0.25000000  0.27603800  1
  N  N74  1  0.83967900  0.40444800  0.55743800  1
  N  N75  1  0.00000000  0.25000000  0.98202400  1
  N  N76  1  0.16235000  0.40197600  0.68937700  1
  N  N77  1  0.00000000  0.25000000  0.26553900  1
  N  N78  1  0.33765000  0.40197600  0.18937700  1
  N  N79  1  0.50000000  0.25000000  0.76553900  1
  N  N80  1  0.00000000  0.75000000  0.52873100  1
  N  N81  1  0.50000000  0.75000000  0.51797600  1
  N  N82  1  0.50000000  0.75000000  0.02873100  1
  N  N83  1  0.00000000  0.25000000  0.77603800  1
  N  N84  1  0.50000000  0.25000000  0.48202400  1
  N  N85  1  0.16032100  0.59555200  0.44256200  1
  N  N86  1  0.16032100  0.09555200  0.55743800  1
  N  N87  1  0.50000000  0.25000000  0.97126900  1
  N  N88  1  0.83765000  0.09802400  0.68937700  1
  N  N89  1  0.00000000  0.75000000  0.01797600  1
  N  N90  1  0.16235000  0.90197600  0.31062300  1
  N  N91  1  0.00000000  0.25000000  0.47126900  1
  N  N92  1  0.66235000  0.59802400  0.81062300  1
  N  N93  1  0.83967900  0.90444800  0.44256200  1
  N  N94  1  0.66032100  0.40444800  0.05743800  1
  N  N95  1  0.83765000  0.59802400  0.31062300  1
