# generated using pymatgen
data_MnH12C2(NCl2)2
_symmetry_space_group_name_H-M   'P 1'
_cell_length_a   7.28467100
_cell_length_b   7.28467100
_cell_length_c   19.69359200
_cell_angle_alpha   90.00000000
_cell_angle_beta   90.00000000
_cell_angle_gamma   90.00000000
_symmetry_Int_Tables_number   1
_chemical_formula_structural   MnH12C2(NCl2)2
_chemical_formula_sum   'Mn4 H48 C8 N8 Cl16'
_cell_volume   1045.06865240
_cell_formula_units_Z   4
loop_
 _symmetry_equiv_pos_site_id
 _symmetry_equiv_pos_as_xyz
  1  'x, y, z'
loop_
 _atom_site_type_symbol
 _atom_site_label
 _atom_site_symmetry_multiplicity
 _atom_site_fract_x
 _atom_site_fract_y
 _atom_site_fract_z
 _atom_site_occupancy
  Mn  Mn0  1  0.25000000  0.75000000  0.75000000  1
  Mn  Mn1  1  0.75000000  0.25000000  0.75000000  1
  Mn  Mn2  1  0.25000000  0.25000000  0.25000000  1
  Mn  Mn3  1  0.75000000  0.75000000  0.25000000  1
  H  H4  1  0.80551600  0.30551600  0.02903800  1
  H  H5  1  0.90527400  0.24350300  0.14383200  1
  H  H6  1  0.25649700  0.59472600  0.14383200  1
  H  H7  1  0.74350300  0.40527400  0.14383200  1
  H  H8  1  0.19448400  0.69448400  0.02903800  1
  H  H9  1  0.75027300  0.42452200  0.44584100  1
  H  H10  1  0.07547800  0.74972700  0.44584100  1
  H  H11  1  0.75649700  0.90527400  0.85616800  1
  H  H12  1  0.68864900  0.18864900  0.16795000  1
  H  H13  1  0.59472600  0.74350300  0.85616800  1
  H  H14  1  0.42452200  0.75027300  0.05415900  1
  H  H15  1  0.81135100  0.31135100  0.33205000  1
  H  H16  1  0.18864900  0.31135100  0.83205000  1
  H  H17  1  0.24350300  0.09472600  0.85616800  1
  H  H18  1  0.90527400  0.75649700  0.64383200  1
  H  H19  1  0.57547800  0.24972700  0.05415900  1
  H  H20  1  0.09472600  0.75649700  0.14383200  1
  H  H21  1  0.25027300  0.92452200  0.05415900  1
  H  H22  1  0.40527400  0.74350300  0.35616800  1
  H  H23  1  0.31135100  0.81135100  0.16795000  1
  H  H24  1  0.24972700  0.57547800  0.44584100  1
  H  H25  1  0.30551600  0.19448400  0.97096200  1
  H  H26  1  0.24350300  0.90527400  0.35616800  1
  H  H27  1  0.19448400  0.30551600  0.52903800  1
  H  H28  1  0.75027300  0.57547800  0.94584100  1
  H  H29  1  0.30551600  0.80551600  0.47096200  1
  H  H30  1  0.69448400  0.80551600  0.97096200  1
  H  H31  1  0.09472600  0.24350300  0.64383200  1
  H  H32  1  0.81135100  0.68864900  0.83205000  1
  H  H33  1  0.31135100  0.18864900  0.66795000  1
  H  H34  1  0.68864900  0.81135100  0.66795000  1
  H  H35  1  0.74972700  0.07547800  0.05415900  1
  H  H36  1  0.75649700  0.09472600  0.35616800  1
  H  H37  1  0.69448400  0.19448400  0.47096200  1
  H  H38  1  0.59472600  0.25649700  0.35616800  1
  H  H39  1  0.07547800  0.25027300  0.94584100  1
  H  H40  1  0.25027300  0.07547800  0.55415900  1
  H  H41  1  0.24972700  0.42452200  0.94584100  1
  H  H42  1  0.92452200  0.74972700  0.94584100  1
  H  H43  1  0.25649700  0.40527400  0.64383200  1
  H  H44  1  0.92452200  0.25027300  0.44584100  1
  H  H45  1  0.74350300  0.59472600  0.64383200  1
  H  H46  1  0.40527400  0.25649700  0.85616800  1
  H  H47  1  0.18864900  0.68864900  0.33205000  1
  H  H48  1  0.74972700  0.92452200  0.55415900  1
  H  H49  1  0.80551600  0.69448400  0.52903800  1
  H  H50  1  0.42452200  0.24972700  0.55415900  1
  H  H51  1  0.57547800  0.75027300  0.55415900  1
  C  C52  1  0.77882700  0.27882700  0.43723200  1
  C  C53  1  0.22117300  0.72117300  0.43723200  1
  C  C54  1  0.72117300  0.77882700  0.56276800  1
  C  C55  1  0.27882700  0.77882700  0.06276800  1
  C  C56  1  0.77882700  0.72117300  0.93723200  1
  C  C57  1  0.72117300  0.22117300  0.06276800  1
  C  C58  1  0.22117300  0.27882700  0.93723200  1
  C  C59  1  0.27882700  0.22117300  0.56276800  1
  N  N60  1  0.73338600  0.76661400  0.86564600  1
  N  N61  1  0.76661400  0.26661400  0.13435400  1
  N  N62  1  0.23338600  0.26661400  0.63435400  1
  N  N63  1  0.73338600  0.23338600  0.36564600  1
  N  N64  1  0.26661400  0.23338600  0.86564600  1
  N  N65  1  0.26661400  0.76661400  0.36564600  1
  N  N66  1  0.76661400  0.73338600  0.63435400  1
  N  N67  1  0.23338600  0.73338600  0.13435400  1
  Cl  Cl68  1  0.78606800  0.71393200  0.12487900  1
  Cl  Cl69  1  0.71393200  0.21393200  0.87512100  1
  Cl  Cl70  1  0.50000000  0.00000000  0.72734000  1
  Cl  Cl71  1  0.50000000  0.00000000  0.22734000  1
  Cl  Cl72  1  0.21393200  0.28606800  0.12487900  1
  Cl  Cl73  1  0.21393200  0.71393200  0.62487900  1
  Cl  Cl74  1  0.00000000  0.50000000  0.77266000  1
  Cl  Cl75  1  0.78606800  0.28606800  0.62487900  1
  Cl  Cl76  1  0.28606800  0.21393200  0.37512100  1
  Cl  Cl77  1  0.28606800  0.78606800  0.87512100  1
  Cl  Cl78  1  0.00000000  0.00000000  0.25000000  1
  Cl  Cl79  1  0.50000000  0.50000000  0.25000000  1
  Cl  Cl80  1  0.00000000  0.50000000  0.27266000  1
  Cl  Cl81  1  0.00000000  0.00000000  0.75000000  1
  Cl  Cl82  1  0.71393200  0.78606800  0.37512100  1
  Cl  Cl83  1  0.50000000  0.50000000  0.75000000  1
