# generated using pymatgen
data_InSb
_symmetry_space_group_name_H-M   'P 1'
_cell_length_a   3.22249900
_cell_length_b   5.92042000
_cell_length_c   5.93800400
_cell_angle_alpha   90.00000000
_cell_angle_beta   90.00000000
_cell_angle_gamma   90.00000000
_symmetry_Int_Tables_number   1
_chemical_formula_structural   InSb
_chemical_formula_sum   'In2 Sb2'
_cell_volume   113.28849154
_cell_formula_units_Z   2
loop_
 _symmetry_equiv_pos_site_id
 _symmetry_equiv_pos_as_xyz
  1  'x, y, z'
loop_
 _atom_site_type_symbol
 _atom_site_label
 _atom_site_symmetry_multiplicity
 _atom_site_fract_x
 _atom_site_fract_y
 _atom_site_fract_z
 _atom_site_occupancy
  In  In0  1  0.00880500  0.00000000  0.00000000  1
  In  In1  1  0.99119500  0.50000000  0.50000000  1
  Sb  Sb2  1  0.27699700  0.00000000  0.50000000  1
  Sb  Sb3  1  0.72300300  0.50000000  0.00000000  1
