# generated using pymatgen
data_InSi2As(H3C)8
_symmetry_space_group_name_H-M   'P 1'
_cell_length_a   9.54553200
_cell_length_b   9.81395630
_cell_length_c   10.09703321
_cell_angle_alpha   77.86617525
_cell_angle_beta   81.41934197
_cell_angle_gamma   65.52804296
_symmetry_Int_Tables_number   1
_chemical_formula_structural   InSi2As(H3C)8
_chemical_formula_sum   'In2 Si4 As2 H48 C16'
_cell_volume   839.62264182
_cell_formula_units_Z   2
loop_
 _symmetry_equiv_pos_site_id
 _symmetry_equiv_pos_as_xyz
  1  'x, y, z'
loop_
 _atom_site_type_symbol
 _atom_site_label
 _atom_site_symmetry_multiplicity
 _atom_site_fract_x
 _atom_site_fract_y
 _atom_site_fract_z
 _atom_site_occupancy
  In  In0  1  0.54584200  0.65470800  0.57200200  1
  In  In1  1  0.45415800  0.34529200  0.42799800  1
  Si  Si2  1  0.68733300  0.62105700  0.15672300  1
  Si  Si3  1  0.25063600  0.81832500  0.25360500  1
  Si  Si4  1  0.74936400  0.18167500  0.74639500  1
  Si  Si5  1  0.31266700  0.37894300  0.84327700  1
  As  As6  1  0.51429200  0.38314700  0.67368900  1
  As  As7  1  0.48570800  0.61685300  0.32631100  1
  H  H8  1  0.86750600  0.52357900  0.53135300  1
  H  H9  1  0.83955200  0.90076300  0.80394900  1
  H  H10  1  0.36932500  0.95718300  0.58586400  1
  H  H11  1  0.27827600  0.35008400  0.09503800  1
  H  H12  1  0.81408100  0.61359700  0.67800300  1
  H  H13  1  0.35788600  0.01149000  0.13963100  1
  H  H14  1  0.15745400  0.22140500  0.90745600  1
  H  H15  1  0.69476200  0.97468700  0.68564800  1
  H  H16  1  0.72172400  0.64991600  0.90496200  1
  H  H17  1  0.62045600  0.14878500  0.24683600  1
  H  H18  1  0.16044800  0.09923700  0.19605100  1
  H  H19  1  0.78629400  0.76491000  0.26928300  1
  H  H20  1  0.84254600  0.77859500  0.09254400  1
  H  H21  1  0.21370600  0.23509000  0.73071700  1
  H  H22  1  0.34836600  0.10931000  0.84984400  1
  H  H23  1  0.63067500  0.04281700  0.41413600  1
  H  H24  1  0.17409800  0.66179700  0.81779100  1
  H  H25  1  0.80352300  0.72441100  0.51292200  1
  H  H26  1  0.82199300  0.31841500  0.89004800  1
  H  H27  1  0.40888500  0.43969200  0.03335700  1
  H  H28  1  0.18591900  0.38640300  0.32199700  1
  H  H29  1  0.08277700  0.70924300  0.41335300  1
  H  H30  1  0.01351800  0.09121600  0.63295800  1
  H  H31  1  0.07775700  0.88158000  0.06951500  1
  H  H32  1  0.98648200  0.90878400  0.36704200  1
  H  H33  1  0.65163400  0.89069000  0.15015600  1
  H  H34  1  0.75291500  0.14344300  0.35706000  1
  H  H35  1  0.27271200  0.79316500  0.00673500  1
  H  H36  1  0.12656800  0.83294400  0.48997500  1
  H  H37  1  0.64211400  0.98851000  0.86036900  1
  H  H38  1  0.82590200  0.33820300  0.18220900  1
  H  H39  1  0.52855300  0.75973000  0.95613900  1
  H  H40  1  0.89652200  0.41226300  0.29184800  1
  H  H41  1  0.91722300  0.29075700  0.58664700  1
  H  H42  1  0.37954400  0.85121500  0.75316400  1
  H  H43  1  0.17800700  0.68158500  0.10995200  1
  H  H44  1  0.13249400  0.47642100  0.46864700  1
  H  H45  1  0.47144700  0.24027000  0.04386100  1
  H  H46  1  0.24708500  0.85655700  0.64294000  1
  H  H47  1  0.10347800  0.58773700  0.70815200  1
  H  H48  1  0.87343200  0.16705600  0.51002500  1
  H  H49  1  0.04714900  0.56897000  0.88460200  1
  H  H50  1  0.92224300  0.11842000  0.93048500  1
  H  H51  1  0.30523800  0.02531300  0.31435200  1
  H  H52  1  0.59111500  0.56030800  0.96664300  1
  H  H53  1  0.19647700  0.27558900  0.48707800  1
  H  H54  1  0.72728800  0.20683500  0.99326500  1
  H  H55  1  0.95285100  0.43103000  0.11539800  1
  C  C56  1  0.78698600  0.62450200  0.57334300  1
  C  C57  1  0.27132300  0.00559800  0.22307200  1
  C  C58  1  0.09800100  0.81676000  0.39464400  1
  C  C59  1  0.80940100  0.20974800  0.90521000  1
  C  C60  1  0.63751000  0.14679900  0.35252100  1
  C  C61  1  0.36249000  0.85320100  0.64747900  1
  C  C62  1  0.14414800  0.56731900  0.80957900  1
  C  C63  1  0.72867700  0.99440200  0.77692800  1
  C  C64  1  0.25305000  0.22138400  0.83135300  1
  C  C65  1  0.37447800  0.34997200  0.01963700  1
  C  C66  1  0.74695000  0.77861600  0.16864700  1
  C  C67  1  0.85585200  0.43268100  0.19042100  1
  C  C68  1  0.62552200  0.65002800  0.98036300  1
  C  C69  1  0.19059900  0.79025200  0.09479000  1
  C  C70  1  0.90199900  0.18324000  0.60535600  1
  C  C71  1  0.21301400  0.37549800  0.42665700  1
