# generated using pymatgen
data_Ce4C4Br3
_symmetry_space_group_name_H-M   'P 1'
_cell_length_a   4.15334900
_cell_length_b   10.97736372
_cell_length_c   11.09374425
_cell_angle_alpha   102.84411737
_cell_angle_beta   90.28664680
_cell_angle_gamma   94.45770275
_symmetry_Int_Tables_number   1
_chemical_formula_structural   Ce4C4Br3
_chemical_formula_sum   'Ce8 C8 Br6'
_cell_volume   491.51841746
_cell_formula_units_Z   2
loop_
 _symmetry_equiv_pos_site_id
 _symmetry_equiv_pos_as_xyz
  1  'x, y, z'
loop_
 _atom_site_type_symbol
 _atom_site_label
 _atom_site_symmetry_multiplicity
 _atom_site_fract_x
 _atom_site_fract_y
 _atom_site_fract_z
 _atom_site_occupancy
  Ce  Ce0  1  0.62024300  0.16700900  0.01768100  1
  Ce  Ce1  1  0.24240600  0.36169500  0.83056200  1
  Ce  Ce2  1  0.37975700  0.83299100  0.98231900  1
  Ce  Ce3  1  0.62561100  0.17250100  0.56114800  1
  Ce  Ce4  1  0.98558600  0.97857400  0.24008300  1
  Ce  Ce5  1  0.01441400  0.02142600  0.75991700  1
  Ce  Ce6  1  0.75759400  0.63830500  0.16943800  1
  Ce  Ce7  1  0.37438900  0.82749900  0.43885200  1
  C  C8  1  0.50798800  0.84774300  0.21454700  1
  C  C9  1  0.86367200  0.95911100  0.99524800  1
  C  C10  1  0.23868300  0.76161700  0.19464400  1
  C  C11  1  0.13632800  0.04088900  0.00475200  1
  C  C12  1  0.13448100  0.03884000  0.51642500  1
  C  C13  1  0.86551900  0.96116000  0.48357500  1
  C  C14  1  0.76131700  0.23838300  0.80535600  1
  C  C15  1  0.49201200  0.15225700  0.78545300  1
  Br  Br16  1  0.19347000  0.38832500  0.57719900  1
  Br  Br17  1  0.19989100  0.40304900  0.11059100  1
  Br  Br18  1  0.80010900  0.59695100  0.88940900  1
  Br  Br19  1  0.58579100  0.20442000  0.29594000  1
  Br  Br20  1  0.41420900  0.79558000  0.70406000  1
  Br  Br21  1  0.80653000  0.61167500  0.42280100  1
