# generated using pymatgen
data_Y4Si5Rh9
_symmetry_space_group_name_H-M   'P 1'
_cell_length_a   11.73218169
_cell_length_b   11.73218169
_cell_length_c   11.73218166
_cell_angle_alpha   27.31986826
_cell_angle_beta   27.31986826
_cell_angle_gamma   27.31987028
_symmetry_Int_Tables_number   1
_chemical_formula_structural   Y4Si5Rh9
_chemical_formula_sum   'Y4 Si5 Rh9'
_cell_volume   300.16196063
_cell_formula_units_Z   1
loop_
 _symmetry_equiv_pos_site_id
 _symmetry_equiv_pos_as_xyz
  1  'x, y, z'
loop_
 _atom_site_type_symbol
 _atom_site_label
 _atom_site_symmetry_multiplicity
 _atom_site_fract_x
 _atom_site_fract_y
 _atom_site_fract_z
 _atom_site_occupancy
  Y  Y0  1  0.94881100  0.94881100  0.94881100  1
  Y  Y1  1  0.85109000  0.85109000  0.85109000  1
  Y  Y2  1  0.14891000  0.14891000  0.14891000  1
  Y  Y3  1  0.05118900  0.05118900  0.05118900  1
  Si  Si4  1  0.27835700  0.27835700  0.27835700  1
  Si  Si5  1  0.50000000  0.50000000  0.50000000  1
  Si  Si6  1  0.38821300  0.38821300  0.38821300  1
  Si  Si7  1  0.72164300  0.72164300  0.72164300  1
  Si  Si8  1  0.61178700  0.61178700  0.61178700  1
  Rh  Rh9  1  0.60831700  0.60831700  0.10838900  1
  Rh  Rh10  1  0.89161100  0.39168300  0.39168300  1
  Rh  Rh11  1  0.50000000  0.00000000  0.50000000  1
  Rh  Rh12  1  0.39168300  0.89161100  0.39168300  1
  Rh  Rh13  1  0.50000000  0.50000000  0.00000000  1
  Rh  Rh14  1  0.10838900  0.60831700  0.60831700  1
  Rh  Rh15  1  0.00000000  0.50000000  0.50000000  1
  Rh  Rh16  1  0.39168300  0.39168300  0.89161100  1
  Rh  Rh17  1  0.60831700  0.10838900  0.60831700  1
