# generated using pymatgen
data_Sm(C2N3)3
_symmetry_space_group_name_H-M   'P 1'
_cell_length_a   7.10072599
_cell_length_b   7.10072599
_cell_length_c   10.59271700
_cell_angle_alpha   90.00000000
_cell_angle_beta   90.00000000
_cell_angle_gamma   113.80041197
_symmetry_Int_Tables_number   1
_chemical_formula_structural   Sm(C2N3)3
_chemical_formula_sum   'Sm2 C12 N18'
_cell_volume   488.66749320
_cell_formula_units_Z   2
loop_
 _symmetry_equiv_pos_site_id
 _symmetry_equiv_pos_as_xyz
  1  'x, y, z'
loop_
 _atom_site_type_symbol
 _atom_site_label
 _atom_site_symmetry_multiplicity
 _atom_site_fract_x
 _atom_site_fract_y
 _atom_site_fract_z
 _atom_site_occupancy
  Sm  Sm0  1  0.28366600  0.71633400  0.75000000  1
  Sm  Sm1  1  0.71633400  0.28366600  0.25000000  1
  C  C2  1  0.26784700  0.44170500  0.25000000  1
  C  C3  1  0.55829500  0.73215300  0.25000000  1
  C  C4  1  0.99980700  0.70794500  0.05403800  1
  C  C5  1  0.70794500  0.99980700  0.55403800  1
  C  C6  1  0.44170500  0.26784700  0.75000000  1
  C  C7  1  0.00019300  0.29205500  0.94596200  1
  C  C8  1  0.99980700  0.70794500  0.44596200  1
  C  C9  1  0.73215300  0.55829500  0.75000000  1
  C  C10  1  0.00019300  0.29205500  0.55403800  1
  C  C11  1  0.70794500  0.99980700  0.94596200  1
  C  C12  1  0.29205500  0.00019300  0.05403800  1
  C  C13  1  0.29205500  0.00019300  0.44596200  1
  N  N14  1  0.85782700  0.57487100  0.10084200  1
  N  N15  1  0.08756400  0.35202700  0.25000000  1
  N  N16  1  0.14217300  0.42512900  0.89915800  1
  N  N17  1  0.85782700  0.57487100  0.39915800  1
  N  N18  1  0.15413800  0.84586200  0.50544100  1
  N  N19  1  0.46801600  0.53198400  0.25000000  1
  N  N20  1  0.14217300  0.42512900  0.60084200  1
  N  N21  1  0.91243600  0.64797300  0.75000000  1
  N  N22  1  0.64797300  0.91243600  0.25000000  1
  N  N23  1  0.35202700  0.08756400  0.75000000  1
  N  N24  1  0.42512900  0.14217300  0.10084200  1
  N  N25  1  0.84586200  0.15413800  0.00544100  1
  N  N26  1  0.15413800  0.84586200  0.99455900  1
  N  N27  1  0.42512900  0.14217300  0.39915800  1
  N  N28  1  0.84586200  0.15413800  0.49455900  1
  N  N29  1  0.53198400  0.46801600  0.75000000  1
  N  N30  1  0.57487100  0.85782700  0.60084200  1
  N  N31  1  0.57487100  0.85782700  0.89915800  1
