# generated using pymatgen
data_Hg3C2(N2Cl)2
_symmetry_space_group_name_H-M   'P 1'
_cell_length_a   7.35545000
_cell_length_b   10.66005400
_cell_length_c   11.03153400
_cell_angle_alpha   90.00000000
_cell_angle_beta   90.00000000
_cell_angle_gamma   90.00000000
_symmetry_Int_Tables_number   1
_chemical_formula_structural   Hg3C2(N2Cl)2
_chemical_formula_sum   'Hg12 C8 N16 Cl8'
_cell_volume   864.97700113
_cell_formula_units_Z   4
loop_
 _symmetry_equiv_pos_site_id
 _symmetry_equiv_pos_as_xyz
  1  'x, y, z'
loop_
 _atom_site_type_symbol
 _atom_site_label
 _atom_site_symmetry_multiplicity
 _atom_site_fract_x
 _atom_site_fract_y
 _atom_site_fract_z
 _atom_site_occupancy
  Hg  Hg0  1  0.72671400  0.85890300  0.20670800  1
  Hg  Hg1  1  0.28938300  0.04332400  0.08722800  1
  Hg  Hg2  1  0.77328600  0.35890300  0.20670800  1
  Hg  Hg3  1  0.50499800  0.99852500  0.55341300  1
  Hg  Hg4  1  0.99500200  0.49852500  0.55341300  1
  Hg  Hg5  1  0.00499800  0.99852500  0.44658700  1
  Hg  Hg6  1  0.49500200  0.49852500  0.44658700  1
  Hg  Hg7  1  0.78938300  0.04332400  0.91277200  1
  Hg  Hg8  1  0.71061700  0.54332400  0.91277200  1
  Hg  Hg9  1  0.21061700  0.54332400  0.08722800  1
  Hg  Hg10  1  0.22671400  0.85890300  0.79329200  1
  Hg  Hg11  1  0.27328600  0.35890300  0.79329200  1
  C  C12  1  0.88939200  0.29830500  0.95839500  1
  C  C13  1  0.64967500  0.23896900  0.44134800  1
  C  C14  1  0.11060800  0.79830500  0.04160500  1
  C  C15  1  0.38939200  0.29830500  0.04160500  1
  C  C16  1  0.35032500  0.73896900  0.55865200  1
  C  C17  1  0.61060800  0.79830500  0.95839500  1
  C  C18  1  0.14967500  0.23896900  0.55865200  1
  C  C19  1  0.85032500  0.73896900  0.44134800  1
  N  N20  1  0.64254300  0.34035900  0.38333700  1
  N  N21  1  0.45141800  0.20963700  0.09704600  1
  N  N22  1  0.17570600  0.14392900  0.50135300  1
  N  N23  1  0.95141800  0.20963700  0.90295400  1
  N  N24  1  0.83859300  0.39369600  0.01623400  1
  N  N25  1  0.35745700  0.84035900  0.61666300  1
  N  N26  1  0.33859300  0.39369600  0.98376600  1
  N  N27  1  0.54858200  0.70963700  0.90295400  1
  N  N28  1  0.85745700  0.84035900  0.38333700  1
  N  N29  1  0.66140700  0.89369600  0.01623400  1
  N  N30  1  0.32429400  0.64392900  0.50135300  1
  N  N31  1  0.04858200  0.70963700  0.09704600  1
  N  N32  1  0.82429400  0.64392900  0.49864700  1
  N  N33  1  0.67570600  0.14392900  0.49864700  1
  N  N34  1  0.14254300  0.34035900  0.61666300  1
  N  N35  1  0.16140700  0.89369600  0.98376600  1
  Cl  Cl36  1  0.11991000  0.42252900  0.29595400  1
  Cl  Cl37  1  0.88009000  0.92252900  0.70404600  1
  Cl  Cl38  1  0.43042600  0.09771400  0.79750400  1
  Cl  Cl39  1  0.61991000  0.42252900  0.70404600  1
  Cl  Cl40  1  0.93042600  0.09771400  0.20249600  1
  Cl  Cl41  1  0.38009000  0.92252900  0.29595400  1
  Cl  Cl42  1  0.56957400  0.59771400  0.20249600  1
  Cl  Cl43  1  0.06957400  0.59771400  0.79750400  1
