# generated using pymatgen
data_RuN5Cl3
_symmetry_space_group_name_H-M   'P 1'
_cell_length_a   5.99785100
_cell_length_b   7.88072800
_cell_length_c   16.76868000
_cell_angle_alpha   90.00000000
_cell_angle_beta   90.00000000
_cell_angle_gamma   90.00000000
_symmetry_Int_Tables_number   1
_chemical_formula_structural   RuN5Cl3
_chemical_formula_sum   'Ru4 N20 Cl12'
_cell_volume   792.61244692
_cell_formula_units_Z   4
loop_
 _symmetry_equiv_pos_site_id
 _symmetry_equiv_pos_as_xyz
  1  'x, y, z'
loop_
 _atom_site_type_symbol
 _atom_site_label
 _atom_site_symmetry_multiplicity
 _atom_site_fract_x
 _atom_site_fract_y
 _atom_site_fract_z
 _atom_site_occupancy
  Ru  Ru0  1  0.25000000  0.31682500  0.64176700  1
  Ru  Ru1  1  0.25000000  0.18317500  0.14176700  1
  Ru  Ru2  1  0.75000000  0.68317500  0.35823300  1
  Ru  Ru3  1  0.75000000  0.81682500  0.85823300  1
  N  N4  1  0.25000000  0.15708900  0.71038500  1
  N  N5  1  0.25000000  0.34291100  0.21038500  1
  N  N6  1  0.75000000  0.84291100  0.28961500  1
  N  N7  1  0.75000000  0.65708900  0.78961500  1
  N  N8  1  0.25000000  0.50480500  0.69068000  1
  N  N9  1  0.25000000  0.99519500  0.19068000  1
  N  N10  1  0.75000000  0.49519500  0.30932000  1
  N  N11  1  0.75000000  0.00480500  0.80932000  1
  N  N12  1  0.97016700  0.29572000  0.58163400  1
  N  N13  1  0.52983300  0.20428000  0.08163400  1
  N  N14  1  0.47016700  0.70428000  0.41836600  1
  N  N15  1  0.02983300  0.79572000  0.91836600  1
  N  N16  1  0.02983300  0.70428000  0.41836600  1
  N  N17  1  0.47016700  0.79572000  0.91836600  1
  N  N18  1  0.52983300  0.29572000  0.58163400  1
  N  N19  1  0.97016700  0.20428000  0.08163400  1
  N  N20  1  0.25000000  0.15175400  0.43854200  1
  N  N21  1  0.25000000  0.34824600  0.93854200  1
  N  N22  1  0.75000000  0.84824600  0.56145800  1
  N  N23  1  0.75000000  0.65175400  0.06145800  1
  Cl  Cl24  1  0.25000000  0.59638900  0.41131300  1
  Cl  Cl25  1  0.25000000  0.90361100  0.91131300  1
  Cl  Cl26  1  0.75000000  0.40361100  0.58868700  1
  Cl  Cl27  1  0.75000000  0.09638900  0.08868700  1
  Cl  Cl28  1  0.01994200  0.35237100  0.88079100  1
  Cl  Cl29  1  0.48005800  0.14762900  0.38079100  1
  Cl  Cl30  1  0.51994200  0.64762900  0.11920900  1
  Cl  Cl31  1  0.98005800  0.85237100  0.61920900  1
  Cl  Cl32  1  0.98005800  0.64762900  0.11920900  1
  Cl  Cl33  1  0.51994200  0.85237100  0.61920900  1
  Cl  Cl34  1  0.48005800  0.35237100  0.88079100  1
  Cl  Cl35  1  0.01994200  0.14762900  0.38079100  1
