# generated using pymatgen
data_CdI2
_symmetry_space_group_name_H-M   'P 1'
_cell_length_a   4.33540400
_cell_length_b   4.33540400
_cell_length_c   130.45353700
_cell_angle_alpha   90.00000000
_cell_angle_beta   90.00000000
_cell_angle_gamma   120.00000000
_symmetry_Int_Tables_number   1
_chemical_formula_structural   CdI2
_chemical_formula_sum   'Cd17 I34'
_cell_volume   2123.46759732
_cell_formula_units_Z   17
loop_
 _symmetry_equiv_pos_site_id
 _symmetry_equiv_pos_as_xyz
  1  'x, y, z'
loop_
 _atom_site_type_symbol
 _atom_site_label
 _atom_site_symmetry_multiplicity
 _atom_site_fract_x
 _atom_site_fract_y
 _atom_site_fract_z
 _atom_site_occupancy
  Cd  Cd0  1  0.00000000  0.00000000  0.48539100  1
  Cd  Cd1  1  0.33333300  0.66666700  0.72055400  1
  Cd  Cd2  1  0.00000000  0.00000000  0.36765100  1
  Cd  Cd3  1  0.33333300  0.66666700  0.66177200  1
  Cd  Cd4  1  0.33333300  0.66666700  0.95582300  1
  Cd  Cd5  1  0.66666700  0.33333300  0.83822100  1
  Cd  Cd6  1  0.33333300  0.66666700  0.54413600  1
  Cd  Cd7  1  0.33333300  0.66666700  0.89707900  1
  Cd  Cd8  1  0.33333300  0.66666700  0.30883500  1
  Cd  Cd9  1  0.00000000  0.00000000  0.24995900  1
  Cd  Cd10  1  0.00000000  0.00000000  0.13236500  1
  Cd  Cd11  1  0.00000000  0.00000000  0.01473100  1
  Cd  Cd12  1  0.00000000  0.00000000  0.60292300  1
  Cd  Cd13  1  0.33333300  0.66666700  0.07353300  1
  Cd  Cd14  1  0.33333300  0.66666700  0.42645500  1
  Cd  Cd15  1  0.33333300  0.66666700  0.77938900  1
  Cd  Cd16  1  0.33333300  0.66666700  0.19118500  1
  I  I17  1  0.66666700  0.33333300  0.32204200  1
  I  I18  1  0.66666700  0.33333300  0.43966600  1
  I  I19  1  0.66666700  0.33333300  0.55734100  1
  I  I20  1  0.00000000  0.00000000  0.94261600  1
  I  I21  1  0.00000000  0.00000000  0.29563000  1
  I  I22  1  0.00000000  0.00000000  0.88387400  1
  I  I23  1  0.66666700  0.33333300  0.14556300  1
  I  I24  1  0.00000000  0.00000000  0.17797600  1
  I  I25  1  0.00000000  0.00000000  0.64856100  1
  I  I26  1  0.33333300  0.66666700  0.23675200  1
  I  I27  1  0.66666700  0.33333300  0.96903100  1
  I  I28  1  0.66666700  0.33333300  0.20439700  1
  I  I29  1  0.33333300  0.66666700  0.47219500  1
  I  I30  1  0.66666700  0.33333300  0.67498500  1
  I  I31  1  0.33333300  0.66666700  0.11915800  1
  I  I32  1  0.66666700  0.33333300  0.38085600  1
  I  I33  1  0.00000000  0.00000000  0.41324600  1
  I  I34  1  0.00000000  0.00000000  0.06032800  1
  I  I35  1  0.33333300  0.66666700  0.85141700  1
  I  I36  1  0.66666700  0.33333300  0.02792900  1
  I  I37  1  0.33333300  0.66666700  0.00152900  1
  I  I38  1  0.00000000  0.00000000  0.53093600  1
  I  I39  1  0.33333300  0.66666700  0.35444700  1
  I  I40  1  0.66666700  0.33333300  0.61613000  1
  I  I41  1  0.00000000  0.00000000  0.70734600  1
  I  I42  1  0.66666700  0.33333300  0.91028600  1
  I  I43  1  0.66666700  0.33333300  0.08673500  1
  I  I44  1  0.66666700  0.33333300  0.79259600  1
  I  I45  1  0.00000000  0.00000000  0.82501600  1
  I  I46  1  0.33333300  0.66666700  0.58971300  1
  I  I47  1  0.00000000  0.00000000  0.76618400  1
  I  I48  1  0.66666700  0.33333300  0.73376700  1
  I  I49  1  0.66666700  0.33333300  0.26316300  1
  I  I50  1  0.66666700  0.33333300  0.49858800  1
