# generated using pymatgen
data_Cs6K7
_symmetry_space_group_name_H-M   'P 1'
_cell_length_a   9.14989567
_cell_length_b   9.14989567
_cell_length_c   33.23812900
_cell_angle_alpha   90.00000000
_cell_angle_beta   90.00000000
_cell_angle_gamma   119.99999763
_symmetry_Int_Tables_number   1
_chemical_formula_structural   Cs6K7
_chemical_formula_sum   'Cs12 K14'
_cell_volume   2409.90262975
_cell_formula_units_Z   2
loop_
 _symmetry_equiv_pos_site_id
 _symmetry_equiv_pos_as_xyz
  1  'x, y, z'
loop_
 _atom_site_type_symbol
 _atom_site_label
 _atom_site_symmetry_multiplicity
 _atom_site_fract_x
 _atom_site_fract_y
 _atom_site_fract_z
 _atom_site_occupancy
  Cs  Cs0  1  0.33333300  0.66666700  0.97698400  1
  Cs  Cs1  1  0.66666700  0.33333300  0.17846600  1
  Cs  Cs2  1  0.33333300  0.66666700  0.67846600  1
  Cs  Cs3  1  0.33333300  0.66666700  0.82153400  1
  Cs  Cs4  1  0.66666700  0.33333300  0.02301600  1
  Cs  Cs5  1  0.66666700  0.33333300  0.32153400  1
  Cs  Cs6  1  0.33333300  0.66666700  0.52301600  1
  Cs  Cs7  1  0.66666700  0.33333300  0.47698400  1
  Cs  Cs8  1  0.00000000  0.00000000  0.25000000  1
  Cs  Cs9  1  0.66666700  0.33333300  0.75000000  1
  Cs  Cs10  1  0.00000000  0.00000000  0.75000000  1
  Cs  Cs11  1  0.33333300  0.66666700  0.25000000  1
  K  K12  1  0.16715700  0.33431500  0.38542800  1
  K  K13  1  0.16715700  0.83284300  0.38542800  1
  K  K14  1  0.66568500  0.83284300  0.11457200  1
  K  K15  1  0.16715700  0.83284300  0.11457200  1
  K  K16  1  0.66568500  0.83284300  0.38542800  1
  K  K17  1  0.83284300  0.16715700  0.61457200  1
  K  K18  1  0.33431500  0.16715700  0.88542800  1
  K  K19  1  0.33431500  0.16715700  0.61457200  1
  K  K20  1  0.16715700  0.33431500  0.11457200  1
  K  K21  1  0.83284300  0.16715700  0.88542800  1
  K  K22  1  0.83284300  0.66568500  0.61457200  1
  K  K23  1  0.00000000  0.00000000  0.50000000  1
  K  K24  1  0.83284300  0.66568500  0.88542800  1
  K  K25  1  0.00000000  0.00000000  0.00000000  1
