# generated using pymatgen
data_RbCu2I3
_symmetry_space_group_name_H-M   'P 1'
_cell_length_a   5.40032700
_cell_length_b   11.24407700
_cell_length_c   13.89869800
_cell_angle_alpha   90.00000000
_cell_angle_beta   90.00000000
_cell_angle_gamma   90.00000000
_symmetry_Int_Tables_number   1
_chemical_formula_structural   RbCu2I3
_chemical_formula_sum   'Rb4 Cu8 I12'
_cell_volume   843.95246768
_cell_formula_units_Z   4
loop_
 _symmetry_equiv_pos_site_id
 _symmetry_equiv_pos_as_xyz
  1  'x, y, z'
loop_
 _atom_site_type_symbol
 _atom_site_label
 _atom_site_symmetry_multiplicity
 _atom_site_fract_x
 _atom_site_fract_y
 _atom_site_fract_z
 _atom_site_occupancy
  Rb  Rb0  1  0.25000000  0.51419500  0.18616400  1
  Rb  Rb1  1  0.25000000  0.98580500  0.68616400  1
  Rb  Rb2  1  0.75000000  0.48580500  0.81383600  1
  Rb  Rb3  1  0.75000000  0.01419500  0.31383600  1
  Cu  Cu4  1  0.50095800  0.33792600  0.49184100  1
  Cu  Cu5  1  0.99904200  0.33792600  0.49184100  1
  Cu  Cu6  1  0.50095800  0.16207400  0.99184100  1
  Cu  Cu7  1  0.49904200  0.66207400  0.50815900  1
  Cu  Cu8  1  0.00095800  0.66207400  0.50815900  1
  Cu  Cu9  1  0.00095800  0.83792600  0.00815900  1
  Cu  Cu10  1  0.49904200  0.83792600  0.00815900  1
  Cu  Cu11  1  0.99904200  0.16207400  0.99184100  1
  I  I12  1  0.25000000  0.23373900  0.35393900  1
  I  I13  1  0.75000000  0.98925800  0.89140800  1
  I  I14  1  0.25000000  0.01074200  0.10859200  1
  I  I15  1  0.75000000  0.76626100  0.64606100  1
  I  I16  1  0.25000000  0.48925800  0.60859200  1
  I  I17  1  0.75000000  0.30742600  0.10210200  1
  I  I18  1  0.75000000  0.51074200  0.39140800  1
  I  I19  1  0.25000000  0.69257400  0.89789800  1
  I  I20  1  0.25000000  0.80742600  0.39789800  1
  I  I21  1  0.75000000  0.19257400  0.60210200  1
  I  I22  1  0.75000000  0.73373900  0.14606100  1
  I  I23  1  0.25000000  0.26626100  0.85393900  1
