# generated using pymatgen
data_Rb
_symmetry_space_group_name_H-M   'P 1'
_cell_length_a   10.12031899
_cell_length_b   10.12031899
_cell_length_c   25.50585500
_cell_angle_alpha   90.00000000
_cell_angle_beta   90.00000000
_cell_angle_gamma   109.83822858
_symmetry_Int_Tables_number   1
_chemical_formula_structural   Rb
_chemical_formula_sum   Rb26
_cell_volume   2457.30152051
_cell_formula_units_Z   26
loop_
 _symmetry_equiv_pos_site_id
 _symmetry_equiv_pos_as_xyz
  1  'x, y, z'
loop_
 _atom_site_type_symbol
 _atom_site_label
 _atom_site_symmetry_multiplicity
 _atom_site_fract_x
 _atom_site_fract_y
 _atom_site_fract_z
 _atom_site_occupancy
  Rb  Rb0  1  0.41262700  0.60096500  0.92745900  1
  Rb  Rb1  1  0.60096500  0.41262700  0.07254100  1
  Rb  Rb2  1  0.17539400  0.96045500  0.39339600  1
  Rb  Rb3  1  0.08977000  0.91023000  0.75000000  1
  Rb  Rb4  1  0.42908000  0.14210600  0.23276500  1
  Rb  Rb5  1  0.82460600  0.03954500  0.89339600  1
  Rb  Rb6  1  0.03954500  0.82460600  0.10660400  1
  Rb  Rb7  1  0.70667000  0.97247500  0.45613100  1
  Rb  Rb8  1  0.97247500  0.70667000  0.54386900  1
  Rb  Rb9  1  0.02752500  0.29333000  0.04386900  1
  Rb  Rb10  1  0.85789400  0.57092000  0.26723500  1
  Rb  Rb11  1  0.39903500  0.58737300  0.57254100  1
  Rb  Rb12  1  0.41759500  0.09337700  0.58878500  1
  Rb  Rb13  1  0.48445900  0.74015700  0.31692600  1
  Rb  Rb14  1  0.57092000  0.85789400  0.73276500  1
  Rb  Rb15  1  0.51554100  0.25984300  0.81692600  1
  Rb  Rb16  1  0.25984300  0.51554100  0.18307400  1
  Rb  Rb17  1  0.09337700  0.41759500  0.41121500  1
  Rb  Rb18  1  0.91023000  0.08977000  0.25000000  1
  Rb  Rb19  1  0.58737300  0.39903500  0.42745900  1
  Rb  Rb20  1  0.14210600  0.42908000  0.76723500  1
  Rb  Rb21  1  0.96045500  0.17539400  0.60660400  1
  Rb  Rb22  1  0.74015700  0.48445900  0.68307400  1
  Rb  Rb23  1  0.58240500  0.90662300  0.08878500  1
  Rb  Rb24  1  0.29333000  0.02752500  0.95613100  1
  Rb  Rb25  1  0.90662300  0.58240500  0.91121500  1
