# generated using pymatgen
data_K14(Tl7Cd3)3
_symmetry_space_group_name_H-M   'P 1'
_cell_length_a   10.21663573
_cell_length_b   10.21663573
_cell_length_c   17.57670300
_cell_angle_alpha   90.00000000
_cell_angle_beta   90.00000000
_cell_angle_gamma   119.99999822
_symmetry_Int_Tables_number   1
_chemical_formula_structural   K14(Tl7Cd3)3
_chemical_formula_sum   'K14 Tl21 Cd9'
_cell_volume   1588.85356061
_cell_formula_units_Z   1
loop_
 _symmetry_equiv_pos_site_id
 _symmetry_equiv_pos_as_xyz
  1  'x, y, z'
loop_
 _atom_site_type_symbol
 _atom_site_label
 _atom_site_symmetry_multiplicity
 _atom_site_fract_x
 _atom_site_fract_y
 _atom_site_fract_z
 _atom_site_occupancy
  K  K0  1  0.74850600  0.00000000  0.17809000  1
  K  K1  1  0.00000000  0.38782300  0.68379900  1
  K  K2  1  0.25149400  0.25149400  0.82191000  1
  K  K3  1  0.61217700  0.61217700  0.31620100  1
  K  K4  1  0.38782300  0.00000000  0.68379900  1
  K  K5  1  0.61217700  0.61217700  0.68379900  1
  K  K6  1  0.74850600  0.00000000  0.82191000  1
  K  K7  1  0.38782300  0.00000000  0.31620100  1
  K  K8  1  0.00000000  0.74850600  0.17809000  1
  K  K9  1  0.00000000  0.38782300  0.31620100  1
  K  K10  1  0.33333300  0.66666700  0.50000000  1
  K  K11  1  0.00000000  0.74850600  0.82191000  1
  K  K12  1  0.66666700  0.33333300  0.50000000  1
  K  K13  1  0.25149400  0.25149400  0.17809000  1
  Tl  Tl14  1  0.33333300  0.66666700  0.83557800  1
  Tl  Tl15  1  0.59939200  0.59939200  0.10879200  1
  Tl  Tl16  1  0.00000000  0.40060800  0.89120800  1
  Tl  Tl17  1  0.77897200  0.77897200  0.50000000  1
  Tl  Tl18  1  0.00000000  0.00000000  0.65250600  1
  Tl  Tl19  1  0.29464500  0.29464500  0.40601000  1
  Tl  Tl20  1  0.29464500  0.29464500  0.59399000  1
  Tl  Tl21  1  0.22102800  0.00000000  0.50000000  1
  Tl  Tl22  1  0.70535500  0.00000000  0.59399000  1
  Tl  Tl23  1  0.00000000  0.22102800  0.50000000  1
  Tl  Tl24  1  0.33333300  0.66666700  0.16442200  1
  Tl  Tl25  1  0.00000000  0.40060800  0.10879200  1
  Tl  Tl26  1  0.40060800  0.00000000  0.89120800  1
  Tl  Tl27  1  0.00000000  0.70535500  0.40601000  1
  Tl  Tl28  1  0.00000000  0.00000000  0.34749400  1
  Tl  Tl29  1  0.59939200  0.59939200  0.89120800  1
  Tl  Tl30  1  0.70535500  0.00000000  0.40601000  1
  Tl  Tl31  1  0.66666700  0.33333300  0.16442200  1
  Tl  Tl32  1  0.40060800  0.00000000  0.10879200  1
  Tl  Tl33  1  0.66666700  0.33333300  0.83557800  1
  Tl  Tl34  1  0.00000000  0.70535500  0.59399000  1
  Cd  Cd35  1  0.16479500  0.00000000  0.00000000  1
  Cd  Cd36  1  0.29921000  0.47169600  0.00000000  1
  Cd  Cd37  1  0.00000000  0.16479500  0.00000000  1
  Cd  Cd38  1  0.70079000  0.17248600  0.00000000  1
  Cd  Cd39  1  0.83520500  0.83520500  0.00000000  1
  Cd  Cd40  1  0.82751400  0.52830400  0.00000000  1
  Cd  Cd41  1  0.47169600  0.29921000  0.00000000  1
  Cd  Cd42  1  0.52830400  0.82751400  0.00000000  1
  Cd  Cd43  1  0.17248600  0.70079000  0.00000000  1
