# generated using pymatgen
data_CsC3(SeN)3
_symmetry_space_group_name_H-M   'P 1'
_cell_length_a   11.62984745
_cell_length_b   11.62984745
_cell_length_c   5.78517132
_cell_angle_alpha   86.68337359
_cell_angle_beta   86.68337359
_cell_angle_gamma   137.14348569
_symmetry_Int_Tables_number   1
_chemical_formula_structural   CsC3(SeN)3
_chemical_formula_sum   'Cs2 C6 Se6 N6'
_cell_volume   525.48881258
_cell_formula_units_Z   2
loop_
 _symmetry_equiv_pos_site_id
 _symmetry_equiv_pos_as_xyz
  1  'x, y, z'
loop_
 _atom_site_type_symbol
 _atom_site_label
 _atom_site_symmetry_multiplicity
 _atom_site_fract_x
 _atom_site_fract_y
 _atom_site_fract_z
 _atom_site_occupancy
  Cs  Cs0  1  0.77576200  0.22423800  0.75000000  1
  Cs  Cs1  1  0.22423800  0.77576200  0.25000000  1
  C  C2  1  0.35718600  0.64281400  0.75000000  1
  C  C3  1  0.10207900  0.34118700  0.18209100  1
  C  C4  1  0.64281400  0.35718600  0.25000000  1
  C  C5  1  0.89792100  0.65881300  0.81790900  1
  C  C6  1  0.65881300  0.89792100  0.31790900  1
  C  C7  1  0.34118700  0.10207900  0.68209100  1
  Se  Se8  1  0.44201800  0.55798200  0.75000000  1
  Se  Se9  1  0.13357700  0.25388100  0.96805100  1
  Se  Se10  1  0.86642300  0.74611900  0.03194900  1
  Se  Se11  1  0.74611900  0.86642300  0.53194900  1
  Se  Se12  1  0.55798200  0.44201800  0.25000000  1
  Se  Se13  1  0.25388100  0.13357700  0.46805100  1
  N  N14  1  0.39724900  0.07806900  0.81365900  1
  N  N15  1  0.60275100  0.92193100  0.18634100  1
  N  N16  1  0.30296000  0.69704000  0.75000000  1
  N  N17  1  0.07806900  0.39724900  0.31365900  1
  N  N18  1  0.69704000  0.30296000  0.25000000  1
  N  N19  1  0.92193100  0.60275100  0.68634100  1
