# generated using pymatgen
data_Zn3Fe2(CN)12
_symmetry_space_group_name_H-M   'P 1'
_cell_length_a   13.04970176
_cell_length_b   13.04970176
_cell_length_c   13.04970150
_cell_angle_alpha   58.32390517
_cell_angle_beta   58.32390517
_cell_angle_gamma   58.32390336
_symmetry_Int_Tables_number   1
_chemical_formula_structural   Zn3Fe2(CN)12
_chemical_formula_sum   'Zn6 Fe4 C24 N24'
_cell_volume   1511.09004756
_cell_formula_units_Z   2
loop_
 _symmetry_equiv_pos_site_id
 _symmetry_equiv_pos_as_xyz
  1  'x, y, z'
loop_
 _atom_site_type_symbol
 _atom_site_label
 _atom_site_symmetry_multiplicity
 _atom_site_fract_x
 _atom_site_fract_y
 _atom_site_fract_z
 _atom_site_occupancy
  Zn  Zn0  1  0.96067700  0.25000000  0.53932300  1
  Zn  Zn1  1  0.46067700  0.03932300  0.75000000  1
  Zn  Zn2  1  0.25000000  0.53932300  0.96067700  1
  Zn  Zn3  1  0.53932300  0.96067700  0.25000000  1
  Zn  Zn4  1  0.75000000  0.46067700  0.03932300  1
  Zn  Zn5  1  0.03932300  0.75000000  0.46067700  1
  Fe  Fe6  1  0.64585800  0.64585800  0.64585800  1
  Fe  Fe7  1  0.35414200  0.35414200  0.35414200  1
  Fe  Fe8  1  0.85414200  0.85414200  0.85414200  1
  Fe  Fe9  1  0.14585800  0.14585800  0.14585800  1
  C  C10  1  0.55156100  0.79427900  0.69463500  1
  C  C11  1  0.25146400  0.50329700  0.40141700  1
  C  C12  1  0.05156100  0.19463500  0.29427900  1
  C  C13  1  0.69463500  0.55156100  0.79427900  1
  C  C14  1  0.99670300  0.24853600  0.09858300  1
  C  C15  1  0.29427900  0.05156100  0.19463500  1
  C  C16  1  0.20572100  0.30536500  0.44843900  1
  C  C17  1  0.49670300  0.59858300  0.74853600  1
  C  C18  1  0.74853600  0.49670300  0.59858300  1
  C  C19  1  0.79427900  0.69463500  0.55156100  1
  C  C20  1  0.50329700  0.40141700  0.25146400  1
  C  C21  1  0.30536500  0.44843900  0.20572100  1
  C  C22  1  0.90141700  0.00329700  0.75146400  1
  C  C23  1  0.70572100  0.94843900  0.80536500  1
  C  C24  1  0.00329700  0.75146400  0.90141700  1
  C  C25  1  0.40141700  0.25146400  0.50329700  1
  C  C26  1  0.94843900  0.80536500  0.70572100  1
  C  C27  1  0.24853600  0.09858300  0.99670300  1
  C  C28  1  0.44843900  0.20572100  0.30536500  1
  C  C29  1  0.75146400  0.90141700  0.00329700  1
  C  C30  1  0.59858300  0.74853600  0.49670300  1
  C  C31  1  0.80536500  0.70572100  0.94843900  1
  C  C32  1  0.09858300  0.99670300  0.24853600  1
  C  C33  1  0.19463500  0.29427900  0.05156100  1
  N  N34  1  0.18384300  0.59568600  0.42917400  1
  N  N35  1  0.27531900  0.50096800  0.11535300  1
  N  N36  1  0.07082600  0.90431400  0.31615700  1
  N  N37  1  0.77531900  0.61535300  0.00096800  1
  N  N38  1  0.22468100  0.38464700  0.99903200  1
  N  N39  1  0.81615700  0.40431400  0.57082600  1
  N  N40  1  0.59568600  0.42917400  0.18384300  1
  N  N41  1  0.90431400  0.31615700  0.07082600  1
  N  N42  1  0.49903200  0.88464700  0.72468100  1
  N  N43  1  0.00096800  0.77531900  0.61535300  1
  N  N44  1  0.92917400  0.09568600  0.68384300  1
  N  N45  1  0.42917400  0.18384300  0.59568600  1
  N  N46  1  0.61535300  0.00096800  0.77531900  1
  N  N47  1  0.50096800  0.11535300  0.27531900  1
  N  N48  1  0.99903200  0.22468100  0.38464700  1
  N  N49  1  0.57082600  0.81615700  0.40431400  1
  N  N50  1  0.88464700  0.72468100  0.49903200  1
  N  N51  1  0.72468100  0.49903200  0.88464700  1
  N  N52  1  0.38464700  0.99903200  0.22468100  1
  N  N53  1  0.31615700  0.07082600  0.90431400  1
  N  N54  1  0.11535300  0.27531900  0.50096800  1
  N  N55  1  0.09568600  0.68384300  0.92917400  1
  N  N56  1  0.40431400  0.57082600  0.81615700  1
  N  N57  1  0.68384300  0.92917400  0.09568600  1
