# generated using pymatgen
data_Mg8B5IN10
_symmetry_space_group_name_H-M   'P 1'
_cell_length_a   10.03251108
_cell_length_b   10.03251108
_cell_length_c   10.03251108
_cell_angle_alpha   124.19331863
_cell_angle_beta   111.47272984
_cell_angle_gamma   94.12626786
_symmetry_Int_Tables_number   1
_chemical_formula_structural   Mg8B5IN10
_chemical_formula_sum   'Mg16 B10 I2 N20'
_cell_volume   724.93105293
_cell_formula_units_Z   2
loop_
 _symmetry_equiv_pos_site_id
 _symmetry_equiv_pos_as_xyz
  1  'x, y, z'
loop_
 _atom_site_type_symbol
 _atom_site_label
 _atom_site_symmetry_multiplicity
 _atom_site_fract_x
 _atom_site_fract_y
 _atom_site_fract_z
 _atom_site_occupancy
  Mg  Mg0  1  0.89519300  0.89519300  0.50000000  1
  Mg  Mg1  1  0.50000000  0.75110500  0.25110500  1
  Mg  Mg2  1  0.68430300  0.18430300  0.00000000  1
  Mg  Mg3  1  0.68430300  0.68430300  0.50000000  1
  Mg  Mg4  1  0.72473200  0.04594700  0.27067900  1
  Mg  Mg5  1  0.10480700  0.60480700  0.00000000  1
  Mg  Mg6  1  0.50000000  0.24889500  0.74889500  1
  Mg  Mg7  1  0.10480700  0.10480700  0.50000000  1
  Mg  Mg8  1  0.00000000  0.74889500  0.74889500  1
  Mg  Mg9  1  0.72473200  0.45405300  0.67878500  1
  Mg  Mg10  1  0.31569700  0.81569700  0.00000000  1
  Mg  Mg11  1  0.27526800  0.54594700  0.32121500  1
  Mg  Mg12  1  0.27526800  0.95405300  0.72932100  1
  Mg  Mg13  1  0.31569700  0.31569700  0.50000000  1
  Mg  Mg14  1  0.00000000  0.25110500  0.25110500  1
  Mg  Mg15  1  0.89519300  0.39519300  0.00000000  1
  B  B16  1  0.69245100  0.54429300  0.14815800  1
  B  B17  1  0.90329100  0.25000000  0.65329100  1
  B  B18  1  0.48546200  0.88585900  0.59960300  1
  B  B19  1  0.78625500  0.38585900  0.40039700  1
  B  B20  1  0.30754900  0.45570700  0.85184200  1
  B  B21  1  0.09670900  0.75000000  0.34670900  1
  B  B22  1  0.89613500  0.04429300  0.85184200  1
  B  B23  1  0.51453800  0.11414100  0.40039700  1
  B  B24  1  0.21374500  0.61414100  0.59960300  1
  B  B25  1  0.10386500  0.95570700  0.14815800  1
  I  I26  1  0.34753700  0.25000000  0.09753700  1
  I  I27  1  0.65246300  0.75000000  0.90246300  1
  N  N28  1  0.21259300  0.47198500  0.45399000  1
  N  N29  1  0.48200500  0.02801500  0.74060800  1
  N  N30  1  0.69320600  0.40081700  0.00750600  1
  N  N31  1  0.78740700  0.52801500  0.54601000  1
  N  N32  1  0.30679400  0.31430000  0.70761100  1
  N  N33  1  0.30679400  0.59918300  0.99249400  1
  N  N34  1  0.48200500  0.74139700  0.45399000  1
  N  N35  1  0.51799500  0.97198500  0.25939200  1
  N  N36  1  0.90071800  0.39269700  0.79341500  1
  N  N37  1  0.21259300  0.75860300  0.74060800  1
  N  N38  1  0.78740700  0.24139700  0.25939200  1
  N  N39  1  0.89331100  0.18570000  0.99249400  1
  N  N40  1  0.10668900  0.09918300  0.29238900  1
  N  N41  1  0.89331100  0.90081700  0.70761100  1
  N  N42  1  0.09928200  0.89269700  0.49197900  1
  N  N43  1  0.10668900  0.81430000  0.00750600  1
  N  N44  1  0.90071800  0.10730300  0.50802100  1
  N  N45  1  0.69320600  0.68570000  0.29238900  1
  N  N46  1  0.51799500  0.25860300  0.54601000  1
  N  N47  1  0.09928200  0.60730300  0.20658500  1
