# generated using pymatgen
data_RuF3
_symmetry_space_group_name_H-M   'P 1'
_cell_length_a   15.09307483
_cell_length_b   6.28878307
_cell_length_c   8.76815989
_cell_angle_alpha   141.99068811
_cell_angle_beta   149.39247936
_cell_angle_gamma   23.72936392
_symmetry_Int_Tables_number   1
_chemical_formula_structural   RuF3
_chemical_formula_sum   'Ru2 F6'
_cell_volume   170.52129121
_cell_formula_units_Z   2
loop_
 _symmetry_equiv_pos_site_id
 _symmetry_equiv_pos_as_xyz
  1  'x, y, z'
loop_
 _atom_site_type_symbol
 _atom_site_label
 _atom_site_symmetry_multiplicity
 _atom_site_fract_x
 _atom_site_fract_y
 _atom_site_fract_z
 _atom_site_occupancy
  Ru  Ru0  1  0.00000000  0.50000000  0.00000000  1
  Ru  Ru1  1  0.00000000  0.00000000  0.00000000  1
  F  F2  1  0.67950100  0.33188200  0.80682400  1
  F  F3  1  0.85254700  0.25000000  0.70509400  1
  F  F4  1  0.12732300  0.16811800  0.80682400  1
  F  F5  1  0.32049900  0.66811800  0.19317600  1
  F  F6  1  0.14745300  0.75000000  0.29490600  1
  F  F7  1  0.87267700  0.83188200  0.19317600  1
