# generated using pymatgen
data_Ba11(CdSb2)6
_symmetry_space_group_name_H-M   'P 1'
_cell_length_a   17.52854730
_cell_length_b   17.52854730
_cell_length_c   13.42215868
_cell_angle_alpha   70.44035783
_cell_angle_beta   70.44035783
_cell_angle_gamma   16.31192115
_symmetry_Int_Tables_number   1
_chemical_formula_structural   Ba11(CdSb2)6
_chemical_formula_sum   'Ba11 Cd6 Sb12'
_cell_volume   1090.02500464
_cell_formula_units_Z   1
loop_
 _symmetry_equiv_pos_site_id
 _symmetry_equiv_pos_as_xyz
  1  'x, y, z'
loop_
 _atom_site_type_symbol
 _atom_site_label
 _atom_site_symmetry_multiplicity
 _atom_site_fract_x
 _atom_site_fract_y
 _atom_site_fract_z
 _atom_site_occupancy
  Ba  Ba0  1  0.11323300  0.11323400  0.49046100  1
  Ba  Ba1  1  0.12607000  0.12607000  0.98061400  1
  Ba  Ba2  1  0.01793200  0.01793200  0.32085100  1
  Ba  Ba3  1  0.28062000  0.28062000  0.86521600  1
  Ba  Ba4  1  0.19939500  0.19939500  0.65341800  1
  Ba  Ba5  1  0.80060500  0.80060500  0.34658200  1
  Ba  Ba6  1  0.00000000  0.00000000  0.00000000  1
  Ba  Ba7  1  0.88676600  0.88676600  0.50953900  1
  Ba  Ba8  1  0.87393000  0.87393000  0.01938600  1
  Ba  Ba9  1  0.98206800  0.98206800  0.67914900  1
  Ba  Ba10  1  0.71938000  0.71938000  0.13478400  1
  Cd  Cd11  1  0.40054000  0.40054000  0.74597600  1
  Cd  Cd12  1  0.78161100  0.78161100  0.67134400  1
  Cd  Cd13  1  0.54602400  0.54602400  0.75970800  1
  Cd  Cd14  1  0.21838900  0.21838900  0.32865600  1
  Cd  Cd15  1  0.45397600  0.45397600  0.24029200  1
  Cd  Cd16  1  0.59946000  0.59946000  0.25402400  1
  Sb  Sb17  1  0.45351100  0.45351100  0.87978400  1
  Sb  Sb18  1  0.30729200  0.30729200  0.54411900  1
  Sb  Sb19  1  0.69270800  0.69270800  0.45588100  1
  Sb  Sb20  1  0.91348700  0.91348700  0.23571500  1
  Sb  Sb21  1  0.14699900  0.14699900  0.21723500  1
  Sb  Sb22  1  0.54648900  0.54648900  0.12021600  1
  Sb  Sb23  1  0.70662000  0.70662000  0.85675200  1
  Sb  Sb24  1  0.45802400  0.45802400  0.50632600  1
  Sb  Sb25  1  0.54197600  0.54197600  0.49367400  1
  Sb  Sb26  1  0.85300100  0.85300100  0.78276500  1
  Sb  Sb27  1  0.08651300  0.08651300  0.76428500  1
  Sb  Sb28  1  0.29338000  0.29338000  0.14324800  1
