# generated using pymatgen
data_CdI2
_symmetry_space_group_name_H-M   'P 1'
_cell_length_a   4.33345019
_cell_length_b   4.33345019
_cell_length_c   59.35997600
_cell_angle_alpha   90.00000000
_cell_angle_beta   90.00000000
_cell_angle_gamma   120.00000283
_symmetry_Int_Tables_number   1
_chemical_formula_structural   CdI2
_chemical_formula_sum   'Cd8 I16'
_cell_volume   965.36589797
_cell_formula_units_Z   8
loop_
 _symmetry_equiv_pos_site_id
 _symmetry_equiv_pos_as_xyz
  1  'x, y, z'
loop_
 _atom_site_type_symbol
 _atom_site_label
 _atom_site_symmetry_multiplicity
 _atom_site_fract_x
 _atom_site_fract_y
 _atom_site_fract_z
 _atom_site_occupancy
  Cd  Cd0  1  0.33333300  0.66666700  0.53127300  1
  Cd  Cd1  1  0.66666700  0.33333300  0.90622100  1
  Cd  Cd2  1  0.33333300  0.66666700  0.78127200  1
  Cd  Cd3  1  0.66666700  0.33333300  0.03126700  1
  Cd  Cd4  1  0.66666700  0.33333300  0.40621700  1
  Cd  Cd5  1  0.00000000  0.00000000  0.15618400  1
  Cd  Cd6  1  0.66666700  0.33333300  0.65621300  1
  Cd  Cd7  1  0.33333300  0.66666700  0.28132000  1
  I  I8  1  0.00000000  0.00000000  0.00223400  1
  I  I9  1  0.33333300  0.66666700  0.68528000  1
  I  I10  1  0.66666700  0.33333300  0.12711500  1
  I  I11  1  0.00000000  0.00000000  0.25229400  1
  I  I12  1  0.00000000  0.00000000  0.37716100  1
  I  I13  1  0.33333300  0.66666700  0.06031900  1
  I  I14  1  0.66666700  0.33333300  0.81032400  1
  I  I15  1  0.33333300  0.66666700  0.18523100  1
  I  I16  1  0.66666700  0.33333300  0.56032600  1
  I  I17  1  0.00000000  0.00000000  0.62715800  1
  I  I18  1  0.33333300  0.66666700  0.43528400  1
  I  I19  1  0.33333300  0.66666700  0.93528500  1
  I  I20  1  0.00000000  0.00000000  0.87717200  1
  I  I21  1  0.66666700  0.33333300  0.31037700  1
  I  I22  1  0.00000000  0.00000000  0.50223500  1
  I  I23  1  0.00000000  0.00000000  0.75223600  1
