# generated using pymatgen
data_RbNb3VCl11
_symmetry_space_group_name_H-M   'P 1'
_cell_length_a   6.89598000
_cell_length_b   13.65287500
_cell_length_c   17.24663200
_cell_angle_alpha   90.00000000
_cell_angle_beta   90.00000000
_cell_angle_gamma   90.00000000
_symmetry_Int_Tables_number   1
_chemical_formula_structural   RbNb3VCl11
_chemical_formula_sum   'Rb4 Nb12 V4 Cl44'
_cell_volume   1623.76959122
_cell_formula_units_Z   4
loop_
 _symmetry_equiv_pos_site_id
 _symmetry_equiv_pos_as_xyz
  1  'x, y, z'
loop_
 _atom_site_type_symbol
 _atom_site_label
 _atom_site_symmetry_multiplicity
 _atom_site_fract_x
 _atom_site_fract_y
 _atom_site_fract_z
 _atom_site_occupancy
  Rb  Rb0  1  0.25000000  0.50684000  0.73870500  1
  Rb  Rb1  1  0.75000000  0.49316000  0.26129500  1
  Rb  Rb2  1  0.75000000  0.99316000  0.23870500  1
  Rb  Rb3  1  0.25000000  0.00684000  0.76129500  1
  Nb  Nb4  1  0.75000000  0.19049100  0.64679500  1
  Nb  Nb5  1  0.04409800  0.25262300  0.01266000  1
  Nb  Nb6  1  0.25000000  0.30950900  0.14679500  1
  Nb  Nb7  1  0.54409800  0.74737700  0.98734000  1
  Nb  Nb8  1  0.95590200  0.74737700  0.98734000  1
  Nb  Nb9  1  0.45590200  0.75262300  0.48734000  1
  Nb  Nb10  1  0.75000000  0.69049100  0.85320500  1
  Nb  Nb11  1  0.04409800  0.75262300  0.48734000  1
  Nb  Nb12  1  0.45590200  0.25262300  0.01266000  1
  Nb  Nb13  1  0.25000000  0.80950900  0.35320500  1
  Nb  Nb14  1  0.95590200  0.24737700  0.51266000  1
  Nb  Nb15  1  0.54409800  0.24737700  0.51266000  1
  V  V16  1  0.75000000  0.68138800  0.66402200  1
  V  V17  1  0.25000000  0.31861200  0.33597800  1
  V  V18  1  0.75000000  0.18138800  0.83597800  1
  V  V19  1  0.25000000  0.81861200  0.16402200  1
  Cl  Cl20  1  0.00207500  0.11060700  0.91889500  1
  Cl  Cl21  1  0.25000000  0.32186500  0.58410800  1
  Cl  Cl22  1  0.75000000  0.15862600  0.41945400  1
  Cl  Cl23  1  0.25000000  0.14307300  0.09037100  1
  Cl  Cl24  1  0.25000000  0.17794000  0.42758400  1
  Cl  Cl25  1  0.99564300  0.08989900  0.58095900  1
  Cl  Cl26  1  0.25000000  0.34137400  0.91945400  1
  Cl  Cl27  1  0.50435700  0.58989900  0.91904100  1
  Cl  Cl28  1  0.75000000  0.35692700  0.59037100  1
  Cl  Cl29  1  0.51085600  0.25413800  0.74702500  1
  Cl  Cl30  1  0.98914400  0.75413800  0.75297500  1
  Cl  Cl31  1  0.75000000  0.32206000  0.92758400  1
  Cl  Cl32  1  0.00207500  0.61060700  0.58110500  1
  Cl  Cl33  1  0.49792500  0.61060700  0.58110500  1
  Cl  Cl34  1  0.48914400  0.24586200  0.24702500  1
  Cl  Cl35  1  0.25000000  0.64307300  0.40962900  1
  Cl  Cl36  1  0.48914400  0.74586200  0.25297500  1
  Cl  Cl37  1  0.25000000  0.84137400  0.58054600  1
  Cl  Cl38  1  0.75000000  0.04302500  0.74622400  1
  Cl  Cl39  1  0.99564300  0.58989900  0.91904100  1
  Cl  Cl40  1  0.01085600  0.74586200  0.25297500  1
  Cl  Cl41  1  0.25000000  0.95697500  0.25377600  1
  Cl  Cl42  1  0.75000000  0.82206000  0.57241600  1
  Cl  Cl43  1  0.01085600  0.24586200  0.24702500  1
  Cl  Cl44  1  0.49792500  0.11060700  0.91889500  1
  Cl  Cl45  1  0.75000000  0.17813500  0.08410800  1
  Cl  Cl46  1  0.75000000  0.67813500  0.41589200  1
  Cl  Cl47  1  0.00435700  0.41010100  0.08095900  1
  Cl  Cl48  1  0.49564300  0.41010100  0.08095900  1
  Cl  Cl49  1  0.50435700  0.08989900  0.58095900  1
  Cl  Cl50  1  0.98914400  0.25413800  0.74702500  1
  Cl  Cl51  1  0.25000000  0.67794000  0.07241600  1
  Cl  Cl52  1  0.25000000  0.82186500  0.91589200  1
  Cl  Cl53  1  0.50207500  0.88939300  0.08110500  1
  Cl  Cl54  1  0.75000000  0.65862600  0.08054600  1
  Cl  Cl55  1  0.49564300  0.91010100  0.41904100  1
  Cl  Cl56  1  0.51085600  0.75413800  0.75297500  1
  Cl  Cl57  1  0.25000000  0.45697500  0.24622400  1
  Cl  Cl58  1  0.99792500  0.38939300  0.41889500  1
  Cl  Cl59  1  0.75000000  0.54302500  0.75377600  1
  Cl  Cl60  1  0.99792500  0.88939300  0.08110500  1
  Cl  Cl61  1  0.50207500  0.38939300  0.41889500  1
  Cl  Cl62  1  0.00435700  0.91010100  0.41904100  1
  Cl  Cl63  1  0.75000000  0.85692700  0.90962900  1
