# generated using pymatgen
data_C3N4
_symmetry_space_group_name_H-M   'P 1'
_cell_length_a   4.51301106
_cell_length_b   4.51301106
_cell_length_c   4.51301066
_cell_angle_alpha   64.02052374
_cell_angle_beta   64.02052374
_cell_angle_gamma   64.02052572
_symmetry_Int_Tables_number   1
_chemical_formula_structural   C3N4
_chemical_formula_sum   'C3 N4'
_cell_volume   70.74981022
_cell_formula_units_Z   1
loop_
 _symmetry_equiv_pos_site_id
 _symmetry_equiv_pos_as_xyz
  1  'x, y, z'
loop_
 _atom_site_type_symbol
 _atom_site_label
 _atom_site_symmetry_multiplicity
 _atom_site_fract_x
 _atom_site_fract_y
 _atom_site_fract_z
 _atom_site_occupancy
  C  C0  1  0.49006700  0.49006700  0.01932800  1
  C  C1  1  0.49006700  0.01932800  0.49006700  1
  C  C2  1  0.01932800  0.49006700  0.49006700  1
  N  N3  1  0.65970200  0.17011500  0.17011500  1
  N  N4  1  0.17011500  0.17011500  0.65970200  1
  N  N5  1  0.66560500  0.66560500  0.66560500  1
  N  N6  1  0.17011500  0.65970200  0.17011500  1
