# generated using pymatgen
data_NaN3
_symmetry_space_group_name_H-M   'P 1'
_cell_length_a   3.67377492
_cell_length_b   3.67377492
_cell_length_c   5.40860344
_cell_angle_alpha   73.50337170
_cell_angle_beta   73.50337170
_cell_angle_gamma   60.84954526
_symmetry_Int_Tables_number   1
_chemical_formula_structural   NaN3
_chemical_formula_sum   'Na1 N3'
_cell_volume   60.19633631
_cell_formula_units_Z   1
loop_
 _symmetry_equiv_pos_site_id
 _symmetry_equiv_pos_as_xyz
  1  'x, y, z'
loop_
 _atom_site_type_symbol
 _atom_site_label
 _atom_site_symmetry_multiplicity
 _atom_site_fract_x
 _atom_site_fract_y
 _atom_site_fract_z
 _atom_site_occupancy
  Na  Na0  1  0.00000000  0.00000000  0.00000000  1
  N  N1  1  0.40754600  0.40754600  0.72956400  1
  N  N2  1  0.59245400  0.59245400  0.27043600  1
  N  N3  1  0.50000000  0.50000000  0.50000000  1
