# generated using pymatgen
data_Ba
_symmetry_space_group_name_H-M   'P 1'
_cell_length_a   7.00534655
_cell_length_b   7.00534655
_cell_length_c   7.00534655
_cell_angle_alpha   106.88815692
_cell_angle_beta   106.88815692
_cell_angle_gamma   114.77091243
_symmetry_Int_Tables_number   1
_chemical_formula_structural   Ba
_chemical_formula_sum   Ba4
_cell_volume   262.93290171
_cell_formula_units_Z   4
loop_
 _symmetry_equiv_pos_site_id
 _symmetry_equiv_pos_as_xyz
  1  'x, y, z'
loop_
 _atom_site_type_symbol
 _atom_site_label
 _atom_site_symmetry_multiplicity
 _atom_site_fract_x
 _atom_site_fract_y
 _atom_site_fract_z
 _atom_site_occupancy
  Ba  Ba0  1  0.17498900  0.67498900  0.84997800  1
  Ba  Ba1  1  0.82501100  0.32501100  0.15002200  1
  Ba  Ba2  1  0.67498900  0.82501100  0.50000000  1
  Ba  Ba3  1  0.32501100  0.17498900  0.50000000  1
