# generated using pymatgen
data_S2N3O8
_symmetry_space_group_name_H-M   'P 1'
_cell_length_a   5.46569700
_cell_length_b   11.32680900
_cell_length_c   16.62838753
_cell_angle_alpha   76.23866295
_cell_angle_beta   90.00000000
_cell_angle_gamma   90.00000000
_symmetry_Int_Tables_number   1
_chemical_formula_structural   S2N3O8
_chemical_formula_sum   'S8 N12 O32'
_cell_volume   999.89507396
_cell_formula_units_Z   4
loop_
 _symmetry_equiv_pos_site_id
 _symmetry_equiv_pos_as_xyz
  1  'x, y, z'
loop_
 _atom_site_type_symbol
 _atom_site_label
 _atom_site_symmetry_multiplicity
 _atom_site_fract_x
 _atom_site_fract_y
 _atom_site_fract_z
 _atom_site_occupancy
  S  S0  1  0.74195900  0.33256000  0.59673600  1
  S  S1  1  0.74195900  0.66744000  0.40326400  1
  S  S2  1  0.75582600  0.16393600  0.90592200  1
  S  S3  1  0.75582600  0.83606400  0.09407800  1
  S  S4  1  0.21874400  0.33665100  0.10113000  1
  S  S5  1  0.21874400  0.66334900  0.89887000  1
  S  S6  1  0.28386200  0.16590600  0.39728400  1
  S  S7  1  0.28386200  0.83409400  0.60271600  1
  N  N8  1  0.86469500  0.39309400  0.31819700  1
  N  N9  1  0.86469500  0.60690600  0.68180300  1
  N  N10  1  0.32864500  0.10532700  0.68699500  1
  N  N11  1  0.32864500  0.89467300  0.31300500  1
  N  N12  1  0.62477800  0.10415500  0.18198300  1
  N  N13  1  0.62477800  0.89584500  0.81801700  1
  N  N14  1  0.15962000  0.39626200  0.80799500  1
  N  N15  1  0.15962000  0.60373800  0.19200500  1
  N  N16  1  0.18513400  0.50000000  0.50000000  1
  N  N17  1  0.75027900  0.50000000  0.00000000  1
  N  N18  1  0.32632600  0.00000000  0.00000000  1
  N  N19  1  0.74926000  0.00000000  0.50000000  1
  O  O20  1  0.95214500  0.37961300  0.82082600  1
  O  O21  1  0.95214500  0.62038700  0.17917400  1
  O  O22  1  0.99763300  0.30272100  0.14816900  1
  O  O23  1  0.99763300  0.69727900  0.85183100  1
  O  O24  1  0.10391100  0.09355200  0.36725000  1
  O  O25  1  0.10391100  0.90644800  0.63275000  1
  O  O26  1  0.40395400  0.40501300  0.13208900  1
  O  O27  1  0.40395400  0.59498700  0.86791100  1
  O  O28  1  0.56582000  0.40207100  0.63072400  1
  O  O29  1  0.56582000  0.59792900  0.36927600  1
  O  O30  1  0.06846500  0.38005700  0.33828900  1
  O  O31  1  0.06846500  0.61994300  0.66171100  1
  O  O32  1  0.50239500  0.20274500  0.34921600  1
  O  O33  1  0.50239500  0.79725500  0.65078400  1
  O  O34  1  0.93158000  0.09121000  0.87472400  1
  O  O35  1  0.93158000  0.90879000  0.12527600  1
  O  O36  1  0.53765000  0.11730000  0.67530700  1
  O  O37  1  0.53765000  0.88270000  0.32469300  1
  O  O38  1  0.41652100  0.12045100  0.17027300  1
  O  O39  1  0.41652100  0.87954900  0.82972700  1
  O  O40  1  0.96991100  0.29835900  0.63946200  1
  O  O41  1  0.96991100  0.70164100  0.36053800  1
  O  O42  1  0.53085100  0.19854200  0.86160200  1
  O  O43  1  0.53085100  0.80145800  0.13839800  1
  O  O44  1  0.79102400  0.18795600  0.98626900  1
  O  O45  1  0.79102400  0.81204400  0.01373100  1
  O  O46  1  0.23799800  0.32057100  0.01798300  1
  O  O47  1  0.23799800  0.67942900  0.98201700  1
  O  O48  1  0.70755700  0.31462800  0.51459400  1
  O  O49  1  0.70755700  0.68537200  0.48540600  1
  O  O50  1  0.26655700  0.18071900  0.48081100  1
  O  O51  1  0.26655700  0.81928100  0.51918900  1
