# generated using pymatgen
data_RhN3Cl6O
_symmetry_space_group_name_H-M   'P 1'
_cell_length_a   6.91090000
_cell_length_b   11.80387400
_cell_length_c   13.66739700
_cell_angle_alpha   90.00000000
_cell_angle_beta   90.00000000
_cell_angle_gamma   90.00000000
_symmetry_Int_Tables_number   1
_chemical_formula_structural   RhN3Cl6O
_chemical_formula_sum   'Rh4 N12 Cl24 O4'
_cell_volume   1114.92327919
_cell_formula_units_Z   4
loop_
 _symmetry_equiv_pos_site_id
 _symmetry_equiv_pos_as_xyz
  1  'x, y, z'
loop_
 _atom_site_type_symbol
 _atom_site_label
 _atom_site_symmetry_multiplicity
 _atom_site_fract_x
 _atom_site_fract_y
 _atom_site_fract_z
 _atom_site_occupancy
  Rh  Rh0  1  0.25000000  0.73033400  0.59541500  1
  Rh  Rh1  1  0.25000000  0.23033400  0.90458500  1
  Rh  Rh2  1  0.75000000  0.26966600  0.40458500  1
  Rh  Rh3  1  0.75000000  0.76966600  0.09541500  1
  N  N4  1  0.25000000  0.97320500  0.03199700  1
  N  N5  1  0.25000000  0.47320500  0.46800300  1
  N  N6  1  0.75000000  0.02679500  0.96800300  1
  N  N7  1  0.75000000  0.52679500  0.53199700  1
  N  N8  1  0.25000000  0.50170500  0.79715900  1
  N  N9  1  0.25000000  0.00170500  0.70284100  1
  N  N10  1  0.75000000  0.49829500  0.20284100  1
  N  N11  1  0.75000000  0.99829500  0.29715900  1
  N  N12  1  0.25000000  0.60777000  0.12950100  1
  N  N13  1  0.25000000  0.10777000  0.37049900  1
  N  N14  1  0.75000000  0.39223000  0.87049900  1
  N  N15  1  0.75000000  0.89223000  0.62950100  1
  Cl  Cl16  1  0.25000000  0.87396700  0.74195200  1
  Cl  Cl17  1  0.25000000  0.37396700  0.75804800  1
  Cl  Cl18  1  0.75000000  0.12603300  0.25804800  1
  Cl  Cl19  1  0.75000000  0.62603300  0.24195200  1
  Cl  Cl20  1  0.25000000  0.60473700  0.45534500  1
  Cl  Cl21  1  0.25000000  0.10473700  0.04465500  1
  Cl  Cl22  1  0.75000000  0.39526300  0.54465500  1
  Cl  Cl23  1  0.75000000  0.89526300  0.95534500  1
  Cl  Cl24  1  0.01282100  0.62745500  0.67327000  1
  Cl  Cl25  1  0.48717900  0.12745500  0.82673000  1
  Cl  Cl26  1  0.51282100  0.37254500  0.32673000  1
  Cl  Cl27  1  0.98717900  0.87254500  0.17327000  1
  Cl  Cl28  1  0.98717900  0.37254500  0.32673000  1
  Cl  Cl29  1  0.51282100  0.87254500  0.17327000  1
  Cl  Cl30  1  0.48717900  0.62745500  0.67327000  1
  Cl  Cl31  1  0.01282100  0.12745500  0.82673000  1
  Cl  Cl32  1  0.01271700  0.84204000  0.51444400  1
  Cl  Cl33  1  0.48728300  0.34204000  0.98555600  1
  Cl  Cl34  1  0.51271700  0.15796000  0.48555600  1
  Cl  Cl35  1  0.98728300  0.65796000  0.01444400  1
  Cl  Cl36  1  0.98728300  0.15796000  0.48555600  1
  Cl  Cl37  1  0.51271700  0.65796000  0.01444400  1
  Cl  Cl38  1  0.48728300  0.84204000  0.51444400  1
  Cl  Cl39  1  0.01271700  0.34204000  0.98555600  1
  O  O40  1  0.25000000  0.01308100  0.35492900  1
  O  O41  1  0.25000000  0.51308100  0.14507100  1
  O  O42  1  0.75000000  0.98691900  0.64507100  1
  O  O43  1  0.75000000  0.48691900  0.85492900  1
