# generated using pymatgen
data_CdI2
_symmetry_space_group_name_H-M   'P 1'
_cell_length_a   4.33290046
_cell_length_b   4.33290046
_cell_length_c   67.04069400
_cell_angle_alpha   90.00000000
_cell_angle_beta   90.00000000
_cell_angle_gamma   120.00000698
_symmetry_Int_Tables_number   1
_chemical_formula_structural   CdI2
_chemical_formula_sum   'Cd9 I18'
_cell_volume   1090.00007083
_cell_formula_units_Z   9
loop_
 _symmetry_equiv_pos_site_id
 _symmetry_equiv_pos_as_xyz
  1  'x, y, z'
loop_
 _atom_site_type_symbol
 _atom_site_label
 _atom_site_symmetry_multiplicity
 _atom_site_fract_x
 _atom_site_fract_y
 _atom_site_fract_z
 _atom_site_occupancy
  Cd  Cd0  1  0.00000000  0.00000000  0.80556100  1
  Cd  Cd1  1  0.66666700  0.33333300  0.58331500  1
  Cd  Cd2  1  0.00000000  0.00000000  0.47222400  1
  Cd  Cd3  1  0.00000000  0.00000000  0.91664800  1
  Cd  Cd4  1  0.00000000  0.00000000  0.69442800  1
  Cd  Cd5  1  0.66666700  0.33333300  0.02780500  1
  Cd  Cd6  1  0.00000000  0.00000000  0.13890200  1
  Cd  Cd7  1  0.00000000  0.00000000  0.36108600  1
  Cd  Cd8  1  0.66666700  0.33333300  0.25002200  1
  I  I9  1  0.66666700  0.33333300  0.33535100  1
  I  I10  1  0.33333300  0.66666700  0.72019100  1
  I  I11  1  0.00000000  0.00000000  0.55756900  1
  I  I12  1  0.00000000  0.00000000  0.22427900  1
  I  I13  1  0.33333300  0.66666700  0.27577700  1
  I  I14  1  0.33333300  0.66666700  0.05355400  1
  I  I15  1  0.33333300  0.66666700  0.60906600  1
  I  I16  1  0.66666700  0.33333300  0.89090500  1
  I  I17  1  0.33333300  0.66666700  0.94238800  1
  I  I18  1  0.66666700  0.33333300  0.11316200  1
  I  I19  1  0.00000000  0.00000000  0.00207000  1
  I  I20  1  0.66666700  0.33333300  0.44646800  1
  I  I21  1  0.33333300  0.66666700  0.16464200  1
  I  I22  1  0.66666700  0.33333300  0.77979600  1
  I  I23  1  0.33333300  0.66666700  0.38682200  1
  I  I24  1  0.33333300  0.66666700  0.83133500  1
  I  I25  1  0.66666700  0.33333300  0.66865600  1
  I  I26  1  0.33333300  0.66666700  0.49797900  1
