# generated using pymatgen
data_SrSi7N10
_symmetry_space_group_name_H-M   'P 1'
_cell_length_a   6.78127000
_cell_length_b   6.88706800
_cell_length_c   9.68563198
_cell_angle_alpha   73.92873077
_cell_angle_beta   90.00000000
_cell_angle_gamma   90.00000000
_symmetry_Int_Tables_number   1
_chemical_formula_structural   SrSi7N10
_chemical_formula_sum   'Sr2 Si14 N20'
_cell_volume   434.67007391
_cell_formula_units_Z   2
loop_
 _symmetry_equiv_pos_site_id
 _symmetry_equiv_pos_as_xyz
  1  'x, y, z'
loop_
 _atom_site_type_symbol
 _atom_site_label
 _atom_site_symmetry_multiplicity
 _atom_site_fract_x
 _atom_site_fract_y
 _atom_site_fract_z
 _atom_site_occupancy
  Sr  Sr0  1  0.94981700  0.95558400  0.33185700  1
  Sr  Sr1  1  0.05018300  0.95558400  0.83185700  1
  Si  Si2  1  0.02592900  0.53992900  0.17185100  1
  Si  Si3  1  0.39434300  0.10900700  0.42659900  1
  Si  Si4  1  0.38085200  0.29612800  0.11612800  1
  Si  Si5  1  0.02654000  0.35411100  0.48326800  1
  Si  Si6  1  0.62378900  0.84899000  0.69088500  1
  Si  Si7  1  0.37089300  0.48359000  0.81230500  1
  Si  Si8  1  0.63495700  0.66561500  0.00696400  1
  Si  Si9  1  0.61914800  0.29612800  0.61612800  1
  Si  Si10  1  0.36504300  0.66561500  0.50696400  1
  Si  Si11  1  0.62910700  0.48359000  0.31230500  1
  Si  Si12  1  0.60565700  0.10900700  0.92659900  1
  Si  Si13  1  0.97407100  0.53992900  0.67185100  1
  Si  Si14  1  0.37621100  0.84899000  0.19088500  1
  Si  Si15  1  0.97346000  0.35411100  0.98326800  1
  N  N16  1  0.16437700  0.15459000  0.47852500  1
  N  N17  1  0.12975300  0.31935500  0.13515300  1
  N  N18  1  0.38267800  0.88743700  0.36719300  1
  N  N19  1  0.86852600  0.56794500  0.02298300  1
  N  N20  1  0.42293700  0.07863800  0.06191100  1
  N  N21  1  0.15517400  0.74813300  0.17001700  1
  N  N22  1  0.49813900  0.28619700  0.27594500  1
  N  N23  1  0.58420300  0.70350700  0.17545100  1
  N  N24  1  0.57706300  0.07863800  0.56191100  1
  N  N25  1  0.84482600  0.74813300  0.67001700  1
  N  N26  1  0.50186100  0.28619700  0.77594500  1
  N  N27  1  0.61732200  0.88743700  0.86719300  1
  N  N28  1  0.83562300  0.15459000  0.97852500  1
  N  N29  1  0.88232200  0.44540300  0.32750400  1
  N  N30  1  0.87024700  0.31935500  0.63515300  1
  N  N31  1  0.11767800  0.44540300  0.82750400  1
  N  N32  1  0.53778700  0.49814000  0.47615700  1
  N  N33  1  0.41579700  0.70350700  0.67545100  1
  N  N34  1  0.46221300  0.49814000  0.97615700  1
  N  N35  1  0.13147400  0.56794500  0.52298300  1
