# generated using pymatgen
data_CdI2
_symmetry_space_group_name_H-M   'P 1'
_cell_length_a   4.33680672
_cell_length_b   4.33680672
_cell_length_c   99.95118800
_cell_angle_alpha   90.00000000
_cell_angle_beta   90.00000000
_cell_angle_gamma   120.00001100
_symmetry_Int_Tables_number   1
_chemical_formula_structural   CdI2
_chemical_formula_sum   'Cd13 I26'
_cell_volume   1628.01603700
_cell_formula_units_Z   13
loop_
 _symmetry_equiv_pos_site_id
 _symmetry_equiv_pos_as_xyz
  1  'x, y, z'
loop_
 _atom_site_type_symbol
 _atom_site_label
 _atom_site_symmetry_multiplicity
 _atom_site_fract_x
 _atom_site_fract_y
 _atom_site_fract_z
 _atom_site_occupancy
  Cd  Cd0  1  0.00000000  0.00000000  0.86532500  1
  Cd  Cd1  1  0.00000000  0.00000000  0.71163900  1
  Cd  Cd2  1  0.33333300  0.66666700  0.32700400  1
  Cd  Cd3  1  0.00000000  0.00000000  0.09598900  1
  Cd  Cd4  1  0.33333300  0.66666700  0.94237600  1
  Cd  Cd5  1  0.33333300  0.66666700  0.48098000  1
  Cd  Cd6  1  0.33333300  0.66666700  0.78841200  1
  Cd  Cd7  1  0.33333300  0.66666700  0.63454800  1
  Cd  Cd8  1  0.33333300  0.66666700  0.17304000  1
  Cd  Cd9  1  0.33333300  0.66666700  0.01907900  1
  Cd  Cd10  1  0.00000000  0.00000000  0.24998500  1
  Cd  Cd11  1  0.00000000  0.00000000  0.55764400  1
  Cd  Cd12  1  0.00000000  0.00000000  0.40399000  1
  I  I13  1  0.66666700  0.33333300  0.65171000  1
  I  I14  1  0.33333300  0.66666700  0.23273200  1
  I  I15  1  0.00000000  0.00000000  0.15579800  1
  I  I16  1  0.33333300  0.66666700  0.69445700  1
  I  I17  1  0.66666700  0.33333300  0.95955100  1
  I  I18  1  0.66666700  0.33333300  0.72880700  1
  I  I19  1  0.66666700  0.33333300  0.19027700  1
  I  I20  1  0.66666700  0.33333300  0.80558600  1
  I  I21  1  0.00000000  0.00000000  0.46373500  1
  I  I22  1  0.66666700  0.33333300  0.49820400  1
  I  I23  1  0.66666700  0.33333300  0.34425600  1
  I  I24  1  0.66666700  0.33333300  0.57481700  1
  I  I25  1  0.66666700  0.33333300  0.03633400  1
  I  I26  1  0.66666700  0.33333300  0.26724300  1
  I  I27  1  0.00000000  0.00000000  0.30976300  1
  I  I28  1  0.00000000  0.00000000  0.00180800  1
  I  I29  1  0.00000000  0.00000000  0.61738600  1
  I  I30  1  0.66666700  0.33333300  0.11325900  1
  I  I31  1  0.33333300  0.66666700  0.38672800  1
  I  I32  1  0.33333300  0.66666700  0.84814400  1
  I  I33  1  0.00000000  0.00000000  0.77122000  1
  I  I34  1  0.66666700  0.33333300  0.88251100  1
  I  I35  1  0.33333300  0.66666700  0.54047000  1
  I  I36  1  0.66666700  0.33333300  0.42126300  1
  I  I37  1  0.33333300  0.66666700  0.07871100  1
  I  I38  1  0.00000000  0.00000000  0.92521900  1
