# generated using pymatgen
data_Te
_symmetry_space_group_name_H-M   'P 1'
_cell_length_a   4.37819230
_cell_length_b   4.37819230
_cell_length_c   6.00456217
_cell_angle_alpha   89.31403603
_cell_angle_beta   89.31403603
_cell_angle_gamma   59.01512557
_symmetry_Int_Tables_number   1
_chemical_formula_structural   Te
_chemical_formula_sum   Te3
_cell_volume   98.66528580
_cell_formula_units_Z   3
loop_
 _symmetry_equiv_pos_site_id
 _symmetry_equiv_pos_as_xyz
  1  'x, y, z'
loop_
 _atom_site_type_symbol
 _atom_site_label
 _atom_site_symmetry_multiplicity
 _atom_site_fract_x
 _atom_site_fract_y
 _atom_site_fract_z
 _atom_site_occupancy
  Te  Te0  1  0.31322900  0.31322900  0.66232500  1
  Te  Te1  1  0.68677100  0.68677100  0.33767500  1
  Te  Te2  1  0.00000000  0.00000000  0.00000000  1
