# generated using pymatgen
data_VINCl3
_symmetry_space_group_name_H-M   'P 1'
_cell_length_a   6.08440321
_cell_length_b   7.70580250
_cell_length_c   8.58777712
_cell_angle_alpha   63.58328200
_cell_angle_beta   85.98072402
_cell_angle_gamma   72.21882080
_symmetry_Int_Tables_number   1
_chemical_formula_structural   VINCl3
_chemical_formula_sum   'V2 I2 N2 Cl6'
_cell_volume   342.34835244
_cell_formula_units_Z   2
loop_
 _symmetry_equiv_pos_site_id
 _symmetry_equiv_pos_as_xyz
  1  'x, y, z'
loop_
 _atom_site_type_symbol
 _atom_site_label
 _atom_site_symmetry_multiplicity
 _atom_site_fract_x
 _atom_site_fract_y
 _atom_site_fract_z
 _atom_site_occupancy
  V  V0  1  0.74866800  0.52083700  0.85588800  1
  V  V1  1  0.25133200  0.47916300  0.14411200  1
  I  I2  1  0.71352800  0.18123700  0.68551100  1
  I  I3  1  0.28647200  0.81876300  0.31448900  1
  N  N4  1  0.70887800  0.39730100  0.75129600  1
  N  N5  1  0.29112200  0.60269900  0.24870400  1
  Cl  Cl6  1  0.86891600  0.66216800  0.06760600  1
  Cl  Cl7  1  0.77441200  0.80882300  0.62549500  1
  Cl  Cl8  1  0.13108400  0.33783200  0.93239400  1
  Cl  Cl9  1  0.64463900  0.28621500  0.13153100  1
  Cl  Cl10  1  0.22558800  0.19117700  0.37450500  1
  Cl  Cl11  1  0.35536100  0.71378500  0.86846900  1
