# generated using pymatgen
data_Rb2FeOF5
_symmetry_space_group_name_H-M   'P 1'
_cell_length_a   6.23804221
_cell_length_b   6.23804221
_cell_length_c   8.62011700
_cell_angle_alpha   90.00000000
_cell_angle_beta   90.00000000
_cell_angle_gamma   98.51195121
_symmetry_Int_Tables_number   1
_chemical_formula_structural   Rb2FeOF5
_chemical_formula_sum   'Rb4 Fe2 O2 F10'
_cell_volume   331.74125823
_cell_formula_units_Z   2
loop_
 _symmetry_equiv_pos_site_id
 _symmetry_equiv_pos_as_xyz
  1  'x, y, z'
loop_
 _atom_site_type_symbol
 _atom_site_label
 _atom_site_symmetry_multiplicity
 _atom_site_fract_x
 _atom_site_fract_y
 _atom_site_fract_z
 _atom_site_occupancy
  Rb  Rb0  1  0.72018100  0.27981900  0.00000000  1
  Rb  Rb1  1  0.72018100  0.27981900  0.50000000  1
  Rb  Rb2  1  0.27981900  0.72018100  0.00000000  1
  Rb  Rb3  1  0.27981900  0.72018100  0.50000000  1
  Fe  Fe4  1  0.22242500  0.22242500  0.75000000  1
  Fe  Fe5  1  0.77757500  0.77757500  0.25000000  1
  O  O6  1  0.99678500  0.99678500  0.75000000  1
  O  O7  1  0.00321500  0.00321500  0.25000000  1
  F  F8  1  0.45233800  0.45233800  0.75000000  1
  F  F9  1  0.54766200  0.54766200  0.25000000  1
  F  F10  1  0.56883700  0.97638000  0.25000000  1
  F  F11  1  0.02362000  0.43116300  0.75000000  1
  F  F12  1  0.43116300  0.02362000  0.75000000  1
  F  F13  1  0.97638000  0.56883700  0.25000000  1
  F  F14  1  0.21060700  0.21060700  0.97161900  1
  F  F15  1  0.78939300  0.78939300  0.02838100  1
  F  F16  1  0.21060700  0.21060700  0.52838100  1
  F  F17  1  0.78939300  0.78939300  0.47161900  1
