# generated using pymatgen
data_ZnI2
_symmetry_space_group_name_H-M   'P 1'
_cell_length_a   7.51670182
_cell_length_b   7.51670182
_cell_length_c   7.51670162
_cell_angle_alpha   31.70456853
_cell_angle_beta   31.70456853
_cell_angle_gamma   31.70457400
_symmetry_Int_Tables_number   1
_chemical_formula_structural   ZnI2
_chemical_formula_sum   'Zn1 I2'
_cell_volume   104.17080510
_cell_formula_units_Z   1
loop_
 _symmetry_equiv_pos_site_id
 _symmetry_equiv_pos_as_xyz
  1  'x, y, z'
loop_
 _atom_site_type_symbol
 _atom_site_label
 _atom_site_symmetry_multiplicity
 _atom_site_fract_x
 _atom_site_fract_y
 _atom_site_fract_z
 _atom_site_occupancy
  Zn  Zn0  1  0.00000000  0.00000000  0.00000000  1
  I  I1  1  0.74283800  0.74283800  0.74283800  1
  I  I2  1  0.25716200  0.25716200  0.25716200  1
