# generated using pymatgen
data_Yb2Au
_symmetry_space_group_name_H-M   'P 1'
_cell_length_a   4.56493100
_cell_length_b   7.80111600
_cell_length_c   9.41600900
_cell_angle_alpha   90.00000000
_cell_angle_beta   90.00000000
_cell_angle_gamma   90.00000000
_symmetry_Int_Tables_number   1
_chemical_formula_structural   Yb2Au
_chemical_formula_sum   'Yb8 Au4'
_cell_volume   335.31873428
_cell_formula_units_Z   4
loop_
 _symmetry_equiv_pos_site_id
 _symmetry_equiv_pos_as_xyz
  1  'x, y, z'
loop_
 _atom_site_type_symbol
 _atom_site_label
 _atom_site_symmetry_multiplicity
 _atom_site_fract_x
 _atom_site_fract_y
 _atom_site_fract_z
 _atom_site_occupancy
  Yb  Yb0  1  0.75000000  0.14565200  0.06993700  1
  Yb  Yb1  1  0.75000000  0.02159500  0.66775500  1
  Yb  Yb2  1  0.25000000  0.35434800  0.56993700  1
  Yb  Yb3  1  0.25000000  0.47840500  0.16775500  1
  Yb  Yb4  1  0.25000000  0.97840500  0.33224500  1
  Yb  Yb5  1  0.75000000  0.64565200  0.43006300  1
  Yb  Yb6  1  0.25000000  0.85434800  0.93006300  1
  Yb  Yb7  1  0.75000000  0.52159500  0.83224500  1
  Au  Au8  1  0.75000000  0.25153700  0.38346200  1
  Au  Au9  1  0.75000000  0.75153700  0.11653800  1
  Au  Au10  1  0.25000000  0.74846300  0.61653800  1
  Au  Au11  1  0.25000000  0.24846300  0.88346200  1
