data_image0
_chemical_formula_structural       AlH6La
_chemical_formula_sum              "Al1 H6 La1"
_cell_length_a       4.25383
_cell_length_b       4.25383
_cell_length_c       4.25383
_cell_angle_alpha    98.0965
_cell_angle_beta     98.0965
_cell_angle_gamma    98.0965

_space_group_name_H-M_alt    "P 1"
_space_group_IT_number       1

loop_
  _space_group_symop_operation_xyz
  'x, y, z'

loop_
  _atom_site_type_symbol
  _atom_site_label
  _atom_site_symmetry_multiplicity
  _atom_site_fract_x
  _atom_site_fract_y
  _atom_site_fract_z
  _atom_site_occupancy
  Al  Al1       1.0  0.00000  0.00000  0.00000  1.0000
  H   H1        1.0  0.70400  0.70400  0.06090  1.0000
  H   H2        1.0  0.93900  0.29600  0.29600  1.0000
  H   H3        1.0  0.29600  0.93900  0.29600  1.0000
  H   H4        1.0  0.70400  0.06090  0.70400  1.0000
  H   H5        1.0  0.06090  0.70400  0.70400  1.0000
  H   H6        1.0  0.29600  0.29600  0.93900  1.0000
  La  La1       1.0  0.50000  0.50000  0.50000  1.0000
