# generated using pymatgen
data_Ce5(SiN3)3
_symmetry_space_group_name_H-M   'P 1'
_cell_length_a   7.71810538
_cell_length_b   7.71810538
_cell_length_c   15.74858600
_cell_angle_alpha   90.00000000
_cell_angle_beta   90.00000000
_cell_angle_gamma   93.61946353
_symmetry_Int_Tables_number   1
_chemical_formula_structural   Ce5(SiN3)3
_chemical_formula_sum   'Ce20 Si12 N36'
_cell_volume   936.25864338
_cell_formula_units_Z   4
loop_
 _symmetry_equiv_pos_site_id
 _symmetry_equiv_pos_as_xyz
  1  'x, y, z'
loop_
 _atom_site_type_symbol
 _atom_site_label
 _atom_site_symmetry_multiplicity
 _atom_site_fract_x
 _atom_site_fract_y
 _atom_site_fract_z
 _atom_site_occupancy
  Ce  Ce0  1  0.01478100  0.98521900  0.66142800  1
  Ce  Ce1  1  0.99429600  0.00570400  0.88815100  1
  Ce  Ce2  1  0.98521900  0.01478100  0.33857200  1
  Ce  Ce3  1  0.70477400  0.70477400  0.00000000  1
  Ce  Ce4  1  0.95571800  0.46863200  0.62793600  1
  Ce  Ce5  1  0.79522600  0.79522600  0.50000000  1
  Ce  Ce6  1  0.51478100  0.48521900  0.83857200  1
  Ce  Ce7  1  0.50570400  0.49429600  0.38815100  1
  Ce  Ce8  1  0.29522600  0.29522600  0.00000000  1
  Ce  Ce9  1  0.48521900  0.51478100  0.16142800  1
  Ce  Ce10  1  0.54428200  0.03136800  0.12793600  1
  Ce  Ce11  1  0.49429600  0.50570400  0.61184900  1
  Ce  Ce12  1  0.03136800  0.54428200  0.87206400  1
  Ce  Ce13  1  0.46863200  0.95571800  0.37206400  1
  Ce  Ce14  1  0.20477400  0.20477400  0.50000000  1
  Ce  Ce15  1  0.96863200  0.45571800  0.12793600  1
  Ce  Ce16  1  0.00570400  0.99429600  0.11184900  1
  Ce  Ce17  1  0.04428200  0.53136800  0.37206400  1
  Ce  Ce18  1  0.53136800  0.04428200  0.62793600  1
  Ce  Ce19  1  0.45571800  0.96863200  0.87206400  1
  Si  Si20  1  0.72681400  0.27318600  0.27305900  1
  Si  Si21  1  0.27318600  0.72681400  0.72694100  1
  Si  Si22  1  0.76041700  0.23958300  0.98394700  1
  Si  Si23  1  0.71595400  0.78404600  0.75000000  1
  Si  Si24  1  0.23958300  0.76041700  0.01605300  1
  Si  Si25  1  0.26041700  0.73958300  0.51605300  1
  Si  Si26  1  0.73958300  0.26041700  0.48394700  1
  Si  Si27  1  0.77318600  0.22681400  0.77305900  1
  Si  Si28  1  0.21595400  0.28404600  0.75000000  1
  Si  Si29  1  0.78404600  0.71595400  0.25000000  1
  Si  Si30  1  0.28404600  0.21595400  0.25000000  1
  Si  Si31  1  0.22681400  0.77318600  0.22694100  1
  N  N32  1  0.98759800  0.27798100  0.99861400  1
  N  N33  1  0.74345900  0.00691700  0.75840100  1
  N  N34  1  0.63580600  0.36419400  0.05028200  1
  N  N35  1  0.30373900  0.22624800  0.84670700  1
  N  N36  1  0.65605300  0.34394700  0.70285400  1
  N  N37  1  0.27375200  0.19626100  0.65329300  1
  N  N38  1  0.19626100  0.27375200  0.34670700  1
  N  N39  1  0.34394700  0.65605300  0.29714600  1
  N  N40  1  0.72201900  0.01240200  0.99861400  1
  N  N41  1  0.15605300  0.84394700  0.79714600  1
  N  N42  1  0.25654100  0.99308300  0.24159900  1
  N  N43  1  0.72262300  0.27737700  0.87648700  1
  N  N44  1  0.27737700  0.72262300  0.12351300  1
  N  N45  1  0.80373900  0.72624800  0.65329300  1
  N  N46  1  0.00691700  0.74345900  0.24159900  1
  N  N47  1  0.13580600  0.86419400  0.44971800  1
  N  N48  1  0.69626100  0.77375200  0.15329300  1
  N  N49  1  0.50691700  0.24345900  0.25840100  1
  N  N50  1  0.01240200  0.72201900  0.00138600  1
  N  N51  1  0.77737700  0.22262300  0.37648700  1
  N  N52  1  0.49308300  0.75654100  0.74159900  1
  N  N53  1  0.72624800  0.80373900  0.34670700  1
  N  N54  1  0.51240200  0.22201900  0.49861400  1
  N  N55  1  0.75654100  0.49308300  0.25840100  1
  N  N56  1  0.22624800  0.30373900  0.15329300  1
  N  N57  1  0.36419400  0.63580600  0.94971800  1
  N  N58  1  0.24345900  0.50691700  0.74159900  1
  N  N59  1  0.22201900  0.51240200  0.50138600  1
  N  N60  1  0.27798100  0.98759800  0.00138600  1
  N  N61  1  0.77375200  0.69626100  0.84670700  1
  N  N62  1  0.99308300  0.25654100  0.75840100  1
  N  N63  1  0.84394700  0.15605300  0.20285400  1
  N  N64  1  0.77798100  0.48759800  0.49861400  1
  N  N65  1  0.48759800  0.77798100  0.50138600  1
  N  N66  1  0.22262300  0.77737700  0.62351300  1
  N  N67  1  0.86419400  0.13580600  0.55028200  1
