# generated using pymatgen
data_Cs2NaAu3(CN)6
_symmetry_space_group_name_H-M   'P 1'
_cell_length_a   7.30770820
_cell_length_b   7.30770820
_cell_length_c   18.41846100
_cell_angle_alpha   90.00000000
_cell_angle_beta   90.00000000
_cell_angle_gamma   120.00000179
_symmetry_Int_Tables_number   1
_chemical_formula_structural   Cs2NaAu3(CN)6
_chemical_formula_sum   'Cs4 Na2 Au6 C12 N12'
_cell_volume   851.81710624
_cell_formula_units_Z   2
loop_
 _symmetry_equiv_pos_site_id
 _symmetry_equiv_pos_as_xyz
  1  'x, y, z'
loop_
 _atom_site_type_symbol
 _atom_site_label
 _atom_site_symmetry_multiplicity
 _atom_site_fract_x
 _atom_site_fract_y
 _atom_site_fract_z
 _atom_site_occupancy
  Cs  Cs0  1  0.66666700  0.33333300  0.44546000  1
  Cs  Cs1  1  0.33333300  0.66666700  0.55454000  1
  Cs  Cs2  1  0.66666700  0.33333300  0.05454000  1
  Cs  Cs3  1  0.33333300  0.66666700  0.94546000  1
  Na  Na4  1  0.00000000  0.00000000  0.50000000  1
  Na  Na5  1  0.00000000  0.00000000  0.00000000  1
  Au  Au6  1  0.65169400  0.82584700  0.25000000  1
  Au  Au7  1  0.82584700  0.17415300  0.75000000  1
  Au  Au8  1  0.17415300  0.82584700  0.25000000  1
  Au  Au9  1  0.82584700  0.65169400  0.75000000  1
  Au  Au10  1  0.17415300  0.34830600  0.25000000  1
  Au  Au11  1  0.34830600  0.17415300  0.75000000  1
  C  C12  1  0.83025800  0.66051600  0.64194500  1
  C  C13  1  0.33948400  0.16974200  0.85805500  1
  C  C14  1  0.83025800  0.16974200  0.64194500  1
  C  C15  1  0.16974200  0.83025800  0.14194500  1
  C  C16  1  0.16974200  0.33948400  0.35805500  1
  C  C17  1  0.66051600  0.83025800  0.35805500  1
  C  C18  1  0.16974200  0.33948400  0.14194500  1
  C  C19  1  0.16974200  0.83025800  0.35805500  1
  C  C20  1  0.83025800  0.16974200  0.85805500  1
  C  C21  1  0.33948400  0.16974200  0.64194500  1
  C  C22  1  0.83025800  0.66051600  0.85805500  1
  C  C23  1  0.66051600  0.83025800  0.14194500  1
  N  N24  1  0.83653000  0.67306100  0.57835900  1
  N  N25  1  0.16347000  0.32693900  0.07835900  1
  N  N26  1  0.32693900  0.16347000  0.57835900  1
  N  N27  1  0.83653000  0.16347000  0.92164100  1
  N  N28  1  0.67306100  0.83653000  0.42164100  1
  N  N29  1  0.83653000  0.16347000  0.57835900  1
  N  N30  1  0.32693900  0.16347000  0.92164100  1
  N  N31  1  0.16347000  0.83653000  0.42164100  1
  N  N32  1  0.67306100  0.83653000  0.07835900  1
  N  N33  1  0.16347000  0.32693900  0.42164100  1
  N  N34  1  0.16347000  0.83653000  0.07835900  1
  N  N35  1  0.83653000  0.67306100  0.92164100  1
