# generated using pymatgen
data_PdSe
_symmetry_space_group_name_H-M   'P 1'
_cell_length_a   11.79151400
_cell_length_b   11.79151400
_cell_length_c   7.13322200
_cell_angle_alpha   90.00000000
_cell_angle_beta   90.00000000
_cell_angle_gamma   90.00000000
_symmetry_Int_Tables_number   1
_chemical_formula_structural   PdSe
_chemical_formula_sum   'Pd24 Se24'
_cell_volume   991.80177744
_cell_formula_units_Z   24
loop_
 _symmetry_equiv_pos_site_id
 _symmetry_equiv_pos_as_xyz
  1  'x, y, z'
loop_
 _atom_site_type_symbol
 _atom_site_label
 _atom_site_symmetry_multiplicity
 _atom_site_fract_x
 _atom_site_fract_y
 _atom_site_fract_z
 _atom_site_occupancy
  Pd  Pd0  1  0.26891300  0.14261800  0.50000000  1
  Pd  Pd1  1  0.64261800  0.76891300  0.00000000  1
  Pd  Pd2  1  0.04547800  0.87002400  0.50000000  1
  Pd  Pd3  1  0.85738200  0.26891300  0.00000000  1
  Pd  Pd4  1  0.37002400  0.54547800  0.00000000  1
  Pd  Pd5  1  0.14261800  0.73108700  0.00000000  1
  Pd  Pd6  1  0.95452200  0.12997600  0.50000000  1
  Pd  Pd7  1  0.62997600  0.45452200  0.00000000  1
  Pd  Pd8  1  0.54547800  0.62997600  0.50000000  1
  Pd  Pd9  1  0.38690900  0.88690900  0.75000000  1
  Pd  Pd10  1  0.88690900  0.61309100  0.25000000  1
  Pd  Pd11  1  0.11309100  0.38690900  0.25000000  1
  Pd  Pd12  1  0.76891300  0.35738200  0.50000000  1
  Pd  Pd13  1  0.61309100  0.11309100  0.75000000  1
  Pd  Pd14  1  0.23108700  0.64261800  0.50000000  1
  Pd  Pd15  1  0.45452200  0.37002400  0.50000000  1
  Pd  Pd16  1  0.87002400  0.95452200  0.00000000  1
  Pd  Pd17  1  0.61309100  0.11309100  0.25000000  1
  Pd  Pd18  1  0.38690900  0.88690900  0.25000000  1
  Pd  Pd19  1  0.88690900  0.61309100  0.75000000  1
  Pd  Pd20  1  0.11309100  0.38690900  0.75000000  1
  Pd  Pd21  1  0.73108700  0.85738200  0.50000000  1
  Pd  Pd22  1  0.35738200  0.23108700  0.00000000  1
  Pd  Pd23  1  0.12997600  0.04547800  0.00000000  1
  Se  Se24  1  0.17694300  0.88981300  0.22363100  1
  Se  Se25  1  0.09634700  0.59634700  0.25000000  1
  Se  Se26  1  0.40365300  0.09634700  0.25000000  1
  Se  Se27  1  0.88981300  0.82305700  0.72363100  1
  Se  Se28  1  0.61018700  0.32305700  0.72363100  1
  Se  Se29  1  0.67694300  0.61018700  0.77636900  1
  Se  Se30  1  0.82305700  0.11018700  0.22363100  1
  Se  Se31  1  0.59634700  0.90365300  0.75000000  1
  Se  Se32  1  0.90365300  0.40365300  0.25000000  1
  Se  Se33  1  0.11018700  0.17694300  0.27636900  1
  Se  Se34  1  0.32305700  0.38981300  0.22363100  1
  Se  Se35  1  0.32305700  0.38981300  0.77636900  1
  Se  Se36  1  0.38981300  0.67694300  0.27636900  1
  Se  Se37  1  0.88981300  0.82305700  0.27636900  1
  Se  Se38  1  0.90365300  0.40365300  0.75000000  1
  Se  Se39  1  0.38981300  0.67694300  0.72363100  1
  Se  Se40  1  0.61018700  0.32305700  0.27636900  1
  Se  Se41  1  0.17694300  0.88981300  0.77636900  1
  Se  Se42  1  0.40365300  0.09634700  0.75000000  1
  Se  Se43  1  0.67694300  0.61018700  0.22363100  1
  Se  Se44  1  0.09634700  0.59634700  0.75000000  1
  Se  Se45  1  0.11018700  0.17694300  0.72363100  1
  Se  Se46  1  0.59634700  0.90365300  0.25000000  1
  Se  Se47  1  0.82305700  0.11018700  0.77636900  1
