# generated using pymatgen
data_Cr11Ge8
_symmetry_space_group_name_H-M   'P 1'
_cell_length_a   4.91687600
_cell_length_b   13.18239500
_cell_length_c   15.76932300
_cell_angle_alpha   90.00000000
_cell_angle_beta   90.00000000
_cell_angle_gamma   90.00000000
_symmetry_Int_Tables_number   1
_chemical_formula_structural   Cr11Ge8
_chemical_formula_sum   'Cr44 Ge32'
_cell_volume   1022.10761863
_cell_formula_units_Z   4
loop_
 _symmetry_equiv_pos_site_id
 _symmetry_equiv_pos_as_xyz
  1  'x, y, z'
loop_
 _atom_site_type_symbol
 _atom_site_label
 _atom_site_symmetry_multiplicity
 _atom_site_fract_x
 _atom_site_fract_y
 _atom_site_fract_z
 _atom_site_occupancy
  Cr  Cr0  1  0.49653200  0.05989400  0.37795100  1
  Cr  Cr1  1  0.75000000  0.25124600  0.96844400  1
  Cr  Cr2  1  0.75000000  0.36427500  0.15841900  1
  Cr  Cr3  1  0.00346800  0.05989400  0.37795100  1
  Cr  Cr4  1  0.25000000  0.56503400  0.30924100  1
  Cr  Cr5  1  0.25000000  0.80741200  0.75109000  1
  Cr  Cr6  1  0.25000000  0.36917300  0.04185800  1
  Cr  Cr7  1  0.75000000  0.88052400  0.00807300  1
  Cr  Cr8  1  0.25000000  0.30741200  0.74891000  1
  Cr  Cr9  1  0.99653300  0.94010600  0.62204900  1
  Cr  Cr10  1  0.25000000  0.11947600  0.99192700  1
  Cr  Cr11  1  0.25000000  0.45984200  0.59273800  1
  Cr  Cr12  1  0.75000000  0.75124600  0.53155600  1
  Cr  Cr13  1  0.75000000  0.38052400  0.49192700  1
  Cr  Cr14  1  0.25000000  0.63572500  0.84158100  1
  Cr  Cr15  1  0.25000000  0.95984200  0.90726200  1
  Cr  Cr16  1  0.99010000  0.36313400  0.32572300  1
  Cr  Cr17  1  0.25000000  0.61947600  0.50807300  1
  Cr  Cr18  1  0.49010000  0.13686600  0.82572300  1
  Cr  Cr19  1  0.25000000  0.13572500  0.65841900  1
  Cr  Cr20  1  0.75000000  0.54015800  0.40726200  1
  Cr  Cr21  1  0.75000000  0.93496600  0.80924100  1
  Cr  Cr22  1  0.99010000  0.86313400  0.17427700  1
  Cr  Cr23  1  0.50990000  0.86313400  0.17427700  1
  Cr  Cr24  1  0.50346700  0.44010600  0.87795100  1
  Cr  Cr25  1  0.00990000  0.63686600  0.67427700  1
  Cr  Cr26  1  0.25000000  0.74875400  0.03155600  1
  Cr  Cr27  1  0.50990000  0.36313400  0.32572300  1
  Cr  Cr28  1  0.75000000  0.43496600  0.69075900  1
  Cr  Cr29  1  0.25000000  0.24875400  0.46844400  1
  Cr  Cr30  1  0.75000000  0.69258800  0.25109000  1
  Cr  Cr31  1  0.75000000  0.13082700  0.54185800  1
  Cr  Cr32  1  0.75000000  0.86427500  0.34158100  1
  Cr  Cr33  1  0.50346700  0.94010600  0.62204900  1
  Cr  Cr34  1  0.25000000  0.86917300  0.45814200  1
  Cr  Cr35  1  0.00990000  0.13686600  0.82572300  1
  Cr  Cr36  1  0.99653300  0.44010600  0.87795100  1
  Cr  Cr37  1  0.25000000  0.06503400  0.19075900  1
  Cr  Cr38  1  0.75000000  0.19258800  0.24891000  1
  Cr  Cr39  1  0.00346800  0.55989400  0.12204900  1
  Cr  Cr40  1  0.49653200  0.55989400  0.12204900  1
  Cr  Cr41  1  0.75000000  0.63082700  0.95814200  1
  Cr  Cr42  1  0.75000000  0.04015800  0.09273800  1
  Cr  Cr43  1  0.49010000  0.63686600  0.67427700  1
  Ge  Ge44  1  0.25000000  0.20349900  0.30068900  1
  Ge  Ge45  1  0.25000000  0.99145100  0.75538600  1
  Ge  Ge46  1  0.75000000  0.05142800  0.93921300  1
  Ge  Ge47  1  0.25000000  0.05652900  0.51716000  1
  Ge  Ge48  1  0.50183200  0.78776600  0.88844100  1
  Ge  Ge49  1  0.25000000  0.55652900  0.98284000  1
  Ge  Ge50  1  0.75000000  0.58785100  0.80425600  1
  Ge  Ge51  1  0.25000000  0.49145100  0.74461400  1
  Ge  Ge52  1  0.75000000  0.08785100  0.69574400  1
  Ge  Ge53  1  0.49816800  0.71223400  0.38844100  1
  Ge  Ge54  1  0.00183200  0.21223400  0.11155900  1
  Ge  Ge55  1  0.25000000  0.77603200  0.59443900  1
  Ge  Ge56  1  0.25000000  0.27603200  0.90556100  1
  Ge  Ge57  1  0.50183200  0.28776600  0.61155900  1
  Ge  Ge58  1  0.75000000  0.00854900  0.24461400  1
  Ge  Ge59  1  0.75000000  0.44347100  0.01716000  1
  Ge  Ge60  1  0.75000000  0.55142800  0.56078700  1
  Ge  Ge61  1  0.75000000  0.50854900  0.25538600  1
  Ge  Ge62  1  0.25000000  0.91214900  0.30425600  1
  Ge  Ge63  1  0.49816800  0.21223400  0.11155900  1
  Ge  Ge64  1  0.75000000  0.22396800  0.40556100  1
  Ge  Ge65  1  0.25000000  0.41214900  0.19574400  1
  Ge  Ge66  1  0.75000000  0.79650100  0.69931100  1
  Ge  Ge67  1  0.99816800  0.78776600  0.88844100  1
  Ge  Ge68  1  0.25000000  0.70349900  0.19931100  1
  Ge  Ge69  1  0.75000000  0.29650100  0.80068900  1
  Ge  Ge70  1  0.75000000  0.72396800  0.09443900  1
  Ge  Ge71  1  0.00183200  0.71223400  0.38844100  1
  Ge  Ge72  1  0.99816800  0.28776600  0.61155900  1
  Ge  Ge73  1  0.75000000  0.94347100  0.48284000  1
  Ge  Ge74  1  0.25000000  0.94857200  0.06078700  1
  Ge  Ge75  1  0.25000000  0.44857200  0.43921300  1
