# generated using pymatgen
data_MnP4
_symmetry_space_group_name_H-M   'P 1'
_cell_length_a   5.84426090
_cell_length_b   5.84426090
_cell_length_c   21.78562049
_cell_angle_alpha   85.86012225
_cell_angle_beta   85.86012225
_cell_angle_gamma   51.70706314
_symmetry_Int_Tables_number   1
_chemical_formula_structural   MnP4
_chemical_formula_sum   'Mn8 P32'
_cell_volume   582.12383036
_cell_formula_units_Z   8
loop_
 _symmetry_equiv_pos_site_id
 _symmetry_equiv_pos_as_xyz
  1  'x, y, z'
loop_
 _atom_site_type_symbol
 _atom_site_label
 _atom_site_symmetry_multiplicity
 _atom_site_fract_x
 _atom_site_fract_y
 _atom_site_fract_z
 _atom_site_occupancy
  Mn  Mn0  1  0.88287200  0.48551300  0.18175600  1
  Mn  Mn1  1  0.80788500  0.04319200  0.42962100  1
  Mn  Mn2  1  0.95680800  0.19211500  0.07037900  1
  Mn  Mn3  1  0.51448700  0.11712800  0.31824400  1
  Mn  Mn4  1  0.04319200  0.80788500  0.92962100  1
  Mn  Mn5  1  0.48551300  0.88287200  0.68175600  1
  Mn  Mn6  1  0.19211500  0.95680800  0.57037900  1
  Mn  Mn7  1  0.11712800  0.51448700  0.81824400  1
  P  P8  1  0.00725300  0.04448300  0.17025700  1
  P  P9  1  0.96503300  0.58677500  0.45078900  1
  P  P10  1  0.57188500  0.36265900  0.80000900  1
  P  P11  1  0.63734100  0.42811500  0.69999100  1
  P  P12  1  0.41322500  0.03496700  0.04921100  1
  P  P13  1  0.65921300  0.49864000  0.42561800  1
  P  P14  1  0.17801300  0.36199600  0.91647000  1
  P  P15  1  0.75394200  0.09444200  0.53654000  1
  P  P16  1  0.05091100  0.29337500  0.28413900  1
  P  P17  1  0.49864000  0.65921300  0.92561800  1
  P  P18  1  0.04448300  0.00725300  0.67025700  1
  P  P19  1  0.32963700  0.34889800  0.16931000  1
  P  P20  1  0.67036300  0.65110200  0.83069000  1
  P  P21  1  0.34889800  0.32963700  0.66931000  1
  P  P22  1  0.99274700  0.95551700  0.82974300  1
  P  P23  1  0.36265900  0.57188500  0.30000900  1
  P  P24  1  0.63800400  0.82198700  0.58353000  1
  P  P25  1  0.65110200  0.67036300  0.33069000  1
  P  P26  1  0.09444200  0.75394200  0.03654000  1
  P  P27  1  0.24605800  0.90555800  0.46346000  1
  P  P28  1  0.70662500  0.94908900  0.21586100  1
  P  P29  1  0.29337500  0.05091100  0.78413900  1
  P  P30  1  0.94908900  0.70662500  0.71586100  1
  P  P31  1  0.82198700  0.63800400  0.08353000  1
  P  P32  1  0.95551700  0.99274700  0.32974300  1
  P  P33  1  0.42811500  0.63734100  0.19999100  1
  P  P34  1  0.36199600  0.17801300  0.41647000  1
  P  P35  1  0.34078700  0.50136000  0.57438200  1
  P  P36  1  0.90555800  0.24605800  0.96346000  1
  P  P37  1  0.58677500  0.96503300  0.95078900  1
  P  P38  1  0.03496700  0.41322500  0.54921100  1
  P  P39  1  0.50136000  0.34078700  0.07438200  1
