# generated using pymatgen
data_Pb(CO)4
_symmetry_space_group_name_H-M   'P 1'
_cell_length_a   7.39373934
_cell_length_b   7.39373934
_cell_length_c   7.39373934
_cell_angle_alpha   119.28904728
_cell_angle_beta   119.28904728
_cell_angle_gamma   91.23588132
_symmetry_Int_Tables_number   1
_chemical_formula_structural   Pb(CO)4
_chemical_formula_sum   'Pb2 C8 O8'
_cell_volume   288.80860019
_cell_formula_units_Z   2
loop_
 _symmetry_equiv_pos_site_id
 _symmetry_equiv_pos_as_xyz
  1  'x, y, z'
loop_
 _atom_site_type_symbol
 _atom_site_label
 _atom_site_symmetry_multiplicity
 _atom_site_fract_x
 _atom_site_fract_y
 _atom_site_fract_z
 _atom_site_occupancy
  Pb  Pb0  1  0.25000000  0.75000000  0.50000000  1
  Pb  Pb1  1  0.50000000  0.50000000  0.00000000  1
  C  C2  1  0.19919600  0.19919600  0.00000000  1
  C  C3  1  0.94919600  0.44919600  0.50000000  1
  C  C4  1  0.55080400  0.05080400  0.50000000  1
  C  C5  1  0.80080400  0.80080400  0.00000000  1
  C  C6  1  0.05888000  0.05888000  0.00000000  1
  C  C7  1  0.80888000  0.30888000  0.50000000  1
  C  C8  1  0.69112000  0.19112000  0.50000000  1
  C  C9  1  0.94112000  0.94112000  0.00000000  1
  O  O10  1  0.25856300  0.10926900  0.85070600  1
  O  O11  1  0.85926900  0.50856300  0.35070600  1
  O  O12  1  0.15785700  0.50856300  0.64929400  1
  O  O13  1  0.25856300  0.40785700  0.14929400  1
  O  O14  1  0.49143700  0.14073100  0.64929400  1
  O  O15  1  0.89073100  0.74143700  0.14929400  1
  O  O16  1  0.59214300  0.74143700  0.85070600  1
  O  O17  1  0.49143700  0.84214300  0.35070600  1
