# generated using pymatgen
data_Ge3N4
_symmetry_space_group_name_H-M   'P 1'
_cell_length_a   5.95250091
_cell_length_b   5.95250091
_cell_length_c   5.95250091
_cell_angle_alpha   109.47122063
_cell_angle_beta   109.47122063
_cell_angle_gamma   109.47122063
_symmetry_Int_Tables_number   1
_chemical_formula_structural   Ge3N4
_chemical_formula_sum   'Ge6 N8'
_cell_volume   162.35905678
_cell_formula_units_Z   2
loop_
 _symmetry_equiv_pos_site_id
 _symmetry_equiv_pos_as_xyz
  1  'x, y, z'
loop_
 _atom_site_type_symbol
 _atom_site_label
 _atom_site_symmetry_multiplicity
 _atom_site_fract_x
 _atom_site_fract_y
 _atom_site_fract_z
 _atom_site_occupancy
  Ge  Ge0  1  0.87500000  0.25000000  0.12500000  1
  Ge  Ge1  1  0.75000000  0.37500000  0.62500000  1
  Ge  Ge2  1  0.25000000  0.12500000  0.87500000  1
  Ge  Ge3  1  0.62500000  0.75000000  0.37500000  1
  Ge  Ge4  1  0.12500000  0.87500000  0.25000000  1
  Ge  Ge5  1  0.37500000  0.62500000  0.75000000  1
  N  N6  1  0.50000000  0.00000000  0.94502000  1
  N  N7  1  0.00000000  0.44502000  0.50000000  1
  N  N8  1  0.55498000  0.55498000  0.55498000  1
  N  N9  1  0.94502000  0.50000000  0.00000000  1
  N  N10  1  0.05498000  0.05498000  0.05498000  1
  N  N11  1  0.50000000  0.00000000  0.44502000  1
  N  N12  1  0.44502000  0.50000000  0.00000000  1
  N  N13  1  0.00000000  0.94502000  0.50000000  1
