# generated using pymatgen
data_Pb2CCl2O3
_symmetry_space_group_name_H-M   'P 1'
_cell_length_a   8.71043200
_cell_length_b   8.99547499
_cell_length_c   9.07831345
_cell_angle_alpha   88.05476014
_cell_angle_beta   89.13479159
_cell_angle_gamma   86.86222835
_symmetry_Int_Tables_number   1
_chemical_formula_structural   Pb2CCl2O3
_chemical_formula_sum   'Pb8 C4 Cl8 O12'
_cell_volume   709.78824507
_cell_formula_units_Z   4
loop_
 _symmetry_equiv_pos_site_id
 _symmetry_equiv_pos_as_xyz
  1  'x, y, z'
loop_
 _atom_site_type_symbol
 _atom_site_label
 _atom_site_symmetry_multiplicity
 _atom_site_fract_x
 _atom_site_fract_y
 _atom_site_fract_z
 _atom_site_occupancy
  Pb  Pb0  1  0.13831400  0.68545600  0.65118300  1
  Pb  Pb1  1  0.21072500  0.17796600  0.66474100  1
  Pb  Pb2  1  0.69589400  0.77962100  0.88646900  1
  Pb  Pb3  1  0.42927100  0.71980400  0.26169100  1
  Pb  Pb4  1  0.88939600  0.80529000  0.31312100  1
  Pb  Pb5  1  0.80573700  0.32123300  0.40769200  1
  Pb  Pb6  1  0.63909200  0.23254900  0.82943100  1
  Pb  Pb7  1  0.24804000  0.24458000  0.12314300  1
  C  C8  1  0.31411700  0.47110400  0.81942000  1
  C  C9  1  0.67812400  0.50125100  0.16692000  1
  C  C10  1  0.84384200  0.51226900  0.67114000  1
  C  C11  1  0.17148600  0.51482100  0.28451600  1
  Cl  Cl12  1  0.51299100  0.20354900  0.54178500  1
  Cl  Cl13  1  0.02469000  0.24968600  0.91421500  1
  Cl  Cl14  1  0.08904700  0.04071000  0.33799900  1
  Cl  Cl15  1  0.37923000  0.00915300  0.87087800  1
  Cl  Cl16  1  0.63897900  0.97325400  0.17283600  1
  Cl  Cl17  1  0.84812900  0.99852100  0.67603400  1
  Cl  Cl18  1  0.44592300  0.76688400  0.55545700  1
  Cl  Cl19  1  0.97406100  0.78978100  0.03085900  1
  O  O20  1  0.72950000  0.36827200  0.14673800  1
  O  O21  1  0.28724600  0.60245200  0.86517800  1
  O  O22  1  0.06809500  0.42470900  0.25062200  1
  O  O23  1  0.72259500  0.43519300  0.67277200  1
  O  O24  1  0.87173600  0.60551000  0.77139700  1
  O  O25  1  0.61619200  0.58810300  0.06520600  1
  O  O26  1  0.31639600  0.47555600  0.25883500  1
  O  O27  1  0.14009300  0.64477500  0.34027300  1
  O  O28  1  0.38918300  0.36584600  0.89495100  1
  O  O29  1  0.94203400  0.49789600  0.56196500  1
  O  O30  1  0.68071600  0.55493400  0.30333400  1
  O  O31  1  0.25912400  0.43927000  0.68919600  1
