# generated using pymatgen
data_CdI2
_symmetry_space_group_name_H-M   'P 1'
_cell_length_a   4.33293321
_cell_length_b   4.33293321
_cell_length_c   74.25493700
_cell_angle_alpha   90.00000000
_cell_angle_beta   90.00000000
_cell_angle_gamma   119.99998788
_symmetry_Int_Tables_number   1
_chemical_formula_structural   CdI2
_chemical_formula_sum   'Cd10 I20'
_cell_volume   1207.31336191
_cell_formula_units_Z   10
loop_
 _symmetry_equiv_pos_site_id
 _symmetry_equiv_pos_as_xyz
  1  'x, y, z'
loop_
 _atom_site_type_symbol
 _atom_site_label
 _atom_site_symmetry_multiplicity
 _atom_site_fract_x
 _atom_site_fract_y
 _atom_site_fract_z
 _atom_site_occupancy
  Cd  Cd0  1  0.00000000  0.00000000  0.22501000  1
  Cd  Cd1  1  0.33333300  0.66666700  0.72501300  1
  Cd  Cd2  1  0.33333300  0.66666700  0.92499300  1
  Cd  Cd3  1  0.00000000  0.00000000  0.62499400  1
  Cd  Cd4  1  0.33333300  0.66666700  0.32499800  1
  Cd  Cd5  1  0.33333300  0.66666700  0.52498100  1
  Cd  Cd6  1  0.00000000  0.00000000  0.42500600  1
  Cd  Cd7  1  0.33333300  0.66666700  0.12499600  1
  Cd  Cd8  1  0.33333300  0.66666700  0.82500300  1
  Cd  Cd9  1  0.00000000  0.00000000  0.02500700  1
  I  I10  1  0.33333300  0.66666700  0.20177700  1
  I  I11  1  0.66666700  0.33333300  0.44823500  1
  I  I12  1  0.66666700  0.33333300  0.34823100  1
  I  I13  1  0.00000000  0.00000000  0.80177200  1
  I  I14  1  0.00000000  0.00000000  0.90175300  1
  I  I15  1  0.66666700  0.33333300  0.94822800  1
  I  I16  1  0.33333300  0.66666700  0.60175300  1
  I  I17  1  0.00000000  0.00000000  0.70177300  1
  I  I18  1  0.33333300  0.66666700  0.40177400  1
  I  I19  1  0.00000000  0.00000000  0.10175500  1
  I  I20  1  0.66666700  0.33333300  0.04824600  1
  I  I21  1  0.00000000  0.00000000  0.30176900  1
  I  I22  1  0.33333300  0.66666700  0.00177200  1
  I  I23  1  0.66666700  0.33333300  0.54822000  1
  I  I24  1  0.66666700  0.33333300  0.14823100  1
  I  I25  1  0.66666700  0.33333300  0.24824700  1
  I  I26  1  0.00000000  0.00000000  0.50174400  1
  I  I27  1  0.66666700  0.33333300  0.84824200  1
  I  I28  1  0.66666700  0.33333300  0.64822800  1
  I  I29  1  0.66666700  0.33333300  0.74825000  1
