# generated using pymatgen
data_CdI2
_symmetry_space_group_name_H-M   'P 1'
_cell_length_a   4.33213255
_cell_length_b   4.33213255
_cell_length_c   74.71438300
_cell_angle_alpha   90.00000000
_cell_angle_beta   90.00000000
_cell_angle_gamma   120.00000840
_symmetry_Int_Tables_number   1
_chemical_formula_structural   CdI2
_chemical_formula_sum   'Cd10 I20'
_cell_volume   1214.33435471
_cell_formula_units_Z   10
loop_
 _symmetry_equiv_pos_site_id
 _symmetry_equiv_pos_as_xyz
  1  'x, y, z'
loop_
 _atom_site_type_symbol
 _atom_site_label
 _atom_site_symmetry_multiplicity
 _atom_site_fract_x
 _atom_site_fract_y
 _atom_site_fract_z
 _atom_site_occupancy
  Cd  Cd0  1  0.00000000  0.00000000  0.32502000  1
  Cd  Cd1  1  0.33333300  0.66666700  0.42498500  1
  Cd  Cd2  1  0.33333300  0.66666700  0.92498200  1
  Cd  Cd3  1  0.00000000  0.00000000  0.02499700  1
  Cd  Cd4  1  0.33333300  0.66666700  0.22501900  1
  Cd  Cd5  1  0.33333300  0.66666700  0.52497200  1
  Cd  Cd6  1  0.33333300  0.66666700  0.72502300  1
  Cd  Cd7  1  0.33333300  0.66666700  0.12500200  1
  Cd  Cd8  1  0.33333300  0.66666700  0.82501200  1
  Cd  Cd9  1  0.33333300  0.66666700  0.62499500  1
  I  I10  1  0.66666700  0.33333300  0.44808100  1
  I  I11  1  0.66666700  0.33333300  0.34812700  1
  I  I12  1  0.00000000  0.00000000  0.10190100  1
  I  I13  1  0.00000000  0.00000000  0.90188400  1
  I  I14  1  0.66666700  0.33333300  0.94807700  1
  I  I15  1  0.33333300  0.66666700  0.30191100  1
  I  I16  1  0.00000000  0.00000000  0.70192200  1
  I  I17  1  0.00000000  0.00000000  0.80191600  1
  I  I18  1  0.66666700  0.33333300  0.04809500  1
  I  I19  1  0.00000000  0.00000000  0.60189500  1
  I  I20  1  0.33333300  0.66666700  0.00189100  1
  I  I21  1  0.66666700  0.33333300  0.54807400  1
  I  I22  1  0.66666700  0.33333300  0.14810100  1
  I  I23  1  0.00000000  0.00000000  0.40188800  1
  I  I24  1  0.66666700  0.33333300  0.24811700  1
  I  I25  1  0.00000000  0.00000000  0.50186700  1
  I  I26  1  0.66666700  0.33333300  0.84810600  1
  I  I27  1  0.66666700  0.33333300  0.64809600  1
  I  I28  1  0.00000000  0.00000000  0.20192000  1
  I  I29  1  0.66666700  0.33333300  0.74812400  1
