# generated using pymatgen
data_SiO2
_symmetry_space_group_name_H-M   'P 1'
_cell_length_a   11.77223700
_cell_length_b   11.77223700
_cell_length_c   4.37524400
_cell_angle_alpha   90.00000000
_cell_angle_beta   90.00000000
_cell_angle_gamma   90.00000000
_symmetry_Int_Tables_number   1
_chemical_formula_structural   SiO2
_chemical_formula_sum   'Si16 O32'
_cell_volume   606.34565731
_cell_formula_units_Z   16
loop_
 _symmetry_equiv_pos_site_id
 _symmetry_equiv_pos_as_xyz
  1  'x, y, z'
loop_
 _atom_site_type_symbol
 _atom_site_label
 _atom_site_symmetry_multiplicity
 _atom_site_fract_x
 _atom_site_fract_y
 _atom_site_fract_z
 _atom_site_occupancy
  Si  Si0  1  0.73702600  0.07921000  0.28796300  1
  Si  Si1  1  0.76193300  0.58422300  0.26631900  1
  Si  Si2  1  0.57921000  0.76297400  0.28796300  1
  Si  Si3  1  0.08422300  0.73806700  0.26631900  1
  Si  Si4  1  0.58422300  0.23806700  0.73368100  1
  Si  Si5  1  0.26297400  0.92079000  0.28796300  1
  Si  Si6  1  0.41577700  0.76193300  0.73368100  1
  Si  Si7  1  0.23806700  0.41577700  0.26631900  1
  Si  Si8  1  0.76297400  0.42079000  0.71203700  1
  Si  Si9  1  0.07921000  0.26297400  0.71203700  1
  Si  Si10  1  0.91577700  0.26193300  0.26631900  1
  Si  Si11  1  0.26193300  0.08422300  0.73368100  1
  Si  Si12  1  0.92079000  0.73702600  0.71203700  1
  Si  Si13  1  0.42079000  0.23702600  0.28796300  1
  Si  Si14  1  0.73806700  0.91577700  0.73368100  1
  Si  Si15  1  0.23702600  0.57921000  0.71203700  1
  O  O16  1  0.82519700  0.81955100  0.86421100  1
  O  O17  1  0.86090100  0.64151500  0.48575300  1
  O  O18  1  0.18829200  0.49490600  0.98498100  1
  O  O19  1  0.50109000  0.31222200  0.51307100  1
  O  O20  1  0.00109000  0.81222200  0.48692900  1
  O  O21  1  0.64151500  0.13909900  0.51424700  1
  O  O22  1  0.81955100  0.17480300  0.13578900  1
  O  O23  1  0.68044900  0.32519700  0.86421100  1
  O  O24  1  0.17480300  0.18044900  0.86421100  1
  O  O25  1  0.35848500  0.86090100  0.51424700  1
  O  O26  1  0.99891000  0.18777800  0.48692900  1
  O  O27  1  0.49891000  0.68777800  0.51307100  1
  O  O28  1  0.67480300  0.68044900  0.13578900  1
  O  O29  1  0.18044900  0.82519700  0.13578900  1
  O  O30  1  0.81170800  0.50509400  0.98498100  1
  O  O31  1  0.18777800  0.00109000  0.51307100  1
  O  O32  1  0.99490600  0.31170800  0.98498100  1
  O  O33  1  0.81222200  0.99891000  0.51307100  1
  O  O34  1  0.32519700  0.31955100  0.13578900  1
  O  O35  1  0.49490600  0.81170800  0.01501900  1
  O  O36  1  0.31955100  0.67480300  0.86421100  1
  O  O37  1  0.68777800  0.50109000  0.48692900  1
  O  O38  1  0.50509400  0.18829200  0.01501900  1
  O  O39  1  0.85848500  0.36090100  0.48575300  1
  O  O40  1  0.63909900  0.85848500  0.51424700  1
  O  O41  1  0.68829200  0.99490600  0.01501900  1
  O  O42  1  0.00509400  0.68829200  0.98498100  1
  O  O43  1  0.14151500  0.63909900  0.48575300  1
  O  O44  1  0.31170800  0.00509400  0.01501900  1
  O  O45  1  0.36090100  0.14151500  0.51424700  1
  O  O46  1  0.31222200  0.49891000  0.48692900  1
  O  O47  1  0.13909900  0.35848500  0.48575300  1
