# generated using pymatgen
data_CdI2
_symmetry_space_group_name_H-M   'P 1'
_cell_length_a   4.33562218
_cell_length_b   4.33562218
_cell_length_c   89.78258400
_cell_angle_alpha   90.00000000
_cell_angle_beta   90.00000000
_cell_angle_gamma   120.00000273
_symmetry_Int_Tables_number   1
_chemical_formula_structural   CdI2
_chemical_formula_sum   'Cd12 I24'
_cell_volume   1461.59005329
_cell_formula_units_Z   12
loop_
 _symmetry_equiv_pos_site_id
 _symmetry_equiv_pos_as_xyz
  1  'x, y, z'
loop_
 _atom_site_type_symbol
 _atom_site_label
 _atom_site_symmetry_multiplicity
 _atom_site_fract_x
 _atom_site_fract_y
 _atom_site_fract_z
 _atom_site_occupancy
  Cd  Cd0  1  0.00000000  0.00000000  0.27081500  1
  Cd  Cd1  1  0.66666700  0.33333300  0.02085700  1
  Cd  Cd2  1  0.66666700  0.33333300  0.18752700  1
  Cd  Cd3  1  0.00000000  0.00000000  0.85416200  1
  Cd  Cd4  1  0.00000000  0.00000000  0.10414700  1
  Cd  Cd5  1  0.66666700  0.33333300  0.35419700  1
  Cd  Cd6  1  0.00000000  0.00000000  0.52082400  1
  Cd  Cd7  1  0.00000000  0.00000000  0.77081600  1
  Cd  Cd8  1  0.66666700  0.33333300  0.93749800  1
  Cd  Cd9  1  0.66666700  0.33333300  0.68752200  1
  Cd  Cd10  1  0.00000000  0.00000000  0.43748300  1
  Cd  Cd11  1  0.66666700  0.33333300  0.60416100  1
  I  I12  1  0.00000000  0.00000000  0.16833200  1
  I  I13  1  0.66666700  0.33333300  0.83497400  1
  I  I14  1  0.33333300  0.66666700  0.79000800  1
  I  I15  1  0.66666700  0.33333300  0.08495300  1
  I  I16  1  0.33333300  0.66666700  0.45667400  1
  I  I17  1  0.33333300  0.66666700  0.20671900  1
  I  I18  1  0.33333300  0.66666700  0.95668900  1
  I  I19  1  0.00000000  0.00000000  0.66832800  1
  I  I20  1  0.66666700  0.33333300  0.50163800  1
  I  I21  1  0.66666700  0.33333300  0.75162100  1
  I  I22  1  0.00000000  0.00000000  0.91830200  1
  I  I23  1  0.00000000  0.00000000  0.58496600  1
  I  I24  1  0.33333300  0.66666700  0.54001100  1
  I  I25  1  0.33333300  0.66666700  0.12333900  1
  I  I26  1  0.33333300  0.66666700  0.04004700  1
  I  I27  1  0.00000000  0.00000000  0.00166400  1
  I  I28  1  0.33333300  0.66666700  0.29000700  1
  I  I29  1  0.33333300  0.66666700  0.37339400  1
  I  I30  1  0.00000000  0.00000000  0.33500200  1
  I  I31  1  0.33333300  0.66666700  0.62335300  1
  I  I32  1  0.66666700  0.33333300  0.41828800  1
  I  I33  1  0.33333300  0.66666700  0.70671400  1
  I  I34  1  0.66666700  0.33333300  0.25162000  1
  I  I35  1  0.33333300  0.66666700  0.87334800  1
