# generated using pymatgen
data_CdI2
_symmetry_space_group_name_H-M   'P 1'
_cell_length_a   4.33369168
_cell_length_b   4.33369168
_cell_length_c   90.42980900
_cell_angle_alpha   90.00000000
_cell_angle_beta   90.00000000
_cell_angle_gamma   119.99999519
_symmetry_Int_Tables_number   1
_chemical_formula_structural   CdI2
_chemical_formula_sum   'Cd12 I24'
_cell_volume   1470.81580402
_cell_formula_units_Z   12
loop_
 _symmetry_equiv_pos_site_id
 _symmetry_equiv_pos_as_xyz
  1  'x, y, z'
loop_
 _atom_site_type_symbol
 _atom_site_label
 _atom_site_symmetry_multiplicity
 _atom_site_fract_x
 _atom_site_fract_y
 _atom_site_fract_z
 _atom_site_occupancy
  Cd  Cd0  1  0.00000000  0.00000000  0.27081300  1
  Cd  Cd1  1  0.00000000  0.00000000  0.93746700  1
  Cd  Cd2  1  0.66666700  0.33333300  0.02085800  1
  Cd  Cd3  1  0.66666700  0.33333300  0.77082700  1
  Cd  Cd4  1  0.00000000  0.00000000  0.10414700  1
  Cd  Cd5  1  0.00000000  0.00000000  0.85416300  1
  Cd  Cd6  1  0.66666700  0.33333300  0.43749500  1
  Cd  Cd7  1  0.66666700  0.33333300  0.18752700  1
  Cd  Cd8  1  0.66666700  0.33333300  0.52086600  1
  Cd  Cd9  1  0.66666700  0.33333300  0.60415800  1
  Cd  Cd10  1  0.66666700  0.33333300  0.35419900  1
  Cd  Cd11  1  0.00000000  0.00000000  0.68749400  1
  I  I12  1  0.00000000  0.00000000  0.16845500  1
  I  I13  1  0.66666700  0.33333300  0.83509600  1
  I  I14  1  0.33333300  0.66666700  0.78989600  1
  I  I15  1  0.00000000  0.00000000  0.41841900  1
  I  I16  1  0.66666700  0.33333300  0.08507500  1
  I  I17  1  0.33333300  0.66666700  0.45656400  1
  I  I18  1  0.33333300  0.66666700  0.20659600  1
  I  I19  1  0.33333300  0.66666700  0.95653700  1
  I  I20  1  0.66666700  0.33333300  0.91839800  1
  I  I21  1  0.00000000  0.00000000  0.58508200  1
  I  I22  1  0.33333300  0.66666700  0.53993700  1
  I  I23  1  0.33333300  0.66666700  0.12321900  1
  I  I24  1  0.33333300  0.66666700  0.03992600  1
  I  I25  1  0.00000000  0.00000000  0.75175000  1
  I  I26  1  0.33333300  0.66666700  0.28988500  1
  I  I27  1  0.33333300  0.66666700  0.37327100  1
  I  I28  1  0.00000000  0.00000000  0.33512200  1
  I  I29  1  0.33333300  0.66666700  0.62322600  1
  I  I30  1  0.33333300  0.66666700  0.70655800  1
  I  I31  1  0.00000000  0.00000000  0.00178400  1
  I  I32  1  0.66666700  0.33333300  0.66843100  1
  I  I33  1  0.66666700  0.33333300  0.25174000  1
  I  I34  1  0.33333300  0.66666700  0.87323200  1
  I  I35  1  0.00000000  0.00000000  0.50178600  1
