# generated using pymatgen
data_CdI2
_symmetry_space_group_name_H-M   'P 1'
_cell_length_a   4.33560246
_cell_length_b   4.33560246
_cell_length_c   74.05281500
_cell_angle_alpha   90.00000000
_cell_angle_beta   90.00000000
_cell_angle_gamma   120.00000697
_symmetry_Int_Tables_number   1
_chemical_formula_structural   CdI2
_chemical_formula_sum   'Cd10 I20'
_cell_volume   1205.51073135
_cell_formula_units_Z   10
loop_
 _symmetry_equiv_pos_site_id
 _symmetry_equiv_pos_as_xyz
  1  'x, y, z'
loop_
 _atom_site_type_symbol
 _atom_site_label
 _atom_site_symmetry_multiplicity
 _atom_site_fract_x
 _atom_site_fract_y
 _atom_site_fract_z
 _atom_site_occupancy
  Cd  Cd0  1  0.00000000  0.00000000  0.22500200  1
  Cd  Cd1  1  0.66666700  0.33333300  0.92500200  1
  Cd  Cd2  1  0.00000000  0.00000000  0.02499500  1
  Cd  Cd3  1  0.33333300  0.66666700  0.82498600  1
  Cd  Cd4  1  0.00000000  0.00000000  0.42500800  1
  Cd  Cd5  1  0.66666700  0.33333300  0.52500200  1
  Cd  Cd6  1  0.66666700  0.33333300  0.72500000  1
  Cd  Cd7  1  0.66666700  0.33333300  0.32501500  1
  Cd  Cd8  1  0.66666700  0.33333300  0.12498400  1
  Cd  Cd9  1  0.33333300  0.66666700  0.62497500  1
  I  I10  1  0.33333300  0.66666700  0.10169100  1
  I  I11  1  0.66666700  0.33333300  0.44830100  1
  I  I12  1  0.00000000  0.00000000  0.64827400  1
  I  I13  1  0.33333300  0.66666700  0.30173000  1
  I  I14  1  0.00000000  0.00000000  0.94829600  1
  I  I15  1  0.33333300  0.66666700  0.20172200  1
  I  I16  1  0.33333300  0.66666700  0.40172900  1
  I  I17  1  0.00000000  0.00000000  0.34830900  1
  I  I18  1  0.00000000  0.00000000  0.54829400  1
  I  I19  1  0.33333300  0.66666700  0.90171500  1
  I  I20  1  0.66666700  0.33333300  0.80169200  1
  I  I21  1  0.00000000  0.00000000  0.14828300  1
  I  I22  1  0.33333300  0.66666700  0.00171000  1
  I  I23  1  0.66666700  0.33333300  0.04829100  1
  I  I24  1  0.00000000  0.00000000  0.84828500  1
  I  I25  1  0.66666700  0.33333300  0.60167700  1
  I  I26  1  0.66666700  0.33333300  0.24829900  1
  I  I27  1  0.33333300  0.66666700  0.50172300  1
  I  I28  1  0.33333300  0.66666700  0.70171600  1
  I  I29  1  0.00000000  0.00000000  0.74829400  1
