# generated using pymatgen
data_SrTi2O5
_symmetry_space_group_name_H-M   'P 1'
_cell_length_a   8.92282611
_cell_length_b   8.92282611
_cell_length_c   12.22987100
_cell_angle_alpha   90.00000000
_cell_angle_beta   90.00000000
_cell_angle_gamma   128.00609425
_symmetry_Int_Tables_number   1
_chemical_formula_structural   SrTi2O5
_chemical_formula_sum   'Sr4 Ti8 O20'
_cell_volume   767.22506961
_cell_formula_units_Z   4
loop_
 _symmetry_equiv_pos_site_id
 _symmetry_equiv_pos_as_xyz
  1  'x, y, z'
loop_
 _atom_site_type_symbol
 _atom_site_label
 _atom_site_symmetry_multiplicity
 _atom_site_fract_x
 _atom_site_fract_y
 _atom_site_fract_z
 _atom_site_occupancy
  Sr  Sr0  1  0.39468200  0.12087100  0.38109600  1
  Sr  Sr1  1  0.87912900  0.60531800  0.38109600  1
  Sr  Sr2  1  0.12087100  0.39468200  0.38109600  1
  Sr  Sr3  1  0.60531800  0.87912900  0.38109600  1
  Ti  Ti4  1  0.23703700  0.23703700  0.05504000  1
  Ti  Ti5  1  0.23868300  0.76131700  0.23154200  1
  Ti  Ti6  1  0.00000000  0.00000000  0.25633200  1
  Ti  Ti7  1  0.76131700  0.23868300  0.23154200  1
  Ti  Ti8  1  0.50000000  0.50000000  0.24724000  1
  Ti  Ti9  1  0.63367000  0.36633000  0.05807900  1
  Ti  Ti10  1  0.76296300  0.76296300  0.05504000  1
  Ti  Ti11  1  0.36633000  0.63367000  0.05807900  1
  O  O12  1  0.74056700  0.25943300  0.39784700  1
  O  O13  1  0.12338200  0.87661800  0.25311900  1
  O  O14  1  0.50000000  0.00000000  0.24604000  1
  O  O15  1  0.24618400  0.24618400  0.22115700  1
  O  O16  1  0.00000000  0.00000000  0.07072400  1
  O  O17  1  0.00000000  0.50000000  0.24604000  1
  O  O18  1  0.75381600  0.75381600  0.22115700  1
  O  O19  1  0.25651600  0.74348400  0.07735400  1
  O  O20  1  0.19281900  0.39350200  0.99431000  1
  O  O21  1  0.37766300  0.62233700  0.22155700  1
  O  O22  1  0.62233700  0.37766300  0.22155700  1
  O  O23  1  0.60649800  0.80718100  0.99431000  1
  O  O24  1  0.80718100  0.60649800  0.99431000  1
  O  O25  1  0.39350200  0.19281900  0.99431000  1
  O  O26  1  0.87661800  0.12338200  0.25311900  1
  O  O27  1  0.74348400  0.25651600  0.07735400  1
  O  O28  1  0.50000000  0.50000000  0.39507500  1
  O  O29  1  0.25943300  0.74056700  0.39784700  1
  O  O30  1  0.50000000  0.50000000  0.08419500  1
  O  O31  1  0.00000000  0.00000000  0.40234400  1
