# generated using pymatgen
data_PbI2
_symmetry_space_group_name_H-M   'P 1'
_cell_length_a   29.88464430
_cell_length_b   29.88464430
_cell_length_c   29.88464382
_cell_angle_alpha   8.96159697
_cell_angle_beta   8.96159697
_cell_angle_gamma   8.96159820
_symmetry_Int_Tables_number   1
_chemical_formula_structural   PbI2
_chemical_formula_sum   'Pb4 I8'
_cell_volume   562.00548306
_cell_formula_units_Z   4
loop_
 _symmetry_equiv_pos_site_id
 _symmetry_equiv_pos_as_xyz
  1  'x, y, z'
loop_
 _atom_site_type_symbol
 _atom_site_label
 _atom_site_symmetry_multiplicity
 _atom_site_fract_x
 _atom_site_fract_y
 _atom_site_fract_z
 _atom_site_occupancy
  Pb  Pb0  1  0.08331400  0.08331400  0.08331400  1
  Pb  Pb1  1  0.00000000  0.00000000  0.00000000  1
  Pb  Pb2  1  0.91668600  0.91668600  0.91668600  1
  Pb  Pb3  1  0.50000000  0.50000000  0.50000000  1
  I  I4  1  0.35425900  0.35425900  0.35425900  1
  I  I5  1  0.18760300  0.18760300  0.18760300  1
  I  I6  1  0.81239700  0.81239700  0.81239700  1
  I  I7  1  0.27093900  0.27093900  0.27093900  1
  I  I8  1  0.64574100  0.64574100  0.64574100  1
  I  I9  1  0.72906100  0.72906100  0.72906100  1
  I  I10  1  0.56242000  0.56242000  0.56242000  1
  I  I11  1  0.43758000  0.43758000  0.43758000  1
