# generated using pymatgen
data_CuAg3S2
_symmetry_space_group_name_H-M   'P 1'
_cell_length_a   8.58476113
_cell_length_b   8.58476113
_cell_length_c   8.58476113
_cell_angle_alpha   118.75590552
_cell_angle_beta   118.75590552
_cell_angle_gamma   92.16868964
_symmetry_Int_Tables_number   1
_chemical_formula_structural   CuAg3S2
_chemical_formula_sum   'Cu4 Ag12 S8'
_cell_volume   455.43251886
_cell_formula_units_Z   4
loop_
 _symmetry_equiv_pos_site_id
 _symmetry_equiv_pos_as_xyz
  1  'x, y, z'
loop_
 _atom_site_type_symbol
 _atom_site_label
 _atom_site_symmetry_multiplicity
 _atom_site_fract_x
 _atom_site_fract_y
 _atom_site_fract_z
 _atom_site_occupancy
  Cu  Cu0  1  0.34681100  0.34681100  0.00000000  1
  Cu  Cu1  1  0.09681100  0.59681100  0.50000000  1
  Cu  Cu2  1  0.40318900  0.90318900  0.50000000  1
  Cu  Cu3  1  0.65318900  0.65318900  0.00000000  1
  Ag  Ag4  1  0.43557500  0.93557500  0.87115000  1
  Ag  Ag5  1  0.68557500  0.31442500  0.00000000  1
  Ag  Ag6  1  0.31442500  0.68557500  0.00000000  1
  Ag  Ag7  1  0.06442500  0.56442500  0.12885000  1
  Ag  Ag8  1  0.31442500  0.31442500  0.62885000  1
  Ag  Ag9  1  0.06442500  0.93557500  0.50000000  1
  Ag  Ag10  1  0.43557500  0.56442500  0.50000000  1
  Ag  Ag11  1  0.68557500  0.68557500  0.37115000  1
  Ag  Ag12  1  0.37500000  0.12500000  0.25000000  1
  Ag  Ag13  1  0.87500000  0.12500000  0.25000000  1
  Ag  Ag14  1  0.87500000  0.62500000  0.75000000  1
  Ag  Ag15  1  0.87500000  0.12500000  0.75000000  1
  S  S16  1  0.66220500  0.41347200  0.75126800  1
  S  S17  1  0.66220500  0.91093700  0.24873200  1
  S  S18  1  0.58652800  0.33779500  0.24873200  1
  S  S19  1  0.66093700  0.91220500  0.74873200  1
  S  S20  1  0.16347200  0.91220500  0.25126800  1
  S  S21  1  0.08906300  0.33779500  0.75126800  1
  S  S22  1  0.08779500  0.33906300  0.25126800  1
  S  S23  1  0.08779500  0.83652800  0.74873200  1
