# generated using pymatgen
data_UAl4
_symmetry_space_group_name_H-M   'P 1'
_cell_length_a   7.88678303
_cell_length_b   7.88678303
_cell_length_c   7.88678303
_cell_angle_alpha   147.98307104
_cell_angle_beta   133.38091373
_cell_angle_gamma   57.67392804
_symmetry_Int_Tables_number   1
_chemical_formula_structural   UAl4
_chemical_formula_sum   'U2 Al8'
_cell_volume   187.58054028
_cell_formula_units_Z   2
loop_
 _symmetry_equiv_pos_site_id
 _symmetry_equiv_pos_as_xyz
  1  'x, y, z'
loop_
 _atom_site_type_symbol
 _atom_site_label
 _atom_site_symmetry_multiplicity
 _atom_site_fract_x
 _atom_site_fract_y
 _atom_site_fract_z
 _atom_site_occupancy
  U  U0  1  0.36367200  0.11367200  0.25000000  1
  U  U1  1  0.63632800  0.88632800  0.75000000  1
  Al  Al2  1  0.27443400  0.30213500  0.97229900  1
  Al  Al3  1  0.17016400  0.69786500  0.47229900  1
  Al  Al4  1  0.82983600  0.30213500  0.52770100  1
  Al  Al5  1  0.50000000  0.50000000  0.00000000  1
  Al  Al6  1  0.72556600  0.69786500  0.02770100  1
  Al  Al7  1  0.85919900  0.10919900  0.75000000  1
  Al  Al8  1  0.14080100  0.89080100  0.25000000  1
  Al  Al9  1  0.00000000  0.50000000  0.50000000  1
