# generated using pymatgen
data_Ni3Se4
_symmetry_space_group_name_H-M   'P 1'
_cell_length_a   6.24691109
_cell_length_b   6.24691109
_cell_length_c   6.19680170
_cell_angle_alpha   61.02872400
_cell_angle_beta   61.02872400
_cell_angle_gamma   34.20305598
_symmetry_Int_Tables_number   1
_chemical_formula_structural   Ni3Se4
_chemical_formula_sum   'Ni3 Se4'
_cell_volume   117.18684738
_cell_formula_units_Z   1
loop_
 _symmetry_equiv_pos_site_id
 _symmetry_equiv_pos_as_xyz
  1  'x, y, z'
loop_
 _atom_site_type_symbol
 _atom_site_label
 _atom_site_symmetry_multiplicity
 _atom_site_fract_x
 _atom_site_fract_y
 _atom_site_fract_z
 _atom_site_occupancy
  Ni  Ni0  1  0.00000000  0.00000000  0.00000000  1
  Ni  Ni1  1  0.25986500  0.25986500  0.72082400  1
  Ni  Ni2  1  0.74013500  0.74013500  0.27917600  1
  Se  Se3  1  0.11836900  0.11836900  0.54213900  1
  Se  Se4  1  0.88163100  0.88163100  0.45786100  1
  Se  Se5  1  0.63551200  0.63551200  0.02279100  1
  Se  Se6  1  0.36448800  0.36448800  0.97720900  1
