# generated using pymatgen
data_Mn2Pt(CO)12
_symmetry_space_group_name_H-M   'P 1'
_cell_length_a   6.69001600
_cell_length_b   7.55675608
_cell_length_c   10.19952725
_cell_angle_alpha   69.88524077
_cell_angle_beta   83.84617068
_cell_angle_gamma   86.10515986
_symmetry_Int_Tables_number   1
_chemical_formula_structural   Mn2Pt(CO)12
_chemical_formula_sum   'Mn2 Pt1 C12 O12'
_cell_volume   481.12792626
_cell_formula_units_Z   1
loop_
 _symmetry_equiv_pos_site_id
 _symmetry_equiv_pos_as_xyz
  1  'x, y, z'
loop_
 _atom_site_type_symbol
 _atom_site_label
 _atom_site_symmetry_multiplicity
 _atom_site_fract_x
 _atom_site_fract_y
 _atom_site_fract_z
 _atom_site_occupancy
  Mn  Mn0  1  0.20728600  0.11335400  0.73080700  1
  Mn  Mn1  1  0.79271400  0.88664600  0.26919300  1
  Pt  Pt2  1  0.00000000  0.00000000  0.00000000  1
  C  C3  1  0.97468700  0.25251100  0.66970400  1
  C  C4  1  0.34459800  0.18986100  0.55934400  1
  C  C5  1  0.42127800  0.96144100  0.81421900  1
  C  C6  1  0.89447700  0.25039300  0.96681700  1
  C  C7  1  0.57872200  0.03855900  0.18578100  1
  C  C8  1  0.65540200  0.81013900  0.44065600  1
  C  C9  1  0.90248300  0.09180900  0.29302100  1
  C  C10  1  0.02531300  0.74748900  0.33029600  1
  C  C11  1  0.10552300  0.74960700  0.03318300  1
  C  C12  1  0.70490200  0.69365200  0.21694900  1
  C  C13  1  0.29509800  0.30634800  0.78305100  1
  C  C14  1  0.09751700  0.90819100  0.70697900  1
  O  O15  1  0.56515400  0.76293400  0.55006800  1
  O  O16  1  0.43484600  0.23706600  0.44993200  1
  O  O17  1  0.97048400  0.21613300  0.31314000  1
  O  O18  1  0.35442100  0.42625400  0.81311200  1
  O  O19  1  0.17016100  0.59728400  0.05440900  1
  O  O20  1  0.55922600  0.87042000  0.86201400  1
  O  O21  1  0.44077400  0.12958000  0.13798600  1
  O  O22  1  0.83067900  0.33781800  0.62718300  1
  O  O23  1  0.02951600  0.78386700  0.68686000  1
  O  O24  1  0.16932100  0.66218200  0.37281700  1
  O  O25  1  0.64557900  0.57374600  0.18688800  1
  O  O26  1  0.82983900  0.40271600  0.94559100  1
