# generated using pymatgen
data_MnAs2S4(NF6)4
_symmetry_space_group_name_H-M   'P 1'
_cell_length_a   10.60571100
_cell_length_b   7.65981300
_cell_length_c   15.68691995
_cell_angle_alpha   65.35979267
_cell_angle_beta   90.00000000
_cell_angle_gamma   90.00000000
_symmetry_Int_Tables_number   1
_chemical_formula_structural   MnAs2S4(NF6)4
_chemical_formula_sum   'Mn2 As4 S8 N8 F48'
_cell_volume   1158.33091828
_cell_formula_units_Z   2
loop_
 _symmetry_equiv_pos_site_id
 _symmetry_equiv_pos_as_xyz
  1  'x, y, z'
loop_
 _atom_site_type_symbol
 _atom_site_label
 _atom_site_symmetry_multiplicity
 _atom_site_fract_x
 _atom_site_fract_y
 _atom_site_fract_z
 _atom_site_occupancy
  Mn  Mn0  1  0.00000000  0.00000000  0.00000000  1
  Mn  Mn1  1  0.50000000  0.00000000  0.50000000  1
  As  As2  1  0.24271400  0.19634200  0.61351900  1
  As  As3  1  0.74271400  0.80365800  0.88648100  1
  As  As4  1  0.75728600  0.80365800  0.38648100  1
  As  As5  1  0.25728600  0.19634200  0.11351900  1
  S  S6  1  0.19941700  0.85408600  0.44926800  1
  S  S7  1  0.43592800  0.46076500  0.31573800  1
  S  S8  1  0.56407200  0.53923500  0.68426200  1
  S  S9  1  0.80058300  0.14591400  0.55073200  1
  S  S10  1  0.30058300  0.85408600  0.94926800  1
  S  S11  1  0.69941700  0.14591400  0.05073200  1
  S  S12  1  0.93592800  0.53923500  0.18426200  1
  S  S13  1  0.06407200  0.46076500  0.81573800  1
  N  N14  1  0.32589500  0.90143500  0.45875400  1
  N  N15  1  0.17410500  0.90143500  0.95875400  1
  N  N16  1  0.67410500  0.09856500  0.54124600  1
  N  N17  1  0.48021100  0.27797500  0.37825700  1
  N  N18  1  0.98021100  0.72202500  0.12174300  1
  N  N19  1  0.51978900  0.72202500  0.62174300  1
  N  N20  1  0.01978900  0.27797500  0.87825700  1
  N  N21  1  0.82589500  0.09856500  0.04124600  1
  F  F22  1  0.07564800  0.63183000  0.84507000  1
  F  F23  1  0.11718900  0.72775200  0.53596500  1
  F  F24  1  0.69424900  0.74614700  0.00314700  1
  F  F25  1  0.10631000  0.11121100  0.08711800  1
  F  F26  1  0.40075400  0.27920100  0.13951000  1
  F  F27  1  0.50781000  0.57687400  0.22184100  1
  F  F28  1  0.33229000  0.73849400  0.89022700  1
  F  F29  1  0.30156000  0.48884500  0.27012400  1
  F  F30  1  0.39369000  0.11121100  0.58711800  1
  F  F31  1  0.40359200  0.01190900  0.90410900  1
  F  F32  1  0.49219000  0.42312600  0.77815900  1
  F  F33  1  0.57564800  0.36817000  0.65493000  1
  F  F34  1  0.59924600  0.72079900  0.86049000  1
  F  F35  1  0.83229000  0.26150600  0.60977300  1
  F  F36  1  0.19844000  0.48884500  0.77012400  1
  F  F37  1  0.31159500  0.42710400  0.57570700  1
  F  F38  1  0.59640800  0.98809100  0.09589100  1
  F  F39  1  0.38281100  0.72775200  0.03596500  1
  F  F40  1  0.68277000  0.03857500  0.85146800  1
  F  F41  1  0.18840500  0.42710400  0.07570700  1
  F  F42  1  0.31723000  0.96142500  0.14853200  1
  F  F43  1  0.09924600  0.27920100  0.63951000  1
  F  F44  1  0.89369000  0.88878900  0.91288200  1
  F  F45  1  0.80156000  0.51115500  0.22987600  1
  F  F46  1  0.79971500  0.86310000  0.77218100  1
  F  F47  1  0.00781000  0.42312600  0.27815900  1
  F  F48  1  0.20028500  0.13690000  0.22781900  1
  F  F49  1  0.18277000  0.96142500  0.64853200  1
  F  F50  1  0.69844000  0.51115500  0.72987600  1
  F  F51  1  0.99219000  0.57687400  0.72184100  1
  F  F52  1  0.30575100  0.25385300  0.99685300  1
  F  F53  1  0.70028500  0.86310000  0.27218100  1
  F  F54  1  0.66771000  0.26150600  0.10977300  1
  F  F55  1  0.90359200  0.98809100  0.59589100  1
  F  F56  1  0.61718900  0.27224800  0.96403500  1
  F  F57  1  0.29971500  0.13690000  0.72781900  1
  F  F58  1  0.60631000  0.88878900  0.41288200  1
  F  F59  1  0.19424900  0.25385300  0.49685300  1
  F  F60  1  0.68840500  0.57289600  0.42429300  1
  F  F61  1  0.42435200  0.63183000  0.34507000  1
  F  F62  1  0.16771000  0.73849400  0.39022700  1
  F  F63  1  0.90075400  0.72079900  0.36049000  1
  F  F64  1  0.81723000  0.03857500  0.35146800  1
  F  F65  1  0.80575100  0.74614700  0.50314700  1
  F  F66  1  0.81159500  0.57289600  0.92429300  1
  F  F67  1  0.88281100  0.27224800  0.46403500  1
  F  F68  1  0.09640800  0.01190900  0.40410900  1
  F  F69  1  0.92435200  0.36817000  0.15493000  1
