# generated using pymatgen
data_Pr(BRh)4
_symmetry_space_group_name_H-M   'P 1'
_cell_length_a   5.39238700
_cell_length_b   5.39238700
_cell_length_c   7.57383000
_cell_angle_alpha   90.00000000
_cell_angle_beta   90.00000000
_cell_angle_gamma   90.00000000
_symmetry_Int_Tables_number   1
_chemical_formula_structural   Pr(BRh)4
_chemical_formula_sum   'Pr2 B8 Rh8'
_cell_volume   220.23059843
_cell_formula_units_Z   2
loop_
 _symmetry_equiv_pos_site_id
 _symmetry_equiv_pos_as_xyz
  1  'x, y, z'
loop_
 _atom_site_type_symbol
 _atom_site_label
 _atom_site_symmetry_multiplicity
 _atom_site_fract_x
 _atom_site_fract_y
 _atom_site_fract_z
 _atom_site_occupancy
  Pr  Pr0  1  0.00000000  0.00000000  0.00000000  1
  Pr  Pr1  1  0.50000000  0.50000000  0.50000000  1
  B  B2  1  0.83154700  0.50000000  0.15211500  1
  B  B3  1  0.16845300  0.50000000  0.15211500  1
  B  B4  1  0.00000000  0.33154700  0.65211500  1
  B  B5  1  0.00000000  0.66845300  0.65211500  1
  B  B6  1  0.66845300  0.00000000  0.34788500  1
  B  B7  1  0.33154700  0.00000000  0.34788500  1
  B  B8  1  0.50000000  0.16845300  0.84788500  1
  B  B9  1  0.50000000  0.83154700  0.84788500  1
  Rh  Rh10  1  0.25145900  0.50000000  0.85716500  1
  Rh  Rh11  1  0.74854100  0.50000000  0.85716500  1
  Rh  Rh12  1  0.00000000  0.75145900  0.35716500  1
  Rh  Rh13  1  0.00000000  0.24854100  0.35716500  1
  Rh  Rh14  1  0.24854100  0.00000000  0.64283500  1
  Rh  Rh15  1  0.75145900  0.00000000  0.64283500  1
  Rh  Rh16  1  0.50000000  0.74854100  0.14283500  1
  Rh  Rh17  1  0.50000000  0.25145900  0.14283500  1
