# generated using pymatgen
data_CsVSO6
_symmetry_space_group_name_H-M   'P 1'
_cell_length_a   14.82277800
_cell_length_b   9.09499500
_cell_length_c   9.51236075
_cell_angle_alpha   81.54462902
_cell_angle_beta   90.00000000
_cell_angle_gamma   90.00000000
_symmetry_Int_Tables_number   1
_chemical_formula_structural   CsVSO6
_chemical_formula_sum   'Cs8 V8 S8 O48'
_cell_volume   1268.45206669
_cell_formula_units_Z   8
loop_
 _symmetry_equiv_pos_site_id
 _symmetry_equiv_pos_as_xyz
  1  'x, y, z'
loop_
 _atom_site_type_symbol
 _atom_site_label
 _atom_site_symmetry_multiplicity
 _atom_site_fract_x
 _atom_site_fract_y
 _atom_site_fract_z
 _atom_site_occupancy
  Cs  Cs0  1  0.60149200  0.27487800  0.58792000  1
  Cs  Cs1  1  0.10149200  0.72512200  0.91208000  1
  Cs  Cs2  1  0.39850800  0.72512200  0.41208000  1
  Cs  Cs3  1  0.55400800  0.17875800  0.13280700  1
  Cs  Cs4  1  0.44599200  0.82124200  0.86719300  1
  Cs  Cs5  1  0.94599200  0.17875800  0.63280700  1
  Cs  Cs6  1  0.05400800  0.82124200  0.36719300  1
  Cs  Cs7  1  0.89850800  0.27487800  0.08792000  1
  V  V8  1  0.22096900  0.42128500  0.58443100  1
  V  V9  1  0.27903100  0.42128500  0.08443100  1
  V  V10  1  0.82743100  0.77173400  0.11842600  1
  V  V11  1  0.67256900  0.77173400  0.61842600  1
  V  V12  1  0.77903100  0.57871500  0.41556900  1
  V  V13  1  0.72096900  0.57871500  0.91556900  1
  V  V14  1  0.32743100  0.22826600  0.38157400  1
  V  V15  1  0.17256900  0.22826600  0.88157400  1
  S  S16  1  0.39644200  0.38530900  0.80181600  1
  S  S17  1  0.60355800  0.61469100  0.19818400  1
  S  S18  1  0.28035100  0.01577900  0.14625900  1
  S  S19  1  0.21964900  0.01577900  0.64625900  1
  S  S20  1  0.89644200  0.61469100  0.69818400  1
  S  S21  1  0.10355800  0.38530900  0.30181600  1
  S  S22  1  0.71964900  0.98422100  0.85374100  1
  S  S23  1  0.78035100  0.98422100  0.35374100  1
  O  O24  1  0.12585900  0.44872500  0.43908200  1
  O  O25  1  0.56427600  0.49503800  0.29786100  1
  O  O26  1  0.69465000  0.66301700  0.25238900  1
  O  O27  1  0.72264900  0.40727900  0.88653500  1
  O  O28  1  0.80535000  0.66301700  0.75238900  1
  O  O29  1  0.69057100  0.59399500  0.54122500  1
  O  O30  1  0.27622800  0.05897100  0.29649400  1
  O  O31  1  0.45303200  0.25427300  0.83609100  1
  O  O32  1  0.43572400  0.50496200  0.70213900  1
  O  O33  1  0.19465000  0.33698300  0.24761100  1
  O  O34  1  0.19057100  0.40600500  0.95877500  1
  O  O35  1  0.30535000  0.33698300  0.74761100  1
  O  O36  1  0.76450200  0.84092600  0.45798600  1
  O  O37  1  0.77735100  0.40727900  0.38653500  1
  O  O38  1  0.26450200  0.15907400  0.04201400  1
  O  O39  1  0.87414100  0.55127500  0.56091800  1
  O  O40  1  0.22377200  0.05897100  0.79649400  1
  O  O41  1  0.37110100  0.96144400  0.12281500  1
  O  O42  1  0.87110100  0.03855600  0.37718500  1
  O  O43  1  0.37414100  0.44872500  0.93908200  1
  O  O44  1  0.36425900  0.31989700  0.21364300  1
  O  O45  1  0.62585900  0.55127500  0.06091800  1
  O  O46  1  0.86425900  0.68010300  0.28635700  1
  O  O47  1  0.12889900  0.96144400  0.62281500  1
  O  O48  1  0.57890600  0.84115700  0.54788400  1
  O  O49  1  0.63574100  0.68010300  0.78635700  1
  O  O50  1  0.73549800  0.84092600  0.95798600  1
  O  O51  1  0.93572400  0.49503800  0.79786100  1
  O  O52  1  0.29232400  0.91052200  0.63618100  1
  O  O53  1  0.95303200  0.74572700  0.66390900  1
  O  O54  1  0.42109400  0.15884300  0.45211600  1
  O  O55  1  0.06427600  0.50496200  0.20213900  1
  O  O56  1  0.27735100  0.59272100  0.11346500  1
  O  O57  1  0.54696800  0.74572700  0.16390900  1
  O  O58  1  0.92109400  0.84115700  0.04788400  1
  O  O59  1  0.30942900  0.40600500  0.45877500  1
  O  O60  1  0.77622800  0.94102900  0.20350600  1
  O  O61  1  0.80942900  0.59399500  0.04122500  1
  O  O62  1  0.23549800  0.15907400  0.54201400  1
  O  O63  1  0.04696800  0.25427300  0.33609100  1
  O  O64  1  0.13574100  0.31989700  0.71364300  1
  O  O65  1  0.79232400  0.08947800  0.86381900  1
  O  O66  1  0.72377200  0.94102900  0.70350600  1
  O  O67  1  0.22264900  0.59272100  0.61346500  1
  O  O68  1  0.07890600  0.15884300  0.95211600  1
  O  O69  1  0.62889900  0.03855600  0.87718500  1
  O  O70  1  0.70767600  0.08947800  0.36381900  1
  O  O71  1  0.20767600  0.91052200  0.13618100  1
