# generated using pymatgen
data_V2CoO6
_symmetry_space_group_name_H-M   'P 1'
_cell_length_a   4.87405000
_cell_length_b   7.29344968
_cell_length_c   8.97545758
_cell_angle_alpha   102.11067468
_cell_angle_beta   90.03537156
_cell_angle_gamma   94.22651340
_symmetry_Int_Tables_number   1
_chemical_formula_structural   V2CoO6
_chemical_formula_sum   'V6 Co3 O18'
_cell_volume   311.07353463
_cell_formula_units_Z   3
loop_
 _symmetry_equiv_pos_site_id
 _symmetry_equiv_pos_as_xyz
  1  'x, y, z'
loop_
 _atom_site_type_symbol
 _atom_site_label
 _atom_site_symmetry_multiplicity
 _atom_site_fract_x
 _atom_site_fract_y
 _atom_site_fract_z
 _atom_site_occupancy
  V  V0  1  0.45338800  0.71237900  0.60827200  1
  V  V1  1  0.88351900  0.41875400  0.73654600  1
  V  V2  1  0.45600500  0.71169600  0.96733300  1
  V  V3  1  0.54399500  0.28830400  0.03266700  1
  V  V4  1  0.11648100  0.58124600  0.26345400  1
  V  V5  1  0.54661200  0.28762100  0.39172800  1
  Co  Co6  1  0.00784600  0.01238700  0.16633800  1
  Co  Co7  1  0.00000000  0.00000000  0.50000000  1
  Co  Co8  1  0.99215400  0.98761300  0.83366200  1
  O  O9  1  0.82771100  0.15356200  0.01880000  1
  O  O10  1  0.82657200  0.15069600  0.35902600  1
  O  O11  1  0.33932900  0.16690400  0.48905400  1
  O  O12  1  0.10428400  0.82115300  0.30105300  1
  O  O13  1  0.36318500  0.21277500  0.20021400  1
  O  O14  1  0.29729800  0.52747700  0.42238300  1
  O  O15  1  0.63681500  0.78722500  0.79978600  1
  O  O16  1  0.17228900  0.84643800  0.98120000  1
  O  O17  1  0.70270200  0.47252300  0.57761700  1
  O  O18  1  0.70281500  0.47562600  0.91390500  1
  O  O19  1  0.17342800  0.84930400  0.64097400  1
  O  O20  1  0.29718500  0.52437400  0.08609500  1
  O  O21  1  0.79110500  0.47050800  0.24596700  1
  O  O22  1  0.66003600  0.83067600  0.10706100  1
  O  O23  1  0.66067100  0.83309600  0.51094600  1
  O  O24  1  0.20889500  0.52949200  0.75403300  1
  O  O25  1  0.89571600  0.17884700  0.69894700  1
  O  O26  1  0.33996400  0.16932400  0.89293900  1
