# generated using pymatgen
data_NaHgCl3O2
_symmetry_space_group_name_H-M   'P 1'
_cell_length_a   4.20982100
_cell_length_b   8.33295800
_cell_length_c   19.57743900
_cell_angle_alpha   90.00000000
_cell_angle_beta   90.00000000
_cell_angle_gamma   90.00000000
_symmetry_Int_Tables_number   1
_chemical_formula_structural   NaHgCl3O2
_chemical_formula_sum   'Na4 Hg4 Cl12 O8'
_cell_volume   686.78168120
_cell_formula_units_Z   4
loop_
 _symmetry_equiv_pos_site_id
 _symmetry_equiv_pos_as_xyz
  1  'x, y, z'
loop_
 _atom_site_type_symbol
 _atom_site_label
 _atom_site_symmetry_multiplicity
 _atom_site_fract_x
 _atom_site_fract_y
 _atom_site_fract_z
 _atom_site_occupancy
  Na  Na0  1  0.25000000  0.58395500  0.14030900  1
  Na  Na1  1  0.25000000  0.08395500  0.35969100  1
  Na  Na2  1  0.75000000  0.41604500  0.85969100  1
  Na  Na3  1  0.75000000  0.91604500  0.64030900  1
  Hg  Hg4  1  0.25000000  0.56179400  0.41201800  1
  Hg  Hg5  1  0.25000000  0.06179400  0.08798200  1
  Hg  Hg6  1  0.75000000  0.43820600  0.58798200  1
  Hg  Hg7  1  0.75000000  0.93820600  0.91201800  1
  Cl  Cl8  1  0.25000000  0.41168700  0.31030800  1
  Cl  Cl9  1  0.25000000  0.91168700  0.18969200  1
  Cl  Cl10  1  0.75000000  0.58831300  0.68969200  1
  Cl  Cl11  1  0.75000000  0.08831300  0.81030800  1
  Cl  Cl12  1  0.25000000  0.21679600  0.67163700  1
  Cl  Cl13  1  0.25000000  0.71679600  0.82836300  1
  Cl  Cl14  1  0.75000000  0.78320400  0.32836300  1
  Cl  Cl15  1  0.75000000  0.28320400  0.17163700  1
  Cl  Cl16  1  0.25000000  0.68169700  0.52179300  1
  Cl  Cl17  1  0.25000000  0.18169700  0.97820700  1
  Cl  Cl18  1  0.75000000  0.31830300  0.47820700  1
  Cl  Cl19  1  0.75000000  0.81830300  0.02179300  1
  O  O20  1  0.25000000  0.52120900  0.83718500  1
  O  O21  1  0.25000000  0.02120900  0.66281500  1
  O  O22  1  0.75000000  0.47879100  0.16281500  1
  O  O23  1  0.75000000  0.97879100  0.33718500  1
  O  O24  1  0.25000000  0.53106100  0.02213800  1
  O  O25  1  0.25000000  0.03106100  0.47786200  1
  O  O26  1  0.75000000  0.46893900  0.97786200  1
  O  O27  1  0.75000000  0.96893900  0.52213800  1
