# generated using pymatgen
data_PtN2(ClO)2
_symmetry_space_group_name_H-M   'P 1'
_cell_length_a   7.52855400
_cell_length_b   7.52855400
_cell_length_c   16.85768000
_cell_angle_alpha   90.00000000
_cell_angle_beta   90.00000000
_cell_angle_gamma   90.00000000
_symmetry_Int_Tables_number   1
_chemical_formula_structural   PtN2(ClO)2
_chemical_formula_sum   'Pt4 N8 Cl8 O8'
_cell_volume   955.47855751
_cell_formula_units_Z   4
loop_
 _symmetry_equiv_pos_site_id
 _symmetry_equiv_pos_as_xyz
  1  'x, y, z'
loop_
 _atom_site_type_symbol
 _atom_site_label
 _atom_site_symmetry_multiplicity
 _atom_site_fract_x
 _atom_site_fract_y
 _atom_site_fract_z
 _atom_site_occupancy
  Pt  Pt0  1  0.50000000  0.50000000  0.07358600  1
  Pt  Pt1  1  0.00000000  0.00000000  0.57358600  1
  Pt  Pt2  1  0.00000000  0.00000000  0.42641400  1
  Pt  Pt3  1  0.50000000  0.50000000  0.92641400  1
  N  N4  1  0.50000000  0.13130400  0.28499100  1
  N  N5  1  0.50000000  0.86869600  0.28499100  1
  N  N6  1  0.63130400  0.00000000  0.78499100  1
  N  N7  1  0.36869600  0.00000000  0.78499100  1
  N  N8  1  0.00000000  0.36869600  0.21500900  1
  N  N9  1  0.00000000  0.63130400  0.21500900  1
  N  N10  1  0.86869600  0.50000000  0.71500900  1
  N  N11  1  0.13130400  0.50000000  0.71500900  1
  Cl  Cl12  1  0.50000000  0.20720400  0.08280000  1
  Cl  Cl13  1  0.50000000  0.79279600  0.08280000  1
  Cl  Cl14  1  0.70720400  0.00000000  0.58280000  1
  Cl  Cl15  1  0.29279600  0.00000000  0.58280000  1
  Cl  Cl16  1  0.00000000  0.29279600  0.41720000  1
  Cl  Cl17  1  0.00000000  0.70720400  0.41720000  1
  Cl  Cl18  1  0.79279600  0.50000000  0.91720000  1
  Cl  Cl19  1  0.20720400  0.50000000  0.91720000  1
  O  O20  1  0.12646500  0.50000000  0.21504100  1
  O  O21  1  0.87353500  0.50000000  0.21504100  1
  O  O22  1  0.00000000  0.62646500  0.71504100  1
  O  O23  1  0.00000000  0.37353500  0.71504100  1
  O  O24  1  0.37353500  0.00000000  0.28495900  1
  O  O25  1  0.62646500  0.00000000  0.28495900  1
  O  O26  1  0.50000000  0.87353500  0.78495900  1
  O  O27  1  0.50000000  0.12646500  0.78495900  1
