# generated using pymatgen
data_BaIn2O4
_symmetry_space_group_name_H-M   'P 1'
_cell_length_a   5.92986200
_cell_length_b   10.57721000
_cell_length_c   14.67439890
_cell_angle_alpha   70.02657768
_cell_angle_beta   90.00000000
_cell_angle_gamma   90.00000000
_symmetry_Int_Tables_number   1
_chemical_formula_structural   BaIn2O4
_chemical_formula_sum   'Ba8 In16 O32'
_cell_volume   865.03787111
_cell_formula_units_Z   8
loop_
 _symmetry_equiv_pos_site_id
 _symmetry_equiv_pos_as_xyz
  1  'x, y, z'
loop_
 _atom_site_type_symbol
 _atom_site_label
 _atom_site_symmetry_multiplicity
 _atom_site_fract_x
 _atom_site_fract_y
 _atom_site_fract_z
 _atom_site_occupancy
  Ba  Ba0  1  0.25629500  0.92034000  0.93881700  1
  Ba  Ba1  1  0.24238600  0.24469000  0.19074000  1
  Ba  Ba2  1  0.74238600  0.75531000  0.30926000  1
  Ba  Ba3  1  0.75761400  0.75531000  0.80926000  1
  Ba  Ba4  1  0.24370500  0.92034000  0.43881700  1
  Ba  Ba5  1  0.75629500  0.07966000  0.56118300  1
  Ba  Ba6  1  0.25761400  0.24469000  0.69074000  1
  Ba  Ba7  1  0.74370500  0.07966000  0.06118300  1
  In  In8  1  0.24570800  0.62117400  0.69392700  1
  In  In9  1  0.74613900  0.44427600  0.05315500  1
  In  In10  1  0.75079700  0.72668500  0.07041500  1
  In  In11  1  0.24920300  0.27331500  0.92958500  1
  In  In12  1  0.24613900  0.55572400  0.44684500  1
  In  In13  1  0.25079700  0.27331500  0.42958500  1
  In  In14  1  0.74255700  0.08215600  0.31372500  1
  In  In15  1  0.25429200  0.62117400  0.19392700  1
  In  In16  1  0.75744300  0.08215600  0.81372500  1
  In  In17  1  0.75429200  0.37882600  0.30607300  1
  In  In18  1  0.74570800  0.37882600  0.80607300  1
  In  In19  1  0.25744300  0.91784400  0.68627500  1
  In  In20  1  0.74920300  0.72668500  0.57041500  1
  In  In21  1  0.75386100  0.44427600  0.55315500  1
  In  In22  1  0.25386100  0.55572400  0.94684500  1
  In  In23  1  0.24255700  0.91784400  0.18627500  1
  O  O24  1  0.80664400  0.90926000  0.94688900  1
  O  O25  1  0.51717100  0.00925400  0.23179500  1
  O  O26  1  0.44770200  0.58143600  0.56517800  1
  O  O27  1  0.50730600  0.78330500  0.65559000  1
  O  O28  1  0.70159800  0.28353800  0.68233100  1
  O  O29  1  0.45684000  0.81173800  0.11457600  1
  O  O30  1  0.04316000  0.81173800  0.61457600  1
  O  O31  1  0.29840200  0.71646200  0.31766900  1
  O  O32  1  0.54316000  0.18826200  0.88542400  1
  O  O33  1  0.57876000  0.63257600  0.97980300  1
  O  O34  1  0.05229800  0.58143600  0.06517800  1
  O  O35  1  0.00730600  0.21669500  0.84441000  1
  O  O36  1  0.20159800  0.71646200  0.81766900  1
  O  O37  1  0.95684000  0.18826200  0.38542400  1
  O  O38  1  0.79840200  0.28353800  0.18233100  1
  O  O39  1  0.99269400  0.78330500  0.15559000  1
  O  O40  1  0.55229800  0.41856400  0.43482200  1
  O  O41  1  0.07876000  0.36742400  0.52019700  1
  O  O42  1  0.42124000  0.36742400  0.02019700  1
  O  O43  1  0.30664400  0.09074000  0.55311100  1
  O  O44  1  0.19335600  0.09074000  0.05311100  1
  O  O45  1  0.98282900  0.00925400  0.73179500  1
  O  O46  1  0.94770200  0.41856400  0.93482200  1
  O  O47  1  0.01717100  0.99074600  0.26820500  1
  O  O48  1  0.49269400  0.21669500  0.34441000  1
  O  O49  1  0.69335600  0.90926000  0.44688900  1
  O  O50  1  0.90383300  0.53981700  0.69168900  1
  O  O51  1  0.92124000  0.63257600  0.47980300  1
  O  O52  1  0.48282900  0.99074600  0.76820500  1
  O  O53  1  0.40383300  0.46018300  0.80831100  1
  O  O54  1  0.09616700  0.46018300  0.30831100  1
  O  O55  1  0.59616700  0.53981700  0.19168900  1
