# generated using pymatgen
data_PrYSi2O7
_symmetry_space_group_name_H-M   'P 1'
_cell_length_a   6.14449933
_cell_length_b   10.73660600
_cell_length_c   11.16593239
_cell_angle_alpha   90.00000000
_cell_angle_beta   102.97472740
_cell_angle_gamma   90.00000000
_symmetry_Int_Tables_number   1
_chemical_formula_structural   PrYSi2O7
_chemical_formula_sum   'Pr4 Y4 Si8 O28'
_cell_volume   717.82176915
_cell_formula_units_Z   4
loop_
 _symmetry_equiv_pos_site_id
 _symmetry_equiv_pos_as_xyz
  1  'x, y, z'
loop_
 _atom_site_type_symbol
 _atom_site_label
 _atom_site_symmetry_multiplicity
 _atom_site_fract_x
 _atom_site_fract_y
 _atom_site_fract_z
 _atom_site_occupancy
  Pr  Pr0  1  0.60277800  0.13585100  0.28408700  1
  Pr  Pr1  1  0.89722200  0.63585100  0.21591300  1
  Pr  Pr2  1  0.39722200  0.86414900  0.71591300  1
  Pr  Pr3  1  0.10277800  0.36414900  0.78408700  1
  Y  Y4  1  0.25408800  0.37687800  0.44592100  1
  Y  Y5  1  0.24591200  0.87687800  0.05407900  1
  Y  Y6  1  0.74591200  0.62312200  0.55407900  1
  Y  Y7  1  0.75408800  0.12312200  0.94592100  1
  Si  Si8  1  0.73850000  0.84917100  0.02314800  1
  Si  Si9  1  0.76150000  0.34917100  0.47685200  1
  Si  Si10  1  0.26150000  0.15082900  0.97685200  1
  Si  Si11  1  0.23850000  0.65082900  0.52314800  1
  Si  Si12  1  0.95506400  0.70611900  0.83882500  1
  Si  Si13  1  0.54493600  0.20611900  0.66117500  1
  Si  Si14  1  0.04493700  0.29388100  0.16117500  1
  Si  Si15  1  0.45506300  0.79388100  0.33882500  1
  O  O16  1  0.82027200  0.20561900  0.14012600  1
  O  O17  1  0.67972800  0.70561900  0.35987400  1
  O  O18  1  0.17972800  0.79438100  0.85987400  1
  O  O19  1  0.32027200  0.29438100  0.64012600  1
  O  O20  1  0.89049300  0.73296100  0.97968000  1
  O  O21  1  0.60950700  0.23296100  0.52032000  1
  O  O22  1  0.10950700  0.26703900  0.02032000  1
  O  O23  1  0.39049300  0.76703900  0.47968000  1
  O  O24  1  0.58434300  0.92908300  0.91150700  1
  O  O25  1  0.91565700  0.42908300  0.58849300  1
  O  O26  1  0.41565700  0.07091700  0.08849300  1
  O  O27  1  0.08434300  0.57091700  0.41150700  1
  O  O28  1  0.58848700  0.77660200  0.10323200  1
  O  O29  1  0.91151300  0.27660200  0.39676800  1
  O  O30  1  0.41151300  0.22339800  0.89676800  1
  O  O31  1  0.08848700  0.72339800  0.60323200  1
  O  O32  1  0.42149100  0.55313200  0.59626200  1
  O  O33  1  0.07850900  0.05313200  0.90373800  1
  O  O34  1  0.57850900  0.44686800  0.40373800  1
  O  O35  1  0.92149100  0.94686800  0.09626200  1
  O  O36  1  0.00630600  0.55992000  0.82520200  1
  O  O37  1  0.49369400  0.05992000  0.67479800  1
  O  O38  1  0.99369400  0.44008000  0.17479800  1
  O  O39  1  0.50630600  0.94008000  0.32520200  1
  O  O40  1  0.76352600  0.24911000  0.76826200  1
  O  O41  1  0.73647400  0.74911000  0.73173800  1
  O  O42  1  0.23647400  0.75089000  0.23173800  1
  O  O43  1  0.26352600  0.25089000  0.26826200  1
