# generated using pymatgen
data_PbWO4
_symmetry_space_group_name_H-M   'P 1'
_cell_length_a   5.82745500
_cell_length_b   7.87379600
_cell_length_c   7.98070386
_cell_angle_alpha   74.70489503
_cell_angle_beta   90.00000000
_cell_angle_gamma   90.00000000
_symmetry_Int_Tables_number   1
_chemical_formula_structural   PbWO4
_chemical_formula_sum   'Pb4 W4 O16'
_cell_volume   353.21774788
_cell_formula_units_Z   4
loop_
 _symmetry_equiv_pos_site_id
 _symmetry_equiv_pos_as_xyz
  1  'x, y, z'
loop_
 _atom_site_type_symbol
 _atom_site_label
 _atom_site_symmetry_multiplicity
 _atom_site_fract_x
 _atom_site_fract_y
 _atom_site_fract_z
 _atom_site_occupancy
  Pb  Pb0  1  0.25984600  0.36006900  0.41858900  1
  Pb  Pb1  1  0.24015400  0.36006900  0.91858900  1
  Pb  Pb2  1  0.75984600  0.63993100  0.08141100  1
  Pb  Pb3  1  0.74015400  0.63993100  0.58141100  1
  W  W4  1  0.74890300  0.17287800  0.72658800  1
  W  W5  1  0.75109700  0.17287800  0.22658800  1
  W  W6  1  0.24890300  0.82712200  0.77341200  1
  W  W7  1  0.25109700  0.82712200  0.27341200  1
  O  O8  1  0.22996300  0.83476200  0.03853600  1
  O  O9  1  0.97719400  0.34841100  0.65528600  1
  O  O10  1  0.53042800  0.36313500  0.66738900  1
  O  O11  1  0.52280600  0.34841100  0.15528600  1
  O  O12  1  0.27003700  0.83476200  0.53853600  1
  O  O13  1  0.47810300  0.01327100  0.75674600  1
  O  O14  1  0.03042800  0.63686500  0.83261100  1
  O  O15  1  0.77003700  0.16523800  0.96146400  1
  O  O16  1  0.72996300  0.16523800  0.46146400  1
  O  O17  1  0.97810300  0.98672900  0.74325400  1
  O  O18  1  0.52189700  0.98672900  0.24325400  1
  O  O19  1  0.47719400  0.65158900  0.84471400  1
  O  O20  1  0.96957200  0.36313500  0.16738900  1
  O  O21  1  0.02189700  0.01327100  0.25674600  1
  O  O22  1  0.02280600  0.65158900  0.34471400  1
  O  O23  1  0.46957200  0.63686500  0.33261100  1
