data_image0
_chemical_formula_structural       Au2Ga2O4
_chemical_formula_sum              "Au2 Ga2 O4"
_cell_length_a       3.02125
_cell_length_b       3.02125
_cell_length_c       12.4302
_cell_angle_alpha    90
_cell_angle_beta     90
_cell_angle_gamma    120

_space_group_name_H-M_alt    "P 1"
_space_group_IT_number       1

loop_
  _space_group_symop_operation_xyz
  'x, y, z'

loop_
  _atom_site_type_symbol
  _atom_site_label
  _atom_site_symmetry_multiplicity
  _atom_site_fract_x
  _atom_site_fract_y
  _atom_site_fract_z
  _atom_site_occupancy
  Au  Au1       1.0  0.33300  0.66700  0.25000  1.0000
  Au  Au2       1.0  0.66700  0.33300  0.75000  1.0000
  Ga  Ga1       1.0  0.00000  0.00000  0.00000  1.0000
  Ga  Ga2       1.0  0.00000  0.00000  0.50000  1.0000
  O   O1        1.0  0.33300  0.66700  0.08050  1.0000
  O   O2        1.0  0.33300  0.66700  0.42000  1.0000
  O   O3        1.0  0.66700  0.33300  0.58000  1.0000
  O   O4        1.0  0.66700  0.33300  0.92000  1.0000
