# generated using pymatgen
data_PbCS(BrN)2
_symmetry_space_group_name_H-M   'P 1'
_cell_length_a   7.32251950
_cell_length_b   17.27854700
_cell_length_c   4.00484541
_cell_angle_alpha   90.00000000
_cell_angle_beta   114.52591138
_cell_angle_gamma   90.00000000
_symmetry_Int_Tables_number   1
_chemical_formula_structural   PbCS(BrN)2
_chemical_formula_sum   'Pb2 C2 S2 Br4 N4'
_cell_volume   460.98507024
_cell_formula_units_Z   2
loop_
 _symmetry_equiv_pos_site_id
 _symmetry_equiv_pos_as_xyz
  1  'x, y, z'
loop_
 _atom_site_type_symbol
 _atom_site_label
 _atom_site_symmetry_multiplicity
 _atom_site_fract_x
 _atom_site_fract_y
 _atom_site_fract_z
 _atom_site_occupancy
  Pb  Pb0  1  0.86512200  0.50445500  0.75221700  1
  Pb  Pb1  1  0.13487800  0.00445500  0.24778300  1
  C  C2  1  0.54450400  0.27029100  0.02612400  1
  C  C3  1  0.45549600  0.77029100  0.97387600  1
  S  S4  1  0.09565400  0.42145600  0.42933300  1
  S  S5  1  0.90434600  0.92145600  0.57066700  1
  Br  Br6  1  0.91721000  0.62608800  0.29062900  1
  Br  Br7  1  0.08279000  0.12608800  0.70937100  1
  Br  Br8  1  0.38008700  0.48587900  0.56176900  1
  Br  Br9  1  0.61991300  0.98587900  0.43823100  1
  N  N10  1  0.42038200  0.30429000  0.10936800  1
  N  N11  1  0.57961800  0.80429000  0.89063200  1
  N  N12  1  0.67102300  0.23754000  0.94788100  1
  N  N13  1  0.32897700  0.73754000  0.05211900  1
