# generated using pymatgen
data_Tl4Pd3Cl10
_symmetry_space_group_name_H-M   'P 1'
_cell_length_a   13.66442109
_cell_length_b   13.66442109
_cell_length_c   13.66442109
_cell_angle_alpha   105.95546999
_cell_angle_beta   105.95546999
_cell_angle_gamma   116.75777611
_symmetry_Int_Tables_number   1
_chemical_formula_structural   Tl4Pd3Cl10
_chemical_formula_sum   'Tl16 Pd12 Cl40'
_cell_volume   1939.93468238
_cell_formula_units_Z   4
loop_
 _symmetry_equiv_pos_site_id
 _symmetry_equiv_pos_as_xyz
  1  'x, y, z'
loop_
 _atom_site_type_symbol
 _atom_site_label
 _atom_site_symmetry_multiplicity
 _atom_site_fract_x
 _atom_site_fract_y
 _atom_site_fract_z
 _atom_site_occupancy
  Tl  Tl0  1  0.88274900  0.87500000  0.50774900  1
  Tl  Tl1  1  0.62500000  0.11725100  0.99225100  1
  Tl  Tl2  1  0.10803400  0.60803400  0.50000000  1
  Tl  Tl3  1  0.14196600  0.14196600  0.00000000  1
  Tl  Tl4  1  0.39878000  0.59547800  0.29186800  1
  Tl  Tl5  1  0.35691200  0.05361000  0.20813200  1
  Tl  Tl6  1  0.89308800  0.60122000  0.19669900  1
  Tl  Tl7  1  0.36725100  0.37500000  0.49225100  1
  Tl  Tl8  1  0.85803400  0.85803400  0.00000000  1
  Tl  Tl9  1  0.94639000  0.15452200  0.30330100  1
  Tl  Tl10  1  0.30361000  0.10691200  0.70813200  1
  Tl  Tl11  1  0.84547800  0.14878000  0.79186800  1
  Tl  Tl12  1  0.40452200  0.69639000  0.80330100  1
  Tl  Tl13  1  0.12500000  0.63274900  0.00774900  1
  Tl  Tl14  1  0.85122000  0.64308800  0.69669900  1
  Tl  Tl15  1  0.39196600  0.89196600  0.50000000  1
  Pd  Pd16  1  0.62500000  0.77368900  0.64868900  1
  Pd  Pd17  1  0.22631100  0.87500000  0.85131100  1
  Pd  Pd18  1  0.49463400  0.37445700  0.09248600  1
  Pd  Pd19  1  0.65214800  0.03197100  0.40751400  1
  Pd  Pd20  1  0.02368900  0.37500000  0.14868900  1
  Pd  Pd21  1  0.59785200  0.50536600  0.87982300  1
  Pd  Pd22  1  0.96802900  0.37554300  0.62017700  1
  Pd  Pd23  1  0.75536600  0.34785200  0.37982300  1
  Pd  Pd24  1  0.12500000  0.97631100  0.35131100  1
  Pd  Pd25  1  0.28197100  0.40214800  0.90751400  1
  Pd  Pd26  1  0.62445700  0.24463400  0.59248600  1
  Pd  Pd27  1  0.62554300  0.71802900  0.12017700  1
  Cl  Cl28  1  0.88220000  0.37500000  0.00720000  1
  Cl  Cl29  1  0.11206000  0.40082700  0.55216000  1
  Cl  Cl30  1  0.65082700  0.86206000  0.05216000  1
  Cl  Cl31  1  0.12500000  0.83424700  0.20924700  1
  Cl  Cl32  1  0.59446200  0.38708000  0.97746700  1
  Cl  Cl33  1  0.86699500  0.15961300  0.52253300  1
  Cl  Cl34  1  0.34472700  0.89372400  0.75368100  1
  Cl  Cl35  1  0.16575300  0.37500000  0.29075300  1
  Cl  Cl36  1  0.39113400  0.16117400  0.99553300  1
  Cl  Cl37  1  0.10627600  0.85995700  0.45100300  1
  Cl  Cl38  1  0.38300500  0.40553800  0.79261800  1
  Cl  Cl39  1  0.84104600  0.89004300  0.74631900  1
  Cl  Cl40  1  0.12500000  0.11780000  0.49280000  1
  Cl  Cl41  1  0.40133300  0.34917300  0.21123400  1
  Cl  Cl42  1  0.85886600  0.35439900  0.27004000  1
  Cl  Cl43  1  0.08435900  0.58882600  0.72996000  1
  Cl  Cl44  1  0.63708000  0.34446200  0.47746700  1
  Cl  Cl45  1  0.80990000  0.59866700  0.94784000  1
  Cl  Cl46  1  0.36780000  0.87500000  0.99280000  1
  Cl  Cl47  1  0.14004300  0.59104600  0.24631900  1
  Cl  Cl48  1  0.44010000  0.88794000  0.28876600  1
  Cl  Cl49  1  0.10995700  0.85627600  0.95100300  1
  Cl  Cl50  1  0.84038700  0.36292000  0.70738200  1
  Cl  Cl51  1  0.16564100  0.39560100  0.00446700  1
  Cl  Cl52  1  0.40895400  0.65527300  0.54899700  1
  Cl  Cl53  1  0.83882600  0.83435900  0.22996000  1
  Cl  Cl54  1  0.14372400  0.09472700  0.25368100  1
  Cl  Cl55  1  0.62500000  0.91575300  0.79075300  1
  Cl  Cl56  1  0.90527300  0.15895400  0.04899700  1
  Cl  Cl57  1  0.41117400  0.14113400  0.49553300  1
  Cl  Cl58  1  0.59917300  0.15133300  0.71123400  1
  Cl  Cl59  1  0.60439900  0.60886600  0.77004000  1
  Cl  Cl60  1  0.61292000  0.59038700  0.20738200  1
  Cl  Cl61  1  0.40961300  0.61699500  0.02253300  1
  Cl  Cl62  1  0.08424700  0.87500000  0.70924700  1
  Cl  Cl63  1  0.13794000  0.19010000  0.78876600  1
  Cl  Cl64  1  0.62500000  0.63220000  0.50720000  1
  Cl  Cl65  1  0.64560100  0.91564100  0.50446700  1
  Cl  Cl66  1  0.84866700  0.55990000  0.44784000  1
  Cl  Cl67  1  0.65553800  0.13300500  0.29261800  1
