# generated using pymatgen
data_Mn5(SiO4)3
_symmetry_space_group_name_H-M   'P 1'
_cell_length_a   10.38322717
_cell_length_b   10.38322717
_cell_length_c   10.38322717
_cell_angle_alpha   109.47122063
_cell_angle_beta   109.47122063
_cell_angle_gamma   109.47122063
_symmetry_Int_Tables_number   1
_chemical_formula_structural   Mn5(SiO4)3
_chemical_formula_sum   'Mn20 Si12 O48'
_cell_volume   861.73786513
_cell_formula_units_Z   4
loop_
 _symmetry_equiv_pos_site_id
 _symmetry_equiv_pos_as_xyz
  1  'x, y, z'
loop_
 _atom_site_type_symbol
 _atom_site_label
 _atom_site_symmetry_multiplicity
 _atom_site_fract_x
 _atom_site_fract_y
 _atom_site_fract_z
 _atom_site_occupancy
  Mn  Mn0  1  0.00000000  0.00000000  0.00000000  1
  Mn  Mn1  1  0.50000000  0.00000000  0.00000000  1
  Mn  Mn2  1  0.00000000  0.50000000  0.00000000  1
  Mn  Mn3  1  0.00000000  0.00000000  0.50000000  1
  Mn  Mn4  1  0.50000000  0.50000000  0.00000000  1
  Mn  Mn5  1  0.00000000  0.50000000  0.50000000  1
  Mn  Mn6  1  0.50000000  0.00000000  0.50000000  1
  Mn  Mn7  1  0.50000000  0.50000000  0.50000000  1
  Mn  Mn8  1  0.25000000  0.87500000  0.62500000  1
  Mn  Mn9  1  0.75000000  0.62500000  0.87500000  1
  Mn  Mn10  1  0.62500000  0.87500000  0.75000000  1
  Mn  Mn11  1  0.87500000  0.62500000  0.25000000  1
  Mn  Mn12  1  0.62500000  0.25000000  0.87500000  1
  Mn  Mn13  1  0.87500000  0.75000000  0.62500000  1
  Mn  Mn14  1  0.75000000  0.12500000  0.37500000  1
  Mn  Mn15  1  0.25000000  0.37500000  0.12500000  1
  Mn  Mn16  1  0.37500000  0.12500000  0.25000000  1
  Mn  Mn17  1  0.12500000  0.37500000  0.75000000  1
  Mn  Mn18  1  0.37500000  0.75000000  0.12500000  1
  Mn  Mn19  1  0.12500000  0.25000000  0.37500000  1
  Si  Si20  1  0.12500000  0.87500000  0.25000000  1
  Si  Si21  1  0.87500000  0.12500000  0.75000000  1
  Si  Si22  1  0.25000000  0.62500000  0.37500000  1
  Si  Si23  1  0.37500000  0.25000000  0.62500000  1
  Si  Si24  1  0.75000000  0.87500000  0.12500000  1
  Si  Si25  1  0.12500000  0.75000000  0.87500000  1
  Si  Si26  1  0.37500000  0.62500000  0.75000000  1
  Si  Si27  1  0.62500000  0.75000000  0.37500000  1
  Si  Si28  1  0.87500000  0.25000000  0.12500000  1
  Si  Si29  1  0.25000000  0.12500000  0.87500000  1
  Si  Si30  1  0.75000000  0.37500000  0.62500000  1
  Si  Si31  1  0.62500000  0.37500000  0.25000000  1
  O  O32  1  0.69401800  0.08880900  0.71129900  1
  O  O33  1  0.10520900  0.98271900  0.69401800  1
  O  O34  1  0.71129900  0.51728100  0.62249000  1
  O  O35  1  0.62249000  0.71129900  0.51728100  1
  O  O36  1  0.87751000  0.39479100  0.08880900  1
  O  O37  1  0.08880900  0.87751000  0.39479100  1
  O  O38  1  0.98271900  0.69401800  0.10520900  1
  O  O39  1  0.41119100  0.10520900  0.62249000  1
  O  O40  1  0.39479100  0.80598200  0.51728100  1
  O  O41  1  0.98271900  0.78870100  0.87751000  1
  O  O42  1  0.10520900  0.62249000  0.41119100  1
  O  O43  1  0.51728100  0.39479100  0.80598200  1
  O  O44  1  0.78870100  0.87751000  0.98271900  1
  O  O45  1  0.71129900  0.69401800  0.08880900  1
  O  O46  1  0.08880900  0.71129900  0.69401800  1
  O  O47  1  0.62249000  0.41119100  0.10520900  1
  O  O48  1  0.78870100  0.41119100  0.80598200  1
  O  O49  1  0.80598200  0.51728100  0.39479100  1
  O  O50  1  0.80598200  0.78870100  0.41119100  1
  O  O51  1  0.87751000  0.98271900  0.78870100  1
  O  O52  1  0.41119100  0.80598200  0.78870100  1
  O  O53  1  0.39479100  0.08880900  0.87751000  1
  O  O54  1  0.69401800  0.10520900  0.98271900  1
  O  O55  1  0.51728100  0.62249000  0.71129900  1
  O  O56  1  0.30598200  0.91119100  0.28870100  1
  O  O57  1  0.89479100  0.01728100  0.30598200  1
  O  O58  1  0.28870100  0.48271900  0.37751000  1
  O  O59  1  0.37751000  0.28870100  0.48271900  1
  O  O60  1  0.12249000  0.60520900  0.91119100  1
  O  O61  1  0.91119100  0.12249000  0.60520900  1
  O  O62  1  0.01728100  0.30598200  0.89479100  1
  O  O63  1  0.58880900  0.89479100  0.37751000  1
  O  O64  1  0.60520900  0.19401800  0.48271900  1
  O  O65  1  0.01728100  0.21129900  0.12249000  1
  O  O66  1  0.89479100  0.37751000  0.58880900  1
  O  O67  1  0.48271900  0.60520900  0.19401800  1
  O  O68  1  0.21129900  0.12249000  0.01728100  1
  O  O69  1  0.28870100  0.30598200  0.91119100  1
  O  O70  1  0.91119100  0.28870100  0.30598200  1
  O  O71  1  0.37751000  0.58880900  0.89479100  1
  O  O72  1  0.21129900  0.58880900  0.19401800  1
  O  O73  1  0.19401800  0.48271900  0.60520900  1
  O  O74  1  0.19401800  0.21129900  0.58880900  1
  O  O75  1  0.12249000  0.01728100  0.21129900  1
  O  O76  1  0.58880900  0.19401800  0.21129900  1
  O  O77  1  0.60520900  0.91119100  0.12249000  1
  O  O78  1  0.30598200  0.89479100  0.01728100  1
  O  O79  1  0.48271900  0.37751000  0.28870100  1
