# generated using pymatgen
data_P
_symmetry_space_group_name_H-M   'P 1'
_cell_length_a   6.02478900
_cell_length_b   11.86297433
_cell_length_c   12.01903059
_cell_angle_alpha   94.11353357
_cell_angle_beta   98.72841847
_cell_angle_gamma   100.18562310
_symmetry_Int_Tables_number   1
_chemical_formula_structural   P
_chemical_formula_sum   P24
_cell_volume   831.39260563
_cell_formula_units_Z   24
loop_
 _symmetry_equiv_pos_site_id
 _symmetry_equiv_pos_as_xyz
  1  'x, y, z'
loop_
 _atom_site_type_symbol
 _atom_site_label
 _atom_site_symmetry_multiplicity
 _atom_site_fract_x
 _atom_site_fract_y
 _atom_site_fract_z
 _atom_site_occupancy
  P  P0  1  0.07205800  0.00222500  0.18681900  1
  P  P1  1  0.92794200  0.99777500  0.81318100  1
  P  P2  1  0.85046700  0.95299300  0.31207700  1
  P  P3  1  0.14953300  0.04700700  0.68792300  1
  P  P4  1  0.00684300  0.13495300  0.30915700  1
  P  P5  1  0.99315700  0.86504700  0.69084300  1
  P  P6  1  0.22192800  0.01150500  0.36692700  1
  P  P7  1  0.77807200  0.98849500  0.63307300  1
  P  P8  1  0.76358500  0.36829200  0.05752300  1
  P  P9  1  0.23641500  0.63170800  0.94247700  1
  P  P10  1  0.59258400  0.18613700  0.03489500  1
  P  P11  1  0.40741600  0.81386300  0.96510500  1
  P  P12  1  0.51383100  0.30559100  0.16593000  1
  P  P13  1  0.48616900  0.69440900  0.83407000  1
  P  P14  1  0.39688400  0.32011400  0.98581400  1
  P  P15  1  0.60311600  0.67988600  0.01418600  1
  P  P16  1  0.29688300  0.68288300  0.46344800  1
  P  P17  1  0.70311700  0.31711700  0.53655200  1
  P  P18  1  0.94758800  0.62715200  0.36782400  1
  P  P19  1  0.05241200  0.37284800  0.63217600  1
  P  P20  1  0.20128400  0.51529400  0.35995400  1
  P  P21  1  0.79871600  0.48470600  0.64004600  1
  P  P22  1  0.23651900  0.67602600  0.27749300  1
  P  P23  1  0.76348100  0.32397400  0.72250700  1
