# generated using pymatgen
data_NdFeC6(N3O2)2
_symmetry_space_group_name_H-M   'P 1'
_cell_length_a   8.02607356
_cell_length_b   8.02607356
_cell_length_c   13.83081700
_cell_angle_alpha   90.00000000
_cell_angle_beta   90.00000000
_cell_angle_gamma   119.87611386
_symmetry_Int_Tables_number   1
_chemical_formula_structural   NdFeC6(N3O2)2
_chemical_formula_sum   'Nd2 Fe2 C12 N12 O8'
_cell_volume   772.54812265
_cell_formula_units_Z   2
loop_
 _symmetry_equiv_pos_site_id
 _symmetry_equiv_pos_as_xyz
  1  'x, y, z'
loop_
 _atom_site_type_symbol
 _atom_site_label
 _atom_site_symmetry_multiplicity
 _atom_site_fract_x
 _atom_site_fract_y
 _atom_site_fract_z
 _atom_site_occupancy
  Nd  Nd0  1  0.66372300  0.33627700  0.25000000  1
  Nd  Nd1  1  0.33627700  0.66372300  0.75000000  1
  Fe  Fe2  1  0.00000000  0.00000000  0.50000000  1
  Fe  Fe3  1  0.00000000  0.00000000  0.00000000  1
  C  C4  1  0.24345900  0.14285600  0.40388900  1
  C  C5  1  0.14285600  0.24345900  0.59611100  1
  C  C6  1  0.24345900  0.14285600  0.09611100  1
  C  C7  1  0.14285600  0.24345900  0.90388900  1
  C  C8  1  0.75654100  0.85714400  0.59611100  1
  C  C9  1  0.85714400  0.75654100  0.40388900  1
  C  C10  1  0.75654100  0.85714400  0.90388900  1
  C  C11  1  0.85714400  0.75654100  0.09611100  1
  C  C12  1  0.85982600  0.14017400  0.42832900  1
  C  C13  1  0.14017400  0.85982600  0.57167100  1
  C  C14  1  0.85982600  0.14017400  0.07167100  1
  C  C15  1  0.14017400  0.85982600  0.92832900  1
  N  N16  1  0.38128900  0.21549100  0.35557900  1
  N  N17  1  0.21549100  0.38128900  0.64442100  1
  N  N18  1  0.38128900  0.21549100  0.14442100  1
  N  N19  1  0.21549100  0.38128900  0.85557900  1
  N  N20  1  0.61871100  0.78450900  0.64442100  1
  N  N21  1  0.78450900  0.61871100  0.35557900  1
  N  N22  1  0.61871100  0.78450900  0.85557900  1
  N  N23  1  0.78450900  0.61871100  0.14442100  1
  N  N24  1  0.78974100  0.21025900  0.38107700  1
  N  N25  1  0.21025900  0.78974100  0.61892300  1
  N  N26  1  0.78974100  0.21025900  0.11892300  1
  N  N27  1  0.21025900  0.78974100  0.88107700  1
  O  O28  1  0.42830400  0.82501900  0.25000000  1
  O  O29  1  0.82501900  0.42830400  0.75000000  1
  O  O30  1  0.57169600  0.17498100  0.75000000  1
  O  O31  1  0.17498100  0.57169600  0.25000000  1
  O  O32  1  0.32805200  0.67194800  0.32379000  1
  O  O33  1  0.67194800  0.32805200  0.67621000  1
  O  O34  1  0.32805200  0.67194800  0.17621000  1
  O  O35  1  0.67194800  0.32805200  0.82379000  1
