# generated using pymatgen
data_Y13Cd58
_symmetry_space_group_name_H-M   'P 1'
_cell_length_a   15.79073195
_cell_length_b   15.79073195
_cell_length_c   15.56765400
_cell_angle_alpha   90.00000000
_cell_angle_beta   90.00000000
_cell_angle_gamma   119.99999980
_symmetry_Int_Tables_number   1
_chemical_formula_structural   Y13Cd58
_chemical_formula_sum   'Y26 Cd116'
_cell_volume   3361.69513791
_cell_formula_units_Z   2
loop_
 _symmetry_equiv_pos_site_id
 _symmetry_equiv_pos_as_xyz
  1  'x, y, z'
loop_
 _atom_site_type_symbol
 _atom_site_label
 _atom_site_symmetry_multiplicity
 _atom_site_fract_x
 _atom_site_fract_y
 _atom_site_fract_z
 _atom_site_occupancy
  Y  Y0  1  0.41214800  0.20607400  0.55280900  1
  Y  Y1  1  0.87133800  0.74267600  0.25000000  1
  Y  Y2  1  0.20607400  0.41214800  0.05280900  1
  Y  Y3  1  0.08883400  0.54441700  0.75000000  1
  Y  Y4  1  0.79392600  0.58785200  0.94719100  1
  Y  Y5  1  0.79392600  0.20607400  0.55280900  1
  Y  Y6  1  0.91116600  0.45558300  0.25000000  1
  Y  Y7  1  0.79392600  0.20607400  0.94719100  1
  Y  Y8  1  0.79392600  0.58785200  0.55280900  1
  Y  Y9  1  0.45558300  0.91116600  0.75000000  1
  Y  Y10  1  0.12866200  0.87133800  0.75000000  1
  Y  Y11  1  0.87133800  0.12866200  0.25000000  1
  Y  Y12  1  0.58785200  0.79392600  0.05280900  1
  Y  Y13  1  0.58785200  0.79392600  0.44719100  1
  Y  Y14  1  0.20607400  0.79392600  0.44719100  1
  Y  Y15  1  0.00000000  0.00000000  0.00000000  1
  Y  Y16  1  0.45558300  0.54441700  0.75000000  1
  Y  Y17  1  0.54441700  0.08883400  0.25000000  1
  Y  Y18  1  0.12866200  0.25732400  0.75000000  1
  Y  Y19  1  0.74267600  0.87133800  0.75000000  1
  Y  Y20  1  0.20607400  0.41214800  0.44719100  1
  Y  Y21  1  0.41214800  0.20607400  0.94719100  1
  Y  Y22  1  0.00000000  0.00000000  0.50000000  1
  Y  Y23  1  0.25732400  0.12866200  0.25000000  1
  Y  Y24  1  0.20607400  0.79392600  0.05280900  1
  Y  Y25  1  0.54441700  0.45558300  0.25000000  1
  Cd  Cd26  1  0.90785700  0.09214300  0.65576900  1
  Cd  Cd27  1  0.00000000  0.19746600  0.00000000  1
  Cd  Cd28  1  0.63544400  0.96411800  0.60153700  1
  Cd  Cd29  1  0.36455600  0.32867400  0.39846300  1
  Cd  Cd30  1  0.67132600  0.63544400  0.10153700  1
  Cd  Cd31  1  0.60031800  0.39968200  0.05147700  1
  Cd  Cd32  1  0.63544400  0.67132600  0.89846300  1
  Cd  Cd33  1  0.96411800  0.63544400  0.10153700  1
  Cd  Cd34  1  0.20063600  0.60031800  0.94852300  1
  Cd  Cd35  1  0.09214300  0.90785700  0.34423100  1
  Cd  Cd36  1  0.55967400  0.11934800  0.64741800  1
  Cd  Cd37  1  0.81571500  0.90785700  0.34423100  1
  Cd  Cd38  1  0.73372500  0.26627500  0.75000000  1
  Cd  Cd39  1  0.44032600  0.88065200  0.35258200  1
  Cd  Cd40  1  0.32867400  0.36455600  0.89846300  1
  Cd  Cd41  1  0.03588200  0.67132600  0.89846300  1
  Cd  Cd42  1  0.53174000  0.76587000  0.84146000  1
  Cd  Cd43  1  0.80253400  0.80253400  0.00000000  1
  Cd  Cd44  1  0.36455600  0.03588200  0.39846300  1
  Cd  Cd45  1  0.00000000  0.19746600  0.50000000  1
  Cd  Cd46  1  0.92013200  0.64495000  0.75000000  1
  Cd  Cd47  1  0.19746600  0.19746600  0.50000000  1
  Cd  Cd48  1  0.67132600  0.03588200  0.10153700  1
  Cd  Cd49  1  0.60031800  0.39968200  0.44852300  1
  Cd  Cd50  1  0.76587000  0.53174000  0.34146000  1
  Cd  Cd51  1  0.76587000  0.53174000  0.15854000  1
  Cd  Cd52  1  0.96411800  0.32867400  0.10153700  1
  Cd  Cd53  1  0.66666700  0.33333300  0.59672100  1
  Cd  Cd54  1  0.27518200  0.92013200  0.25000000  1
  Cd  Cd55  1  0.46826000  0.23413000  0.34146000  1
  Cd  Cd56  1  0.03588200  0.36455600  0.60153700  1
  Cd  Cd57  1  0.33333300  0.66666700  0.75000000  1
  Cd  Cd58  1  0.72481800  0.07986800  0.75000000  1
  Cd  Cd59  1  0.03588200  0.36455600  0.89846300  1
  Cd  Cd60  1  0.80253400  0.00000000  0.50000000  1
  Cd  Cd61  1  0.60031800  0.20063600  0.44852300  1
  Cd  Cd62  1  0.67132600  0.03588200  0.39846300  1
  Cd  Cd63  1  0.35505000  0.07986800  0.75000000  1
  Cd  Cd64  1  0.92013200  0.27518200  0.75000000  1
  Cd  Cd65  1  0.00000000  0.80253400  0.00000000  1
  Cd  Cd66  1  0.44032600  0.55967400  0.14741800  1
  Cd  Cd67  1  0.11934800  0.55967400  0.35258200  1
  Cd  Cd68  1  0.50000000  0.00000000  0.50000000  1
  Cd  Cd69  1  0.90785700  0.81571500  0.84423100  1
  Cd  Cd70  1  0.09214300  0.18428500  0.15576900  1
  Cd  Cd71  1  0.03588200  0.67132600  0.60153700  1
  Cd  Cd72  1  0.32867400  0.36455600  0.60153700  1
  Cd  Cd73  1  0.55967400  0.11934800  0.85258200  1
  Cd  Cd74  1  0.20063600  0.60031800  0.55147700  1
  Cd  Cd75  1  0.63544400  0.67132600  0.60153700  1
  Cd  Cd76  1  0.44032600  0.55967400  0.35258200  1
  Cd  Cd77  1  0.00000000  0.00000000  0.25000000  1
  Cd  Cd78  1  0.60031800  0.20063600  0.05147700  1
  Cd  Cd79  1  0.79936400  0.39968200  0.44852300  1
  Cd  Cd80  1  0.73372500  0.46745000  0.75000000  1
  Cd  Cd81  1  0.39968200  0.79936400  0.94852300  1
  Cd  Cd82  1  0.66666700  0.33333300  0.90327900  1
  Cd  Cd83  1  0.23413000  0.46826000  0.84146000  1
  Cd  Cd84  1  0.76587000  0.23413000  0.15854000  1
  Cd  Cd85  1  0.27518200  0.35505000  0.25000000  1
  Cd  Cd86  1  0.39968200  0.60031800  0.55147700  1
  Cd  Cd87  1  0.36455600  0.03588200  0.10153700  1
  Cd  Cd88  1  0.76587000  0.23413000  0.34146000  1
  Cd  Cd89  1  0.81571500  0.90785700  0.15576900  1
  Cd  Cd90  1  0.32867400  0.96411800  0.89846300  1
  Cd  Cd91  1  0.88065200  0.44032600  0.85258200  1
  Cd  Cd92  1  0.90785700  0.81571500  0.65576900  1
  Cd  Cd93  1  0.11934800  0.55967400  0.14741800  1
  Cd  Cd94  1  0.96411800  0.32867400  0.39846300  1
  Cd  Cd95  1  0.64495000  0.72481800  0.25000000  1
  Cd  Cd96  1  0.55967400  0.44032600  0.85258200  1
  Cd  Cd97  1  0.46826000  0.23413000  0.15854000  1
  Cd  Cd98  1  0.80253400  0.80253400  0.50000000  1
  Cd  Cd99  1  0.00000000  0.00000000  0.75000000  1
  Cd  Cd100  1  0.18428500  0.09214300  0.65576900  1
  Cd  Cd101  1  0.19746600  0.19746600  0.00000000  1
  Cd  Cd102  1  0.19746600  0.00000000  0.50000000  1
  Cd  Cd103  1  0.07986800  0.35505000  0.25000000  1
  Cd  Cd104  1  0.67132600  0.63544400  0.39846300  1
  Cd  Cd105  1  0.53174000  0.76587000  0.65854000  1
  Cd  Cd106  1  0.79936400  0.39968200  0.05147700  1
  Cd  Cd107  1  0.36455600  0.32867400  0.10153700  1
  Cd  Cd108  1  0.23413000  0.76587000  0.84146000  1
  Cd  Cd109  1  0.66666700  0.33333300  0.25000000  1
  Cd  Cd110  1  0.44032600  0.88065200  0.14741800  1
  Cd  Cd111  1  0.50000000  0.50000000  0.00000000  1
  Cd  Cd112  1  0.00000000  0.50000000  0.50000000  1
  Cd  Cd113  1  0.23413000  0.76587000  0.65854000  1
  Cd  Cd114  1  0.33333300  0.66666700  0.40327900  1
  Cd  Cd115  1  0.19746600  0.00000000  0.00000000  1
  Cd  Cd116  1  0.07986800  0.72481800  0.25000000  1
  Cd  Cd117  1  0.00000000  0.80253400  0.50000000  1
  Cd  Cd118  1  0.63544400  0.96411800  0.89846300  1
  Cd  Cd119  1  0.50000000  0.50000000  0.50000000  1
  Cd  Cd120  1  0.18428500  0.09214300  0.84423100  1
  Cd  Cd121  1  0.53255000  0.26627500  0.75000000  1
  Cd  Cd122  1  0.09214300  0.90785700  0.15576900  1
  Cd  Cd123  1  0.90785700  0.09214300  0.84423100  1
  Cd  Cd124  1  0.55967400  0.44032600  0.64741800  1
  Cd  Cd125  1  0.35505000  0.27518200  0.75000000  1
  Cd  Cd126  1  0.26627500  0.73372500  0.25000000  1
  Cd  Cd127  1  0.96411800  0.63544400  0.39846300  1
  Cd  Cd128  1  0.33333300  0.66666700  0.09672100  1
  Cd  Cd129  1  0.26627500  0.53255000  0.25000000  1
  Cd  Cd130  1  0.80253400  0.00000000  0.00000000  1
  Cd  Cd131  1  0.64495000  0.92013200  0.25000000  1
  Cd  Cd132  1  0.50000000  0.00000000  0.00000000  1
  Cd  Cd133  1  0.88065200  0.44032600  0.64741800  1
  Cd  Cd134  1  0.32867400  0.96411800  0.60153700  1
  Cd  Cd135  1  0.00000000  0.50000000  0.00000000  1
  Cd  Cd136  1  0.09214300  0.18428500  0.34423100  1
  Cd  Cd137  1  0.39968200  0.60031800  0.94852300  1
  Cd  Cd138  1  0.23413000  0.46826000  0.65854000  1
  Cd  Cd139  1  0.72481800  0.64495000  0.75000000  1
  Cd  Cd140  1  0.39968200  0.79936400  0.55147700  1
  Cd  Cd141  1  0.46745000  0.73372500  0.25000000  1
