# generated using pymatgen
data_K3Na4Si3BF22
_symmetry_space_group_name_H-M   'P 1'
_cell_length_a   10.26423419
_cell_length_b   10.26423419
_cell_length_c   10.26423419
_cell_angle_alpha   148.18284933
_cell_angle_beta   126.05562319
_cell_angle_gamma   64.00419791
_symmetry_Int_Tables_number   1
_chemical_formula_structural   K3Na4Si3BF22
_chemical_formula_sum   'K3 Na4 Si3 B1 F22'
_cell_volume   456.03377672
_cell_formula_units_Z   1
loop_
 _symmetry_equiv_pos_site_id
 _symmetry_equiv_pos_as_xyz
  1  'x, y, z'
loop_
 _atom_site_type_symbol
 _atom_site_label
 _atom_site_symmetry_multiplicity
 _atom_site_fract_x
 _atom_site_fract_y
 _atom_site_fract_z
 _atom_site_occupancy
  K  K0  1  0.40881200  0.62603600  0.78277500  1
  K  K1  1  0.15673900  0.37396300  0.78277600  1
  K  K2  1  0.94478600  0.00000000  0.94478600  1
  Na  Na3  1  0.02161000  0.67043400  0.35117600  1
  Na  Na4  1  0.46195800  0.85824900  0.60370800  1
  Na  Na5  1  0.74545900  0.14175000  0.60370800  1
  Na  Na6  1  0.68074200  0.32956600  0.35117600  1
  Si  Si7  1  0.23303400  0.21413300  0.01890000  1
  Si  Si8  1  0.70418600  0.50000000  0.20418600  1
  Si  Si9  1  0.80476700  0.78586600  0.01890000  1
  B  B10  1  0.31383000  0.00000000  0.31383000  1
  F  F11  1  0.28289700  0.06629900  0.78298000  1
  F  F12  1  0.78099600  0.78585500  0.42546800  1
  F  F13  1  0.88643400  0.63775400  0.81415300  1
  F  F14  1  0.17639900  0.36224600  0.24868000  1
  F  F15  1  0.63961300  0.21414500  0.99514100  1
  F  F16  1  0.42613800  0.22593800  0.20019900  1
  F  F17  1  0.17639900  0.92771900  0.81415300  1
  F  F18  1  0.88643400  0.07228100  0.24868000  1
  F  F19  1  0.88934800  0.50000000  0.38934800  1
  F  F20  1  0.46587500  0.06716200  0.39871300  1
  F  F21  1  0.33155000  0.93283700  0.39871300  1
  F  F22  1  0.22511700  0.79396800  0.01908500  1
  F  F23  1  0.52327500  0.50000000  0.02327500  1
  F  F24  1  0.28289700  0.49991700  0.21659800  1
  F  F25  1  0.63961300  0.64447200  0.42546800  1
  F  F26  1  0.71668100  0.93370100  0.21659800  1
  F  F27  1  0.22511700  0.20603200  0.43114800  1
  F  F28  1  0.63034300  0.79673300  0.83361000  1
  F  F29  1  0.71668100  0.50008300  0.78298000  1
  F  F30  1  0.03687600  0.20326600  0.83361000  1
  F  F31  1  0.97426100  0.77406100  0.20019900  1
  F  F32  1  0.78099600  0.35552800  0.99514100  1
