# generated using pymatgen
data_CaAlH5
_symmetry_space_group_name_H-M   'P 1'
_cell_length_a   4.41746300
_cell_length_b   4.94108500
_cell_length_c   12.16854100
_cell_angle_alpha   90.00000000
_cell_angle_beta   90.00000000
_cell_angle_gamma   90.00000000
_symmetry_Int_Tables_number   1
_chemical_formula_structural   CaAlH5
_chemical_formula_sum   'Ca4 Al4 H20'
_cell_volume   265.60347656
_cell_formula_units_Z   4
loop_
 _symmetry_equiv_pos_site_id
 _symmetry_equiv_pos_as_xyz
  1  'x, y, z'
loop_
 _atom_site_type_symbol
 _atom_site_label
 _atom_site_symmetry_multiplicity
 _atom_site_fract_x
 _atom_site_fract_y
 _atom_site_fract_z
 _atom_site_occupancy
  Ca  Ca0  1  0.71825300  0.35245000  0.15921400  1
  Ca  Ca1  1  0.21825300  0.14755000  0.84078600  1
  Ca  Ca2  1  0.28174700  0.85245000  0.34078600  1
  Ca  Ca3  1  0.78174700  0.64755000  0.65921400  1
  Al  Al4  1  0.19085200  0.13017500  0.58734300  1
  Al  Al5  1  0.30914800  0.86982500  0.08734300  1
  Al  Al6  1  0.80914800  0.63017500  0.91265700  1
  Al  Al7  1  0.69085200  0.36982500  0.41265700  1
  H  H8  1  0.96493200  0.37365000  0.98574800  1
  H  H9  1  0.35722700  0.91187200  0.67827900  1
  H  H10  1  0.01144900  0.87298900  0.99282800  1
  H  H11  1  0.68389600  0.90413900  0.83974200  1
  H  H12  1  0.38592000  0.37010500  0.32177100  1
  H  H13  1  0.81610400  0.09586100  0.33974200  1
  H  H14  1  0.51144900  0.62701100  0.00717200  1
  H  H15  1  0.31610400  0.40413900  0.66025800  1
  H  H16  1  0.85722700  0.58812800  0.32172100  1
  H  H17  1  0.53506800  0.62635000  0.48574800  1
  H  H18  1  0.98855100  0.37298900  0.50717200  1
  H  H19  1  0.03506800  0.87365000  0.51425200  1
  H  H20  1  0.61408000  0.87010500  0.17822900  1
  H  H21  1  0.88592000  0.12989500  0.67822900  1
  H  H22  1  0.11408000  0.62989500  0.82177100  1
  H  H23  1  0.14277300  0.08812800  0.17827900  1
  H  H24  1  0.46493200  0.12635000  0.01425200  1
  H  H25  1  0.64277300  0.41187200  0.82172100  1
  H  H26  1  0.48855100  0.12701100  0.49282800  1
  H  H27  1  0.18389600  0.59586100  0.16025800  1
