# generated using pymatgen
data_OsN5Cl3
_symmetry_space_group_name_H-M   'P 1'
_cell_length_a   6.29764100
_cell_length_b   7.39439600
_cell_length_c   16.98588500
_cell_angle_alpha   90.00000000
_cell_angle_beta   90.00000000
_cell_angle_gamma   90.00000000
_symmetry_Int_Tables_number   1
_chemical_formula_structural   OsN5Cl3
_chemical_formula_sum   'Os4 N20 Cl12'
_cell_volume   790.98597738
_cell_formula_units_Z   4
loop_
 _symmetry_equiv_pos_site_id
 _symmetry_equiv_pos_as_xyz
  1  'x, y, z'
loop_
 _atom_site_type_symbol
 _atom_site_label
 _atom_site_symmetry_multiplicity
 _atom_site_fract_x
 _atom_site_fract_y
 _atom_site_fract_z
 _atom_site_occupancy
  Os  Os0  1  0.25000000  0.33999200  0.65231900  1
  Os  Os1  1  0.25000000  0.16000800  0.15231900  1
  Os  Os2  1  0.75000000  0.66000800  0.34768100  1
  Os  Os3  1  0.75000000  0.83999200  0.84768100  1
  N  N4  1  0.25000000  0.14911500  0.71213000  1
  N  N5  1  0.25000000  0.35088500  0.21213000  1
  N  N6  1  0.75000000  0.85088500  0.28787000  1
  N  N7  1  0.75000000  0.64911500  0.78787000  1
  N  N8  1  0.25000000  0.53021700  0.71235800  1
  N  N9  1  0.25000000  0.96978300  0.21235800  1
  N  N10  1  0.75000000  0.46978300  0.28764200  1
  N  N11  1  0.75000000  0.03021700  0.78764200  1
  N  N12  1  0.01742500  0.33893100  0.58228800  1
  N  N13  1  0.48257500  0.16106900  0.08228800  1
  N  N14  1  0.51742500  0.66106900  0.41771200  1
  N  N15  1  0.98257500  0.83893100  0.91771200  1
  N  N16  1  0.98257500  0.66106900  0.41771200  1
  N  N17  1  0.51742500  0.83893100  0.91771200  1
  N  N18  1  0.48257500  0.33893100  0.58228800  1
  N  N19  1  0.01742500  0.16106900  0.08228800  1
  N  N20  1  0.25000000  0.12946600  0.43666100  1
  N  N21  1  0.25000000  0.37053400  0.93666100  1
  N  N22  1  0.75000000  0.87053400  0.56333900  1
  N  N23  1  0.75000000  0.62946600  0.06333900  1
  Cl  Cl24  1  0.25000000  0.66674200  0.43075600  1
  Cl  Cl25  1  0.25000000  0.83325800  0.93075600  1
  Cl  Cl26  1  0.75000000  0.33325800  0.56924400  1
  Cl  Cl27  1  0.75000000  0.16674200  0.06924400  1
  Cl  Cl28  1  0.02772800  0.35066100  0.88177400  1
  Cl  Cl29  1  0.47227200  0.14933900  0.38177400  1
  Cl  Cl30  1  0.52772800  0.64933900  0.11822600  1
  Cl  Cl31  1  0.97227200  0.85066100  0.61822600  1
  Cl  Cl32  1  0.97227200  0.64933900  0.11822600  1
  Cl  Cl33  1  0.52772800  0.85066100  0.61822600  1
  Cl  Cl34  1  0.47227200  0.35066100  0.88177400  1
  Cl  Cl35  1  0.02772800  0.14933900  0.38177400  1
