# generated using pymatgen
data_In2Te5
_symmetry_space_group_name_H-M   'P 1'
_cell_length_a   8.86165932
_cell_length_b   8.86165932
_cell_length_c   14.04781633
_cell_angle_alpha   89.61909843
_cell_angle_beta   89.61909843
_cell_angle_gamma   151.39778616
_symmetry_Int_Tables_number   1
_chemical_formula_structural   In2Te5
_chemical_formula_sum   'In4 Te10'
_cell_volume   527.92034689
_cell_formula_units_Z   2
loop_
 _symmetry_equiv_pos_site_id
 _symmetry_equiv_pos_as_xyz
  1  'x, y, z'
loop_
 _atom_site_type_symbol
 _atom_site_label
 _atom_site_symmetry_multiplicity
 _atom_site_fract_x
 _atom_site_fract_y
 _atom_site_fract_z
 _atom_site_occupancy
  In  In0  1  0.40300100  0.63020500  0.68989500  1
  In  In1  1  0.00287600  0.99694300  0.85619800  1
  In  In2  1  0.63020500  0.40300100  0.18989500  1
  In  In3  1  0.99694300  0.00287600  0.35619800  1
  Te  Te4  1  0.70636300  0.31605200  0.76784800  1
  Te  Te5  1  0.59836800  0.39215600  0.39691900  1
  Te  Te6  1  0.31605200  0.70636300  0.26784800  1
  Te  Te7  1  0.82012000  0.13019500  0.41491500  1
  Te  Te8  1  0.76949000  0.23183600  0.12336500  1
  Te  Te9  1  0.00656600  0.02833900  0.64797300  1
  Te  Te10  1  0.02833900  0.00656600  0.14797300  1
  Te  Te11  1  0.13019500  0.82012000  0.91491500  1
  Te  Te12  1  0.23183600  0.76949000  0.62336500  1
  Te  Te13  1  0.39215600  0.59836800  0.89691900  1
