# generated using pymatgen
data_CuH8C6(N3O)2
_symmetry_space_group_name_H-M   'P 1'
_cell_length_a   7.41353334
_cell_length_b   7.41353334
_cell_length_c   6.61100754
_cell_angle_alpha   66.42096368
_cell_angle_beta   66.42096368
_cell_angle_gamma   58.35965177
_symmetry_Int_Tables_number   1
_chemical_formula_structural   CuH8C6(N3O)2
_chemical_formula_sum   'Cu1 H8 C6 N6 O2'
_cell_volume   274.95979296
_cell_formula_units_Z   1
loop_
 _symmetry_equiv_pos_site_id
 _symmetry_equiv_pos_as_xyz
  1  'x, y, z'
loop_
 _atom_site_type_symbol
 _atom_site_label
 _atom_site_symmetry_multiplicity
 _atom_site_fract_x
 _atom_site_fract_y
 _atom_site_fract_z
 _atom_site_occupancy
  Cu  Cu0  1  0.00000000  0.00000000  0.00000000  1
  H  H1  1  0.68996400  0.93900600  0.60202300  1
  H  H2  1  0.74261300  0.74261300  0.29558700  1
  H  H3  1  0.31003600  0.06099400  0.39797700  1
  H  H4  1  0.06099400  0.31003600  0.39797700  1
  H  H5  1  0.31572200  0.31572200  0.33795600  1
  H  H6  1  0.25738700  0.25738700  0.70441300  1
  H  H7  1  0.68427800  0.68427800  0.66204400  1
  H  H8  1  0.93900600  0.68996400  0.60202300  1
  C  C9  1  0.73653500  0.42729100  0.17167600  1
  C  C10  1  0.26346500  0.57270900  0.82832400  1
  C  C11  1  0.57270900  0.26346500  0.82832400  1
  C  C12  1  0.22078200  0.22078200  0.44096800  1
  C  C13  1  0.42729100  0.73653500  0.17167600  1
  C  C14  1  0.77921800  0.77921800  0.55903200  1
  N  N15  1  0.75161300  0.14374800  0.86074900  1
  N  N16  1  0.14374800  0.75161300  0.86074900  1
  N  N17  1  0.85625200  0.24838700  0.13925100  1
  N  N18  1  0.61898400  0.61898400  0.21137200  1
  N  N19  1  0.38101600  0.38101600  0.78862800  1
  N  N20  1  0.24838700  0.85625200  0.13925100  1
  O  O21  1  0.81144500  0.81144500  0.32109600  1
  O  O22  1  0.18855500  0.18855500  0.67890400  1
