# generated using pymatgen
data_Re(TeCl6)2
_symmetry_space_group_name_H-M   'P 1'
_cell_length_a   14.16643208
_cell_length_b   14.16643208
_cell_length_c   14.16643186
_cell_angle_alpha   47.92995742
_cell_angle_beta   47.92995742
_cell_angle_gamma   47.92996165
_symmetry_Int_Tables_number   1
_chemical_formula_structural   Re(TeCl6)2
_chemical_formula_sum   'Re3 Te6 Cl36'
_cell_volume   1435.02582552
_cell_formula_units_Z   3
loop_
 _symmetry_equiv_pos_site_id
 _symmetry_equiv_pos_as_xyz
  1  'x, y, z'
loop_
 _atom_site_type_symbol
 _atom_site_label
 _atom_site_symmetry_multiplicity
 _atom_site_fract_x
 _atom_site_fract_y
 _atom_site_fract_z
 _atom_site_occupancy
  Re  Re0  1  0.25286300  0.25286300  0.25286300  1
  Re  Re1  1  0.74713700  0.74713700  0.74713700  1
  Re  Re2  1  0.50000000  0.50000000  0.50000000  1
  Te  Te3  1  0.74967700  0.39101700  0.10586600  1
  Te  Te4  1  0.10586600  0.74967700  0.39101700  1
  Te  Te5  1  0.25032300  0.60898300  0.89413400  1
  Te  Te6  1  0.89413400  0.25032300  0.60898300  1
  Te  Te7  1  0.60898300  0.89413400  0.25032300  1
  Te  Te8  1  0.39101700  0.10586600  0.74967700  1
  Cl  Cl9  1  0.38437700  0.38897800  0.09409200  1
  Cl  Cl10  1  0.10344500  0.74666100  0.78092500  1
  Cl  Cl11  1  0.78092500  0.10344500  0.74666100  1
  Cl  Cl12  1  0.89655500  0.25333900  0.21907500  1
  Cl  Cl13  1  0.88016500  0.58952400  0.88236400  1
  Cl  Cl14  1  0.56482300  0.26822000  0.55843300  1
  Cl  Cl15  1  0.09409200  0.38437700  0.38897800  1
  Cl  Cl16  1  0.43517700  0.73178000  0.44156700  1
  Cl  Cl17  1  0.55843300  0.56482300  0.26822000  1
  Cl  Cl18  1  0.61102200  0.90590800  0.61562300  1
  Cl  Cl19  1  0.11763600  0.11983500  0.41047600  1
  Cl  Cl20  1  0.38897800  0.09409200  0.38437700  1
  Cl  Cl21  1  0.44156700  0.43517700  0.73178000  1
  Cl  Cl22  1  0.39071200  0.73485700  0.73808700  1
  Cl  Cl23  1  0.09783100  0.72952200  0.03806700  1
  Cl  Cl24  1  0.73808700  0.39071200  0.73485700  1
  Cl  Cl25  1  0.21907500  0.89655500  0.25333900  1
  Cl  Cl26  1  0.60928800  0.26514300  0.26191300  1
  Cl  Cl27  1  0.25333900  0.21907500  0.89655500  1
  Cl  Cl28  1  0.26822000  0.55843300  0.56482300  1
  Cl  Cl29  1  0.73485700  0.73808700  0.39071200  1
  Cl  Cl30  1  0.90590800  0.61562300  0.61102200  1
  Cl  Cl31  1  0.73178000  0.44156700  0.43517700  1
  Cl  Cl32  1  0.58952400  0.88236400  0.88016500  1
  Cl  Cl33  1  0.74666100  0.78092500  0.10344500  1
  Cl  Cl34  1  0.90216900  0.27047800  0.96193300  1
  Cl  Cl35  1  0.41047600  0.11763600  0.11983500  1
  Cl  Cl36  1  0.96193300  0.90216900  0.27047800  1
  Cl  Cl37  1  0.61562300  0.61102200  0.90590800  1
  Cl  Cl38  1  0.26514300  0.26191300  0.60928800  1
  Cl  Cl39  1  0.88236400  0.88016500  0.58952400  1
  Cl  Cl40  1  0.72952200  0.03806700  0.09783100  1
  Cl  Cl41  1  0.11983500  0.41047600  0.11763600  1
  Cl  Cl42  1  0.03806700  0.09783100  0.72952200  1
  Cl  Cl43  1  0.27047800  0.96193300  0.90216900  1
  Cl  Cl44  1  0.26191300  0.60928800  0.26514300  1
