# generated using pymatgen
data_P(HO)3
_symmetry_space_group_name_H-M   'P 1'
_cell_length_a   7.56944600
_cell_length_b   7.96270100
_cell_length_c   10.98541300
_cell_angle_alpha   90.00000000
_cell_angle_beta   90.00000000
_cell_angle_gamma   90.00000000
_symmetry_Int_Tables_number   1
_chemical_formula_structural   P(HO)3
_chemical_formula_sum   'P8 H24 O24'
_cell_volume   662.12638189
_cell_formula_units_Z   8
loop_
 _symmetry_equiv_pos_site_id
 _symmetry_equiv_pos_as_xyz
  1  'x, y, z'
loop_
 _atom_site_type_symbol
 _atom_site_label
 _atom_site_symmetry_multiplicity
 _atom_site_fract_x
 _atom_site_fract_y
 _atom_site_fract_z
 _atom_site_occupancy
  P  P0  1  0.02060700  0.49455100  0.38788700  1
  P  P1  1  0.52060700  0.50544900  0.61211300  1
  P  P2  1  0.52060700  0.00544900  0.88788700  1
  P  P3  1  0.02060700  0.99455100  0.11211300  1
  P  P4  1  0.45469800  0.55402700  0.11743700  1
  P  P5  1  0.95469800  0.44597300  0.88256300  1
  P  P6  1  0.95469800  0.94597300  0.61743700  1
  P  P7  1  0.45469800  0.05402700  0.38256300  1
  H  H8  1  0.97389800  0.75411000  0.46181100  1
  H  H9  1  0.47389800  0.24589000  0.53818900  1
  H  H10  1  0.47389800  0.74589000  0.96181100  1
  H  H11  1  0.97389800  0.25411000  0.03818900  1
  H  H12  1  0.92001700  0.33593700  0.23561800  1
  H  H13  1  0.42001700  0.66406300  0.76438200  1
  H  H14  1  0.42001700  0.16406300  0.73561800  1
  H  H15  1  0.92001700  0.83593700  0.26438200  1
  H  H16  1  0.95734700  0.47391300  0.59359400  1
  H  H17  1  0.45734700  0.52608700  0.40640600  1
  H  H18  1  0.45734700  0.02608700  0.09359400  1
  H  H19  1  0.95734700  0.97391300  0.90640600  1
  H  H20  1  0.65420800  0.48012500  0.25956200  1
  H  H21  1  0.15420800  0.51987500  0.74043800  1
  H  H22  1  0.15420800  0.01987500  0.75956200  1
  H  H23  1  0.65420800  0.98012500  0.24043800  1
  H  H24  1  0.16789000  0.55976100  0.08134100  1
  H  H25  1  0.66789000  0.44023900  0.91865900  1
  H  H26  1  0.66789000  0.94023900  0.58134100  1
  H  H27  1  0.16789000  0.05976100  0.41865900  1
  H  H28  1  0.47481000  0.28041200  0.04041100  1
  H  H29  1  0.97481000  0.71958800  0.95958900  1
  H  H30  1  0.97481000  0.21958800  0.54041100  1
  H  H31  1  0.47481000  0.78041200  0.45958900  1
  O  O32  1  0.94494100  0.69129200  0.38552100  1
  O  O33  1  0.44494100  0.30870800  0.61447900  1
  O  O34  1  0.44494100  0.80870800  0.88552100  1
  O  O35  1  0.94494100  0.19129200  0.11447900  1
  O  O36  1  0.87237000  0.42374300  0.29106700  1
  O  O37  1  0.37237000  0.57625700  0.70893300  1
  O  O38  1  0.37237000  0.07625700  0.79106700  1
  O  O39  1  0.87237000  0.92374300  0.20893300  1
  O  O40  1  0.92144100  0.42431900  0.51430500  1
  O  O41  1  0.42144100  0.57568100  0.48569500  1
  O  O42  1  0.42144100  0.07568100  0.01430500  1
  O  O43  1  0.92144100  0.92431900  0.98569500  1
  O  O44  1  0.52360700  0.49675900  0.25332500  1
  O  O45  1  0.02360700  0.50324100  0.74667500  1
  O  O46  1  0.02360700  0.00324100  0.75332500  1
  O  O47  1  0.52360700  0.99675900  0.24667500  1
  O  O48  1  0.24927300  0.51554100  0.14532400  1
  O  O49  1  0.74927300  0.48445900  0.85467600  1
  O  O50  1  0.74927300  0.98445900  0.64532400  1
  O  O51  1  0.24927300  0.01554100  0.35467600  1
  O  O52  1  0.52073100  0.39856000  0.03105500  1
  O  O53  1  0.02073100  0.60144000  0.96894500  1
  O  O54  1  0.02073100  0.10144000  0.53105500  1
  O  O55  1  0.52073100  0.89856000  0.46894500  1
