# generated using pymatgen
data_SbH6C2I
_symmetry_space_group_name_H-M   'P 1'
_cell_length_a   7.02305700
_cell_length_b   11.09532900
_cell_length_c   17.61680100
_cell_angle_alpha   90.00000000
_cell_angle_beta   90.00000000
_cell_angle_gamma   90.00000000
_symmetry_Int_Tables_number   1
_chemical_formula_structural   SbH6C2I
_chemical_formula_sum   'Sb8 H48 C16 I8'
_cell_volume   1372.75623929
_cell_formula_units_Z   8
loop_
 _symmetry_equiv_pos_site_id
 _symmetry_equiv_pos_as_xyz
  1  'x, y, z'
loop_
 _atom_site_type_symbol
 _atom_site_label
 _atom_site_symmetry_multiplicity
 _atom_site_fract_x
 _atom_site_fract_y
 _atom_site_fract_z
 _atom_site_occupancy
  Sb  Sb0  1  0.20594300  0.86762900  0.67570400  1
  Sb  Sb1  1  0.79405700  0.36762900  0.82429600  1
  Sb  Sb2  1  0.20594300  0.63237100  0.17570400  1
  Sb  Sb3  1  0.29405700  0.36762900  0.67570400  1
  Sb  Sb4  1  0.29405700  0.13237100  0.17570400  1
  Sb  Sb5  1  0.70594300  0.63237100  0.32429600  1
  Sb  Sb6  1  0.79405700  0.13237100  0.32429600  1
  Sb  Sb7  1  0.70594300  0.86762900  0.82429600  1
  H  H8  1  0.99914200  0.65372400  0.42475000  1
  H  H9  1  0.51475800  0.65053700  0.46061300  1
  H  H10  1  0.52635800  0.98527400  0.62628000  1
  H  H11  1  0.08779000  0.70287500  0.57170600  1
  H  H12  1  0.61803200  0.27284100  0.61243700  1
  H  H13  1  0.49914200  0.84627600  0.57525000  1
  H  H14  1  0.02635800  0.51472600  0.37372000  1
  H  H15  1  0.11803200  0.22715900  0.38756300  1
  H  H16  1  0.49914200  0.65372400  0.07525000  1
  H  H17  1  0.98524200  0.15053700  0.46061300  1
  H  H18  1  0.61803200  0.22715900  0.11243700  1
  H  H19  1  0.01475800  0.65053700  0.03938700  1
  H  H20  1  0.41221000  0.20287500  0.57170600  1
  H  H21  1  0.11803200  0.27284100  0.88756300  1
  H  H22  1  0.97364200  0.48527400  0.62628000  1
  H  H23  1  0.88196800  0.77284100  0.61243700  1
  H  H24  1  0.85846100  0.52533600  0.45089800  1
  H  H25  1  0.14153900  0.02533600  0.04910200  1
  H  H26  1  0.64153900  0.02533600  0.45089800  1
  H  H27  1  0.47364200  0.48527400  0.87372000  1
  H  H28  1  0.58779000  0.70287500  0.92829400  1
  H  H29  1  0.88196800  0.72715900  0.11243700  1
  H  H30  1  0.08779000  0.79712500  0.07170600  1
  H  H31  1  0.91221000  0.29712500  0.42829400  1
  H  H32  1  0.98524200  0.34946300  0.96061300  1
  H  H33  1  0.97364200  0.01472600  0.12628000  1
  H  H34  1  0.58779000  0.79712500  0.42829400  1
  H  H35  1  0.00085800  0.34627600  0.57525000  1
  H  H36  1  0.41221000  0.29712500  0.07170600  1
  H  H37  1  0.48524200  0.34946300  0.53938700  1
  H  H38  1  0.00085800  0.15372400  0.07525000  1
  H  H39  1  0.48524200  0.15053700  0.03938700  1
  H  H40  1  0.99914200  0.84627600  0.92475000  1
  H  H41  1  0.91221000  0.20287500  0.92829400  1
  H  H42  1  0.35846100  0.52533600  0.04910200  1
  H  H43  1  0.02635800  0.98527400  0.87372000  1
  H  H44  1  0.01475800  0.84946300  0.53938700  1
  H  H45  1  0.14153900  0.47466400  0.54910200  1
  H  H46  1  0.50085800  0.15372400  0.42475000  1
  H  H47  1  0.47364200  0.01472600  0.37372000  1
  H  H48  1  0.52635800  0.51472600  0.12628000  1
  H  H49  1  0.51475800  0.84946300  0.96061300  1
  H  H50  1  0.38196800  0.77284100  0.88756300  1
  H  H51  1  0.85846100  0.97466400  0.95089800  1
  H  H52  1  0.64153900  0.47466400  0.95089800  1
  H  H53  1  0.50085800  0.34627600  0.92475000  1
  H  H54  1  0.38196800  0.72715900  0.38756300  1
  H  H55  1  0.35846100  0.97466400  0.54910200  1
  C  C56  1  0.47628400  0.21098100  0.08844600  1
  C  C57  1  0.92540700  0.92668300  0.90355700  1
  C  C58  1  0.52371600  0.71098100  0.41155400  1
  C  C59  1  0.07459300  0.42668300  0.59644300  1
  C  C60  1  0.07459300  0.07331700  0.09644300  1
  C  C61  1  0.47628400  0.28901900  0.58844600  1
  C  C62  1  0.02371600  0.71098100  0.08844600  1
  C  C63  1  0.42540700  0.92668300  0.59644300  1
  C  C64  1  0.52371600  0.78901900  0.91155400  1
  C  C65  1  0.02371600  0.78901900  0.58844600  1
  C  C66  1  0.42540700  0.57331700  0.09644300  1
  C  C67  1  0.97628400  0.21098100  0.41155400  1
  C  C68  1  0.57459300  0.42668300  0.90355700  1
  C  C69  1  0.92540700  0.57331700  0.40355700  1
  C  C70  1  0.97628400  0.28901900  0.91155400  1
  C  C71  1  0.57459300  0.07331700  0.40355700  1
  I  I72  1  0.50990600  0.09374300  0.83052800  1
  I  I73  1  0.49009400  0.59374300  0.66947200  1
  I  I74  1  0.00990600  0.40625700  0.16947200  1
  I  I75  1  0.50990600  0.40625700  0.33052800  1
  I  I76  1  0.49009400  0.90625700  0.16947200  1
  I  I77  1  0.99009400  0.59374300  0.83052800  1
  I  I78  1  0.99009400  0.90625700  0.33052800  1
  I  I79  1  0.00990600  0.09374300  0.66947200  1
