# generated using pymatgen
data_Ce3(AgSn)4
_symmetry_space_group_name_H-M   'P 1'
_cell_length_a   9.55778251
_cell_length_b   9.55778251
_cell_length_c   9.55778251
_cell_angle_alpha   153.77132869
_cell_angle_beta   127.34916203
_cell_angle_gamma   59.75437275
_symmetry_Int_Tables_number   1
_chemical_formula_structural   Ce3(AgSn)4
_chemical_formula_sum   'Ce3 Ag4 Sn4'
_cell_volume   304.70967119
_cell_formula_units_Z   1
loop_
 _symmetry_equiv_pos_site_id
 _symmetry_equiv_pos_as_xyz
  1  'x, y, z'
loop_
 _atom_site_type_symbol
 _atom_site_label
 _atom_site_symmetry_multiplicity
 _atom_site_fract_x
 _atom_site_fract_y
 _atom_site_fract_z
 _atom_site_occupancy
  Ce  Ce0  1  0.17990200  0.17990200  0.00000000  1
  Ce  Ce1  1  0.82009800  0.82009800  0.00000000  1
  Ce  Ce2  1  0.50000000  0.00000000  0.50000000  1
  Ag  Ag3  1  0.58335200  0.37751700  0.20583500  1
  Ag  Ag4  1  0.82831900  0.62248300  0.20583500  1
  Ag  Ag5  1  0.41664800  0.62248300  0.79416500  1
  Ag  Ag6  1  0.17168100  0.37751700  0.79416500  1
  Sn  Sn7  1  0.31160700  0.81160700  0.50000000  1
  Sn  Sn8  1  0.15968100  0.00000000  0.15968100  1
  Sn  Sn9  1  0.84031900  0.00000000  0.84031900  1
  Sn  Sn10  1  0.68839300  0.18839300  0.50000000  1
