# generated using pymatgen
data_SiO2
_symmetry_space_group_name_H-M   'P 1'
_cell_length_a   8.82756836
_cell_length_b   8.82756836
_cell_length_c   9.70776800
_cell_angle_alpha   90.00000000
_cell_angle_beta   90.00000000
_cell_angle_gamma   121.56474547
_symmetry_Int_Tables_number   1
_chemical_formula_structural   SiO2
_chemical_formula_sum   'Si12 O24'
_cell_volume   644.56427833
_cell_formula_units_Z   12
loop_
 _symmetry_equiv_pos_site_id
 _symmetry_equiv_pos_as_xyz
  1  'x, y, z'
loop_
 _atom_site_type_symbol
 _atom_site_label
 _atom_site_symmetry_multiplicity
 _atom_site_fract_x
 _atom_site_fract_y
 _atom_site_fract_z
 _atom_site_occupancy
  Si  Si0  1  0.09106800  0.28417700  0.34891000  1
  Si  Si1  1  0.28417700  0.09106800  0.65109000  1
  Si  Si2  1  0.21582300  0.40893200  0.65109000  1
  Si  Si3  1  0.40893200  0.21582300  0.34891000  1
  Si  Si4  1  0.90893200  0.71582300  0.65109000  1
  Si  Si5  1  0.71582300  0.90893200  0.34891000  1
  Si  Si6  1  0.78417700  0.59106800  0.34891000  1
  Si  Si7  1  0.59106800  0.78417700  0.65109000  1
  Si  Si8  1  0.06257300  0.56257300  0.15665600  1
  Si  Si9  1  0.56257300  0.06257300  0.84334400  1
  Si  Si10  1  0.93742700  0.43742700  0.84334400  1
  Si  Si11  1  0.43742700  0.93742700  0.15665600  1
  O  O12  1  0.12365300  0.37634700  0.50000000  1
  O  O13  1  0.37634700  0.12365300  0.50000000  1
  O  O14  1  0.87634700  0.62365300  0.50000000  1
  O  O15  1  0.62365300  0.87634700  0.50000000  1
  O  O16  1  0.08609200  0.41345000  0.23389100  1
  O  O17  1  0.41345000  0.08609200  0.76610900  1
  O  O18  1  0.08655000  0.41390800  0.76610900  1
  O  O19  1  0.41390800  0.08655000  0.23389100  1
  O  O20  1  0.91390800  0.58655000  0.76610900  1
  O  O21  1  0.58655000  0.91390800  0.23389100  1
  O  O22  1  0.91345000  0.58609200  0.23389100  1
  O  O23  1  0.58609200  0.91345000  0.76610900  1
  O  O24  1  0.25000000  0.25000000  0.31118600  1
  O  O25  1  0.25000000  0.25000000  0.68881400  1
  O  O26  1  0.75000000  0.75000000  0.68881400  1
  O  O27  1  0.75000000  0.75000000  0.31118600  1
  O  O28  1  0.90368100  0.09631900  0.34965100  1
  O  O29  1  0.09631900  0.90368100  0.65034900  1
  O  O30  1  0.40368100  0.59631900  0.65034900  1
  O  O31  1  0.59631900  0.40368100  0.34965100  1
  O  O32  1  0.25000000  0.75000000  0.15704100  1
  O  O33  1  0.75000000  0.25000000  0.84295900  1
  O  O34  1  0.00000000  0.50000000  0.00000000  1
  O  O35  1  0.50000000  0.00000000  0.00000000  1
