# generated using pymatgen
data_SiO2
_symmetry_space_group_name_H-M   'P 1'
_cell_length_a   12.38085451
_cell_length_b   12.38085451
_cell_length_c   12.38085451
_cell_angle_alpha   139.96971744
_cell_angle_beta   113.28880189
_cell_angle_gamma   80.73095724
_symmetry_Int_Tables_number   1
_chemical_formula_structural   SiO2
_chemical_formula_sum   'Si20 O40'
_cell_volume   1088.48972839
_cell_formula_units_Z   20
loop_
 _symmetry_equiv_pos_site_id
 _symmetry_equiv_pos_as_xyz
  1  'x, y, z'
loop_
 _atom_site_type_symbol
 _atom_site_label
 _atom_site_symmetry_multiplicity
 _atom_site_fract_x
 _atom_site_fract_y
 _atom_site_fract_z
 _atom_site_occupancy
  Si  Si0  1  0.18128100  0.85296700  0.95486700  1
  Si  Si1  1  0.81871900  0.77358600  0.67168600  1
  Si  Si2  1  0.39810000  0.72641400  0.04513300  1
  Si  Si3  1  0.60190000  0.64703300  0.32831400  1
  Si  Si4  1  0.81871900  0.14703300  0.04513300  1
  Si  Si5  1  0.18128100  0.22641400  0.32831400  1
  Si  Si6  1  0.60190000  0.27358600  0.95486700  1
  Si  Si7  1  0.39810000  0.35296700  0.67168600  1
  Si  Si8  1  0.04653200  0.41474300  0.25850600  1
  Si  Si9  1  0.95346800  0.21197400  0.36821100  1
  Si  Si10  1  0.65623700  0.28802600  0.74149400  1
  Si  Si11  1  0.34376300  0.08525700  0.63178900  1
  Si  Si12  1  0.95346800  0.58525700  0.74149400  1
  Si  Si13  1  0.04653200  0.78802600  0.63178900  1
  Si  Si14  1  0.34376300  0.71197400  0.25850600  1
  Si  Si15  1  0.65623700  0.91474300  0.36821100  1
  Si  Si16  1  0.11266600  0.05982700  0.67249300  1
  Si  Si17  1  0.88733400  0.55982700  0.94716100  1
  Si  Si18  1  0.88733400  0.94017300  0.32750700  1
  Si  Si19  1  0.11266600  0.44017300  0.05283900  1
  O  O20  1  0.07638500  0.74090600  0.90670800  1
  O  O21  1  0.92361500  0.83032300  0.66452100  1
  O  O22  1  0.33419800  0.66967700  0.09329200  1
  O  O23  1  0.66580200  0.75909400  0.33547900  1
  O  O24  1  0.92361500  0.25909400  0.09329200  1
  O  O25  1  0.07638500  0.16967700  0.33547900  1
  O  O26  1  0.66580200  0.33032300  0.90670800  1
  O  O27  1  0.33419800  0.24090600  0.66452100  1
  O  O28  1  0.31079300  0.81079300  0.00000000  1
  O  O29  1  0.68920700  0.68920700  0.50000000  1
  O  O30  1  0.68920700  0.18920700  0.00000000  1
  O  O31  1  0.31079300  0.31079300  0.50000000  1
  O  O32  1  0.14819800  0.80339100  0.77819100  1
  O  O33  1  0.85180300  0.62999400  0.65519400  1
  O  O34  1  0.52520000  0.87000600  0.22180900  1
  O  O35  1  0.47480000  0.69660900  0.34480600  1
  O  O36  1  0.85180300  0.19660900  0.22180900  1
  O  O37  1  0.14819800  0.37000600  0.34480600  1
  O  O38  1  0.47480000  0.12999400  0.77819100  1
  O  O39  1  0.52520000  0.30339100  0.65519400  1
  O  O40  1  0.19051800  0.05761100  0.13290800  1
  O  O41  1  0.80948200  0.94239000  0.86709200  1
  O  O42  1  0.42470300  0.55761100  0.86709200  1
  O  O43  1  0.57529700  0.44238900  0.13290800  1
  O  O44  1  0.09996800  0.43692500  0.17545100  1
  O  O45  1  0.90003200  0.07548300  0.33695700  1
  O  O46  1  0.76147400  0.42451700  0.82454900  1
  O  O47  1  0.23852600  0.06307500  0.66304300  1
  O  O48  1  0.90003200  0.56307500  0.82454900  1
  O  O49  1  0.09996800  0.92451700  0.66304300  1
  O  O50  1  0.23852600  0.57548300  0.17545100  1
  O  O51  1  0.76147400  0.93692500  0.33695700  1
  O  O52  1  0.01343300  0.59259100  0.42084200  1
  O  O53  1  0.98656700  0.40740900  0.57915800  1
  O  O54  1  0.67174900  0.09259100  0.57915800  1
  O  O55  1  0.32825100  0.90740900  0.42084200  1
  O  O56  1  0.00000000  0.00000000  0.50000000  1
  O  O57  1  0.00000000  0.50000000  0.00000000  1
  O  O58  1  0.11511900  0.25000000  0.86511900  1
  O  O59  1  0.88488100  0.75000000  0.13488100  1
