# generated using pymatgen
data_P2N2O5
_symmetry_space_group_name_H-M   'P 1'
_cell_length_a   6.13337100
_cell_length_b   7.97366800
_cell_length_c   15.40584200
_cell_angle_alpha   90.00000000
_cell_angle_beta   90.00000000
_cell_angle_gamma   90.00000000
_symmetry_Int_Tables_number   1
_chemical_formula_structural   P2N2O5
_chemical_formula_sum   'P8 N8 O20'
_cell_volume   753.42985247
_cell_formula_units_Z   4
loop_
 _symmetry_equiv_pos_site_id
 _symmetry_equiv_pos_as_xyz
  1  'x, y, z'
loop_
 _atom_site_type_symbol
 _atom_site_label
 _atom_site_symmetry_multiplicity
 _atom_site_fract_x
 _atom_site_fract_y
 _atom_site_fract_z
 _atom_site_occupancy
  P  P0  1  0.09248600  0.63630000  0.87124700  1
  P  P1  1  0.09248600  0.36370000  0.12875300  1
  P  P2  1  0.90751400  0.86370000  0.37124700  1
  P  P3  1  0.90751400  0.13630000  0.62875300  1
  P  P4  1  0.05595100  0.27907800  0.93043000  1
  P  P5  1  0.05595100  0.72092200  0.06957000  1
  P  P6  1  0.94404900  0.22092200  0.43043000  1
  P  P7  1  0.94404900  0.77907800  0.56957000  1
  N  N8  1  0.07790700  0.70936300  0.96975300  1
  N  N9  1  0.07790700  0.29063700  0.03024700  1
  N  N10  1  0.92209300  0.79063700  0.46975300  1
  N  N11  1  0.92209300  0.20936300  0.53024700  1
  N  N12  1  0.99088900  0.44842800  0.88660800  1
  N  N13  1  0.99088900  0.55157200  0.11339200  1
  N  N14  1  0.00911100  0.05157200  0.38660800  1
  N  N15  1  0.00911100  0.94842800  0.61339200  1
  O  O16  1  0.95747500  0.73833300  0.80810600  1
  O  O17  1  0.95747500  0.26166700  0.19189400  1
  O  O18  1  0.04252500  0.76166700  0.30810600  1
  O  O19  1  0.04252500  0.23833300  0.69189400  1
  O  O20  1  0.32444100  0.63672000  0.83615100  1
  O  O21  1  0.32444100  0.36328000  0.16384900  1
  O  O22  1  0.67555900  0.86328000  0.33615100  1
  O  O23  1  0.67555900  0.13672000  0.66384900  1
  O  O24  1  0.09015600  0.12184500  0.88318100  1
  O  O25  1  0.09015600  0.87815500  0.11681900  1
  O  O26  1  0.90984400  0.37815500  0.38318100  1
  O  O27  1  0.90984400  0.62184500  0.61681900  1
  O  O28  1  0.61008300  0.17782000  0.92703300  1
  O  O29  1  0.61008300  0.82218000  0.07296700  1
  O  O30  1  0.38991700  0.32218000  0.42703300  1
  O  O31  1  0.38991700  0.67782000  0.57296700  1
  O  O32  1  0.42051800  0.57837100  0.63249200  1
  O  O33  1  0.42051800  0.42162900  0.36750800  1
  O  O34  1  0.57948200  0.92162900  0.13249200  1
  O  O35  1  0.57948200  0.07837100  0.86750800  1
