# generated using pymatgen
data_MnSiO3
_symmetry_space_group_name_H-M   'P 1'
_cell_length_a   6.81943100
_cell_length_b   7.70909994
_cell_length_c   16.26500929
_cell_angle_alpha   92.16421080
_cell_angle_beta   96.39317567
_cell_angle_gamma   94.87071769
_symmetry_Int_Tables_number   1
_chemical_formula_structural   MnSiO3
_chemical_formula_sum   'Mn14 Si14 O42'
_cell_volume   845.72935960
_cell_formula_units_Z   14
loop_
 _symmetry_equiv_pos_site_id
 _symmetry_equiv_pos_as_xyz
  1  'x, y, z'
loop_
 _atom_site_type_symbol
 _atom_site_label
 _atom_site_symmetry_multiplicity
 _atom_site_fract_x
 _atom_site_fract_y
 _atom_site_fract_z
 _atom_site_occupancy
  Mn  Mn0  1  0.62075800  0.14581400  0.29196300  1
  Mn  Mn1  1  0.37924200  0.85418600  0.70803700  1
  Mn  Mn2  1  0.79612600  0.30982000  0.48229000  1
  Mn  Mn3  1  0.20387400  0.69018000  0.51771000  1
  Mn  Mn4  1  0.26546900  0.23965100  0.00781900  1
  Mn  Mn5  1  0.73453100  0.76034900  0.99218100  1
  Mn  Mn6  1  0.15939700  0.61174400  0.30749400  1
  Mn  Mn7  1  0.84060300  0.38825600  0.69250600  1
  Mn  Mn8  1  0.06701900  0.53081000  0.10758600  1
  Mn  Mn9  1  0.93298100  0.46919000  0.89241400  1
  Mn  Mn10  1  0.17334900  0.14668300  0.81243200  1
  Mn  Mn11  1  0.82665100  0.85331700  0.18756800  1
  Mn  Mn12  1  0.04385500  0.06758500  0.60473600  1
  Mn  Mn13  1  0.95614500  0.93241500  0.39526400  1
  Si  Si14  1  0.49328700  0.81858500  0.41031000  1
  Si  Si15  1  0.50671300  0.18141500  0.58969000  1
  Si  Si16  1  0.67742900  0.54375300  0.30970000  1
  Si  Si17  1  0.32257100  0.45624700  0.69030000  1
  Si  Si18  1  0.57807700  0.45795500  0.11901300  1
  Si  Si19  1  0.42192300  0.54204500  0.88098700  1
  Si  Si20  1  0.78195200  0.16269500  0.02942500  1
  Si  Si21  1  0.21804800  0.83730500  0.97057500  1
  Si  Si22  1  0.31561600  0.91552900  0.16380500  1
  Si  Si23  1  0.68438400  0.08447100  0.83619500  1
  Si  Si24  1  0.11869500  0.20383000  0.25395800  1
  Si  Si25  1  0.88130500  0.79617000  0.74604200  1
  Si  Si26  1  0.23781800  0.28681900  0.43612500  1
  Si  Si27  1  0.76218200  0.71318100  0.56387500  1
  O  O28  1  0.55496300  0.73631800  0.50260800  1
  O  O29  1  0.44503700  0.26368200  0.49739200  1
  O  O30  1  0.49493900  0.65167500  0.34078100  1
  O  O31  1  0.50506100  0.34832500  0.65921900  1
  O  O32  1  0.58805100  0.43929100  0.22067000  1
  O  O33  1  0.41194900  0.56070900  0.77933000  1
  O  O34  1  0.61823300  0.26334600  0.07846600  1
  O  O35  1  0.38176700  0.73665400  0.92153400  1
  O  O36  1  0.33201800  0.90141800  0.06345000  1
  O  O37  1  0.66798200  0.09858200  0.93655000  1
  O  O38  1  0.23559000  0.11026400  0.18304700  1
  O  O39  1  0.76441000  0.88973600  0.81695300  1
  O  O40  1  0.27892700  0.21705600  0.34139600  1
  O  O41  1  0.72107300  0.78294400  0.65860400  1
  O  O42  1  0.71999700  0.37873700  0.36522900  1
  O  O43  1  0.28000300  0.62126300  0.63477100  1
  O  O44  1  0.35432400  0.47869300  0.07931400  1
  O  O45  1  0.64567600  0.52130700  0.92068600  1
  O  O46  1  0.82731100  0.98156100  0.07236400  1
  O  O47  1  0.17268900  0.01843900  0.92763600  1
  O  O48  1  0.53679300  0.92442600  0.21249900  1
  O  O49  1  0.46320700  0.07557400  0.78750100  1
  O  O50  1  0.07166500  0.39533800  0.22512500  1
  O  O51  1  0.92833500  0.60466200  0.77487500  1
  O  O52  1  0.17819800  0.48447300  0.42999800  1
  O  O53  1  0.82180200  0.51552700  0.57000200  1
  O  O54  1  0.25641600  0.84152200  0.40610400  1
  O  O55  1  0.74358400  0.15847800  0.59389600  1
  O  O56  1  0.94432700  0.83044600  0.52775500  1
  O  O57  1  0.05567300  0.16955400  0.47224500  1
  O  O58  1  0.92713200  0.07614100  0.27513500  1
  O  O59  1  0.07286800  0.92385900  0.72486500  1
  O  O60  1  0.84763800  0.23506300  0.81003100  1
  O  O61  1  0.15236200  0.76493700  0.18996900  1
  O  O62  1  0.96980600  0.30492700  0.02137000  1
  O  O63  1  0.03019400  0.69507300  0.97863000  1
  O  O64  1  0.74987800  0.61238500  0.10525700  1
  O  O65  1  0.25012200  0.38761500  0.89474300  1
  O  O66  1  0.86229500  0.69229200  0.30730800  1
  O  O67  1  0.13770500  0.30770800  0.69269200  1
  O  O68  1  0.64719600  0.98284800  0.39670100  1
  O  O69  1  0.35280400  0.01715200  0.60329900  1
