# generated using pymatgen
data_SiO2
_symmetry_space_group_name_H-M   'P 1'
_cell_length_a   9.34077981
_cell_length_b   9.34077981
_cell_length_c   18.57909800
_cell_angle_alpha   90.00000000
_cell_angle_beta   90.00000000
_cell_angle_gamma   94.63393469
_symmetry_Int_Tables_number   1
_chemical_formula_structural   SiO2
_chemical_formula_sum   'Si24 O48'
_cell_volume   1615.73059888
_cell_formula_units_Z   24
loop_
 _symmetry_equiv_pos_site_id
 _symmetry_equiv_pos_as_xyz
  1  'x, y, z'
loop_
 _atom_site_type_symbol
 _atom_site_label
 _atom_site_symmetry_multiplicity
 _atom_site_fract_x
 _atom_site_fract_y
 _atom_site_fract_z
 _atom_site_occupancy
  Si  Si0  1  0.92339200  0.14976500  0.16654700  1
  Si  Si1  1  0.85023500  0.07660800  0.83345300  1
  Si  Si2  1  0.14976500  0.92339200  0.33345300  1
  Si  Si3  1  0.07660800  0.85023500  0.66654700  1
  Si  Si4  1  0.07660800  0.85023500  0.83345300  1
  Si  Si5  1  0.14976500  0.92339200  0.16654700  1
  Si  Si6  1  0.85023500  0.07660800  0.66654700  1
  Si  Si7  1  0.92339200  0.14976500  0.33345300  1
  Si  Si8  1  0.65778700  0.88342700  0.93908700  1
  Si  Si9  1  0.11657300  0.34221300  0.06091300  1
  Si  Si10  1  0.88342700  0.65778700  0.56091300  1
  Si  Si11  1  0.34221300  0.11657300  0.43908700  1
  Si  Si12  1  0.34221300  0.11657300  0.06091300  1
  Si  Si13  1  0.88342700  0.65778700  0.93908700  1
  Si  Si14  1  0.11657300  0.34221300  0.43908700  1
  Si  Si15  1  0.65778700  0.88342700  0.56091300  1
  Si  Si16  1  0.13130000  0.67693600  0.05248200  1
  Si  Si17  1  0.32306400  0.86870000  0.94751800  1
  Si  Si18  1  0.67693600  0.13130000  0.44751800  1
  Si  Si19  1  0.86870000  0.32306400  0.55248200  1
  Si  Si20  1  0.86870000  0.32306400  0.94751800  1
  Si  Si21  1  0.67693600  0.13130000  0.05248200  1
  Si  Si22  1  0.32306400  0.86870000  0.55248200  1
  Si  Si23  1  0.13130000  0.67693600  0.44751800  1
  O  O24  1  0.99884900  0.99884900  0.16045400  1
  O  O25  1  0.00115100  0.00115100  0.83954600  1
  O  O26  1  0.99884900  0.99884900  0.33954600  1
  O  O27  1  0.00115100  0.00115100  0.66045400  1
  O  O28  1  0.89724500  0.19033500  0.25000000  1
  O  O29  1  0.80966500  0.10275500  0.75000000  1
  O  O30  1  0.19033500  0.89724500  0.25000000  1
  O  O31  1  0.10275500  0.80966500  0.75000000  1
  O  O32  1  0.02610300  0.27921500  0.13038000  1
  O  O33  1  0.72078500  0.97389700  0.86962000  1
  O  O34  1  0.27921500  0.02610300  0.36962000  1
  O  O35  1  0.97389700  0.72078500  0.63038000  1
  O  O36  1  0.97389700  0.72078500  0.86962000  1
  O  O37  1  0.27921500  0.02610300  0.13038000  1
  O  O38  1  0.72078500  0.97389700  0.63038000  1
  O  O39  1  0.02610300  0.27921500  0.36962000  1
  O  O40  1  0.76936400  0.13120600  0.12622600  1
  O  O41  1  0.86879400  0.23063600  0.87377400  1
  O  O42  1  0.13120600  0.76936400  0.37377400  1
  O  O43  1  0.23063600  0.86879400  0.62622600  1
  O  O44  1  0.23063600  0.86879400  0.87377400  1
  O  O45  1  0.13120600  0.76936400  0.12622600  1
  O  O46  1  0.86879400  0.23063600  0.62622600  1
  O  O47  1  0.76936400  0.13120600  0.37377400  1
  O  O48  1  0.68695800  0.97716700  0.01239500  1
  O  O49  1  0.02283300  0.31304200  0.98760500  1
  O  O50  1  0.97716700  0.68695800  0.48760500  1
  O  O51  1  0.31304200  0.02283300  0.51239500  1
  O  O52  1  0.31304200  0.02283300  0.98760500  1
  O  O53  1  0.97716700  0.68695800  0.01239500  1
  O  O54  1  0.02283300  0.31304200  0.51239500  1
  O  O55  1  0.68695800  0.97716700  0.48760500  1
  O  O56  1  0.73495500  0.73495500  0.94721500  1
  O  O57  1  0.26504500  0.26504500  0.05278500  1
  O  O58  1  0.73495500  0.73495500  0.55278500  1
  O  O59  1  0.26504500  0.26504500  0.44721500  1
  O  O60  1  0.48755200  0.84414600  0.92700900  1
  O  O61  1  0.15585400  0.51244800  0.07299100  1
  O  O62  1  0.84414600  0.48755200  0.57299100  1
  O  O63  1  0.51244800  0.15585400  0.42700900  1
  O  O64  1  0.51244800  0.15585400  0.07299100  1
  O  O65  1  0.84414600  0.48755200  0.92700900  1
  O  O66  1  0.15585400  0.51244800  0.42700900  1
  O  O67  1  0.48755200  0.84414600  0.57299100  1
  O  O68  1  0.26167200  0.73832800  0.00000000  1
  O  O69  1  0.73832800  0.26167200  0.50000000  1
  O  O70  1  0.73832800  0.26167200  0.00000000  1
  O  O71  1  0.26167200  0.73832800  0.50000000  1
