# generated using pymatgen
data_Mn4(PO4)3
_symmetry_space_group_name_H-M   'P 1'
_cell_length_a   8.49943692
_cell_length_b   8.49943692
_cell_length_c   9.87267322
_cell_angle_alpha   64.40913120
_cell_angle_beta   64.40913120
_cell_angle_gamma   60.18362414
_symmetry_Int_Tables_number   1
_chemical_formula_structural   Mn4(PO4)3
_chemical_formula_sum   'Mn8 P6 O24'
_cell_volume   536.16776830
_cell_formula_units_Z   2
loop_
 _symmetry_equiv_pos_site_id
 _symmetry_equiv_pos_as_xyz
  1  'x, y, z'
loop_
 _atom_site_type_symbol
 _atom_site_label
 _atom_site_symmetry_multiplicity
 _atom_site_fract_x
 _atom_site_fract_y
 _atom_site_fract_z
 _atom_site_occupancy
  Mn  Mn0  1  0.71129100  0.20780000  0.86833200  1
  Mn  Mn1  1  0.73114100  0.03823000  0.53185800  1
  Mn  Mn2  1  0.53588100  0.69409000  0.53976900  1
  Mn  Mn3  1  0.19409800  0.23318300  0.53490300  1
  Mn  Mn4  1  0.69409000  0.53588100  0.03976900  1
  Mn  Mn5  1  0.23318300  0.19409800  0.03490300  1
  Mn  Mn6  1  0.20780000  0.71129100  0.36833200  1
  Mn  Mn7  1  0.03823000  0.73114100  0.03185800  1
  P  P8  1  0.92068500  0.09984500  0.14932100  1
  P  P9  1  0.82717200  0.59180400  0.65538300  1
  P  P10  1  0.42127000  0.33081500  0.65772800  1
  P  P11  1  0.33081500  0.42127000  0.15772800  1
  P  P12  1  0.59180400  0.82717200  0.15538300  1
  P  P13  1  0.09984500  0.92068500  0.64932100  1
  O  O14  1  0.98345000  0.12081300  0.67994500  1
  O  O15  1  0.71089800  0.47597700  0.68713500  1
  O  O16  1  0.93520500  0.29963100  0.05813700  1
  O  O17  1  0.61838600  0.20890400  0.69251200  1
  O  O18  1  0.81901700  0.60805500  0.80489700  1
  O  O19  1  0.76302200  0.11081000  0.29937700  1
  O  O20  1  0.90123400  0.02762100  0.03784000  1
  O  O21  1  0.71274100  0.78952300  0.55820200  1
  O  O22  1  0.25984600  0.32930200  0.80585600  1
  O  O23  1  0.42787900  0.22575000  0.55771800  1
  O  O24  1  0.53671500  0.40701400  0.05045400  1
  O  O25  1  0.78952300  0.71274100  0.05820200  1
  O  O26  1  0.60805500  0.81901700  0.30489700  1
  O  O27  1  0.32930200  0.25984600  0.30585600  1
  O  O28  1  0.51438000  0.03191500  0.04770600  1
  O  O29  1  0.29963100  0.93520500  0.55813700  1
  O  O30  1  0.22575000  0.42787900  0.05771800  1
  O  O31  1  0.40701400  0.53671500  0.55045400  1
  O  O32  1  0.47597700  0.71089800  0.18713500  1
  O  O33  1  0.11081000  0.76302200  0.79937700  1
  O  O34  1  0.02762100  0.90123400  0.53784000  1
  O  O35  1  0.12081300  0.98345000  0.17994500  1
  O  O36  1  0.20890400  0.61838600  0.19251200  1
  O  O37  1  0.03191500  0.51438000  0.54770600  1
