# generated using pymatgen
data_MgSiO3
_symmetry_space_group_name_H-M   'P 1'
_cell_length_a   5.34617629
_cell_length_b   5.34617629
_cell_length_c   5.34617681
_cell_angle_alpha   53.18962100
_cell_angle_beta   53.18962100
_cell_angle_gamma   53.18962004
_symmetry_Int_Tables_number   1
_chemical_formula_structural   MgSiO3
_chemical_formula_sum   'Mg2 Si2 O6'
_cell_volume   90.81105493
_cell_formula_units_Z   2
loop_
 _symmetry_equiv_pos_site_id
 _symmetry_equiv_pos_as_xyz
  1  'x, y, z'
loop_
 _atom_site_type_symbol
 _atom_site_label
 _atom_site_symmetry_multiplicity
 _atom_site_fract_x
 _atom_site_fract_y
 _atom_site_fract_z
 _atom_site_occupancy
  Mg  Mg0  1  0.36042400  0.36042400  0.36042400  1
  Mg  Mg1  1  0.63957600  0.63957600  0.63957600  1
  Si  Si2  1  0.15790300  0.15790300  0.15790300  1
  Si  Si3  1  0.84209700  0.84209700  0.84209700  1
  O  O4  1  0.79656400  0.04491300  0.43788700  1
  O  O5  1  0.43788700  0.79656400  0.04491300  1
  O  O6  1  0.04491300  0.43788700  0.79656400  1
  O  O7  1  0.20343600  0.95508700  0.56211300  1
  O  O8  1  0.95508700  0.56211300  0.20343600  1
  O  O9  1  0.56211300  0.20343600  0.95508700  1
