# generated using pymatgen
data_Ni2C5(Cl2O)2
_symmetry_space_group_name_H-M   'P 1'
_cell_length_a   7.46017500
_cell_length_b   10.85421393
_cell_length_c   14.51240304
_cell_angle_alpha   91.05248493
_cell_angle_beta   90.37138833
_cell_angle_gamma   103.58948159
_symmetry_Int_Tables_number   1
_chemical_formula_structural   Ni2C5(Cl2O)2
_chemical_formula_sum   'Ni8 C20 Cl16 O8'
_cell_volume   1141.97016771
_cell_formula_units_Z   4
loop_
 _symmetry_equiv_pos_site_id
 _symmetry_equiv_pos_as_xyz
  1  'x, y, z'
loop_
 _atom_site_type_symbol
 _atom_site_label
 _atom_site_symmetry_multiplicity
 _atom_site_fract_x
 _atom_site_fract_y
 _atom_site_fract_z
 _atom_site_occupancy
  Ni  Ni0  1  0.91047400  0.81596300  0.91186100  1
  Ni  Ni1  1  0.76029900  0.58532100  0.45530700  1
  Ni  Ni2  1  0.21262300  0.88456300  0.00043900  1
  Ni  Ni3  1  0.08952600  0.18403700  0.08813900  1
  Ni  Ni4  1  0.23970100  0.41467900  0.54469300  1
  Ni  Ni5  1  0.91063000  0.28785400  0.51505100  1
  Ni  Ni6  1  0.78737700  0.11543700  0.99956100  1
  Ni  Ni7  1  0.08937000  0.71214600  0.48494900  1
  C  C8  1  0.80890900  0.14369300  0.15957100  1
  C  C9  1  0.86518000  0.24375100  0.09589300  1
  C  C10  1  0.36957400  0.40502000  0.64816700  1
  C  C11  1  0.75063000  0.66482800  0.92066000  1
  C  C12  1  0.63042600  0.59498000  0.35183300  1
  C  C13  1  0.09736300  0.37544300  0.42901100  1
  C  C14  1  0.26523400  0.78287100  0.08798900  1
  C  C15  1  0.24937000  0.33517200  0.07934000  1
  C  C16  1  0.14105700  0.23429500  0.52471300  1
  C  C17  1  0.22193400  0.81280800  0.40062400  1
  C  C18  1  0.77806600  0.18719200  0.59937600  1
  C  C19  1  0.73476600  0.21712900  0.91201100  1
  C  C20  1  0.86913500  0.04686900  0.11216500  1
  C  C21  1  0.19109100  0.85630700  0.84042900  1
  C  C22  1  0.85894300  0.76570500  0.47528700  1
  C  C23  1  0.90263700  0.62455700  0.57098900  1
  C  C24  1  0.13086500  0.95313100  0.88783500  1
  C  C25  1  0.84371000  0.73854700  0.57112000  1
  C  C26  1  0.13482000  0.75624900  0.90410700  1
  C  C27  1  0.15629000  0.26145300  0.42888000  1
  Cl  Cl28  1  0.17704300  0.60804300  0.88959000  1
  Cl  Cl29  1  0.70132900  0.14400000  0.26370100  1
  Cl  Cl30  1  0.84226900  0.89613300  0.15141400  1
  Cl  Cl31  1  0.80293100  0.89499800  0.42653900  1
  Cl  Cl32  1  0.91628200  0.53876200  0.66727100  1
  Cl  Cl33  1  0.08371800  0.46123800  0.33272900  1
  Cl  Cl34  1  0.29867100  0.85600000  0.73629900  1
  Cl  Cl35  1  0.30051600  0.06665400  0.08324600  1
  Cl  Cl36  1  0.69948400  0.93334600  0.91675400  1
  Cl  Cl37  1  0.15773100  0.10386700  0.84858600  1
  Cl  Cl38  1  0.67886300  0.37308000  0.46790400  1
  Cl  Cl39  1  0.19706900  0.10500200  0.57346100  1
  Cl  Cl40  1  0.32113700  0.62692000  0.53209600  1
  Cl  Cl41  1  0.82295700  0.39195700  0.11041000  1
  Cl  Cl42  1  0.22684800  0.17894400  0.33945400  1
  Cl  Cl43  1  0.77315200  0.82105600  0.66054600  1
  O  O44  1  0.30879500  0.87499800  0.34627300  1
  O  O45  1  0.54536800  0.60387800  0.28703900  1
  O  O46  1  0.35123400  0.43247000  0.07655400  1
  O  O47  1  0.71055900  0.28497100  0.85594200  1
  O  O48  1  0.28944100  0.71502900  0.14405800  1
  O  O49  1  0.69120500  0.12500200  0.65372700  1
  O  O50  1  0.45463200  0.39612200  0.71296100  1
  O  O51  1  0.64876600  0.56753000  0.92344600  1
