# generated using pymatgen
data_Co3(PO4)4
_symmetry_space_group_name_H-M   'P 1'
_cell_length_a   7.51926900
_cell_length_b   8.64701600
_cell_length_c   9.17424826
_cell_angle_alpha   67.88735957
_cell_angle_beta   90.00000000
_cell_angle_gamma   90.00000000
_symmetry_Int_Tables_number   1
_chemical_formula_structural   Co3(PO4)4
_chemical_formula_sum   'Co6 P8 O32'
_cell_volume   552.62725375
_cell_formula_units_Z   2
loop_
 _symmetry_equiv_pos_site_id
 _symmetry_equiv_pos_as_xyz
  1  'x, y, z'
loop_
 _atom_site_type_symbol
 _atom_site_label
 _atom_site_symmetry_multiplicity
 _atom_site_fract_x
 _atom_site_fract_y
 _atom_site_fract_z
 _atom_site_occupancy
  Co  Co0  1  0.98593400  0.99636600  0.24517300  1
  Co  Co1  1  0.50577600  0.50144800  0.25826500  1
  Co  Co2  1  0.86939600  0.89428700  0.76399600  1
  Co  Co3  1  0.00577600  0.49855200  0.74173500  1
  Co  Co4  1  0.36939600  0.10571300  0.23600400  1
  Co  Co5  1  0.48593400  0.00363400  0.75482700  1
  P  P6  1  0.29973400  0.85580300  0.08559500  1
  P  P7  1  0.81629100  0.63580900  0.41029500  1
  P  P8  1  0.20039000  0.85703100  0.58140600  1
  P  P9  1  0.17321400  0.37000300  0.07964200  1
  P  P10  1  0.31629100  0.36419100  0.58970500  1
  P  P11  1  0.67321400  0.62999700  0.92035800  1
  P  P12  1  0.70039000  0.14296900  0.41859400  1
  P  P13  1  0.79973400  0.14419700  0.91440500  1
  O  O14  1  0.86746400  0.32178700  0.88424300  1
  O  O15  1  0.14554200  0.67848000  0.60627300  1
  O  O16  1  0.60774400  0.14732400  0.84970700  1
  O  O17  1  0.15170800  0.17320200  0.11676700  1
  O  O18  1  0.38563900  0.86051300  0.65318800  1
  O  O19  1  0.68560200  0.53646100  0.09936300  1
  O  O20  1  0.32297800  0.46977400  0.40840800  1
  O  O21  1  0.88563900  0.13948700  0.34681200  1
  O  O22  1  0.96375700  0.54579000  0.35525000  1
  O  O23  1  0.53020100  0.54798600  0.86060200  1
  O  O24  1  0.06601900  0.95256100  0.64248100  1
  O  O25  1  0.63089300  0.64368300  0.33634800  1
  O  O26  1  0.86138200  0.65358100  0.83108100  1
  O  O27  1  0.20135200  0.95816400  0.39731500  1
  O  O28  1  0.93019700  0.05213300  0.84418200  1
  O  O29  1  0.13089300  0.35631700  0.66365200  1
  O  O30  1  0.36417600  0.18381900  0.60677100  1
  O  O31  1  0.36138200  0.34641900  0.16891900  1
  O  O32  1  0.10774400  0.85267600  0.15029300  1
  O  O33  1  0.65170800  0.82679800  0.88323300  1
  O  O34  1  0.18560200  0.46353900  0.90063700  1
  O  O35  1  0.56601900  0.04743900  0.35751900  1
  O  O36  1  0.64554200  0.32152000  0.39372700  1
  O  O37  1  0.82297800  0.53022600  0.59159200  1
  O  O38  1  0.86417600  0.81618100  0.39322900  1
  O  O39  1  0.29351800  0.94891700  0.90251300  1
  O  O40  1  0.79351800  0.05108300  0.09748700  1
  O  O41  1  0.43019700  0.94786700  0.15581800  1
  O  O42  1  0.70135200  0.04183600  0.60268500  1
  O  O43  1  0.36746400  0.67821300  0.11575700  1
  O  O44  1  0.46375700  0.45421000  0.64475000  1
  O  O45  1  0.03020100  0.45201400  0.13939800  1
