# generated using pymatgen
data_NaMn3CuH24(SO6)4
_symmetry_space_group_name_H-M   'P 1'
_cell_length_a   11.04841286
_cell_length_b   11.04841286
_cell_length_c   11.04841317
_cell_angle_alpha   67.77465226
_cell_angle_beta   67.77465226
_cell_angle_gamma   67.77465720
_symmetry_Int_Tables_number   1
_chemical_formula_structural   NaMn3CuH24(SO6)4
_chemical_formula_sum   'Na2 Mn6 Cu2 H48 S8 O48'
_cell_volume   1111.32073851
_cell_formula_units_Z   2
loop_
 _symmetry_equiv_pos_site_id
 _symmetry_equiv_pos_as_xyz
  1  'x, y, z'
loop_
 _atom_site_type_symbol
 _atom_site_label
 _atom_site_symmetry_multiplicity
 _atom_site_fract_x
 _atom_site_fract_y
 _atom_site_fract_z
 _atom_site_occupancy
  Na  Na0  1  0.50354800  0.50354800  0.50354800  1
  Na  Na1  1  0.00354800  0.00354800  0.00354800  1
  Mn  Mn2  1  0.97175000  0.49253900  0.06815900  1
  Mn  Mn3  1  0.49253900  0.06815900  0.97175000  1
  Mn  Mn4  1  0.06815900  0.97175000  0.49253900  1
  Mn  Mn5  1  0.56815900  0.99253900  0.47175000  1
  Mn  Mn6  1  0.99253900  0.47175000  0.56815900  1
  Mn  Mn7  1  0.47175000  0.56815900  0.99253900  1
  Cu  Cu8  1  0.27205200  0.27205200  0.27205200  1
  Cu  Cu9  1  0.77205200  0.77205200  0.77205200  1
  H  H10  1  0.61275500  0.29531000  0.33781100  1
  H  H11  1  0.29531000  0.33781100  0.61275500  1
  H  H12  1  0.33781100  0.61275500  0.29531000  1
  H  H13  1  0.83781100  0.79531000  0.11275500  1
  H  H14  1  0.79531000  0.11275500  0.83781100  1
  H  H15  1  0.11275500  0.83781100  0.79531000  1
  H  H16  1  0.66964000  0.23930800  0.46156200  1
  H  H17  1  0.23930800  0.46156200  0.66964000  1
  H  H18  1  0.46156200  0.66964000  0.23930800  1
  H  H19  1  0.96156200  0.73930800  0.16964000  1
  H  H20  1  0.73930800  0.16964000  0.96156200  1
  H  H21  1  0.16964000  0.96156200  0.73930800  1
  H  H22  1  0.71140300  0.63447300  0.44558300  1
  H  H23  1  0.63447300  0.44558300  0.71140300  1
  H  H24  1  0.44558300  0.71140300  0.63447300  1
  H  H25  1  0.94558300  0.13447300  0.21140300  1
  H  H26  1  0.13447300  0.21140300  0.94558300  1
  H  H27  1  0.21140300  0.94558300  0.13447300  1
  H  H28  1  0.72508100  0.60894100  0.30937600  1
  H  H29  1  0.60894100  0.30937600  0.72508100  1
  H  H30  1  0.30937600  0.72508100  0.60894100  1
  H  H31  1  0.80937600  0.10894100  0.22508100  1
  H  H32  1  0.10894100  0.22508100  0.80937600  1
  H  H33  1  0.22508100  0.80937600  0.10894100  1
  H  H34  1  0.89824900  0.39261300  0.36218200  1
  H  H35  1  0.39261300  0.36218200  0.89824900  1
  H  H36  1  0.36218200  0.89824900  0.39261300  1
  H  H37  1  0.86218200  0.89261300  0.39824900  1
  H  H38  1  0.89261300  0.39824900  0.86218200  1
  H  H39  1  0.39824900  0.86218200  0.89261300  1
  H  H40  1  0.78960800  0.38268200  0.30928800  1
  H  H41  1  0.38268200  0.30928800  0.78960800  1
  H  H42  1  0.30928800  0.78960800  0.38268200  1
  H  H43  1  0.80928800  0.88268200  0.28960800  1
  H  H44  1  0.88268200  0.28960800  0.80928800  1
  H  H45  1  0.28960800  0.80928800  0.88268200  1
  H  H46  1  0.74481000  0.46644100  0.05099100  1
  H  H47  1  0.46644100  0.05099100  0.74481000  1
  H  H48  1  0.05099100  0.74481000  0.46644100  1
  H  H49  1  0.55099100  0.96644100  0.24481000  1
  H  H50  1  0.96644100  0.24481000  0.55099100  1
  H  H51  1  0.24481000  0.55099100  0.96644100  1
  H  H52  1  0.84335700  0.31139900  0.08325700  1
  H  H53  1  0.31139900  0.08325700  0.84335700  1
  H  H54  1  0.08325700  0.84335700  0.31139900  1
  H  H55  1  0.58325700  0.81139900  0.34335700  1
  H  H56  1  0.81139900  0.34335700  0.58325700  1
  H  H57  1  0.34335700  0.58325700  0.81139900  1
  S  S58  1  0.18228100  0.18228100  0.18228100  1
  S  S59  1  0.68228100  0.68228100  0.68228100  1
  S  S60  1  0.67626300  0.73457700  0.00220800  1
  S  S61  1  0.73457700  0.00220800  0.67626300  1
  S  S62  1  0.00220800  0.67626300  0.73457700  1
  S  S63  1  0.50220800  0.23457700  0.17626300  1
  S  S64  1  0.23457700  0.17626300  0.50220800  1
  S  S65  1  0.17626300  0.50220800  0.23457700  1
  O  O66  1  0.64865700  0.32361900  0.38982100  1
  O  O67  1  0.32361900  0.38982100  0.64865700  1
  O  O68  1  0.38982100  0.64865700  0.32361900  1
  O  O69  1  0.88982100  0.82361900  0.14865700  1
  O  O70  1  0.82361900  0.14865700  0.88982100  1
  O  O71  1  0.14865700  0.88982100  0.82361900  1
  O  O72  1  0.65908700  0.65000000  0.38239800  1
  O  O73  1  0.65000000  0.38239800  0.65908700  1
  O  O74  1  0.38239800  0.65908700  0.65000000  1
  O  O75  1  0.88239800  0.15000000  0.15908700  1
  O  O76  1  0.15000000  0.15908700  0.88239800  1
  O  O77  1  0.15908700  0.88239800  0.15000000  1
  O  O78  1  0.86087100  0.43025900  0.28201400  1
  O  O79  1  0.43025900  0.28201400  0.86087100  1
  O  O80  1  0.28201400  0.86087100  0.43025900  1
  O  O81  1  0.78201400  0.93025900  0.36087100  1
  O  O82  1  0.93025900  0.36087100  0.78201400  1
  O  O83  1  0.36087100  0.78201400  0.93025900  1
  O  O84  1  0.79009700  0.68064100  0.07161500  1
  O  O85  1  0.68064100  0.07161500  0.79009800  1
  O  O86  1  0.07161500  0.79009800  0.68064100  1
  O  O87  1  0.57161500  0.18064100  0.29009700  1
  O  O88  1  0.18064100  0.29009700  0.57161500  1
  O  O89  1  0.29009700  0.57161500  0.18064100  1
  O  O90  1  0.10181400  0.56403800  0.12153100  1
  O  O91  1  0.56403800  0.12153100  0.10181400  1
  O  O92  1  0.12153100  0.10181400  0.56403800  1
  O  O93  1  0.62153100  0.06403800  0.60181400  1
  O  O94  1  0.06403800  0.60181400  0.62153100  1
  O  O95  1  0.60181400  0.62153100  0.06403800  1
  O  O96  1  0.83906900  0.40932100  0.02679700  1
  O  O97  1  0.40932100  0.02679700  0.83906900  1
  O  O98  1  0.02679700  0.83906900  0.40932100  1
  O  O99  1  0.52679700  0.90932100  0.33906900  1
  O  O100  1  0.90932100  0.33906900  0.52679700  1
  O  O101  1  0.33906900  0.52679700  0.90932100  1
  O  O102  1  0.85354800  0.05514000  0.57615900  1
  O  O103  1  0.05514000  0.57615900  0.85354800  1
  O  O104  1  0.57615900  0.85354800  0.05514000  1
  O  O105  1  0.07615900  0.55514000  0.35354800  1
  O  O106  1  0.55514000  0.35354800  0.07615900  1
  O  O107  1  0.35354800  0.07615900  0.55514000  1
  O  O108  1  0.11852400  0.28792100  0.06968800  1
  O  O109  1  0.28792100  0.06968800  0.11852400  1
  O  O110  1  0.06968800  0.11852400  0.28792100  1
  O  O111  1  0.56968800  0.78792100  0.61852400  1
  O  O112  1  0.78792100  0.61852400  0.56968800  1
  O  O113  1  0.61852400  0.56968800  0.78792100  1
