# generated using pymatgen
data_Co3(P2O7)2
_symmetry_space_group_name_H-M   'P 1'
_cell_length_a   5.44821500
_cell_length_b   6.93995794
_cell_length_c   7.26962480
_cell_angle_alpha   75.81814337
_cell_angle_beta   80.97019325
_cell_angle_gamma   67.75317980
_symmetry_Int_Tables_number   1
_chemical_formula_structural   Co3(P2O7)2
_chemical_formula_sum   'Co3 P4 O14'
_cell_volume   246.02114285
_cell_formula_units_Z   1
loop_
 _symmetry_equiv_pos_site_id
 _symmetry_equiv_pos_as_xyz
  1  'x, y, z'
loop_
 _atom_site_type_symbol
 _atom_site_label
 _atom_site_symmetry_multiplicity
 _atom_site_fract_x
 _atom_site_fract_y
 _atom_site_fract_z
 _atom_site_occupancy
  Co  Co0  1  0.18649600  0.51151800  0.30982300  1
  Co  Co1  1  0.00000000  0.00000000  0.00000000  1
  Co  Co2  1  0.81350400  0.48848200  0.69017700  1
  P  P3  1  0.20952200  0.72599800  0.65720300  1
  P  P4  1  0.79047800  0.27400200  0.34279700  1
  P  P5  1  0.64803100  0.68670500  0.06388000  1
  P  P6  1  0.35196900  0.31329500  0.93612000  1
  O  O7  1  0.35025300  0.76129700  0.13242600  1
  O  O8  1  0.83252800  0.76993200  0.13713700  1
  O  O9  1  0.75611400  0.43692900  0.13930000  1
  O  O10  1  0.05293300  0.65022600  0.54443500  1
  O  O11  1  0.48359800  0.69581600  0.55653400  1
  O  O12  1  0.68737800  0.70933500  0.84816000  1
  O  O13  1  0.16747200  0.23006800  0.86286300  1
  O  O14  1  0.94706700  0.34977400  0.45556500  1
  O  O15  1  0.24388600  0.56307100  0.86070000  1
  O  O16  1  0.94354800  0.06565000  0.27808100  1
  O  O17  1  0.64974700  0.23870300  0.86757400  1
  O  O18  1  0.31262200  0.29066500  0.15184000  1
  O  O19  1  0.05645200  0.93435000  0.72191900  1
  O  O20  1  0.51640200  0.30418400  0.44346600  1
