# generated using pymatgen
data_CuH12C5S4N
_symmetry_space_group_name_H-M   'P 1'
_cell_length_a   11.05647700
_cell_length_b   11.56196900
_cell_length_c   16.90858300
_cell_angle_alpha   90.00000000
_cell_angle_beta   90.00000000
_cell_angle_gamma   90.00000000
_symmetry_Int_Tables_number   1
_chemical_formula_structural   CuH12C5S4N
_chemical_formula_sum   'Cu8 H96 C40 S32 N8'
_cell_volume   2161.50269381
_cell_formula_units_Z   8
loop_
 _symmetry_equiv_pos_site_id
 _symmetry_equiv_pos_as_xyz
  1  'x, y, z'
loop_
 _atom_site_type_symbol
 _atom_site_label
 _atom_site_symmetry_multiplicity
 _atom_site_fract_x
 _atom_site_fract_y
 _atom_site_fract_z
 _atom_site_occupancy
  Cu  Cu0  1  0.43643100  0.10727100  0.49283900  1
  Cu  Cu1  1  0.43643100  0.39272900  0.99283900  1
  Cu  Cu2  1  0.93643100  0.10727100  0.00716100  1
  Cu  Cu3  1  0.56356900  0.89272900  0.50716100  1
  Cu  Cu4  1  0.93643100  0.39272900  0.50716100  1
  Cu  Cu5  1  0.06356900  0.60727100  0.49283900  1
  Cu  Cu6  1  0.56356900  0.60727100  0.00716100  1
  Cu  Cu7  1  0.06356900  0.89272900  0.99283900  1
  H  H8  1  0.08225800  0.89172600  0.22198300  1
  H  H9  1  0.42676400  0.74428200  0.17662900  1
  H  H10  1  0.18044900  0.95552300  0.69508700  1
  H  H11  1  0.87477400  0.32693100  0.18457300  1
  H  H12  1  0.31955100  0.04447700  0.19508700  1
  H  H13  1  0.70343400  0.16448700  0.82570300  1
  H  H14  1  0.01862000  0.63547300  0.93087000  1
  H  H15  1  0.42676400  0.75571800  0.67662900  1
  H  H16  1  0.62323700  0.44087500  0.42938200  1
  H  H17  1  0.01653900  0.48024300  0.91914600  1
  H  H18  1  0.98346000  0.51975700  0.08085400  1
  H  H19  1  0.29656600  0.83551300  0.17429700  1
  H  H20  1  0.40756900  0.48041100  0.78357000  1
  H  H21  1  0.92676400  0.74428200  0.32337100  1
  H  H22  1  0.41774200  0.39172600  0.22198300  1
  H  H23  1  0.51862000  0.86452700  0.06913000  1
  H  H24  1  0.96829200  0.10510100  0.29639500  1
  H  H25  1  0.29656600  0.66448700  0.67429700  1
  H  H26  1  0.98346000  0.98024300  0.58085400  1
  H  H27  1  0.64374700  0.98015800  0.19947600  1
  H  H28  1  0.07323600  0.24428200  0.17662900  1
  H  H29  1  0.46829200  0.39489900  0.70360500  1
  H  H30  1  0.68044900  0.95552300  0.80491300  1
  H  H31  1  0.12522600  0.67306900  0.81542700  1
  H  H32  1  0.48346100  0.51975700  0.41914600  1
  H  H33  1  0.37676300  0.94087500  0.07061800  1
  H  H34  1  0.87676300  0.94087500  0.42938200  1
  H  H35  1  0.70343400  0.33551300  0.32570300  1
  H  H36  1  0.96829200  0.39489900  0.79639500  1
  H  H37  1  0.37477400  0.17306900  0.81542700  1
  H  H38  1  0.03170800  0.89489900  0.70360500  1
  H  H39  1  0.03170800  0.60510100  0.20360500  1
  H  H40  1  0.62522600  0.67306900  0.68457300  1
  H  H41  1  0.14374700  0.98015800  0.30052400  1
  H  H42  1  0.18044900  0.54447700  0.19508700  1
  H  H43  1  0.46829200  0.10510100  0.20360500  1
  H  H44  1  0.48138000  0.13547300  0.93087000  1
  H  H45  1  0.59243100  0.51958900  0.21643000  1
  H  H46  1  0.01653900  0.01975700  0.41914600  1
  H  H47  1  0.79656600  0.83551300  0.32570300  1
  H  H48  1  0.62522600  0.82693100  0.18457300  1
  H  H49  1  0.87477400  0.17306900  0.68457300  1
  H  H50  1  0.40756900  0.01958900  0.28357000  1
  H  H51  1  0.87796800  0.81474200  0.23353800  1
  H  H52  1  0.92676400  0.75571800  0.82337100  1
  H  H53  1  0.53170800  0.60510100  0.29639500  1
  H  H54  1  0.90756900  0.01958900  0.21643000  1
  H  H55  1  0.14374700  0.51984200  0.80052400  1
  H  H56  1  0.12203200  0.18525800  0.76646200  1
  H  H57  1  0.81955100  0.04447700  0.30491300  1
  H  H58  1  0.09243100  0.98041100  0.78357000  1
  H  H59  1  0.87796800  0.68525800  0.73353800  1
  H  H60  1  0.37477400  0.32693100  0.31542700  1
  H  H61  1  0.12323700  0.05912500  0.57061800  1
  H  H62  1  0.12203200  0.31474200  0.26646200  1
  H  H63  1  0.62323700  0.05912500  0.92938200  1
  H  H64  1  0.62203200  0.31474200  0.23353800  1
  H  H65  1  0.12323700  0.44087500  0.07061800  1
  H  H66  1  0.79656600  0.66448700  0.82570300  1
  H  H67  1  0.51862000  0.63547300  0.56913000  1
  H  H68  1  0.87676300  0.55912500  0.92938200  1
  H  H69  1  0.91774200  0.39172600  0.27801700  1
  H  H70  1  0.37796800  0.68525800  0.76646200  1
  H  H71  1  0.48346100  0.98024300  0.91914600  1
  H  H72  1  0.37676300  0.55912500  0.57061800  1
  H  H73  1  0.35625300  0.48015800  0.30052400  1
  H  H74  1  0.81955100  0.45552300  0.80491300  1
  H  H75  1  0.07323600  0.25571800  0.67662900  1
  H  H76  1  0.20343400  0.16448700  0.67429700  1
  H  H77  1  0.57323600  0.24428200  0.32337100  1
  H  H78  1  0.91774200  0.10827400  0.77801700  1
  H  H79  1  0.98138000  0.13547300  0.56913000  1
  H  H80  1  0.68044900  0.54447700  0.30491300  1
  H  H81  1  0.20343400  0.33551300  0.17429700  1
  H  H82  1  0.53170800  0.89489900  0.79639500  1
  H  H83  1  0.12522600  0.82693100  0.31542700  1
  H  H84  1  0.31955100  0.45552300  0.69508700  1
  H  H85  1  0.58225800  0.60827400  0.77801700  1
  H  H86  1  0.64374700  0.51984200  0.69947600  1
  H  H87  1  0.51654000  0.48024300  0.58085400  1
  H  H88  1  0.01862000  0.86452700  0.43087000  1
  H  H89  1  0.62203200  0.18525800  0.73353800  1
  H  H90  1  0.08225800  0.60827400  0.72198300  1
  H  H91  1  0.35625300  0.01984200  0.80052400  1
  H  H92  1  0.41774200  0.10827400  0.72198300  1
  H  H93  1  0.90756900  0.48041100  0.71643000  1
  H  H94  1  0.85625300  0.01984200  0.69947600  1
  H  H95  1  0.59243100  0.98041100  0.71643000  1
  H  H96  1  0.98138000  0.36452700  0.06913000  1
  H  H97  1  0.58225800  0.89172600  0.27801700  1
  H  H98  1  0.09243100  0.51958900  0.28357000  1
  H  H99  1  0.37796800  0.81474200  0.26646200  1
  H  H100  1  0.57323600  0.25571800  0.82337100  1
  H  H101  1  0.51654000  0.01975700  0.08085400  1
  H  H102  1  0.85625300  0.48015800  0.19947600  1
  H  H103  1  0.48138000  0.36452700  0.43087000  1
  C  C104  1  0.41075300  0.03124100  0.21924500  1
  C  C105  1  0.32225600  0.75343000  0.45069300  1
  C  C106  1  0.17774400  0.24657000  0.95069300  1
  C  C107  1  0.46930700  0.56147900  0.59387600  1
  C  C108  1  0.82225600  0.75343000  0.04930700  1
  C  C109  1  0.88522700  0.67770600  0.79814900  1
  C  C110  1  0.41185400  0.40425300  0.28626300  1
  C  C111  1  0.53069300  0.06147900  0.90612400  1
  C  C112  1  0.58814600  0.90425300  0.21373700  1
  C  C113  1  0.88522700  0.82229400  0.29814900  1
  C  C114  1  0.08814600  0.90425300  0.28626300  1
  C  C115  1  0.11477300  0.17770600  0.70185100  1
  C  C116  1  0.91075300  0.46875900  0.78075500  1
  C  C117  1  0.96930700  0.56147900  0.90612400  1
  C  C118  1  0.38522700  0.67770600  0.70185100  1
  C  C119  1  0.41075300  0.46875900  0.71924500  1
  C  C120  1  0.67774400  0.24657000  0.54930700  1
  C  C121  1  0.61477300  0.32229400  0.29814900  1
  C  C122  1  0.41185400  0.09574700  0.78626300  1
  C  C123  1  0.08924700  0.96875900  0.71924500  1
  C  C124  1  0.17774400  0.25343000  0.45069300  1
  C  C125  1  0.96930700  0.93852100  0.40612400  1
  C  C126  1  0.53069300  0.43852100  0.40612400  1
  C  C127  1  0.08924700  0.53124100  0.21924500  1
  C  C128  1  0.67774400  0.25343000  0.04930700  1
  C  C129  1  0.91075300  0.03124100  0.28075500  1
  C  C130  1  0.91185400  0.09574700  0.71373700  1
  C  C131  1  0.03069300  0.43852100  0.09387600  1
  C  C132  1  0.82225600  0.74657000  0.54930700  1
  C  C133  1  0.03069300  0.06147900  0.59387600  1
  C  C134  1  0.46930700  0.93852100  0.09387600  1
  C  C135  1  0.32225600  0.74657000  0.95069300  1
  C  C136  1  0.08814600  0.59574700  0.78626300  1
  C  C137  1  0.61477300  0.17770600  0.79814900  1
  C  C138  1  0.58814600  0.59574700  0.71373700  1
  C  C139  1  0.11477300  0.32229400  0.20185100  1
  C  C140  1  0.38522700  0.82229400  0.20185100  1
  C  C141  1  0.91185400  0.40425300  0.21373700  1
  C  C142  1  0.58924700  0.96875900  0.78075500  1
  C  C143  1  0.58924700  0.53124100  0.28075500  1
  S  S144  1  0.53343100  0.27326500  0.08072800  1
  S  S145  1  0.61585200  0.05516900  0.42573400  1
  S  S146  1  0.27501500  0.34652100  0.91017200  1
  S  S147  1  0.38414800  0.55516900  0.07426600  1
  S  S148  1  0.27501500  0.15347900  0.41017200  1
  S  S149  1  0.96656900  0.72673500  0.58072800  1
  S  S150  1  0.24087600  0.17014300  0.02896000  1
  S  S151  1  0.75912400  0.67014300  0.47104000  1
  S  S152  1  0.22498500  0.84652100  0.91017200  1
  S  S153  1  0.25912400  0.82985700  0.52896000  1
  S  S154  1  0.77501500  0.15347900  0.08982800  1
  S  S155  1  0.46656900  0.72673500  0.91927200  1
  S  S156  1  0.88414800  0.55516900  0.42573400  1
  S  S157  1  0.24087600  0.32985700  0.52896000  1
  S  S158  1  0.38414800  0.94483100  0.57426600  1
  S  S159  1  0.11585200  0.05516900  0.07426600  1
  S  S160  1  0.25912400  0.67014300  0.02896000  1
  S  S161  1  0.22498500  0.65347900  0.41017200  1
  S  S162  1  0.74087600  0.17014300  0.47104000  1
  S  S163  1  0.77501500  0.34652100  0.58982800  1
  S  S164  1  0.03343100  0.27326500  0.41927200  1
  S  S165  1  0.74087600  0.32985700  0.97104000  1
  S  S166  1  0.75912400  0.82985700  0.97104000  1
  S  S167  1  0.96656900  0.77326500  0.08072800  1
  S  S168  1  0.53343100  0.22673500  0.58072800  1
  S  S169  1  0.61585200  0.44483100  0.92573400  1
  S  S170  1  0.03343100  0.22673500  0.91927200  1
  S  S171  1  0.72498500  0.84652100  0.58982800  1
  S  S172  1  0.88414800  0.94483100  0.92573400  1
  S  S173  1  0.11585200  0.44483100  0.57426600  1
  S  S174  1  0.46656900  0.77326500  0.41927200  1
  S  S175  1  0.72498500  0.65347900  0.08982800  1
  N  N176  1  0.46327000  0.57563200  0.68232100  1
  N  N177  1  0.96327000  0.92436800  0.31767900  1
  N  N178  1  0.46327000  0.92436800  0.18232100  1
  N  N179  1  0.53673000  0.07563200  0.81767900  1
  N  N180  1  0.03673000  0.07563200  0.68232100  1
  N  N181  1  0.53673000  0.42436800  0.31767900  1
  N  N182  1  0.03673000  0.42436800  0.18232100  1
  N  N183  1  0.96327000  0.57563200  0.81767900  1
