# generated using pymatgen
data_PH24W12C6N3O40
_symmetry_space_group_name_H-M   'P 1'
_cell_length_a   13.20120441
_cell_length_b   13.20120441
_cell_length_c   13.20120425
_cell_angle_alpha   80.84256197
_cell_angle_beta   80.84256197
_cell_angle_gamma   80.84256351
_symmetry_Int_Tables_number   1
_chemical_formula_structural   PH24W12C6N3O40
_chemical_formula_sum   'P2 H48 W24 C12 N6 O80'
_cell_volume   2221.09287866
_cell_formula_units_Z   2
loop_
 _symmetry_equiv_pos_site_id
 _symmetry_equiv_pos_as_xyz
  1  'x, y, z'
loop_
 _atom_site_type_symbol
 _atom_site_label
 _atom_site_symmetry_multiplicity
 _atom_site_fract_x
 _atom_site_fract_y
 _atom_site_fract_z
 _atom_site_occupancy
  P  P0  1  0.73411721  0.73411721  0.73411721  1
  P  P1  1  0.26588279  0.26588279  0.26588279  1
  H  H2  1  0.87228328  0.25583487  0.87222155  1
  H  H3  1  0.25583487  0.87222155  0.87228328  1
  H  H4  1  0.87222155  0.87228328  0.25583487  1
  H  H5  1  0.12771672  0.74416513  0.12777845  1
  H  H6  1  0.74416513  0.12777845  0.12771672  1
  H  H7  1  0.12777845  0.12771672  0.74416513  1
  H  H8  1  0.78651992  0.15938084  0.89163806  1
  H  H9  1  0.15938084  0.89163806  0.78651992  1
  H  H10  1  0.89163806  0.78651992  0.15938084  1
  H  H11  1  0.78649937  0.89163060  0.15935689  1
  H  H12  1  0.89163060  0.15935689  0.78649937  1
  H  H13  1  0.15935689  0.78649937  0.89163060  1
  H  H14  1  0.21348008  0.84061916  0.10836194  1
  H  H15  1  0.84061916  0.10836194  0.21348008  1
  H  H16  1  0.10836194  0.21348008  0.84061916  1
  H  H17  1  0.21350063  0.10836940  0.84064311  1
  H  H18  1  0.10836940  0.84064311  0.21350063  1
  H  H19  1  0.84064311  0.21350063  0.10836940  1
  H  H20  1  0.65841445  0.28430917  0.65845962  1
  H  H21  1  0.28430917  0.65845962  0.65841445  1
  H  H22  1  0.65845962  0.65841445  0.28430917  1
  H  H23  1  0.34158555  0.71569083  0.34154038  1
  H  H24  1  0.71569083  0.34154038  0.34158555  1
  H  H25  1  0.34154038  0.34158555  0.71569083  1
  H  H26  1  0.65533423  0.17700368  0.76039121  1
  H  H27  1  0.17700368  0.76039121  0.65533423  1
  H  H28  1  0.76039121  0.65533423  0.17700368  1
  H  H29  1  0.65530432  0.76038609  0.17703290  1
  H  H30  1  0.76038609  0.17703290  0.65530432  1
  H  H31  1  0.17703290  0.65530432  0.76038609  1
  H  H32  1  0.34466577  0.82299632  0.23960879  1
  H  H33  1  0.82299632  0.23960879  0.34466577  1
  H  H34  1  0.23960879  0.34466577  0.82299632  1
  H  H35  1  0.34469568  0.23961391  0.82296710  1
  H  H36  1  0.23961391  0.82296710  0.34469568  1
  H  H37  1  0.82296710  0.34469568  0.23961391  1
  H  H38  1  0.71260527  0.32573306  0.80925598  1
  H  H39  1  0.32573306  0.80925598  0.71260527  1
  H  H40  1  0.80925598  0.71260527  0.32573306  1
  H  H41  1  0.71259913  0.80925875  0.32573923  1
  H  H42  1  0.80925875  0.32573923  0.71259913  1
  H  H43  1  0.32573923  0.71259913  0.80925875  1
  H  H44  1  0.28739473  0.67426694  0.19074402  1
  H  H45  1  0.67426694  0.19074402  0.28739473  1
  H  H46  1  0.19074402  0.28739473  0.67426694  1
  H  H47  1  0.28740087  0.19074125  0.67426077  1
  H  H48  1  0.19074125  0.67426077  0.28740087  1
  H  H49  1  0.67426077  0.28740087  0.19074125  1
  W  W50  1  0.91699877  0.69755075  0.91700518  1
  W  W51  1  0.69755075  0.91700518  0.91699877  1
  W  W52  1  0.91700518  0.91699877  0.69755075  1
  W  W53  1  0.08300123  0.30244925  0.08299482  1
  W  W54  1  0.30244925  0.08299482  0.08300123  1
  W  W55  1  0.08299482  0.08300123  0.30244925  1
  W  W56  1  0.74112035  0.52105331  0.94630219  1
  W  W57  1  0.52105331  0.94630219  0.74112035  1
  W  W58  1  0.94630219  0.74112035  0.52105331  1
  W  W59  1  0.74113191  0.94629132  0.52105247  1
  W  W60  1  0.94629132  0.52105247  0.74113191  1
  W  W61  1  0.52105247  0.74113191  0.94629132  1
  W  W62  1  0.25887965  0.47894669  0.05369781  1
  W  W63  1  0.47894669  0.05369781  0.25887965  1
  W  W64  1  0.05369781  0.25887965  0.47894669  1
  W  W65  1  0.25886809  0.05370868  0.47894753  1
  W  W66  1  0.05370868  0.47894753  0.25886809  1
  W  W67  1  0.47894753  0.25886809  0.05370868  1
  W  W68  1  0.55092461  0.55093273  0.75533876  1
  W  W69  1  0.55093273  0.75533876  0.55092461  1
  W  W70  1  0.75533876  0.55092461  0.55093273  1
  W  W71  1  0.44907539  0.44906727  0.24466124  1
  W  W72  1  0.44906727  0.24466124  0.44907539  1
  W  W73  1  0.24466124  0.44907539  0.44906727  1
  C  C74  1  0.83386426  0.20768408  0.83384451  1
  C  C75  1  0.20768408  0.83384451  0.83386426  1
  C  C76  1  0.83384451  0.83386426  0.20768408  1
  C  C77  1  0.16613574  0.79231592  0.16615549  1
  C  C78  1  0.79231592  0.16615549  0.16613574  1
  C  C79  1  0.16615549  0.16613574  0.79231592  1
  C  C80  1  0.70551937  0.22488624  0.70551990  1
  C  C81  1  0.22488624  0.70551990  0.70551937  1
  C  C82  1  0.70551990  0.70551937  0.22488624  1
  C  C83  1  0.29448063  0.77511376  0.29448010  1
  C  C84  1  0.77511376  0.29448010  0.29448063  1
  C  C85  1  0.29448010  0.29448063  0.77511376  1
  N  N86  1  0.76473995  0.27798383  0.76473284  1
  N  N87  1  0.27798383  0.76473284  0.76473995  1
  N  N88  1  0.76473284  0.76473995  0.27798383  1
  N  N89  1  0.23526005  0.72201617  0.23526716  1
  N  N90  1  0.72201617  0.23526716  0.23526005  1
  N  N91  1  0.23526716  0.23526005  0.72201617  1
  O  O92  1  0.80286209  0.65527226  0.80286228  1
  O  O93  1  0.65527226  0.80286228  0.80286209  1
  O  O94  1  0.80286228  0.80286209  0.65527226  1
  O  O95  1  0.19713791  0.34472774  0.19713772  1
  O  O96  1  0.34472774  0.19713772  0.19713791  1
  O  O97  1  0.19713772  0.19713791  0.34472774  1
  O  O98  1  0.67521570  0.67521570  0.67521570  1
  O  O99  1  0.32478430  0.32478430  0.32478430  1
  O  O100  1  0.80008238  0.80008629  0.95446795  1
  O  O101  1  0.80008629  0.95446795  0.80008238  1
  O  O102  1  0.95446795  0.80008238  0.80008629  1
  O  O103  1  0.19991762  0.19991371  0.04553205  1
  O  O104  1  0.19991371  0.04553205  0.19991762  1
  O  O105  1  0.04553205  0.19991762  0.19991371  1
  O  O106  1  0.63217629  0.63218505  0.98131345  1
  O  O107  1  0.63218505  0.98131345  0.63217629  1
  O  O108  1  0.98131345  0.63217629  0.63218505  1
  O  O109  1  0.36782371  0.36781495  0.01868655  1
  O  O110  1  0.36781495  0.01868655  0.36782371  1
  O  O111  1  0.01868655  0.36782371  0.36781495  1
  O  O112  1  0.65338655  0.49750339  0.84859493  1
  O  O113  1  0.49750339  0.84859493  0.65338655  1
  O  O114  1  0.84859493  0.65338655  0.49750339  1
  O  O115  1  0.65340904  0.84857862  0.49749275  1
  O  O116  1  0.84857862  0.49749275  0.65340904  1
  O  O117  1  0.49749275  0.65340904  0.84857862  1
  O  O118  1  0.34661345  0.50249661  0.15140507  1
  O  O119  1  0.50249661  0.15140507  0.34661345  1
  O  O120  1  0.15140507  0.34661345  0.50249661  1
  O  O121  1  0.34659096  0.15142138  0.50250725  1
  O  O122  1  0.15142138  0.50250725  0.34659096  1
  O  O123  1  0.50250725  0.34659096  0.15142138  1
  O  O124  1  0.83889989  0.59046008  0.99605218  1
  O  O125  1  0.59046008  0.99605218  0.83889989  1
  O  O126  1  0.99605218  0.83889989  0.59046008  1
  O  O127  1  0.83891393  0.99604249  0.59045414  1
  O  O128  1  0.99604249  0.59045414  0.83891393  1
  O  O129  1  0.59045414  0.83891393  0.99604249  1
  O  O130  1  0.16110011  0.40953992  0.00394782  1
  O  O131  1  0.40953992  0.00394782  0.16110011  1
  O  O132  1  0.00394782  0.16110011  0.40953992  1
  O  O133  1  0.16108607  0.00395751  0.40954586  1
  O  O134  1  0.00395751  0.40954586  0.16108607  1
  O  O135  1  0.40954586  0.16108607  0.00395751  1
  O  O136  1  0.85848239  0.45580721  0.85849544  1
  O  O137  1  0.45580721  0.85849544  0.85848239  1
  O  O138  1  0.85849544  0.85848239  0.45580721  1
  O  O139  1  0.14151761  0.54419279  0.14150456  1
  O  O140  1  0.54419279  0.14150456  0.14151761  1
  O  O141  1  0.14150456  0.14151761  0.54419279  1
  O  O142  1  0.64613446  0.48831237  0.64614114  1
  O  O143  1  0.48831237  0.64614114  0.64613446  1
  O  O144  1  0.64614114  0.64613446  0.48831237  1
  O  O145  1  0.35386554  0.51168763  0.35385886  1
  O  O146  1  0.51168763  0.35385886  0.35386554  1
  O  O147  1  0.35385886  0.35386554  0.51168763  1
  O  O148  1  0.00149837  0.70976122  0.00150065  1
  O  O149  1  0.70976122  0.00150065  0.00149837  1
  O  O150  1  0.00150065  0.00149837  0.70976122  1
  O  O151  1  0.99850163  0.29023878  0.99849935  1
  O  O152  1  0.29023878  0.99849935  0.99850163  1
  O  O153  1  0.99849935  0.99850163  0.29023878  1
  O  O154  1  0.72168761  0.42093961  0.04717895  1
  O  O155  1  0.42093961  0.04717895  0.72168761  1
  O  O156  1  0.04717895  0.72168761  0.42093961  1
  O  O157  1  0.72169702  0.04716656  0.42093941  1
  O  O158  1  0.04716656  0.42093941  0.72169702  1
  O  O159  1  0.42093941  0.72169702  0.04716656  1
  O  O160  1  0.27831239  0.57906039  0.95282105  1
  O  O161  1  0.57906039  0.95282105  0.27831239  1
  O  O162  1  0.95282105  0.27831239  0.57906039  1
  O  O163  1  0.27830298  0.95283344  0.57906059  1
  O  O164  1  0.95283344  0.57906059  0.27830298  1
  O  O165  1  0.57906059  0.27830298  0.95283344  1
  O  O166  1  0.46292562  0.46293895  0.78859740  1
  O  O167  1  0.46293895  0.78859740  0.46292562  1
  O  O168  1  0.78859740  0.46292562  0.46293895  1
  O  O169  1  0.53707438  0.53706105  0.21140260  1
  O  O170  1  0.53706105  0.21140260  0.53707438  1
  O  O171  1  0.21140260  0.53707438  0.53706105  1
