# generated using pymatgen
data_CdH8C2Br3N
_symmetry_space_group_name_H-M   'P 1'
_cell_length_a   14.02375400
_cell_length_b   7.07392100
_cell_length_c   9.13633636
_cell_angle_alpha   82.74881297
_cell_angle_beta   90.00000000
_cell_angle_gamma   90.00000000
_symmetry_Int_Tables_number   1
_chemical_formula_structural   CdH8C2Br3N
_chemical_formula_sum   'Cd4 H32 C8 Br12 N4'
_cell_volume   899.10262292
_cell_formula_units_Z   4
loop_
 _symmetry_equiv_pos_site_id
 _symmetry_equiv_pos_as_xyz
  1  'x, y, z'
loop_
 _atom_site_type_symbol
 _atom_site_label
 _atom_site_symmetry_multiplicity
 _atom_site_fract_x
 _atom_site_fract_y
 _atom_site_fract_z
 _atom_site_occupancy
  Cd  Cd0  1  0.74612200  0.02235100  0.78279200  1
  Cd  Cd1  1  0.25387800  0.97764900  0.21720800  1
  Cd  Cd2  1  0.24612200  0.47764900  0.21720800  1
  Cd  Cd3  1  0.75387800  0.52235100  0.78279200  1
  H  H4  1  0.91934100  0.02510800  0.36703900  1
  H  H5  1  0.41668700  0.71946000  0.55170000  1
  H  H6  1  0.51173700  0.66244600  0.77779700  1
  H  H7  1  0.58331300  0.28054000  0.44830000  1
  H  H8  1  0.09084000  0.46349400  0.68779000  1
  H  H9  1  0.41452700  0.59020400  0.87296300  1
  H  H10  1  0.40916000  0.96349400  0.68779000  1
  H  H11  1  0.52441200  0.05588000  0.14270400  1
  H  H12  1  0.18295100  0.12330100  0.65794400  1
  H  H13  1  0.31704900  0.62330100  0.65794400  1
  H  H14  1  0.58065900  0.52510800  0.36703900  1
  H  H15  1  0.08547300  0.09020400  0.87296300  1
  H  H16  1  0.41934100  0.47489200  0.63296100  1
  H  H17  1  0.91452700  0.90979600  0.12703700  1
  H  H18  1  0.97558800  0.55588000  0.14270400  1
  H  H19  1  0.01173700  0.83755400  0.22220300  1
  H  H20  1  0.81704900  0.87669900  0.34205600  1
  H  H21  1  0.65005200  0.10688100  0.14111700  1
  H  H22  1  0.98826300  0.16244600  0.77779700  1
  H  H23  1  0.68295100  0.37669900  0.34205600  1
  H  H24  1  0.84994800  0.60688100  0.14111700  1
  H  H25  1  0.08331300  0.21946000  0.55170000  1
  H  H26  1  0.59084000  0.03650600  0.31221000  1
  H  H27  1  0.02441200  0.44412000  0.85729600  1
  H  H28  1  0.47558800  0.94412000  0.85729600  1
  H  H29  1  0.34994800  0.89311900  0.85888300  1
  H  H30  1  0.91668700  0.78054000  0.44830000  1
  H  H31  1  0.58547300  0.40979600  0.12703700  1
  H  H32  1  0.15005200  0.39311900  0.85888300  1
  H  H33  1  0.08065900  0.97489200  0.63296100  1
  H  H34  1  0.48826300  0.33755400  0.22220300  1
  H  H35  1  0.90916000  0.53650600  0.31221000  1
  C  C36  1  0.89473000  0.88110000  0.35358700  1
  C  C37  1  0.58315700  0.11504800  0.20166900  1
  C  C38  1  0.41684300  0.88495200  0.79833100  1
  C  C39  1  0.60527000  0.38110000  0.35358700  1
  C  C40  1  0.10527000  0.11890000  0.64641300  1
  C  C41  1  0.39473000  0.61890000  0.64641300  1
  C  C42  1  0.08315700  0.38495200  0.79833100  1
  C  C43  1  0.91684300  0.61504800  0.20166900  1
  Br  Br44  1  0.83215100  0.21947800  0.00014100  1
  Br  Br45  1  0.83909400  0.30729700  0.58321300  1
  Br  Br46  1  0.66090600  0.80729700  0.58321300  1
  Br  Br47  1  0.33215100  0.28052200  0.99985900  1
  Br  Br48  1  0.16784900  0.78052200  0.99985900  1
  Br  Br49  1  0.59531700  0.27985500  0.78952400  1
  Br  Br50  1  0.16090600  0.69270300  0.41678700  1
  Br  Br51  1  0.40468300  0.72014500  0.21047600  1
  Br  Br52  1  0.90468300  0.77985500  0.78952400  1
  Br  Br53  1  0.33909400  0.19270300  0.41678700  1
  Br  Br54  1  0.66784900  0.71947800  0.00014100  1
  Br  Br55  1  0.09531700  0.22014500  0.21047600  1
  N  N56  1  0.56152300  0.31956600  0.21798300  1
  N  N57  1  0.06152300  0.18043400  0.78201700  1
  N  N58  1  0.93847700  0.81956500  0.21798300  1
  N  N59  1  0.43847700  0.68043400  0.78201700  1
