# generated using pymatgen
data_SiO2
_symmetry_space_group_name_H-M   'P 1'
_cell_length_a   12.56967709
_cell_length_b   12.56967709
_cell_length_c   12.56967709
_cell_angle_alpha   144.89553268
_cell_angle_beta   109.81639410
_cell_angle_gamma   80.96069385
_symmetry_Int_Tables_number   1
_chemical_formula_structural   SiO2
_chemical_formula_sum   'Si18 O36'
_cell_volume   1047.57221640
_cell_formula_units_Z   18
loop_
 _symmetry_equiv_pos_site_id
 _symmetry_equiv_pos_as_xyz
  1  'x, y, z'
loop_
 _atom_site_type_symbol
 _atom_site_label
 _atom_site_symmetry_multiplicity
 _atom_site_fract_x
 _atom_site_fract_y
 _atom_site_fract_z
 _atom_site_occupancy
  Si  Si0  1  0.38224800  0.39128700  0.40299600  1
  Si  Si1  1  0.98829100  0.97925300  0.59700400  1
  Si  Si2  1  0.38224800  0.97925300  0.99096200  1
  Si  Si3  1  0.98829100  0.39128700  0.00903800  1
  Si  Si4  1  0.74304300  0.33588600  0.99466900  1
  Si  Si5  1  0.34121700  0.74837400  0.00533100  1
  Si  Si6  1  0.74304300  0.74837400  0.40715700  1
  Si  Si7  1  0.34121700  0.33588600  0.59284300  1
  Si  Si8  1  0.15050300  0.94759500  0.20290800  1
  Si  Si9  1  0.74468700  0.94759500  0.79709200  1
  Si  Si10  1  0.49743500  0.79803100  0.69940400  1
  Si  Si11  1  0.09862700  0.79803100  0.30059600  1
  Si  Si12  1  0.11616900  0.40959300  0.29342300  1
  Si  Si13  1  0.11616900  0.82274600  0.70657700  1
  Si  Si14  1  0.48754300  0.28150600  0.79396300  1
  Si  Si15  1  0.48754300  0.69358000  0.20603700  1
  Si  Si16  1  0.36836100  0.86836100  0.50000000  1
  Si  Si17  1  0.99713300  0.99713300  0.00000000  1
  O  O18  1  0.47662800  0.57700500  0.54764900  1
  O  O19  1  0.02935600  0.92898000  0.45235100  1
  O  O20  1  0.47662800  0.92898000  0.89962300  1
  O  O21  1  0.02935600  0.57700500  0.10037700  1
  O  O22  1  0.39012500  0.37165200  0.51816300  1
  O  O23  1  0.85348900  0.87196200  0.48183700  1
  O  O24  1  0.39012500  0.87196200  0.01847300  1
  O  O25  1  0.85348900  0.37165200  0.98152700  1
  O  O26  1  0.41321000  0.20677000  0.20644000  1
  O  O27  1  0.00033000  0.20677000  0.79356000  1
  O  O28  1  0.25342700  0.41123500  0.33965200  1
  O  O29  1  0.07158200  0.91377400  0.66034800  1
  O  O30  1  0.25342700  0.91377400  0.84219200  1
  O  O31  1  0.07158200  0.41123500  0.15780800  1
  O  O32  1  0.62568100  0.28482300  0.84080700  1
  O  O33  1  0.44401600  0.78487400  0.15919300  1
  O  O34  1  0.62568100  0.78487400  0.34085800  1
  O  O35  1  0.44401600  0.28482300  0.65914200  1
  O  O36  1  0.74689400  0.16331100  0.93608800  1
  O  O37  1  0.22722300  0.81080500  0.06391200  1
  O  O38  1  0.74689400  0.81080500  0.58358200  1
  O  O39  1  0.22722300  0.16331100  0.41641800  1
  O  O40  1  0.74490000  0.52406700  0.22083300  1
  O  O41  1  0.30323300  0.52406700  0.77916700  1
  O  O42  1  0.03811300  0.94740300  0.09070900  1
  O  O43  1  0.85669400  0.94740300  0.90929100  1
  O  O44  1  0.10399200  0.86725400  0.23673900  1
  O  O45  1  0.63051500  0.86725400  0.76326100  1
  O  O46  1  0.40841700  0.81822700  0.59019000  1
  O  O47  1  0.22803600  0.81822700  0.40981000  1
  O  O48  1  0.09369800  0.59369800  0.50000000  1
  O  O49  1  0.04521300  0.22210200  0.17688800  1
  O  O50  1  0.04521300  0.86832500  0.82311200  1
  O  O51  1  0.46332100  0.46332100  0.00000000  1
  O  O52  1  0.41670400  0.09305400  0.67634900  1
  O  O53  1  0.41670400  0.74035500  0.32365100  1
