# generated using pymatgen
data_SiO2
_symmetry_space_group_name_H-M   'P 1'
_cell_length_a   7.95206447
_cell_length_b   7.95206447
_cell_length_c   10.14285600
_cell_angle_alpha   90.00000000
_cell_angle_beta   90.00000000
_cell_angle_gamma   98.68716965
_symmetry_Int_Tables_number   1
_chemical_formula_structural   SiO2
_chemical_formula_sum   'Si10 O20'
_cell_volume   634.02867953
_cell_formula_units_Z   10
loop_
 _symmetry_equiv_pos_site_id
 _symmetry_equiv_pos_as_xyz
  1  'x, y, z'
loop_
 _atom_site_type_symbol
 _atom_site_label
 _atom_site_symmetry_multiplicity
 _atom_site_fract_x
 _atom_site_fract_y
 _atom_site_fract_z
 _atom_site_occupancy
  Si  Si0  1  0.82110000  0.39077900  0.84908100  1
  Si  Si1  1  0.60922100  0.17890000  0.65091900  1
  Si  Si2  1  0.39077900  0.82110000  0.65091900  1
  Si  Si3  1  0.17890000  0.60922100  0.84908100  1
  Si  Si4  1  0.17890000  0.60922100  0.15091900  1
  Si  Si5  1  0.39077900  0.82110000  0.34908100  1
  Si  Si6  1  0.60922100  0.17890000  0.34908100  1
  Si  Si7  1  0.82110000  0.39077900  0.15091900  1
  Si  Si8  1  0.50000000  0.50000000  0.75000000  1
  Si  Si9  1  0.50000000  0.50000000  0.25000000  1
  O  O10  1  0.67042600  0.51021100  0.84144600  1
  O  O11  1  0.48978900  0.32957400  0.65855400  1
  O  O12  1  0.51021100  0.67042600  0.65855400  1
  O  O13  1  0.32957400  0.48978900  0.84144600  1
  O  O14  1  0.32957400  0.48978900  0.15855400  1
  O  O15  1  0.51021100  0.67042600  0.34144600  1
  O  O16  1  0.48978900  0.32957400  0.34144600  1
  O  O17  1  0.67042600  0.51021100  0.15855400  1
  O  O18  1  0.83880800  0.32462400  0.00000000  1
  O  O19  1  0.67537600  0.16119200  0.50000000  1
  O  O20  1  0.32462400  0.83880800  0.50000000  1
  O  O21  1  0.16119200  0.67537600  0.00000000  1
  O  O22  1  0.77152000  0.22848000  0.75000000  1
  O  O23  1  0.22848000  0.77152000  0.75000000  1
  O  O24  1  0.22848000  0.77152000  0.25000000  1
  O  O25  1  0.77152000  0.22848000  0.25000000  1
  O  O26  1  0.00000000  0.50000000  0.80144500  1
  O  O27  1  0.50000000  0.00000000  0.69855500  1
  O  O28  1  0.00000000  0.50000000  0.19855500  1
  O  O29  1  0.50000000  0.00000000  0.30144500  1
