# generated using pymatgen
data_SiO2
_symmetry_space_group_name_H-M   'P 1'
_cell_length_a   8.73925100
_cell_length_b   8.73925100
_cell_length_c   27.93854900
_cell_angle_alpha   90.00000000
_cell_angle_beta   90.00000000
_cell_angle_gamma   90.00000000
_symmetry_Int_Tables_number   1
_chemical_formula_structural   SiO2
_chemical_formula_sum   'Si40 O80'
_cell_volume   2133.79293525
_cell_formula_units_Z   40
loop_
 _symmetry_equiv_pos_site_id
 _symmetry_equiv_pos_as_xyz
  1  'x, y, z'
loop_
 _atom_site_type_symbol
 _atom_site_label
 _atom_site_symmetry_multiplicity
 _atom_site_fract_x
 _atom_site_fract_y
 _atom_site_fract_z
 _atom_site_occupancy
  Si  Si0  1  0.74566800  0.56561700  0.82025500  1
  Si  Si1  1  0.43438300  0.74566800  0.82025500  1
  Si  Si2  1  0.56561700  0.25433200  0.82025500  1
  Si  Si3  1  0.74566800  0.43438300  0.17974500  1
  Si  Si4  1  0.25433200  0.56561700  0.17974500  1
  Si  Si5  1  0.25433200  0.43438300  0.82025500  1
  Si  Si6  1  0.56561700  0.74566800  0.17974500  1
  Si  Si7  1  0.43438300  0.25433200  0.17974500  1
  Si  Si8  1  0.75433200  0.93438300  0.67974500  1
  Si  Si9  1  0.06561700  0.75433200  0.67974500  1
  Si  Si10  1  0.93438300  0.24566800  0.67974500  1
  Si  Si11  1  0.75433200  0.06561700  0.32025500  1
  Si  Si12  1  0.24566800  0.93438300  0.32025500  1
  Si  Si13  1  0.24566800  0.06561700  0.67974500  1
  Si  Si14  1  0.93438300  0.75433200  0.32025500  1
  Si  Si15  1  0.06561700  0.24566800  0.32025500  1
  Si  Si16  1  0.56765700  0.25338700  0.93055300  1
  Si  Si17  1  0.74661300  0.56765700  0.93055300  1
  Si  Si18  1  0.25338700  0.43234300  0.93055300  1
  Si  Si19  1  0.56765700  0.74661300  0.06944700  1
  Si  Si20  1  0.43234300  0.25338700  0.06944700  1
  Si  Si21  1  0.43234300  0.74661300  0.93055300  1
  Si  Si22  1  0.25338700  0.56765700  0.06944700  1
  Si  Si23  1  0.74661300  0.43234300  0.06944700  1
  Si  Si24  1  0.93234300  0.24661300  0.56944700  1
  Si  Si25  1  0.75338700  0.93234300  0.56944700  1
  Si  Si26  1  0.24661300  0.06765700  0.56944700  1
  Si  Si27  1  0.93234300  0.75338700  0.43055300  1
  Si  Si28  1  0.06765700  0.24661300  0.43055300  1
  Si  Si29  1  0.06765700  0.75338700  0.56944700  1
  Si  Si30  1  0.24661300  0.93234300  0.43055300  1
  Si  Si31  1  0.75338700  0.06765700  0.43055300  1
  Si  Si32  1  0.00000000  0.50000000  0.75000000  1
  Si  Si33  1  0.50000000  0.00000000  0.75000000  1
  Si  Si34  1  0.00000000  0.50000000  0.25000000  1
  Si  Si35  1  0.50000000  0.00000000  0.25000000  1
  Si  Si36  1  0.00000000  0.50000000  0.00000000  1
  Si  Si37  1  0.50000000  0.00000000  0.00000000  1
  Si  Si38  1  0.50000000  0.00000000  0.50000000  1
  Si  Si39  1  0.00000000  0.50000000  0.50000000  1
  O  O40  1  0.88582400  0.60089100  0.78377800  1
  O  O41  1  0.39910900  0.88582400  0.78377800  1
  O  O42  1  0.60089100  0.11417600  0.78377800  1
  O  O43  1  0.88582400  0.39910900  0.21622200  1
  O  O44  1  0.11417600  0.60089100  0.21622200  1
  O  O45  1  0.11417600  0.39910900  0.78377800  1
  O  O46  1  0.60089100  0.88582400  0.21622200  1
  O  O47  1  0.39910900  0.11417600  0.21622200  1
  O  O48  1  0.61417600  0.89910900  0.71622200  1
  O  O49  1  0.10089100  0.61417600  0.71622200  1
  O  O50  1  0.89910900  0.38582400  0.71622200  1
  O  O51  1  0.61417600  0.10089100  0.28377800  1
  O  O52  1  0.38582400  0.89910900  0.28377800  1
  O  O53  1  0.38582400  0.10089100  0.71622200  1
  O  O54  1  0.89910900  0.61417600  0.28377800  1
  O  O55  1  0.10089100  0.38582400  0.28377800  1
  O  O56  1  0.68667000  0.39164000  0.81066000  1
  O  O57  1  0.60836000  0.68667000  0.81066000  1
  O  O58  1  0.39164000  0.31333000  0.81066000  1
  O  O59  1  0.68667000  0.60836000  0.18934000  1
  O  O60  1  0.31333000  0.39164000  0.18934000  1
  O  O61  1  0.31333000  0.60836000  0.81066000  1
  O  O62  1  0.39164000  0.68667000  0.18934000  1
  O  O63  1  0.60836000  0.31333000  0.18934000  1
  O  O64  1  0.81333000  0.10836000  0.68934000  1
  O  O65  1  0.89164000  0.81333000  0.68934000  1
  O  O66  1  0.10836000  0.18667000  0.68934000  1
  O  O67  1  0.81333000  0.89164000  0.31066000  1
  O  O68  1  0.18667000  0.10836000  0.31066000  1
  O  O69  1  0.18667000  0.89164000  0.68934000  1
  O  O70  1  0.10836000  0.81333000  0.31066000  1
  O  O71  1  0.89164000  0.18667000  0.31066000  1
  O  O72  1  0.80456900  0.58397800  0.87531900  1
  O  O73  1  0.41602200  0.80456900  0.87531900  1
  O  O74  1  0.58397800  0.19543100  0.87531900  1
  O  O75  1  0.80456900  0.41602200  0.12468100  1
  O  O76  1  0.19543100  0.58397800  0.12468100  1
  O  O77  1  0.19543100  0.41602200  0.87531900  1
  O  O78  1  0.58397800  0.80456900  0.12468100  1
  O  O79  1  0.41602200  0.19543100  0.12468100  1
  O  O80  1  0.69543100  0.91602200  0.62468100  1
  O  O81  1  0.08397800  0.69543100  0.62468100  1
  O  O82  1  0.91602200  0.30456900  0.62468100  1
  O  O83  1  0.69543100  0.08397800  0.37531900  1
  O  O84  1  0.30456900  0.91602200  0.37531900  1
  O  O85  1  0.30456900  0.08397800  0.62468100  1
  O  O86  1  0.91602200  0.69543100  0.37531900  1
  O  O87  1  0.08397800  0.30456900  0.37531900  1
  O  O88  1  0.11005300  0.60579500  0.03405600  1
  O  O89  1  0.39420500  0.11005300  0.03405600  1
  O  O90  1  0.60579500  0.88994700  0.03405600  1
  O  O91  1  0.11005300  0.39420500  0.96594400  1
  O  O92  1  0.88994700  0.60579500  0.96594400  1
  O  O93  1  0.88994700  0.39420500  0.03405600  1
  O  O94  1  0.60579500  0.11005300  0.96594400  1
  O  O95  1  0.39420500  0.88994700  0.96594400  1
  O  O96  1  0.38994700  0.89420500  0.46594400  1
  O  O97  1  0.10579500  0.38994700  0.46594400  1
  O  O98  1  0.89420500  0.61005300  0.46594400  1
  O  O99  1  0.38994700  0.10579500  0.53405600  1
  O  O100  1  0.61005300  0.89420500  0.53405600  1
  O  O101  1  0.61005300  0.10579500  0.46594400  1
  O  O102  1  0.89420500  0.38994700  0.53405600  1
  O  O103  1  0.10579500  0.61005300  0.53405600  1
  O  O104  1  0.68749300  0.39287900  0.94053000  1
  O  O105  1  0.60712100  0.68749300  0.94053000  1
  O  O106  1  0.39287900  0.31250700  0.94053000  1
  O  O107  1  0.68749300  0.60712100  0.05947000  1
  O  O108  1  0.31250700  0.39287900  0.05947000  1
  O  O109  1  0.31250700  0.60712100  0.94053000  1
  O  O110  1  0.39287900  0.68749300  0.05947000  1
  O  O111  1  0.60712100  0.31250700  0.05947000  1
  O  O112  1  0.81250700  0.10712100  0.55947000  1
  O  O113  1  0.89287900  0.81250700  0.55947000  1
  O  O114  1  0.10712100  0.18749300  0.55947000  1
  O  O115  1  0.81250700  0.89287900  0.44053000  1
  O  O116  1  0.18749300  0.10712100  0.44053000  1
  O  O117  1  0.18749300  0.89287900  0.55947000  1
  O  O118  1  0.10712100  0.81250700  0.44053000  1
  O  O119  1  0.89287900  0.18749300  0.44053000  1
