# generated using pymatgen
data_Ni(IO3)2
_symmetry_space_group_name_H-M   'P 1'
_cell_length_a   5.90739599
_cell_length_b   5.90739599
_cell_length_c   5.17176400
_cell_angle_alpha   90.00000000
_cell_angle_beta   90.00000000
_cell_angle_gamma   119.99999994
_symmetry_Int_Tables_number   1
_chemical_formula_structural   Ni(IO3)2
_chemical_formula_sum   'Ni1 I2 O6'
_cell_volume   156.30090733
_cell_formula_units_Z   1
loop_
 _symmetry_equiv_pos_site_id
 _symmetry_equiv_pos_as_xyz
  1  'x, y, z'
loop_
 _atom_site_type_symbol
 _atom_site_label
 _atom_site_symmetry_multiplicity
 _atom_site_fract_x
 _atom_site_fract_y
 _atom_site_fract_z
 _atom_site_occupancy
  Ni  Ni0  1  0.00000000  0.00000000  0.00000000  1
  I  I1  1  0.66666700  0.33333300  0.05180800  1
  I  I2  1  0.33333300  0.66666700  0.94819200  1
  O  O3  1  0.34856000  0.17428000  0.22080600  1
  O  O4  1  0.82572000  0.65144000  0.22080600  1
  O  O5  1  0.82572000  0.17428000  0.22080600  1
  O  O6  1  0.65144000  0.82572000  0.77919400  1
  O  O7  1  0.17428000  0.34856000  0.77919400  1
  O  O8  1  0.17428000  0.82572000  0.77919400  1
