# generated using pymatgen
data_H10C5SeS2BrN3
_symmetry_space_group_name_H-M   'P 1'
_cell_length_a   9.12585500
_cell_length_b   11.99056200
_cell_length_c   22.37742200
_cell_angle_alpha   90.00000000
_cell_angle_beta   90.00000000
_cell_angle_gamma   90.00000000
_symmetry_Int_Tables_number   1
_chemical_formula_structural   H10C5SeS2BrN3
_chemical_formula_sum   'H80 C40 Se8 S16 Br8 N24'
_cell_volume   2448.62993803
_cell_formula_units_Z   8
loop_
 _symmetry_equiv_pos_site_id
 _symmetry_equiv_pos_as_xyz
  1  'x, y, z'
loop_
 _atom_site_type_symbol
 _atom_site_label
 _atom_site_symmetry_multiplicity
 _atom_site_fract_x
 _atom_site_fract_y
 _atom_site_fract_z
 _atom_site_occupancy
  H  H0  1  0.54611700  0.14459100  0.61104600  1
  H  H1  1  0.59540900  0.47003200  0.15820500  1
  H  H2  1  0.35145200  0.48431200  0.12023300  1
  H  H3  1  0.64854800  0.51568800  0.87976700  1
  H  H4  1  0.71553900  0.51729100  0.29025200  1
  H  H5  1  0.84262600  0.85908400  0.35383500  1
  H  H6  1  0.09540900  0.02996800  0.84179500  1
  H  H7  1  0.64854800  0.98431200  0.37976700  1
  H  H8  1  0.80067900  0.29146900  0.39592600  1
  H  H9  1  0.28981800  0.27144500  0.18314300  1
  H  H10  1  0.34597400  0.43502600  0.25083400  1
  H  H11  1  0.34262600  0.85908400  0.14616500  1
  H  H12  1  0.85145200  0.01568800  0.87976700  1
  H  H13  1  0.40459100  0.97003200  0.34179500  1
  H  H14  1  0.78446100  0.01729100  0.29025200  1
  H  H15  1  0.95388300  0.85540900  0.11104600  1
  H  H16  1  0.85145200  0.48431200  0.37976700  1
  H  H17  1  0.90459100  0.97003200  0.15820500  1
  H  H18  1  0.69932100  0.79146900  0.39592600  1
  H  H19  1  0.34597400  0.06497400  0.75083400  1
  H  H20  1  0.71553900  0.98270900  0.79025200  1
  H  H21  1  0.45388300  0.64459100  0.88895400  1
  H  H22  1  0.90459100  0.52996800  0.65820500  1
  H  H23  1  0.04611700  0.14459100  0.88895400  1
  H  H24  1  0.28446100  0.48270900  0.70974800  1
  H  H25  1  0.09540900  0.47003200  0.34179500  1
  H  H26  1  0.34262600  0.64091600  0.64616500  1
  H  H27  1  0.04880500  0.33641000  0.30915000  1
  H  H28  1  0.65402600  0.93502600  0.24916600  1
  H  H29  1  0.21553900  0.51729100  0.20974800  1
  H  H30  1  0.15737400  0.35908400  0.14616500  1
  H  H31  1  0.78446100  0.48270900  0.79025200  1
  H  H32  1  0.45119500  0.83641000  0.30915000  1
  H  H33  1  0.78981800  0.22855500  0.81685700  1
  H  H34  1  0.90308800  0.56338100  0.28249400  1
  H  H35  1  0.69932100  0.70853100  0.89592600  1
  H  H36  1  0.28446100  0.01729100  0.20974800  1
  H  H37  1  0.84597400  0.06497400  0.74916600  1
  H  H38  1  0.65737400  0.35908400  0.35383500  1
  H  H39  1  0.95388300  0.64459100  0.61104600  1
  H  H40  1  0.30067900  0.29146900  0.10407400  1
  H  H41  1  0.59691200  0.06338100  0.28249400  1
  H  H42  1  0.30067900  0.20853100  0.60407400  1
  H  H43  1  0.95119500  0.83641000  0.19085000  1
  H  H44  1  0.14854800  0.51568800  0.62023300  1
  H  H45  1  0.21018200  0.72855500  0.68314300  1
  H  H46  1  0.84262600  0.64091600  0.85383500  1
  H  H47  1  0.71018200  0.77144500  0.31685700  1
  H  H48  1  0.15737400  0.14091600  0.64616500  1
  H  H49  1  0.21018200  0.77144500  0.18314300  1
  H  H50  1  0.65737400  0.14091600  0.85383500  1
  H  H51  1  0.65402600  0.56497400  0.74916600  1
  H  H52  1  0.54611700  0.35540900  0.11104600  1
  H  H53  1  0.59540900  0.02996800  0.65820500  1
  H  H54  1  0.45388300  0.85540900  0.38895400  1
  H  H55  1  0.45119500  0.66359000  0.80915000  1
  H  H56  1  0.21553900  0.98270900  0.70974800  1
  H  H57  1  0.54880500  0.16359000  0.69085000  1
  H  H58  1  0.71018200  0.72855500  0.81685700  1
  H  H59  1  0.54880500  0.33641000  0.19085000  1
  H  H60  1  0.15402600  0.93502600  0.25083400  1
  H  H61  1  0.40308800  0.93661900  0.71750600  1
  H  H62  1  0.09691200  0.43661900  0.71750600  1
  H  H63  1  0.04880500  0.16359000  0.80915000  1
  H  H64  1  0.15402600  0.56497400  0.75083400  1
  H  H65  1  0.90308800  0.93661900  0.78249400  1
  H  H66  1  0.40308800  0.56338100  0.21750600  1
  H  H67  1  0.28981800  0.22855500  0.68314300  1
  H  H68  1  0.14854800  0.98431200  0.12023300  1
  H  H69  1  0.04611700  0.35540900  0.38895400  1
  H  H70  1  0.09691200  0.06338100  0.21750600  1
  H  H71  1  0.95119500  0.66359000  0.69085000  1
  H  H72  1  0.35145200  0.01568800  0.62023300  1
  H  H73  1  0.19932100  0.70853100  0.60407400  1
  H  H74  1  0.80067900  0.20853100  0.89592600  1
  H  H75  1  0.59691200  0.43661900  0.78249400  1
  H  H76  1  0.40459100  0.52996800  0.84179500  1
  H  H77  1  0.78981800  0.27144500  0.31685700  1
  H  H78  1  0.19932100  0.79146900  0.10407400  1
  H  H79  1  0.84597400  0.43502600  0.24916600  1
  C  C80  1  0.83042900  0.00896200  0.78730100  1
  C  C81  1  0.22840100  0.83081100  0.14671100  1
  C  C82  1  0.97345900  0.89541900  0.15437500  1
  C  C83  1  0.88217400  0.24081500  0.15896000  1
  C  C84  1  0.77159900  0.33081100  0.35328900  1
  C  C85  1  0.83042900  0.49103800  0.28730100  1
  C  C86  1  0.66957100  0.50896200  0.78730100  1
  C  C87  1  0.97345900  0.60458100  0.65437500  1
  C  C88  1  0.16957100  0.50896200  0.71269900  1
  C  C89  1  0.38217400  0.24081500  0.34104000  1
  C  C90  1  0.54817800  0.43036600  0.60387100  1
  C  C91  1  0.02654100  0.39541900  0.34562500  1
  C  C92  1  0.11782600  0.75918500  0.84104000  1
  C  C93  1  0.47345900  0.60458100  0.84562500  1
  C  C94  1  0.04817800  0.43036600  0.89612900  1
  C  C95  1  0.33042900  0.49103800  0.21269900  1
  C  C96  1  0.47345900  0.89541900  0.34562500  1
  C  C97  1  0.27159900  0.33081100  0.14671100  1
  C  C98  1  0.95182200  0.93036600  0.60387100  1
  C  C99  1  0.16957100  0.99103800  0.21269900  1
  C  C100  1  0.27159900  0.16918900  0.64671100  1
  C  C101  1  0.77159900  0.16918900  0.85328900  1
  C  C102  1  0.22840100  0.66918900  0.64671100  1
  C  C103  1  0.72840100  0.83081100  0.35328900  1
  C  C104  1  0.45182200  0.93036600  0.89612900  1
  C  C105  1  0.95182200  0.56963400  0.10387100  1
  C  C106  1  0.45182200  0.56963400  0.39612900  1
  C  C107  1  0.02654100  0.10458100  0.84562500  1
  C  C108  1  0.52654100  0.10458100  0.65437500  1
  C  C109  1  0.61782600  0.75918500  0.65896000  1
  C  C110  1  0.04817800  0.06963400  0.39612900  1
  C  C111  1  0.61782600  0.74081500  0.15896000  1
  C  C112  1  0.33042900  0.00896200  0.71269900  1
  C  C113  1  0.54817800  0.06963400  0.10387100  1
  C  C114  1  0.38217400  0.25918500  0.84104000  1
  C  C115  1  0.52654100  0.39541900  0.15437500  1
  C  C116  1  0.88217400  0.25918500  0.65896000  1
  C  C117  1  0.72840100  0.66918900  0.85328900  1
  C  C118  1  0.66957100  0.99103800  0.28730100  1
  C  C119  1  0.11782600  0.74081500  0.34104000  1
  Se  Se120  1  0.83444000  0.12106900  0.03775700  1
  Se  Se121  1  0.33444000  0.37893100  0.96224300  1
  Se  Se122  1  0.33444000  0.12106900  0.46224300  1
  Se  Se123  1  0.16556000  0.87893100  0.96224300  1
  Se  Se124  1  0.66556000  0.62106900  0.03775700  1
  Se  Se125  1  0.66556000  0.87893100  0.53775700  1
  Se  Se126  1  0.83444000  0.37893100  0.53775700  1
  Se  Se127  1  0.16556000  0.62106900  0.46224300  1
  S  S128  1  0.58197200  0.37014200  0.53803200  1
  S  S129  1  0.41802800  0.87014200  0.96196800  1
  S  S130  1  0.63168100  0.78714500  0.08880500  1
  S  S131  1  0.86831900  0.21285500  0.58880500  1
  S  S132  1  0.91802800  0.62985800  0.03803200  1
  S  S133  1  0.36831900  0.21285500  0.91119500  1
  S  S134  1  0.63168100  0.71285500  0.58880500  1
  S  S135  1  0.08197200  0.12985800  0.46196800  1
  S  S136  1  0.13168100  0.78714500  0.41119500  1
  S  S137  1  0.91802800  0.87014200  0.53803200  1
  S  S138  1  0.08197200  0.37014200  0.96196800  1
  S  S139  1  0.58197200  0.12985800  0.03803200  1
  S  S140  1  0.86831900  0.28714500  0.08880500  1
  S  S141  1  0.36831900  0.28714500  0.41119500  1
  S  S142  1  0.13168100  0.71285500  0.91119500  1
  S  S143  1  0.41802800  0.62985800  0.46196800  1
  Br  Br144  1  0.17252700  0.40970000  0.53799100  1
  Br  Br145  1  0.67252700  0.40970000  0.96200900  1
  Br  Br146  1  0.82747300  0.90970000  0.96200900  1
  Br  Br147  1  0.82747300  0.59030000  0.46200900  1
  Br  Br148  1  0.32747300  0.90970000  0.53799100  1
  Br  Br149  1  0.17252700  0.09030000  0.03799100  1
  Br  Br150  1  0.67252700  0.09030000  0.46200900  1
  Br  Br151  1  0.32747300  0.59030000  0.03799100  1
  N  N152  1  0.39270100  0.28764900  0.79067800  1
  N  N153  1  0.36890700  0.07047200  0.65655700  1
  N  N154  1  0.13109300  0.57047200  0.65655700  1
  N  N155  1  0.39270100  0.21235100  0.29067800  1
  N  N156  1  0.52152500  0.47190100  0.65041600  1
  N  N157  1  0.63109300  0.92952800  0.34344300  1
  N  N158  1  0.86890700  0.42952800  0.34344300  1
  N  N159  1  0.63109300  0.57047200  0.84344300  1
  N  N160  1  0.02152500  0.02809900  0.34958400  1
  N  N161  1  0.60729900  0.71235100  0.20932200  1
  N  N162  1  0.10729900  0.78764900  0.79067800  1
  N  N163  1  0.97847500  0.97190100  0.65041600  1
  N  N164  1  0.10729900  0.71235100  0.29067800  1
  N  N165  1  0.36890700  0.42952800  0.15655700  1
  N  N166  1  0.89270100  0.21235100  0.20932200  1
  N  N167  1  0.86890700  0.07047200  0.84344300  1
  N  N168  1  0.60729900  0.78764900  0.70932200  1
  N  N169  1  0.89270100  0.28764900  0.70932200  1
  N  N170  1  0.02152500  0.47190100  0.84958400  1
  N  N171  1  0.52152500  0.02809900  0.15041600  1
  N  N172  1  0.47847500  0.97190100  0.84958400  1
  N  N173  1  0.97847500  0.52809900  0.15041600  1
  N  N174  1  0.47847500  0.52809900  0.34958400  1
  N  N175  1  0.13109300  0.92952800  0.15655700  1
