# generated using pymatgen
data_OsBr2N3O2
_symmetry_space_group_name_H-M   'P 1'
_cell_length_a   11.76199100
_cell_length_b   9.16801400
_cell_length_c   11.58299713
_cell_angle_alpha   51.47803418
_cell_angle_beta   90.00000000
_cell_angle_gamma   90.00000000
_symmetry_Int_Tables_number   1
_chemical_formula_structural   OsBr2N3O2
_chemical_formula_sum   'Os4 Br8 N12 O8'
_cell_volume   977.21233113
_cell_formula_units_Z   4
loop_
 _symmetry_equiv_pos_site_id
 _symmetry_equiv_pos_as_xyz
  1  'x, y, z'
loop_
 _atom_site_type_symbol
 _atom_site_label
 _atom_site_symmetry_multiplicity
 _atom_site_fract_x
 _atom_site_fract_y
 _atom_site_fract_z
 _atom_site_occupancy
  Os  Os0  1  0.79290700  0.53855200  0.53113900  1
  Os  Os1  1  0.29290700  0.46144800  0.96886100  1
  Os  Os2  1  0.20709300  0.46144800  0.46886100  1
  Os  Os3  1  0.70709300  0.53855200  0.03113900  1
  Br  Br4  1  0.77033400  0.95215900  0.52751900  1
  Br  Br5  1  0.27033400  0.04784100  0.97248100  1
  Br  Br6  1  0.22966600  0.04784100  0.47248100  1
  Br  Br7  1  0.72966600  0.95215900  0.02751900  1
  Br  Br8  1  0.60643500  0.52190900  0.62321300  1
  Br  Br9  1  0.10643500  0.47809100  0.87678700  1
  Br  Br10  1  0.39356500  0.47809100  0.37678700  1
  Br  Br11  1  0.89356500  0.52190900  0.12321300  1
  N  N12  1  0.62893300  0.95719800  0.39769300  1
  N  N13  1  0.12893300  0.04280200  0.10230700  1
  N  N14  1  0.37106700  0.04280200  0.60230700  1
  N  N15  1  0.87106700  0.95719800  0.89769300  1
  N  N16  1  0.83008400  0.76985300  0.39051000  1
  N  N17  1  0.33008400  0.23014700  0.10949000  1
  N  N18  1  0.16991600  0.23014700  0.60949000  1
  N  N19  1  0.66991600  0.76985300  0.89051000  1
  N  N20  1  0.78365200  0.44536200  0.44057100  1
  N  N21  1  0.28365200  0.55463800  0.05942900  1
  N  N22  1  0.21634800  0.55463800  0.55942900  1
  N  N23  1  0.71634800  0.44536200  0.94057100  1
  O  O24  1  0.55087500  0.04484400  0.37907900  1
  O  O25  1  0.05087500  0.95515600  0.12092100  1
  O  O26  1  0.44912500  0.95515600  0.62092100  1
  O  O27  1  0.94912500  0.04484400  0.87907900  1
  O  O28  1  0.89684500  0.42278200  0.67014400  1
  O  O29  1  0.39684500  0.57721800  0.82985600  1
  O  O30  1  0.10315500  0.57721800  0.32985600  1
  O  O31  1  0.60315500  0.42278200  0.17014400  1
