# generated using pymatgen
data_LaH24C3N3(Cl2O)3
_symmetry_space_group_name_H-M   'P 1'
_cell_length_a   8.72138400
_cell_length_b   11.73312700
_cell_length_c   17.86837300
_cell_angle_alpha   90.00000000
_cell_angle_beta   90.00000000
_cell_angle_gamma   90.00000000
_symmetry_Int_Tables_number   1
_chemical_formula_structural   LaH24C3N3(Cl2O)3
_chemical_formula_sum   'La4 H96 C12 N12 Cl24 O12'
_cell_volume   1828.45463633
_cell_formula_units_Z   4
loop_
 _symmetry_equiv_pos_site_id
 _symmetry_equiv_pos_as_xyz
  1  'x, y, z'
loop_
 _atom_site_type_symbol
 _atom_site_label
 _atom_site_symmetry_multiplicity
 _atom_site_fract_x
 _atom_site_fract_y
 _atom_site_fract_z
 _atom_site_occupancy
  La  La0  1  0.25000000  0.90526300  0.98234000  1
  La  La1  1  0.25000000  0.59473700  0.48234000  1
  La  La2  1  0.75000000  0.40526300  0.51766000  1
  La  La3  1  0.75000000  0.09473700  0.01766000  1
  H  H4  1  0.84057100  0.13273400  0.19424700  1
  H  H5  1  0.35278200  0.45739200  0.17363500  1
  H  H6  1  0.84633000  0.79294700  0.53358500  1
  H  H7  1  0.85277800  0.99651200  0.55776800  1
  H  H8  1  0.35277800  0.00348800  0.44223200  1
  H  H9  1  0.25000000  0.32549500  0.88739200  1
  H  H10  1  0.15496400  0.03417500  0.22292500  1
  H  H11  1  0.25000000  0.43574600  0.30053900  1
  H  H12  1  0.84503600  0.96582500  0.77707500  1
  H  H13  1  0.34633000  0.20705300  0.46641500  1
  H  H14  1  0.15836700  0.13307500  0.06841600  1
  H  H15  1  0.84163300  0.86692500  0.93158400  1
  H  H16  1  0.15526200  0.31608700  0.27409800  1
  H  H17  1  0.35239600  0.65743900  0.77577800  1
  H  H18  1  0.75000000  0.96496300  0.47337200  1
  H  H19  1  0.25000000  0.55556900  0.66586600  1
  H  H20  1  0.64722200  0.50348800  0.05776800  1
  H  H21  1  0.65526200  0.81608700  0.22590200  1
  H  H22  1  0.65836700  0.63307500  0.43158400  1
  H  H23  1  0.34503600  0.46582500  0.72292500  1
  H  H24  1  0.34473800  0.31608700  0.27409800  1
  H  H25  1  0.65526200  0.68391300  0.72590200  1
  H  H26  1  0.15526200  0.18391300  0.77409800  1
  H  H27  1  0.64722200  0.99651200  0.55776800  1
  H  H28  1  0.85239600  0.15743900  0.72422200  1
  H  H29  1  0.65496400  0.53417500  0.27707500  1
  H  H30  1  0.15836700  0.36692500  0.56841600  1
  H  H31  1  0.65942900  0.36726600  0.69424700  1
  H  H32  1  0.64760400  0.34256100  0.22422200  1
  H  H33  1  0.75000000  0.05556900  0.83413400  1
  H  H34  1  0.34503600  0.03417500  0.22292500  1
  H  H35  1  0.34473800  0.18391300  0.77409800  1
  H  H36  1  0.85278200  0.95739200  0.32636500  1
  H  H37  1  0.84473800  0.68391300  0.72590200  1
  H  H38  1  0.65496400  0.96582500  0.77707500  1
  H  H39  1  0.65942900  0.13273400  0.19424700  1
  H  H40  1  0.84473800  0.81608700  0.22590200  1
  H  H41  1  0.34163300  0.36692500  0.56841600  1
  H  H42  1  0.64721800  0.54260800  0.82636500  1
  H  H43  1  0.75000000  0.44099500  0.16700000  1
  H  H44  1  0.84069800  0.26432100  0.87899600  1
  H  H45  1  0.75000000  0.67450500  0.11260800  1
  H  H46  1  0.75000000  0.66942600  0.85192500  1
  H  H47  1  0.35278200  0.04260800  0.67363500  1
  H  H48  1  0.14721800  0.45739200  0.17363500  1
  H  H49  1  0.65930200  0.23567900  0.37899600  1
  H  H50  1  0.15930200  0.76432100  0.62100400  1
  H  H51  1  0.84503600  0.53417500  0.27707500  1
  H  H52  1  0.85239600  0.34256100  0.22422200  1
  H  H53  1  0.34163300  0.13307500  0.06841600  1
  H  H54  1  0.84163300  0.63307500  0.43158400  1
  H  H55  1  0.85277800  0.50348800  0.05776800  1
  H  H56  1  0.65930200  0.26432100  0.87899600  1
  H  H57  1  0.34069800  0.76432100  0.62100400  1
  H  H58  1  0.75000000  0.82549500  0.61260800  1
  H  H59  1  0.25000000  0.46496300  0.02662800  1
  H  H60  1  0.75000000  0.53503700  0.97337200  1
  H  H61  1  0.35239600  0.84256100  0.27577800  1
  H  H62  1  0.64721800  0.95739200  0.32636500  1
  H  H63  1  0.25000000  0.55900500  0.83300000  1
  H  H64  1  0.75000000  0.05900500  0.66700000  1
  H  H65  1  0.25000000  0.17450500  0.38739200  1
  H  H66  1  0.75000000  0.93574600  0.19946100  1
  H  H67  1  0.84633000  0.70705300  0.03358500  1
  H  H68  1  0.15367000  0.29294700  0.96641500  1
  H  H69  1  0.14721800  0.04260800  0.67363500  1
  H  H70  1  0.25000000  0.94443100  0.16586600  1
  H  H71  1  0.35277800  0.49651200  0.94223200  1
  H  H72  1  0.75000000  0.83057400  0.35192500  1
  H  H73  1  0.75000000  0.44443100  0.33413400  1
  H  H74  1  0.85278200  0.54260800  0.82636500  1
  H  H75  1  0.34057100  0.63273400  0.30575300  1
  H  H76  1  0.84057100  0.36726600  0.69424700  1
  H  H77  1  0.25000000  0.33057400  0.14807500  1
  H  H78  1  0.15367000  0.20705300  0.46641500  1
  H  H79  1  0.75000000  0.56425400  0.69946100  1
  H  H80  1  0.25000000  0.16942600  0.64807500  1
  H  H81  1  0.14722200  0.00348800  0.44223200  1
  H  H82  1  0.34633000  0.29294700  0.96641500  1
  H  H83  1  0.34057100  0.86726600  0.80575300  1
  H  H84  1  0.25000000  0.94099500  0.33300000  1
  H  H85  1  0.14760400  0.65743900  0.77577800  1
  H  H86  1  0.25000000  0.06425400  0.80053900  1
  H  H87  1  0.84069800  0.23567900  0.37899600  1
  H  H88  1  0.65836700  0.86692500  0.93158400  1
  H  H89  1  0.34069800  0.73567900  0.12100400  1
  H  H90  1  0.65367000  0.79294700  0.53358500  1
  H  H91  1  0.64760400  0.15743900  0.72422200  1
  H  H92  1  0.65367000  0.70705300  0.03358500  1
  H  H93  1  0.15496400  0.46582500  0.72292500  1
  H  H94  1  0.15930200  0.73567900  0.12100400  1
  H  H95  1  0.25000000  0.03503700  0.52662800  1
  H  H96  1  0.14722200  0.49651200  0.94223200  1
  H  H97  1  0.15942900  0.86726600  0.80575300  1
  H  H98  1  0.14760400  0.84256100  0.27577800  1
  H  H99  1  0.15942900  0.63273400  0.30575300  1
  C  C100  1  0.75000000  0.54343000  0.03427600  1
  C  C101  1  0.25000000  0.45657000  0.96572400  1
  C  C102  1  0.25000000  0.40603400  0.18388800  1
  C  C103  1  0.75000000  0.59396600  0.81611200  1
  C  C104  1  0.25000000  0.04343000  0.46572400  1
  C  C105  1  0.25000000  0.60391600  0.77968500  1
  C  C106  1  0.75000000  0.95657000  0.53427600  1
  C  C107  1  0.25000000  0.89608400  0.27968500  1
  C  C108  1  0.75000000  0.39608400  0.22031500  1
  C  C109  1  0.25000000  0.09396600  0.68388800  1
  C  C110  1  0.75000000  0.90603400  0.31611200  1
  C  C111  1  0.75000000  0.10391600  0.72031500  1
  N  N112  1  0.75000000  0.48110100  0.28162500  1
  N  N113  1  0.25000000  0.98110100  0.21837500  1
  N  N114  1  0.75000000  0.86783800  0.23697700  1
  N  N115  1  0.25000000  0.33399800  0.94492400  1
  N  N116  1  0.75000000  0.01889900  0.78162500  1
  N  N117  1  0.25000000  0.36783800  0.26302300  1
  N  N118  1  0.75000000  0.63216200  0.73697700  1
  N  N119  1  0.75000000  0.66600200  0.05507600  1
  N  N120  1  0.75000000  0.83399800  0.55507600  1
  N  N121  1  0.25000000  0.16600200  0.44492400  1
  N  N122  1  0.25000000  0.51889900  0.71837500  1
  N  N123  1  0.25000000  0.13216200  0.76302300  1
  Cl  Cl124  1  0.96636300  0.56753600  0.58495900  1
  Cl  Cl125  1  0.46636300  0.43246400  0.41504100  1
  Cl  Cl126  1  0.52575400  0.26464400  0.06156800  1
  Cl  Cl127  1  0.01179000  0.33971800  0.79304500  1
  Cl  Cl128  1  0.47424600  0.76464400  0.43843200  1
  Cl  Cl129  1  0.02575400  0.76464400  0.43843200  1
  Cl  Cl130  1  0.03363700  0.06753600  0.91504100  1
  Cl  Cl131  1  0.53363700  0.93246400  0.08495900  1
  Cl  Cl132  1  0.96636300  0.93246400  0.08495900  1
  Cl  Cl133  1  0.01179000  0.16028200  0.29304500  1
  Cl  Cl134  1  0.48821000  0.16028200  0.29304500  1
  Cl  Cl135  1  0.97424600  0.26464400  0.06156800  1
  Cl  Cl136  1  0.51179000  0.66028200  0.20695500  1
  Cl  Cl137  1  0.46636300  0.06753600  0.91504100  1
  Cl  Cl138  1  0.51179000  0.83971800  0.70695500  1
  Cl  Cl139  1  0.98821000  0.66028200  0.20695500  1
  Cl  Cl140  1  0.48821000  0.33971800  0.79304500  1
  Cl  Cl141  1  0.03363700  0.43246400  0.41504100  1
  Cl  Cl142  1  0.47424600  0.73535600  0.93843200  1
  Cl  Cl143  1  0.53363700  0.56753600  0.58495900  1
  Cl  Cl144  1  0.52575400  0.23535600  0.56156800  1
  Cl  Cl145  1  0.98821000  0.83971800  0.70695500  1
  Cl  Cl146  1  0.97424600  0.23535600  0.56156800  1
  Cl  Cl147  1  0.02575400  0.73535600  0.93843200  1
  O  O148  1  0.75000000  0.39631000  0.66690400  1
  O  O149  1  0.25000000  0.72860600  0.59775100  1
  O  O150  1  0.25000000  0.08325400  0.06939300  1
  O  O151  1  0.75000000  0.91674600  0.93060700  1
  O  O152  1  0.75000000  0.10369000  0.16690400  1
  O  O153  1  0.25000000  0.89631000  0.83309600  1
  O  O154  1  0.25000000  0.41674600  0.56939300  1
  O  O155  1  0.75000000  0.27139400  0.40224900  1
  O  O156  1  0.75000000  0.22860600  0.90224900  1
  O  O157  1  0.75000000  0.58325400  0.43060700  1
  O  O158  1  0.25000000  0.60369000  0.33309600  1
  O  O159  1  0.25000000  0.77139400  0.09775100  1
