# generated using pymatgen
data_SiO2
_symmetry_space_group_name_H-M   'P 1'
_cell_length_a   10.75045378
_cell_length_b   10.75045378
_cell_length_c   10.44715300
_cell_angle_alpha   90.00000000
_cell_angle_beta   90.00000000
_cell_angle_gamma   130.04110287
_symmetry_Int_Tables_number   1
_chemical_formula_structural   SiO2
_chemical_formula_sum   'Si16 O32'
_cell_volume   924.36586340
_cell_formula_units_Z   16
loop_
 _symmetry_equiv_pos_site_id
 _symmetry_equiv_pos_as_xyz
  1  'x, y, z'
loop_
 _atom_site_type_symbol
 _atom_site_label
 _atom_site_symmetry_multiplicity
 _atom_site_fract_x
 _atom_site_fract_y
 _atom_site_fract_z
 _atom_site_occupancy
  Si  Si0  1  0.72072300  0.62995500  0.38293100  1
  Si  Si1  1  0.62995500  0.72072300  0.61706900  1
  Si  Si2  1  0.87004500  0.77927700  0.11706900  1
  Si  Si3  1  0.77927700  0.87004500  0.88293100  1
  Si  Si4  1  0.27927700  0.37004500  0.61706900  1
  Si  Si5  1  0.37004500  0.27927700  0.38293100  1
  Si  Si6  1  0.12995500  0.22072300  0.88293100  1
  Si  Si7  1  0.22072300  0.12995500  0.11706900  1
  Si  Si8  1  0.03072400  0.61679000  0.11510800  1
  Si  Si9  1  0.61679000  0.03072400  0.88489200  1
  Si  Si10  1  0.88321000  0.46927600  0.38489200  1
  Si  Si11  1  0.46927600  0.88321000  0.61510800  1
  Si  Si12  1  0.96927600  0.38321000  0.88489200  1
  Si  Si13  1  0.38321000  0.96927600  0.11510800  1
  Si  Si14  1  0.11679000  0.53072400  0.61510800  1
  Si  Si15  1  0.53072400  0.11679000  0.38489200  1
  O  O16  1  0.74213600  0.74213600  0.50000000  1
  O  O17  1  0.75786400  0.75786400  0.00000000  1
  O  O18  1  0.25786400  0.25786400  0.50000000  1
  O  O19  1  0.24213600  0.24213600  0.00000000  1
  O  O20  1  0.77060900  0.72939100  0.25000000  1
  O  O21  1  0.72939100  0.77060900  0.75000000  1
  O  O22  1  0.22939100  0.27060900  0.75000000  1
  O  O23  1  0.27060900  0.22939100  0.25000000  1
  O  O24  1  0.83547200  0.58356200  0.41012500  1
  O  O25  1  0.58356200  0.83547200  0.58987500  1
  O  O26  1  0.91643800  0.66452800  0.08987500  1
  O  O27  1  0.66452800  0.91643800  0.91012500  1
  O  O28  1  0.16452800  0.41643800  0.58987500  1
  O  O29  1  0.41643800  0.16452800  0.41012500  1
  O  O30  1  0.08356200  0.33547200  0.91012500  1
  O  O31  1  0.33547200  0.08356200  0.08987500  1
  O  O32  1  0.53225300  0.46774700  0.37062100  1
  O  O33  1  0.46774700  0.53225300  0.62937900  1
  O  O34  1  0.03225300  0.96774700  0.12937900  1
  O  O35  1  0.96774700  0.03225300  0.87062100  1
  O  O36  1  0.98081600  0.51918400  0.25000000  1
  O  O37  1  0.51918400  0.98081600  0.75000000  1
  O  O38  1  0.01918400  0.48081600  0.75000000  1
  O  O39  1  0.48081600  0.01918400  0.25000000  1
  O  O40  1  0.00000000  0.50000000  0.00000000  1
  O  O41  1  0.50000000  0.00000000  0.00000000  1
  O  O42  1  0.00000000  0.50000000  0.50000000  1
  O  O43  1  0.50000000  0.00000000  0.50000000  1
  O  O44  1  0.22142200  0.77857800  0.11956900  1
  O  O45  1  0.77857800  0.22142200  0.88043100  1
  O  O46  1  0.72142200  0.27857800  0.38043100  1
  O  O47  1  0.27857800  0.72142200  0.61956900  1
