# generated using pymatgen
data_Na3YH12(CO5)3
_symmetry_space_group_name_H-M   'P 1'
_cell_length_a   11.68265387
_cell_length_b   11.68265387
_cell_length_c   5.85853600
_cell_angle_alpha   90.00000000
_cell_angle_beta   90.00000000
_cell_angle_gamma   119.99999928
_symmetry_Int_Tables_number   1
_chemical_formula_structural   Na3YH12(CO5)3
_chemical_formula_sum   'Na6 Y2 H24 C6 O30'
_cell_volume   692.47286103
_cell_formula_units_Z   2
loop_
 _symmetry_equiv_pos_site_id
 _symmetry_equiv_pos_as_xyz
  1  'x, y, z'
loop_
 _atom_site_type_symbol
 _atom_site_label
 _atom_site_symmetry_multiplicity
 _atom_site_fract_x
 _atom_site_fract_y
 _atom_site_fract_z
 _atom_site_occupancy
  Na  Na0  1  0.63750900  0.63351400  0.17307600  1
  Na  Na1  1  0.99600500  0.36249100  0.17307600  1
  Na  Na2  1  0.36648600  0.00399500  0.17307600  1
  Na  Na3  1  0.36249100  0.36648600  0.67307600  1
  Na  Na4  1  0.63351400  0.99600500  0.67307600  1
  Na  Na5  1  0.00399500  0.63750900  0.67307600  1
  Y  Y6  1  0.33333300  0.66666700  0.91233300  1
  Y  Y7  1  0.66666700  0.33333300  0.41233300  1
  H  H8  1  0.11162700  0.68025900  0.14989200  1
  H  H9  1  0.13180400  0.00126600  0.93965700  1
  H  H10  1  0.09494100  0.23563900  0.54261100  1
  H  H11  1  0.31974100  0.43136800  0.14989200  1
  H  H12  1  0.68025900  0.56863200  0.64989200  1
  H  H13  1  0.56863200  0.88837300  0.14989200  1
  H  H14  1  0.43136800  0.11162700  0.64989200  1
  H  H15  1  0.21847800  0.71809100  0.35406800  1
  H  H16  1  0.28190900  0.50038700  0.35406800  1
  H  H17  1  0.13053800  0.13180400  0.43965700  1
  H  H18  1  0.90505900  0.76436100  0.04261100  1
  H  H19  1  0.88837300  0.31974100  0.64989200  1
  H  H20  1  0.86946200  0.86819600  0.93965700  1
  H  H21  1  0.78152200  0.28190900  0.85406800  1
  H  H22  1  0.00126600  0.86946200  0.43965700  1
  H  H23  1  0.99873400  0.13053800  0.93965700  1
  H  H24  1  0.76436100  0.85930200  0.54261100  1
  H  H25  1  0.49961300  0.78152200  0.35406800  1
  H  H26  1  0.50038700  0.21847800  0.85406800  1
  H  H27  1  0.23563900  0.14069800  0.04261100  1
  H  H28  1  0.86819600  0.99873400  0.43965700  1
  H  H29  1  0.71809100  0.49961300  0.85406800  1
  H  H30  1  0.14069800  0.90505900  0.54261100  1
  H  H31  1  0.85930200  0.09494100  0.04261100  1
  C  C32  1  0.12493400  0.44380300  0.67904000  1
  C  C33  1  0.55619700  0.68113100  0.67904000  1
  C  C34  1  0.87506600  0.55619700  0.17904000  1
  C  C35  1  0.31886900  0.87506600  0.67904000  1
  C  C36  1  0.68113100  0.12493400  0.17904000  1
  C  C37  1  0.44380300  0.31886900  0.17904000  1
  O  O38  1  0.65310000  0.68791500  0.56346200  1
  O  O39  1  0.29864200  0.50318700  0.18626700  1
  O  O40  1  0.90282800  0.50248100  0.34735800  1
  O  O41  1  0.49751900  0.40034700  0.34735800  1
  O  O42  1  0.49681300  0.79545500  0.18626700  1
  O  O43  1  0.50797700  0.75862300  0.63146700  1
  O  O44  1  0.59965300  0.09717200  0.34735800  1
  O  O45  1  0.50318700  0.20454500  0.68626700  1
  O  O46  1  0.95634900  0.14460900  0.07156000  1
  O  O47  1  0.96518500  0.65310000  0.06346200  1
  O  O48  1  0.75862300  0.25064600  0.13146700  1
  O  O49  1  0.70135800  0.49681300  0.68626700  1
  O  O50  1  0.68791500  0.03481500  0.06346200  1
  O  O51  1  0.03481500  0.34690000  0.56346200  1
  O  O52  1  0.25064600  0.49202300  0.63146700  1
  O  O53  1  0.40034700  0.90282800  0.84735800  1
  O  O54  1  0.85539100  0.81174100  0.07156000  1
  O  O55  1  0.81174100  0.95634900  0.57156000  1
  O  O56  1  0.24137700  0.74935400  0.63146700  1
  O  O57  1  0.74935400  0.50797700  0.13146700  1
  O  O58  1  0.31208500  0.96518500  0.56346200  1
  O  O59  1  0.20454500  0.70135800  0.18626700  1
  O  O60  1  0.49202300  0.24137700  0.13146700  1
  O  O61  1  0.50248100  0.59965300  0.84735800  1
  O  O62  1  0.09717200  0.49751900  0.84735800  1
  O  O63  1  0.79545500  0.29864200  0.68626700  1
  O  O64  1  0.14460900  0.18825900  0.57156000  1
  O  O65  1  0.04365100  0.85539100  0.57156000  1
  O  O66  1  0.18825900  0.04365100  0.07156000  1
  O  O67  1  0.34690000  0.31208500  0.06346200  1
