# generated using pymatgen
data_NaH2CSO4F3
_symmetry_space_group_name_H-M   'P 1'
_cell_length_a   5.49687600
_cell_length_b   6.53590400
_cell_length_c   17.69202400
_cell_angle_alpha   90.00000000
_cell_angle_beta   90.00000000
_cell_angle_gamma   90.00000000
_symmetry_Int_Tables_number   1
_chemical_formula_structural   NaH2CSO4F3
_chemical_formula_sum   'Na4 H8 C4 S4 O16 F12'
_cell_volume   635.62229871
_cell_formula_units_Z   4
loop_
 _symmetry_equiv_pos_site_id
 _symmetry_equiv_pos_as_xyz
  1  'x, y, z'
loop_
 _atom_site_type_symbol
 _atom_site_label
 _atom_site_symmetry_multiplicity
 _atom_site_fract_x
 _atom_site_fract_y
 _atom_site_fract_z
 _atom_site_occupancy
  Na  Na0  1  0.75000000  0.93502200  0.26324700  1
  Na  Na1  1  0.75000000  0.43502200  0.23675300  1
  Na  Na2  1  0.25000000  0.06497800  0.73675300  1
  Na  Na3  1  0.25000000  0.56497800  0.76324700  1
  H  H4  1  0.60614100  0.25488900  0.37527100  1
  H  H5  1  0.89385900  0.75488900  0.12472900  1
  H  H6  1  0.10614100  0.74511100  0.62472900  1
  H  H7  1  0.39385900  0.24511100  0.87527100  1
  H  H8  1  0.39385900  0.74511100  0.62472900  1
  H  H9  1  0.10614100  0.24511100  0.87527100  1
  H  H10  1  0.89385900  0.25488900  0.37527100  1
  H  H11  1  0.60614100  0.75488900  0.12472900  1
  C  C12  1  0.25000000  0.77707200  0.42906100  1
  C  C13  1  0.25000000  0.27707200  0.07093900  1
  C  C14  1  0.75000000  0.22292800  0.57093900  1
  C  C15  1  0.75000000  0.72292800  0.92906100  1
  S  S16  1  0.25000000  0.61219900  0.34296600  1
  S  S17  1  0.25000000  0.11219900  0.15703400  1
  S  S18  1  0.75000000  0.38780100  0.65703400  1
  S  S19  1  0.75000000  0.88780100  0.84296600  1
  O  O20  1  0.75000000  0.21266300  0.34679100  1
  O  O21  1  0.75000000  0.71266300  0.15320900  1
  O  O22  1  0.25000000  0.78733700  0.65320900  1
  O  O23  1  0.25000000  0.28733700  0.84679100  1
  O  O24  1  0.25000000  0.40375200  0.37279800  1
  O  O25  1  0.25000000  0.90375200  0.12720200  1
  O  O26  1  0.75000000  0.59624800  0.62720200  1
  O  O27  1  0.75000000  0.09624800  0.87279800  1
  O  O28  1  0.47333400  0.67127700  0.30386400  1
  O  O29  1  0.02666600  0.17127700  0.19613600  1
  O  O30  1  0.97333400  0.32872300  0.69613600  1
  O  O31  1  0.52666600  0.82872300  0.80386400  1
  O  O32  1  0.52666600  0.32872300  0.69613600  1
  O  O33  1  0.97333400  0.82872300  0.80386400  1
  O  O34  1  0.02666600  0.67127700  0.30386400  1
  O  O35  1  0.47333400  0.17127700  0.19613600  1
  F  F36  1  0.25000000  0.97787300  0.40948100  1
  F  F37  1  0.25000000  0.47787300  0.09051900  1
  F  F38  1  0.75000000  0.02212700  0.59051900  1
  F  F39  1  0.75000000  0.52212700  0.90948100  1
  F  F40  1  0.45000300  0.73964600  0.47171400  1
  F  F41  1  0.04999700  0.23964600  0.02828600  1
  F  F42  1  0.95000300  0.26035400  0.52828600  1
  F  F43  1  0.54999700  0.76035400  0.97171400  1
  F  F44  1  0.54999700  0.26035400  0.52828600  1
  F  F45  1  0.95000300  0.76035400  0.97171400  1
  F  F46  1  0.04999700  0.73964600  0.47171400  1
  F  F47  1  0.45000300  0.23964600  0.02828600  1
