# generated using pymatgen
data_Gd4P6H16O23
_symmetry_space_group_name_H-M   'P 1'
_cell_length_a   6.98652508
_cell_length_b   13.24610523
_cell_length_c   13.75073250
_cell_angle_alpha   109.25291811
_cell_angle_beta   89.84846688
_cell_angle_gamma   104.40296697
_symmetry_Int_Tables_number   1
_chemical_formula_structural   Gd4P6H16O23
_chemical_formula_sum   'Gd8 P12 H32 O46'
_cell_volume   1159.22889133
_cell_formula_units_Z   2
loop_
 _symmetry_equiv_pos_site_id
 _symmetry_equiv_pos_as_xyz
  1  'x, y, z'
loop_
 _atom_site_type_symbol
 _atom_site_label
 _atom_site_symmetry_multiplicity
 _atom_site_fract_x
 _atom_site_fract_y
 _atom_site_fract_z
 _atom_site_occupancy
  Gd  Gd0  1  0.32595500  0.61805900  0.89855300  1
  Gd  Gd1  1  0.67404500  0.38194100  0.10144700  1
  Gd  Gd2  1  0.84281500  0.11773700  0.90049600  1
  Gd  Gd3  1  0.15718500  0.88226300  0.09950400  1
  Gd  Gd4  1  0.49221600  0.63787500  0.61987100  1
  Gd  Gd5  1  0.97674500  0.86645300  0.37192400  1
  Gd  Gd6  1  0.02325500  0.13354700  0.62807600  1
  Gd  Gd7  1  0.50778400  0.36212500  0.38012900  1
  P  P8  1  0.33892000  0.39967100  0.64139500  1
  P  P9  1  0.49306800  0.85360300  0.88149500  1
  P  P10  1  0.50693200  0.14639700  0.11850500  1
  P  P11  1  0.01874200  0.41162600  0.30788600  1
  P  P12  1  0.98125800  0.58837400  0.69211400  1
  P  P13  1  0.66108000  0.60032900  0.35860500  1
  P  P14  1  0.99363900  0.64996600  0.11921100  1
  P  P15  1  0.88115700  0.89627600  0.64831200  1
  P  P16  1  0.11884300  0.10372400  0.35168800  1
  P  P17  1  0.00636100  0.35003400  0.88078900  1
  P  P18  1  0.51794900  0.09373900  0.68485500  1
  P  P19  1  0.48205100  0.90626100  0.31514500  1
  H  H20  1  0.40638600  0.35690400  0.90460300  1
  H  H21  1  0.73316500  0.57598700  0.94349000  1
  H  H22  1  0.28146000  0.09635000  0.86098500  1
  H  H23  1  0.02664300  0.85609500  0.68314000  1
  H  H24  1  0.89284300  0.84595400  0.89943300  1
  H  H25  1  0.37174400  0.89740100  0.83395000  1
  H  H26  1  0.98635900  0.24693400  0.12479400  1
  H  H27  1  0.88266400  0.38599600  0.82622900  1
  H  H28  1  0.71854000  0.90365000  0.13901500  1
  H  H29  1  0.49360500  0.36012600  0.66737500  1
  H  H30  1  0.26799200  0.41142600  0.16662300  1
  H  H31  1  0.94336800  0.47214600  0.65526500  1
  H  H32  1  0.47717000  0.73842300  0.12605300  1
  H  H33  1  0.19501000  0.69706700  0.52658800  1
  H  H34  1  0.53217400  0.02310100  0.35105600  1
  H  H35  1  0.52283000  0.26157700  0.87394700  1
  H  H36  1  0.26683500  0.42401300  0.05651000  1
  H  H37  1  0.50639500  0.63987400  0.33262500  1
  H  H38  1  0.97335700  0.14390500  0.31686000  1
  H  H39  1  0.64300000  0.22778300  0.52016600  1
  H  H40  1  0.46782600  0.97689900  0.64894400  1
  H  H41  1  0.05663200  0.52785400  0.34473500  1
  H  H42  1  0.62825600  0.10259900  0.16605000  1
  H  H43  1  0.01364100  0.75306600  0.87520600  1
  H  H44  1  0.77156600  0.93219800  0.03854200  1
  H  H45  1  0.11733600  0.61400400  0.17377100  1
  H  H46  1  0.80499000  0.30293300  0.47341200  1
  H  H47  1  0.59361400  0.64309600  0.09539700  1
  H  H48  1  0.35700000  0.77221700  0.47983400  1
  H  H49  1  0.73200800  0.58857400  0.83337700  1
  H  H50  1  0.10715700  0.15404600  0.10056700  1
  H  H51  1  0.22843400  0.06780200  0.96145800  1
  O  O52  1  0.57366800  0.13049000  0.80368800  1
  O  O53  1  0.50468300  0.74028800  0.80555300  1
  O  O54  1  0.33178900  0.12807500  0.66612700  1
  O  O55  1  0.14648900  0.30916000  0.62677900  1
  O  O56  1  0.95242400  0.37345800  0.18958700  1
  O  O57  1  0.68399200  0.81029600  0.63049600  1
  O  O58  1  0.30895600  0.86646500  0.37451800  1
  O  O59  1  0.16957200  0.07614700  0.90029300  1
  O  O60  1  0.03298100  0.23714200  0.81021300  1
  O  O61  1  0.83042800  0.92385300  0.09970700  1
  O  O62  1  0.95426400  0.92461200  0.55118500  1
  O  O63  1  0.49531700  0.25971200  0.19444700  1
  O  O64  1  0.65493800  0.48936200  0.27219700  1
  O  O65  1  0.38935100  0.43216200  0.54404900  1
  O  O66  1  0.10032500  0.67547400  0.02809800  1
  O  O67  1  0.11629400  0.98968500  0.27021300  1
  O  O68  1  0.30377400  0.05950300  0.08569000  1
  O  O69  1  0.88370600  0.01031500  0.72978700  1
  O  O70  1  0.67526600  0.29498900  0.50186500  1
  O  O71  1  0.69104400  0.13353500  0.62548200  1
  O  O72  1  0.14764100  0.63492500  0.63348300  1
  O  O73  1  0.32473400  0.70501100  0.49813500  1
  O  O74  1  0.31600800  0.18970400  0.36950400  1
  O  O75  1  0.79794300  0.55862200  0.08334200  1
  O  O76  1  0.04573600  0.07538800  0.44881500  1
  O  O77  1  0.60633200  0.17114900  0.02535000  1
  O  O78  1  0.00871800  0.82818400  0.92277800  1
  O  O79  1  0.61064900  0.56783800  0.45595100  1
  O  O80  1  0.78320400  0.61516200  0.68049100  1
  O  O81  1  0.69622600  0.94049700  0.91431000  1
  O  O82  1  0.34506200  0.51063800  0.72780300  1
  O  O83  1  0.21679600  0.38483800  0.31950900  1
  O  O84  1  0.85235900  0.36507500  0.36651700  1
  O  O85  1  0.99128200  0.17181600  0.07722200  1
  O  O86  1  0.42633200  0.86951000  0.19631200  1
  O  O87  1  0.64716100  0.57655200  0.88772600  1
  O  O88  1  0.35283900  0.42344800  0.11227400  1
  O  O89  1  0.04757600  0.62654200  0.81041300  1
  O  O90  1  0.85351100  0.69084000  0.37322100  1
  O  O91  1  0.96701900  0.76285800  0.18978700  1
  O  O92  1  0.39366800  0.82885100  0.97465000  1
  O  O93  1  0.48599000  0.66806400  0.07293900  1
  O  O94  1  0.51401000  0.33193600  0.92706100  1
  O  O95  1  0.20205700  0.44137800  0.91665800  1
  O  O96  1  0.66821100  0.87192500  0.33387300  1
  O  O97  1  0.89967500  0.32452600  0.97190200  1
