# generated using pymatgen
data_AlH20Ru(Cl3O5)2
_symmetry_space_group_name_H-M   'P 1'
_cell_length_a   11.56478100
_cell_length_b   7.10269100
_cell_length_c   12.41626259
_cell_angle_alpha   57.46979266
_cell_angle_beta   90.00000000
_cell_angle_gamma   90.00000000
_symmetry_Int_Tables_number   1
_chemical_formula_structural   AlH20Ru(Cl3O5)2
_chemical_formula_sum   'Al2 H40 Ru2 Cl12 O20'
_cell_volume   859.87329552
_cell_formula_units_Z   2
loop_
 _symmetry_equiv_pos_site_id
 _symmetry_equiv_pos_as_xyz
  1  'x, y, z'
loop_
 _atom_site_type_symbol
 _atom_site_label
 _atom_site_symmetry_multiplicity
 _atom_site_fract_x
 _atom_site_fract_y
 _atom_site_fract_z
 _atom_site_occupancy
  Al  Al0  1  0.50000000  0.00000000  0.50000000  1
  Al  Al1  1  0.00000000  0.00000000  0.00000000  1
  H  H2  1  0.86378200  0.24381700  0.81275300  1
  H  H3  1  0.32858700  0.96143100  0.88549600  1
  H  H4  1  0.15721600  0.30137300  0.20791000  1
  H  H5  1  0.80165300  0.82575200  0.10220900  1
  H  H6  1  0.84278400  0.69862700  0.79209000  1
  H  H7  1  0.54997400  0.77390900  0.39692000  1
  H  H8  1  0.90531100  0.65033800  0.18582200  1
  H  H9  1  0.65721600  0.69862700  0.29209000  1
  H  H10  1  0.95002600  0.77390900  0.89692000  1
  H  H11  1  0.61163500  0.87908400  0.07970100  1
  H  H12  1  0.45002600  0.22609100  0.60308000  1
  H  H13  1  0.40531100  0.34966200  0.31417800  1
  H  H14  1  0.03741100  0.98039800  0.80135400  1
  H  H15  1  0.28579200  0.40929100  0.57070300  1
  H  H16  1  0.38836500  0.12091600  0.92029900  1
  H  H17  1  0.87073300  0.34751400  0.90230100  1
  H  H18  1  0.46258900  0.98039800  0.30135400  1
  H  H19  1  0.30165300  0.17424800  0.39779100  1
  H  H20  1  0.96258900  0.01960200  0.19864600  1
  H  H21  1  0.71420800  0.59070900  0.42929700  1
  H  H22  1  0.13621800  0.75618300  0.18724700  1
  H  H23  1  0.63621800  0.24381700  0.31275300  1
  H  H24  1  0.34278400  0.30137300  0.70791000  1
  H  H25  1  0.82858700  0.03856900  0.61450400  1
  H  H26  1  0.17141300  0.96143100  0.38549600  1
  H  H27  1  0.21420800  0.40929100  0.07070300  1
  H  H28  1  0.04997400  0.22609100  0.10308000  1
  H  H29  1  0.78579200  0.59070900  0.92929700  1
  H  H30  1  0.37073300  0.65248600  0.59769900  1
  H  H31  1  0.09468900  0.34966200  0.81417800  1
  H  H32  1  0.62926700  0.34751400  0.40230100  1
  H  H33  1  0.53741100  0.01960200  0.69864600  1
  H  H34  1  0.67141300  0.03856900  0.11450400  1
  H  H35  1  0.11163500  0.12091600  0.42029900  1
  H  H36  1  0.12926700  0.65248600  0.09769900  1
  H  H37  1  0.88836500  0.87908400  0.57970100  1
  H  H38  1  0.19834700  0.17424800  0.89779100  1
  H  H39  1  0.36378200  0.75618300  0.68724700  1
  H  H40  1  0.69834700  0.82575200  0.60220900  1
  H  H41  1  0.59468900  0.65033800  0.68582200  1
  Ru  Ru42  1  0.00000000  0.50000000  0.50000000  1
  Ru  Ru43  1  0.50000000  0.50000000  0.00000000  1
  Cl  Cl44  1  0.56561600  0.37984600  0.86520000  1
  Cl  Cl45  1  0.17069600  0.66193600  0.37362000  1
  Cl  Cl46  1  0.06561600  0.62015400  0.63480000  1
  Cl  Cl47  1  0.60374300  0.84027200  0.87744400  1
  Cl  Cl48  1  0.10374300  0.15972800  0.62255600  1
  Cl  Cl49  1  0.82930400  0.33806400  0.62638000  1
  Cl  Cl50  1  0.43438400  0.62015400  0.13480000  1
  Cl  Cl51  1  0.93438400  0.37984600  0.36520000  1
  Cl  Cl52  1  0.67069600  0.33806400  0.12638000  1
  Cl  Cl53  1  0.39625700  0.15972800  0.12255600  1
  Cl  Cl54  1  0.89625700  0.84027200  0.37744400  1
  Cl  Cl55  1  0.32930400  0.66193600  0.87362000  1
  O  O56  1  0.82633600  0.88505300  0.63198500  1
  O  O57  1  0.61786000  0.20868300  0.40016100  1
  O  O58  1  0.11498800  0.21619800  0.90058000  1
  O  O59  1  0.64081000  0.59860500  0.38622900  1
  O  O60  1  0.32633600  0.11494700  0.86801500  1
  O  O61  1  0.67366400  0.88505300  0.13198500  1
  O  O62  1  0.50415400  0.10897900  0.61006300  1
  O  O63  1  0.11786000  0.79131700  0.09983900  1
  O  O64  1  0.14081000  0.40139500  0.11377100  1
  O  O65  1  0.38501200  0.21619800  0.40058000  1
  O  O66  1  0.49584600  0.89102100  0.38993700  1
  O  O67  1  0.99584600  0.10897900  0.11006300  1
  O  O68  1  0.61498800  0.78380200  0.59942000  1
  O  O69  1  0.88501200  0.78380200  0.09942000  1
  O  O70  1  0.00415400  0.89102100  0.88993700  1
  O  O71  1  0.85919000  0.59860500  0.88622900  1
  O  O72  1  0.88214000  0.20868300  0.90016100  1
  O  O73  1  0.38214000  0.79131700  0.59983900  1
  O  O74  1  0.17366400  0.11494700  0.36801500  1
  O  O75  1  0.35919000  0.40139500  0.61377100  1
