# generated using pymatgen
data_Mg3H13C9NO13
_symmetry_space_group_name_H-M   'P 1'
_cell_length_a   10.07933500
_cell_length_b   11.56518700
_cell_length_c   18.59785165
_cell_angle_alpha   53.01060952
_cell_angle_beta   90.00000000
_cell_angle_gamma   90.00000000
_symmetry_Int_Tables_number   1
_chemical_formula_structural   Mg3H13C9NO13
_chemical_formula_sum   'Mg12 H52 C36 N4 O52'
_cell_volume   1731.63566842
_cell_formula_units_Z   4
loop_
 _symmetry_equiv_pos_site_id
 _symmetry_equiv_pos_as_xyz
  1  'x, y, z'
loop_
 _atom_site_type_symbol
 _atom_site_label
 _atom_site_symmetry_multiplicity
 _atom_site_fract_x
 _atom_site_fract_y
 _atom_site_fract_z
 _atom_site_occupancy
  Mg  Mg0  1  0.92123400  0.38039400  0.86433900  1
  Mg  Mg1  1  0.57876600  0.38039400  0.36433900  1
  Mg  Mg2  1  0.07876600  0.61960600  0.13566100  1
  Mg  Mg3  1  0.42123400  0.61960600  0.63566100  1
  Mg  Mg4  1  0.00000000  0.50000000  0.00000000  1
  Mg  Mg5  1  0.50000000  0.50000000  0.50000000  1
  Mg  Mg6  1  0.61182000  0.42861000  0.80978300  1
  Mg  Mg7  1  0.88818000  0.42861000  0.30978300  1
  Mg  Mg8  1  0.38818000  0.57139000  0.19021700  1
  Mg  Mg9  1  0.11182000  0.57139000  0.69021700  1
  Mg  Mg10  1  0.00000000  0.00000000  0.00000000  1
  Mg  Mg11  1  0.50000000  0.00000000  0.50000000  1
  H  H12  1  0.04054100  0.79924200  0.72953400  1
  H  H13  1  0.45945900  0.79924200  0.22953400  1
  H  H14  1  0.95945900  0.20075800  0.27046600  1
  H  H15  1  0.54054100  0.20075800  0.77046600  1
  H  H16  1  0.60727700  0.48062100  0.95770300  1
  H  H17  1  0.89272300  0.48062100  0.45770300  1
  H  H18  1  0.39272300  0.51937900  0.04229700  1
  H  H19  1  0.10727700  0.51937900  0.54229700  1
  H  H20  1  0.71234700  0.00719400  0.97751600  1
  H  H21  1  0.78765300  0.00719400  0.47751600  1
  H  H22  1  0.28765300  0.99280600  0.02248400  1
  H  H23  1  0.21234700  0.99280600  0.52248400  1
  H  H24  1  0.24839700  0.47149100  0.87734100  1
  H  H25  1  0.25160300  0.47149100  0.37734100  1
  H  H26  1  0.75160300  0.52850900  0.12265900  1
  H  H27  1  0.74839700  0.52850900  0.62265900  1
  H  H28  1  0.16144000  0.23548500  0.07671400  1
  H  H29  1  0.33856000  0.23548500  0.57671400  1
  H  H30  1  0.83856000  0.76451500  0.92328600  1
  H  H31  1  0.66144000  0.76451500  0.42328600  1
  H  H32  1  0.21781600  0.25748400  0.77163100  1
  H  H33  1  0.28218400  0.25748400  0.27163100  1
  H  H34  1  0.78218400  0.74251600  0.22836900  1
  H  H35  1  0.71781600  0.74251600  0.72836900  1
  H  H36  1  0.88422100  0.02453800  0.60718800  1
  H  H37  1  0.61577900  0.02453800  0.10718800  1
  H  H38  1  0.11577900  0.97546200  0.39281200  1
  H  H39  1  0.38422100  0.97546200  0.89281200  1
  H  H40  1  0.78918300  0.96421200  0.70558000  1
  H  H41  1  0.71081700  0.96421200  0.20558000  1
  H  H42  1  0.21081700  0.03578800  0.29442000  1
  H  H43  1  0.28918300  0.03578800  0.79442000  1
  H  H44  1  0.74980900  0.13122200  0.60074700  1
  H  H45  1  0.75019100  0.13122200  0.10074700  1
  H  H46  1  0.25019100  0.86877800  0.39925300  1
  H  H47  1  0.24980900  0.86877800  0.89925300  1
  H  H48  1  0.94598300  0.24859400  0.71531300  1
  H  H49  1  0.55401700  0.24859400  0.21531300  1
  H  H50  1  0.05401700  0.75140600  0.28468700  1
  H  H51  1  0.44598300  0.75140600  0.78468700  1
  H  H52  1  0.78073300  0.24422100  0.68133700  1
  H  H53  1  0.71926700  0.24422100  0.18133700  1
  H  H54  1  0.21926700  0.75577900  0.31866300  1
  H  H55  1  0.28073300  0.75577900  0.81866300  1
  H  H56  1  0.84871300  0.08752600  0.78360400  1
  H  H57  1  0.65128700  0.08752600  0.28360400  1
  H  H58  1  0.15128700  0.91247400  0.21639600  1
  H  H59  1  0.34871300  0.91247400  0.71639600  1
  H  H60  1  0.07664200  0.11259300  0.59861600  1
  H  H61  1  0.42335800  0.11259300  0.09861600  1
  H  H62  1  0.92335800  0.88740700  0.40138400  1
  H  H63  1  0.57664200  0.88740700  0.90138400  1
  C  C64  1  0.01723700  0.68987200  0.79130800  1
  C  C65  1  0.48276300  0.68987200  0.29130800  1
  C  C66  1  0.98276300  0.31012800  0.20869200  1
  C  C67  1  0.51723700  0.31012800  0.70869200  1
  C  C68  1  0.71418800  0.47062400  0.94921400  1
  C  C69  1  0.78581200  0.47062400  0.44921400  1
  C  C70  1  0.28581200  0.52937600  0.05078600  1
  C  C71  1  0.21418800  0.52937600  0.55078600  1
  C  C72  1  0.72891500  0.12529700  0.93605400  1
  C  C73  1  0.77108500  0.12529700  0.43605400  1
  C  C74  1  0.27108500  0.87470300  0.06394600  1
  C  C75  1  0.22891500  0.87470300  0.56394600  1
  C  C76  1  0.32949600  0.48644400  0.83238300  1
  C  C77  1  0.17050400  0.48644400  0.33238300  1
  C  C78  1  0.67050400  0.51355600  0.16761700  1
  C  C79  1  0.82949600  0.51355600  0.66761700  1
  C  C80  1  0.09547000  0.22702300  0.03250000  1
  C  C81  1  0.40453000  0.22702300  0.53250000  1
  C  C82  1  0.90453000  0.77297700  0.96750000  1
  C  C83  1  0.59547000  0.77297700  0.46750000  1
  C  C84  1  0.14021600  0.23667300  0.82013300  1
  C  C85  1  0.35978400  0.23667300  0.32013300  1
  C  C86  1  0.85978400  0.76332700  0.17986700  1
  C  C87  1  0.64021600  0.76332700  0.67986700  1
  C  C88  1  0.83210200  0.05932800  0.64301400  1
  C  C89  1  0.66789800  0.05932800  0.14301400  1
  C  C90  1  0.16789800  0.94067200  0.35698600  1
  C  C91  1  0.33210200  0.94067200  0.85698600  1
  C  C92  1  0.87163600  0.18096400  0.71406700  1
  C  C93  1  0.62836400  0.18096400  0.21406700  1
  C  C94  1  0.12836400  0.81903600  0.28593300  1
  C  C95  1  0.37163600  0.81903600  0.78593300  1
  C  C96  1  0.05295200  0.15346400  0.63811300  1
  C  C97  1  0.44704800  0.15346400  0.13811300  1
  C  C98  1  0.94704800  0.84653600  0.36188700  1
  C  C99  1  0.55295200  0.84653600  0.86188700  1
  N  N100  1  0.92409800  0.13345200  0.66295400  1
  N  N101  1  0.57590200  0.13345200  0.16295400  1
  N  N102  1  0.07590200  0.86654800  0.33704600  1
  N  N103  1  0.42409800  0.86654800  0.83704600  1
  O  O104  1  0.00693400  0.58919200  0.78136900  1
  O  O105  1  0.49306600  0.58919200  0.28136900  1
  O  O106  1  0.99306600  0.41080800  0.21863100  1
  O  O107  1  0.50693400  0.41080800  0.71863100  1
  O  O108  1  0.00383600  0.67353000  0.86371700  1
  O  O109  1  0.49616400  0.67353000  0.36371700  1
  O  O110  1  0.99616400  0.32647000  0.13628300  1
  O  O111  1  0.50383600  0.32647000  0.63628300  1
  O  O112  1  0.74357500  0.45032300  0.88985300  1
  O  O113  1  0.75642500  0.45032300  0.38985300  1
  O  O114  1  0.25642500  0.54967700  0.11014700  1
  O  O115  1  0.24357500  0.54967700  0.61014700  1
  O  O116  1  0.79570500  0.47824100  0.99693300  1
  O  O117  1  0.70429500  0.47824100  0.49693300  1
  O  O118  1  0.20429500  0.52175900  0.00306700  1
  O  O119  1  0.29570500  0.52175900  0.50306700  1
  O  O120  1  0.84932400  0.16573000  0.93251600  1
  O  O121  1  0.65067600  0.16573000  0.43251600  1
  O  O122  1  0.15067600  0.83427000  0.06748400  1
  O  O123  1  0.34932400  0.83427000  0.56748400  1
  O  O124  1  0.63071900  0.20702200  0.89714300  1
  O  O125  1  0.86928100  0.20702200  0.39714300  1
  O  O126  1  0.36928100  0.79297800  0.10285700  1
  O  O127  1  0.13071900  0.79297800  0.60285700  1
  O  O128  1  0.80015800  0.44564200  0.75129500  1
  O  O129  1  0.69984200  0.44564200  0.25129500  1
  O  O130  1  0.19984200  0.55435800  0.24870500  1
  O  O131  1  0.30015800  0.55435800  0.74870500  1
  O  O132  1  0.44165800  0.43683300  0.86685900  1
  O  O133  1  0.05834200  0.43683300  0.36685900  1
  O  O134  1  0.55834200  0.56316700  0.13314100  1
  O  O135  1  0.94165800  0.56316700  0.63314100  1
  O  O136  1  0.02527200  0.34019800  0.97498100  1
  O  O137  1  0.47472800  0.34019800  0.47498100  1
  O  O138  1  0.97472800  0.65980200  0.02501900  1
  O  O139  1  0.52527200  0.65980200  0.52501900  1
  O  O140  1  0.09516300  0.11093800  0.04093100  1
  O  O141  1  0.40483700  0.11093800  0.54093100  1
  O  O142  1  0.90483700  0.88906200  0.95906900  1
  O  O143  1  0.59516300  0.88906200  0.45906900  1
  O  O144  1  0.07929100  0.34942000  0.80233400  1
  O  O145  1  0.42070900  0.34942000  0.30233400  1
  O  O146  1  0.92070900  0.65058000  0.19766600  1
  O  O147  1  0.57929100  0.65058000  0.69766600  1
  O  O148  1  0.11830000  0.10882900  0.88612600  1
  O  O149  1  0.38170000  0.10882900  0.38612600  1
  O  O150  1  0.88170000  0.89117100  0.11387400  1
  O  O151  1  0.61830000  0.89117100  0.61387400  1
  O  O152  1  0.13845300  0.21082300  0.65537900  1
  O  O153  1  0.36154700  0.21082300  0.15537900  1
  O  O154  1  0.86154700  0.78917700  0.34462100  1
  O  O155  1  0.63845300  0.78917700  0.84462100  1
