# generated using pymatgen
data_K2FePH5(CO5)2
_symmetry_space_group_name_H-M   'P 1'
_cell_length_a   10.48541300
_cell_length_b   11.91550800
_cell_length_c   15.76827200
_cell_angle_alpha   90.00000000
_cell_angle_beta   90.00000000
_cell_angle_gamma   90.00000000
_symmetry_Int_Tables_number   1
_chemical_formula_structural   K2FePH5(CO5)2
_chemical_formula_sum   'K16 Fe8 P8 H40 C16 O80'
_cell_volume   1970.07248995
_cell_formula_units_Z   8
loop_
 _symmetry_equiv_pos_site_id
 _symmetry_equiv_pos_as_xyz
  1  'x, y, z'
loop_
 _atom_site_type_symbol
 _atom_site_label
 _atom_site_symmetry_multiplicity
 _atom_site_fract_x
 _atom_site_fract_y
 _atom_site_fract_z
 _atom_site_occupancy
  K  K0  1  0.80039000  0.16753500  0.13115900  1
  K  K1  1  0.17201100  0.33268700  0.88455300  1
  K  K2  1  0.30039000  0.83246500  0.36884100  1
  K  K3  1  0.82798900  0.66731300  0.11544700  1
  K  K4  1  0.67201100  0.16731300  0.88455300  1
  K  K5  1  0.32798900  0.83268700  0.11544700  1
  K  K6  1  0.32798900  0.33268700  0.38455300  1
  K  K7  1  0.80039000  0.66753500  0.36884100  1
  K  K8  1  0.69961000  0.66753500  0.86884100  1
  K  K9  1  0.30039000  0.33246500  0.13115900  1
  K  K10  1  0.82798900  0.16731300  0.38455300  1
  K  K11  1  0.17201100  0.83268700  0.61544700  1
  K  K12  1  0.67201100  0.66731300  0.61544700  1
  K  K13  1  0.69961000  0.16753500  0.63115900  1
  K  K14  1  0.19961000  0.83246500  0.86884100  1
  K  K15  1  0.19961000  0.33246500  0.63115900  1
  Fe  Fe16  1  0.39583200  0.08281800  0.73867500  1
  Fe  Fe17  1  0.60416800  0.91718200  0.26132500  1
  Fe  Fe18  1  0.39583200  0.58281800  0.76132500  1
  Fe  Fe19  1  0.10416800  0.08281800  0.23867500  1
  Fe  Fe20  1  0.10416800  0.58281800  0.26132500  1
  Fe  Fe21  1  0.60416800  0.41718200  0.23867500  1
  Fe  Fe22  1  0.89583200  0.41718200  0.73867500  1
  Fe  Fe23  1  0.89583200  0.91718200  0.76132500  1
  P  P24  1  0.15546400  0.09410400  0.02319800  1
  P  P25  1  0.84453600  0.90589600  0.97680200  1
  P  P26  1  0.65546400  0.40589600  0.02319800  1
  P  P27  1  0.84453600  0.40589600  0.52319800  1
  P  P28  1  0.34453600  0.59410400  0.97680200  1
  P  P29  1  0.34453600  0.09410400  0.52319800  1
  P  P30  1  0.15546400  0.59410400  0.47680200  1
  P  P31  1  0.65546400  0.90589600  0.47680200  1
  H  H32  1  0.43358600  0.64617100  0.45796700  1
  H  H33  1  0.53276700  0.59831900  0.04029900  1
  H  H34  1  0.96723300  0.09831900  0.95970100  1
  H  H35  1  0.45578700  0.27707500  0.58242700  1
  H  H36  1  0.56641400  0.85382900  0.95796700  1
  H  H37  1  0.03276700  0.40168100  0.45970100  1
  H  H38  1  0.46723300  0.40168100  0.95970100  1
  H  H39  1  0.93317600  0.01809100  0.60380300  1
  H  H40  1  0.64385500  0.90399800  0.08204100  1
  H  H41  1  0.14385500  0.09600200  0.41795900  1
  H  H42  1  0.96723300  0.59831900  0.54029900  1
  H  H43  1  0.43317600  0.48190900  0.60380300  1
  H  H44  1  0.43358600  0.14617100  0.04203300  1
  H  H45  1  0.54421300  0.22292500  0.08242700  1
  H  H46  1  0.14385500  0.59600200  0.08204100  1
  H  H47  1  0.04421300  0.77707500  0.41757300  1
  H  H48  1  0.03276700  0.90168100  0.04029900  1
  H  H49  1  0.43317600  0.98190900  0.89619700  1
  H  H50  1  0.06641400  0.14617100  0.54203300  1
  H  H51  1  0.95578700  0.72292500  0.91757300  1
  H  H52  1  0.93317600  0.51809100  0.89619700  1
  H  H53  1  0.56682400  0.51809100  0.39619700  1
  H  H54  1  0.95578700  0.22292500  0.58242700  1
  H  H55  1  0.56682400  0.01809100  0.10380300  1
  H  H56  1  0.04421300  0.27707500  0.08242700  1
  H  H57  1  0.54421300  0.72292500  0.41757300  1
  H  H58  1  0.35614500  0.59600200  0.58204100  1
  H  H59  1  0.85614500  0.40399800  0.91795900  1
  H  H60  1  0.35614500  0.09600200  0.91795900  1
  H  H61  1  0.45578700  0.77707500  0.91757300  1
  H  H62  1  0.85614500  0.90399800  0.58204100  1
  H  H63  1  0.06682400  0.98190900  0.39619700  1
  H  H64  1  0.93358600  0.85382900  0.45796700  1
  H  H65  1  0.56641400  0.35382900  0.54203300  1
  H  H66  1  0.93358600  0.35382900  0.04203300  1
  H  H67  1  0.64385500  0.40399800  0.41795900  1
  H  H68  1  0.06682400  0.48190900  0.10380300  1
  H  H69  1  0.06641400  0.64617100  0.95796700  1
  H  H70  1  0.53276700  0.09831900  0.45970100  1
  H  H71  1  0.46723300  0.90168100  0.54029900  1
  C  C72  1  0.10272700  0.08648100  0.75948200  1
  C  C73  1  0.89727300  0.41351900  0.25948200  1
  C  C74  1  0.97739900  0.15579700  0.76526300  1
  C  C75  1  0.10272700  0.58648000  0.74051800  1
  C  C76  1  0.60272700  0.41351900  0.75948200  1
  C  C77  1  0.60272700  0.91352000  0.74051800  1
  C  C78  1  0.02260100  0.34420300  0.26526300  1
  C  C79  1  0.39727300  0.08648100  0.25948200  1
  C  C80  1  0.52260100  0.15579700  0.26526300  1
  C  C81  1  0.52260100  0.65579700  0.23473700  1
  C  C82  1  0.47739900  0.84420300  0.73473700  1
  C  C83  1  0.97739900  0.65579700  0.73473700  1
  C  C84  1  0.02260100  0.84420300  0.23473700  1
  C  C85  1  0.47739900  0.34420300  0.76526300  1
  C  C86  1  0.89727300  0.91352000  0.24051800  1
  C  C87  1  0.39727300  0.58648000  0.24051800  1
  O  O88  1  0.98911900  0.26117500  0.76294500  1
  O  O89  1  0.94529800  0.36575100  0.45136100  1
  O  O90  1  0.01088100  0.73882500  0.23705500  1
  O  O91  1  0.87349100  0.10076800  0.77030100  1
  O  O92  1  0.58942600  0.94222900  0.12590100  1
  O  O93  1  0.77948400  0.34283000  0.99984900  1
  O  O94  1  0.97854500  0.64456200  0.93365700  1
  O  O95  1  0.16814200  0.96579300  0.02038200  1
  O  O96  1  0.55470200  0.86575100  0.54863900  1
  O  O97  1  0.98911900  0.76117500  0.73705500  1
  O  O98  1  0.79379400  0.35910700  0.25143500  1
  O  O99  1  0.05470200  0.63424900  0.54863900  1
  O  O100  1  0.20620600  0.64089300  0.74856500  1
  O  O101  1  0.51088100  0.76117500  0.23705500  1
  O  O102  1  0.91057400  0.44222900  0.87409900  1
  O  O103  1  0.97854500  0.14456200  0.56634300  1
  O  O104  1  0.44529800  0.13424900  0.45136100  1
  O  O105  1  0.01088100  0.23882500  0.26294500  1
  O  O106  1  0.33185800  0.46579300  0.97961800  1
  O  O107  1  0.58942600  0.44222900  0.37409900  1
  O  O108  1  0.87349100  0.60076800  0.72969900  1
  O  O109  1  0.83185800  0.03420700  0.97961800  1
  O  O110  1  0.48911900  0.73882500  0.73705500  1
  O  O111  1  0.10071100  0.13848800  0.10885800  1
  O  O112  1  0.62650900  0.10076800  0.27030100  1
  O  O113  1  0.37349100  0.89923200  0.72969900  1
  O  O114  1  0.47854500  0.35543800  0.56634300  1
  O  O115  1  0.77948400  0.84283000  0.50015100  1
  O  O116  1  0.66814200  0.53420700  0.02038200  1
  O  O117  1  0.47854500  0.85543800  0.93365700  1
  O  O118  1  0.91057400  0.94222900  0.62590100  1
  O  O119  1  0.89928900  0.36151200  0.60885800  1
  O  O120  1  0.83185800  0.53420700  0.52038200  1
  O  O121  1  0.72051600  0.34283000  0.49984900  1
  O  O122  1  0.70620600  0.35910700  0.75143500  1
  O  O123  1  0.29379400  0.64089300  0.24856500  1
  O  O124  1  0.22051600  0.15717000  0.49984900  1
  O  O125  1  0.60071100  0.86151200  0.39114200  1
  O  O126  1  0.08942600  0.05777100  0.37409900  1
  O  O127  1  0.52145500  0.14456200  0.06634300  1
  O  O128  1  0.59211600  0.51961800  0.76118500  1
  O  O129  1  0.89928900  0.86151200  0.89114200  1
  O  O130  1  0.29379400  0.14089300  0.25143500  1
  O  O131  1  0.48911900  0.23882500  0.76294500  1
  O  O132  1  0.90788400  0.01961800  0.23881500  1
  O  O133  1  0.41057400  0.55777100  0.62590100  1
  O  O134  1  0.02145500  0.35543800  0.06634300  1
  O  O135  1  0.27948400  0.65717000  0.50015100  1
  O  O136  1  0.22051600  0.65717000  0.00015100  1
  O  O137  1  0.62650900  0.60076800  0.22969900  1
  O  O138  1  0.72051600  0.84283000  0.00015100  1
  O  O139  1  0.90788400  0.51961800  0.26118500  1
  O  O140  1  0.09211600  0.48038200  0.73881500  1
  O  O141  1  0.55470200  0.36575100  0.95136100  1
  O  O142  1  0.10071100  0.63848800  0.39114200  1
  O  O143  1  0.59211600  0.01961800  0.73881500  1
  O  O144  1  0.02145500  0.85543800  0.43365700  1
  O  O145  1  0.66814200  0.03420700  0.47961800  1
  O  O146  1  0.09211600  0.98038200  0.76118500  1
  O  O147  1  0.40788400  0.98038200  0.26118500  1
  O  O148  1  0.16814200  0.46579300  0.47961800  1
  O  O149  1  0.05470200  0.13424900  0.95136100  1
  O  O150  1  0.20620600  0.14089300  0.75143500  1
  O  O151  1  0.52145500  0.64456200  0.43365700  1
  O  O152  1  0.51088100  0.26117500  0.26294500  1
  O  O153  1  0.08942600  0.55777100  0.12590100  1
  O  O154  1  0.94529800  0.86575100  0.04863900  1
  O  O155  1  0.33185800  0.96579300  0.52038200  1
  O  O156  1  0.12650900  0.39923200  0.27030100  1
  O  O157  1  0.39928900  0.13848800  0.60885800  1
  O  O158  1  0.12650900  0.89923200  0.22969900  1
  O  O159  1  0.39928900  0.63848800  0.89114200  1
  O  O160  1  0.41057400  0.05777100  0.87409900  1
  O  O161  1  0.70620600  0.85910700  0.74856500  1
  O  O162  1  0.27948400  0.15717000  0.99984900  1
  O  O163  1  0.40788400  0.48038200  0.23881500  1
  O  O164  1  0.60071100  0.36151200  0.10885800  1
  O  O165  1  0.37349100  0.39923200  0.77030100  1
  O  O166  1  0.79379400  0.85910700  0.24856500  1
  O  O167  1  0.44529800  0.63424900  0.04863900  1
