# generated using pymatgen
data_NaZnMoO5
_symmetry_space_group_name_H-M   'P 1'
_cell_length_a   6.22349800
_cell_length_b   7.96443900
_cell_length_c   9.41407700
_cell_angle_alpha   90.00000000
_cell_angle_beta   90.00000000
_cell_angle_gamma   90.00000000
_symmetry_Int_Tables_number   1
_chemical_formula_structural   NaZnMoO5
_chemical_formula_sum   'Na4 Zn4 Mo4 O20'
_cell_volume   466.62444978
_cell_formula_units_Z   4
loop_
 _symmetry_equiv_pos_site_id
 _symmetry_equiv_pos_as_xyz
  1  'x, y, z'
loop_
 _atom_site_type_symbol
 _atom_site_label
 _atom_site_symmetry_multiplicity
 _atom_site_fract_x
 _atom_site_fract_y
 _atom_site_fract_z
 _atom_site_occupancy
  Na  Na0  1  0.65623700  0.86006500  0.18561300  1
  Na  Na1  1  0.15623700  0.13993500  0.81438700  1
  Na  Na2  1  0.15623700  0.63993500  0.68561300  1
  Na  Na3  1  0.65623700  0.36006500  0.31438700  1
  Zn  Zn4  1  0.40424600  0.00585400  0.49790300  1
  Zn  Zn5  1  0.90424600  0.99414600  0.50209700  1
  Zn  Zn6  1  0.90424600  0.49414600  0.99790300  1
  Zn  Zn7  1  0.40424600  0.50585400  0.00209700  1
  Mo  Mo8  1  0.15212500  0.62164900  0.32687300  1
  Mo  Mo9  1  0.65212500  0.37835100  0.67312700  1
  Mo  Mo10  1  0.65212500  0.87835100  0.82687300  1
  Mo  Mo11  1  0.15212500  0.12164900  0.17312700  1
  O  O12  1  0.91168900  0.60681200  0.22077200  1
  O  O13  1  0.41168900  0.39318800  0.77922800  1
  O  O14  1  0.41168900  0.89318800  0.72077200  1
  O  O15  1  0.91168900  0.10681200  0.27922800  1
  O  O16  1  0.39000500  0.61189400  0.21505700  1
  O  O17  1  0.89000500  0.38810600  0.78494300  1
  O  O18  1  0.89000500  0.88810600  0.71505700  1
  O  O19  1  0.39000500  0.11189400  0.28494300  1
  O  O20  1  0.15794500  0.95228000  0.05434500  1
  O  O21  1  0.65794500  0.04772000  0.94565500  1
  O  O22  1  0.65794500  0.54772000  0.55434500  1
  O  O23  1  0.15794500  0.45228000  0.44565500  1
  O  O24  1  0.65072600  0.38221700  0.06802500  1
  O  O25  1  0.15072600  0.61778300  0.93197500  1
  O  O26  1  0.15072600  0.11778300  0.56802500  1
  O  O27  1  0.65072600  0.88221700  0.43197500  1
  O  O28  1  0.15211800  0.81193600  0.43682200  1
  O  O29  1  0.65211800  0.18806400  0.56317800  1
  O  O30  1  0.65211800  0.68806400  0.93682200  1
  O  O31  1  0.15211800  0.31193600  0.06317800  1
