# generated using pymatgen
data_Na2Mo(H2O3)2
_symmetry_space_group_name_H-M   'P 1'
_cell_length_a   8.27600800
_cell_length_b   11.39756900
_cell_length_c   14.41427800
_cell_angle_alpha   90.00000000
_cell_angle_beta   90.00000000
_cell_angle_gamma   90.00000000
_symmetry_Int_Tables_number   1
_chemical_formula_structural   Na2Mo(H2O3)2
_chemical_formula_sum   'Na16 Mo8 H32 O48'
_cell_volume   1359.64655198
_cell_formula_units_Z   8
loop_
 _symmetry_equiv_pos_site_id
 _symmetry_equiv_pos_as_xyz
  1  'x, y, z'
loop_
 _atom_site_type_symbol
 _atom_site_label
 _atom_site_symmetry_multiplicity
 _atom_site_fract_x
 _atom_site_fract_y
 _atom_site_fract_z
 _atom_site_occupancy
  Na  Na0  1  0.82291100  0.98347500  0.16206000  1
  Na  Na1  1  0.67708900  0.48347500  0.16206000  1
  Na  Na2  1  0.18398600  0.52151400  0.56944200  1
  Na  Na3  1  0.31601400  0.47848600  0.06944200  1
  Na  Na4  1  0.82291100  0.51652500  0.66206000  1
  Na  Na5  1  0.17708900  0.48347500  0.33794000  1
  Na  Na6  1  0.68398600  0.52151400  0.93055800  1
  Na  Na7  1  0.81601400  0.02151400  0.93055800  1
  Na  Na8  1  0.81601400  0.47848600  0.43055800  1
  Na  Na9  1  0.68398600  0.97848600  0.43055800  1
  Na  Na10  1  0.32291100  0.98347500  0.33794000  1
  Na  Na11  1  0.32291100  0.51652500  0.83794000  1
  Na  Na12  1  0.31601400  0.02151400  0.56944200  1
  Na  Na13  1  0.17708900  0.01652500  0.83794000  1
  Na  Na14  1  0.18398600  0.97848600  0.06944200  1
  Na  Na15  1  0.67708900  0.01652500  0.66206000  1
  Mo  Mo16  1  0.97087600  0.72780800  0.04571500  1
  Mo  Mo17  1  0.02912400  0.27219200  0.95428500  1
  Mo  Mo18  1  0.47087600  0.72780800  0.45428500  1
  Mo  Mo19  1  0.02912400  0.22780800  0.45428500  1
  Mo  Mo20  1  0.52912400  0.22780800  0.04571500  1
  Mo  Mo21  1  0.97087600  0.77219200  0.54571500  1
  Mo  Mo22  1  0.52912400  0.27219200  0.54571500  1
  Mo  Mo23  1  0.47087600  0.77219200  0.95428500  1
  H  H24  1  0.01945300  0.95094700  0.66332300  1
  H  H25  1  0.51366800  0.91617600  0.18044100  1
  H  H26  1  0.12274100  0.74201400  0.90187800  1
  H  H27  1  0.51945300  0.54905300  0.33667700  1
  H  H28  1  0.98054700  0.04905300  0.33667700  1
  H  H29  1  0.48054700  0.45094700  0.66332300  1
  H  H30  1  0.12039400  0.75083900  0.19452600  1
  H  H31  1  0.37960600  0.25083900  0.19452600  1
  H  H32  1  0.62039400  0.75083900  0.30547400  1
  H  H33  1  0.98633200  0.41617600  0.18044100  1
  H  H34  1  0.37725900  0.25798600  0.40187800  1
  H  H35  1  0.98633200  0.08382400  0.68044100  1
  H  H36  1  0.48633200  0.08382400  0.81955900  1
  H  H37  1  0.62039400  0.74916100  0.80547400  1
  H  H38  1  0.37960600  0.24916100  0.69452600  1
  H  H39  1  0.51366800  0.58382400  0.68044100  1
  H  H40  1  0.98054700  0.45094700  0.83667700  1
  H  H41  1  0.48054700  0.04905300  0.16332300  1
  H  H42  1  0.01366800  0.91617600  0.31955900  1
  H  H43  1  0.12274100  0.75798600  0.40187800  1
  H  H44  1  0.87725900  0.25798600  0.09812200  1
  H  H45  1  0.87725900  0.24201400  0.59812200  1
  H  H46  1  0.48633200  0.41617600  0.31955900  1
  H  H47  1  0.87960600  0.25083900  0.30547400  1
  H  H48  1  0.01945300  0.54905300  0.16332300  1
  H  H49  1  0.62274100  0.74201400  0.59812200  1
  H  H50  1  0.87960600  0.24916100  0.80547400  1
  H  H51  1  0.01366800  0.58382400  0.81955900  1
  H  H52  1  0.37725900  0.24201400  0.90187800  1
  H  H53  1  0.12039400  0.74916100  0.69452600  1
  H  H54  1  0.51945300  0.95094700  0.83667700  1
  H  H55  1  0.62274100  0.75798600  0.09812200  1
  O  O56  1  0.06688400  0.11559500  0.97408300  1
  O  O57  1  0.45217600  0.30793400  0.16537600  1
  O  O58  1  0.04782400  0.69206600  0.66537600  1
  O  O59  1  0.93311600  0.61559500  0.52591700  1
  O  O60  1  0.02120900  0.69746900  0.91279400  1
  O  O61  1  0.37958600  0.12064300  0.08572200  1
  O  O62  1  0.12041400  0.62064300  0.08572200  1
  O  O63  1  0.47571900  0.49333700  0.28822000  1
  O  O64  1  0.47879100  0.30253100  0.41279400  1
  O  O65  1  0.97879100  0.19746900  0.58720600  1
  O  O66  1  0.52120900  0.69746900  0.58720600  1
  O  O67  1  0.97879100  0.30253100  0.08720600  1
  O  O68  1  0.93311600  0.88440500  0.02591700  1
  O  O69  1  0.62041400  0.87935700  0.91427800  1
  O  O70  1  0.95217600  0.30793400  0.33462400  1
  O  O71  1  0.97571900  0.49333700  0.21178000  1
  O  O72  1  0.28081200  0.65749800  0.43297200  1
  O  O73  1  0.97571900  0.00666300  0.71178000  1
  O  O74  1  0.62041400  0.62064300  0.41427800  1
  O  O75  1  0.52428100  0.50666300  0.71178000  1
  O  O76  1  0.02428100  0.50666300  0.78822000  1
  O  O77  1  0.28081200  0.84250200  0.93297200  1
  O  O78  1  0.43311600  0.88440500  0.47408300  1
  O  O79  1  0.21918800  0.15749800  0.43297200  1
  O  O80  1  0.56688400  0.38440500  0.02591700  1
  O  O81  1  0.87958600  0.37935700  0.91427800  1
  O  O82  1  0.87958600  0.12064300  0.41427800  1
  O  O83  1  0.52120900  0.80253100  0.08720600  1
  O  O84  1  0.56688400  0.11559500  0.52591700  1
  O  O85  1  0.12041400  0.87935700  0.58572200  1
  O  O86  1  0.43311600  0.61559500  0.97408300  1
  O  O87  1  0.37958600  0.37935700  0.58572200  1
  O  O88  1  0.47571900  0.00666300  0.78822000  1
  O  O89  1  0.21918800  0.34250200  0.93297200  1
  O  O90  1  0.78081200  0.84250200  0.56702800  1
  O  O91  1  0.47879100  0.19746900  0.91279400  1
  O  O92  1  0.54782400  0.80793400  0.33462400  1
  O  O93  1  0.54782400  0.69206600  0.83462400  1
  O  O94  1  0.45217600  0.19206600  0.66537600  1
  O  O95  1  0.06688400  0.38440500  0.47408300  1
  O  O96  1  0.71918800  0.15749800  0.06702800  1
  O  O97  1  0.95217600  0.19206600  0.83462400  1
  O  O98  1  0.04782400  0.80793400  0.16537600  1
  O  O99  1  0.78081200  0.65749800  0.06702800  1
  O  O100  1  0.52428100  0.99333700  0.21178000  1
  O  O101  1  0.02120900  0.80253100  0.41279400  1
  O  O102  1  0.02428100  0.99333700  0.28822000  1
  O  O103  1  0.71918800  0.34250200  0.56702800  1
