# generated using pymatgen
data_InP3(HO5)2
_symmetry_space_group_name_H-M   'P 1'
_cell_length_a   9.32536200
_cell_length_b   9.15163400
_cell_length_c   14.24843868
_cell_angle_alpha   65.90710327
_cell_angle_beta   90.00000000
_cell_angle_gamma   90.00000000
_symmetry_Int_Tables_number   1
_chemical_formula_structural   InP3(HO5)2
_chemical_formula_sum   'In4 P12 H8 O40'
_cell_volume   1110.06291298
_cell_formula_units_Z   4
loop_
 _symmetry_equiv_pos_site_id
 _symmetry_equiv_pos_as_xyz
  1  'x, y, z'
loop_
 _atom_site_type_symbol
 _atom_site_label
 _atom_site_symmetry_multiplicity
 _atom_site_fract_x
 _atom_site_fract_y
 _atom_site_fract_z
 _atom_site_occupancy
  In  In0  1  0.89493000  0.06837500  0.22982300  1
  In  In1  1  0.39493000  0.93162500  0.27017700  1
  In  In2  1  0.60507000  0.06837500  0.72982300  1
  In  In3  1  0.10507000  0.93162500  0.77017700  1
  P  P4  1  0.40482600  0.83944200  0.91525100  1
  P  P5  1  0.60241300  0.24938200  0.25026700  1
  P  P6  1  0.89758700  0.24938200  0.75026700  1
  P  P7  1  0.59517400  0.16055800  0.08474900  1
  P  P8  1  0.09517400  0.83944200  0.41525100  1
  P  P9  1  0.98776200  0.63994300  0.97532400  1
  P  P10  1  0.10241300  0.75061800  0.24973300  1
  P  P11  1  0.51223800  0.63994300  0.47532400  1
  P  P12  1  0.39758700  0.75061800  0.74973300  1
  P  P13  1  0.90482600  0.16055800  0.58474900  1
  P  P14  1  0.48776200  0.36005700  0.52467600  1
  P  P15  1  0.01223800  0.36005700  0.02467600  1
  H  H16  1  0.34401600  0.77450700  0.07783800  1
  H  H17  1  0.52065400  0.36355700  0.34283900  1
  H  H18  1  0.84401600  0.22549300  0.42216200  1
  H  H19  1  0.02065400  0.63644300  0.15716100  1
  H  H20  1  0.65598400  0.22549300  0.92216200  1
  H  H21  1  0.15598400  0.77450700  0.57783800  1
  H  H22  1  0.97934600  0.36355700  0.84283900  1
  H  H23  1  0.47934600  0.63644300  0.65716100  1
  O  O24  1  0.04948900  0.60175800  0.23488700  1
  O  O25  1  0.73173300  0.06449600  0.12652400  1
  O  O26  1  0.98884900  0.10119100  0.80573700  1
  O  O27  1  0.95898600  0.94142100  0.38526200  1
  O  O28  1  0.51115100  0.10119100  0.30573700  1
  O  O29  1  0.62181900  0.48741100  0.51019800  1
  O  O30  1  0.00411900  0.28072800  0.95220000  1
  O  O31  1  0.26311700  0.78114700  0.22310900  1
  O  O32  1  0.99588100  0.71927200  0.04780000  1
  O  O33  1  0.48884900  0.89880900  0.69426300  1
  O  O34  1  0.40165200  0.73771300  0.03385500  1
  O  O35  1  0.12181900  0.51258900  0.98980200  1
  O  O36  1  0.45051100  0.60175800  0.73488700  1
  O  O37  1  0.03376200  0.25411100  0.13773500  1
  O  O38  1  0.45898600  0.05857900  0.11473800  1
  O  O39  1  0.01115100  0.89880900  0.19426300  1
  O  O40  1  0.50411900  0.71927200  0.54780000  1
  O  O41  1  0.46623800  0.25411100  0.63773500  1
  O  O42  1  0.26826700  0.93550400  0.87347600  1
  O  O43  1  0.96623800  0.74588900  0.86226500  1
  O  O44  1  0.54948900  0.39824200  0.26511300  1
  O  O45  1  0.53376200  0.74588900  0.36226500  1
  O  O46  1  0.76826700  0.06449600  0.62652400  1
  O  O47  1  0.90165200  0.26228700  0.46614500  1
  O  O48  1  0.49588100  0.28072800  0.45220000  1
  O  O49  1  0.23688300  0.78114700  0.72310900  1
  O  O50  1  0.54101400  0.94142100  0.88526200  1
  O  O51  1  0.41576800  0.69987400  0.87309100  1
  O  O52  1  0.95051100  0.39824200  0.76511300  1
  O  O53  1  0.23173300  0.93550400  0.37347600  1
  O  O54  1  0.91576800  0.30012600  0.62690900  1
  O  O55  1  0.04101400  0.05857900  0.61473800  1
  O  O56  1  0.59834800  0.26228700  0.96614500  1
  O  O57  1  0.73688300  0.21885300  0.77689100  1
  O  O58  1  0.87818100  0.48741100  0.01019800  1
  O  O59  1  0.76311700  0.21885300  0.27689100  1
  O  O60  1  0.58423200  0.30012600  0.12690900  1
  O  O61  1  0.09834800  0.73771300  0.53385500  1
  O  O62  1  0.37818100  0.51258900  0.48980200  1
  O  O63  1  0.08423200  0.69987400  0.37309100  1
