# generated using pymatgen
data_GaH19C8
_symmetry_space_group_name_H-M   'P 1'
_cell_length_a   18.21829158
_cell_length_b   18.21829158
_cell_length_c   18.21829202
_cell_angle_alpha   33.12563550
_cell_angle_beta   33.12563550
_cell_angle_gamma   33.12563669
_symmetry_Int_Tables_number   1
_chemical_formula_structural   GaH19C8
_chemical_formula_sum   'Ga6 H114 C48'
_cell_volume   1607.32147569
_cell_formula_units_Z   6
loop_
 _symmetry_equiv_pos_site_id
 _symmetry_equiv_pos_as_xyz
  1  'x, y, z'
loop_
 _atom_site_type_symbol
 _atom_site_label
 _atom_site_symmetry_multiplicity
 _atom_site_fract_x
 _atom_site_fract_y
 _atom_site_fract_z
 _atom_site_occupancy
  Ga  Ga0  1  0.05953700  0.25000000  0.44046300  1
  Ga  Ga1  1  0.25000000  0.44046300  0.05953700  1
  Ga  Ga2  1  0.94046300  0.75000000  0.55953700  1
  Ga  Ga3  1  0.44046300  0.05953700  0.25000000  1
  Ga  Ga4  1  0.55953700  0.94046300  0.75000000  1
  Ga  Ga5  1  0.75000000  0.55953700  0.94046300  1
  H  H6  1  0.32976200  0.42732200  0.17517400  1
  H  H7  1  0.20749800  0.76934400  0.82180700  1
  H  H8  1  0.32180700  0.26934400  0.70749800  1
  H  H9  1  0.22116300  0.51948700  0.44228300  1
  H  H10  1  0.79250200  0.23065600  0.17819300  1
  H  H11  1  0.79269300  0.86109800  0.43129300  1
  H  H12  1  0.92732200  0.82976200  0.67517400  1
  H  H13  1  0.99847600  0.93477800  0.23291500  1
  H  H14  1  0.93477800  0.23291500  0.99847600  1
  H  H15  1  0.47740500  0.61811600  0.82267700  1
  H  H16  1  0.42732200  0.17517400  0.32976200  1
  H  H17  1  0.97740500  0.32267700  0.11811600  1
  H  H18  1  0.88170300  0.20503400  0.81303600  1
  H  H19  1  0.82180700  0.20749800  0.76934400  1
  H  H20  1  0.25000000  0.11302200  0.38697800  1
  H  H21  1  0.93129300  0.36109800  0.29269300  1
  H  H22  1  0.23291500  0.99847600  0.93477800  1
  H  H23  1  0.75000000  0.88697800  0.61302200  1
  H  H24  1  0.73065600  0.29250200  0.67819300  1
  H  H25  1  0.07518000  0.96781200  0.58002800  1
  H  H26  1  0.01948700  0.72116300  0.94228300  1
  H  H27  1  0.67023800  0.57267800  0.82482600  1
  H  H28  1  0.17732300  0.52259500  0.38188400  1
  H  H29  1  0.29269300  0.93129300  0.36109800  1
  H  H30  1  0.57267800  0.82482600  0.67023800  1
  H  H31  1  0.31303600  0.70503400  0.38170300  1
  H  H32  1  0.03218800  0.41997200  0.92482000  1
  H  H33  1  0.44228300  0.22116300  0.51948700  1
  H  H34  1  0.07732100  0.28003100  0.61862100  1
  H  H35  1  0.32482600  0.07267800  0.17023800  1
  H  H36  1  0.27883700  0.05771700  0.98051300  1
  H  H37  1  0.68696400  0.29496600  0.61829700  1
  H  H38  1  0.82267700  0.47740500  0.61811600  1
  H  H39  1  0.57732100  0.11862100  0.78003100  1
  H  H40  1  0.82976200  0.67517400  0.92732200  1
  H  H41  1  0.21996900  0.42267900  0.88137900  1
  H  H42  1  0.67732300  0.88188400  0.02259500  1
  H  H43  1  0.98051300  0.27883700  0.05771700  1
  H  H44  1  0.61811600  0.82267700  0.47740500  1
  H  H45  1  0.57518000  0.08002800  0.46781200  1
  H  H46  1  0.29250200  0.67819300  0.73065600  1
  H  H47  1  0.50152400  0.26708500  0.56522200  1
  H  H48  1  0.88188400  0.02259500  0.67732300  1
  H  H49  1  0.94228300  0.01948700  0.72116300  1
  H  H50  1  0.28003100  0.61862100  0.07732100  1
  H  H51  1  0.11811600  0.97740500  0.32267700  1
  H  H52  1  0.70730700  0.06870700  0.63890200  1
  H  H53  1  0.88697800  0.61302200  0.75000000  1
  H  H54  1  0.17819300  0.79250200  0.23065600  1
  H  H55  1  0.13890200  0.56870700  0.20730700  1
  H  H56  1  0.96781200  0.58002800  0.07518000  1
  H  H57  1  0.58002800  0.07518000  0.96781200  1
  H  H58  1  0.92482000  0.03218800  0.41997200  1
  H  H59  1  0.00152400  0.06522200  0.76708500  1
  H  H60  1  0.42267900  0.88137900  0.21996900  1
  H  H61  1  0.79496600  0.18696400  0.11829700  1
  H  H62  1  0.46781200  0.57518000  0.08002800  1
  H  H63  1  0.43477800  0.49847600  0.73291500  1
  H  H64  1  0.55771700  0.77883700  0.48051300  1
  H  H65  1  0.08002800  0.46781200  0.57518000  1
  H  H66  1  0.06522200  0.76708500  0.00152400  1
  H  H67  1  0.61829700  0.68696400  0.29496600  1
  H  H68  1  0.67517400  0.92732200  0.82976200  1
  H  H69  1  0.32267700  0.11811600  0.97740500  1
  H  H70  1  0.18696400  0.11829700  0.79496600  1
  H  H71  1  0.20730700  0.13890200  0.56870700  1
  H  H72  1  0.11302200  0.38697800  0.25000000  1
  H  H73  1  0.41997200  0.92482000  0.03218800  1
  H  H74  1  0.76934400  0.82180700  0.20749800  1
  H  H75  1  0.61302200  0.75000000  0.88697800  1
  H  H76  1  0.38188400  0.17732300  0.52259500  1
  H  H77  1  0.56870700  0.20730700  0.13890200  1
  H  H78  1  0.70503400  0.38170300  0.31303600  1
  H  H79  1  0.78003100  0.57732100  0.11862100  1
  H  H80  1  0.43129300  0.79269300  0.86109800  1
  H  H81  1  0.38170300  0.31303600  0.70503400  1
  H  H82  1  0.17517400  0.32976200  0.42732200  1
  H  H83  1  0.72116300  0.94228300  0.01948700  1
  H  H84  1  0.20503400  0.81303600  0.88170300  1
  H  H85  1  0.02259500  0.67732300  0.88188400  1
  H  H86  1  0.70749800  0.32180700  0.26934400  1
  H  H87  1  0.49847600  0.73291500  0.43477800  1
  H  H88  1  0.61862100  0.07732100  0.28003100  1
  H  H89  1  0.29496600  0.61829700  0.68696400  1
  H  H90  1  0.06870700  0.63890200  0.70730700  1
  H  H91  1  0.92267900  0.71996900  0.38137900  1
  H  H92  1  0.81303600  0.88170300  0.20503400  1
  H  H93  1  0.05771700  0.98051300  0.27883700  1
  H  H94  1  0.38137900  0.92267900  0.71996900  1
  H  H95  1  0.26934400  0.70749800  0.32180700  1
  H  H96  1  0.23065600  0.17819300  0.79250200  1
  H  H97  1  0.48051300  0.55771700  0.77883700  1
  H  H98  1  0.38697800  0.25000000  0.11302200  1
  H  H99  1  0.73291500  0.43477800  0.49847600  1
  H  H100  1  0.51948700  0.44228300  0.22116300  1
  H  H101  1  0.76708500  0.00152400  0.06522200  1
  H  H102  1  0.91997200  0.53218800  0.42482000  1
  H  H103  1  0.56522200  0.50152400  0.26708500  1
  H  H104  1  0.67819300  0.73065600  0.29250200  1
  H  H105  1  0.82482600  0.67023800  0.57267800  1
  H  H106  1  0.11862100  0.78003100  0.57732100  1
  H  H107  1  0.71996900  0.38137900  0.92267900  1
  H  H108  1  0.11829700  0.79496600  0.18696400  1
  H  H109  1  0.07267800  0.17023800  0.32482600  1
  H  H110  1  0.36109800  0.29269300  0.93129300  1
  H  H111  1  0.63890200  0.70730700  0.06870700  1
  H  H112  1  0.26708500  0.56522200  0.50152400  1
  H  H113  1  0.88137900  0.21996900  0.42267900  1
  H  H114  1  0.17023800  0.32482600  0.07267800  1
  H  H115  1  0.86109800  0.43129300  0.79269300  1
  H  H116  1  0.53218800  0.42482000  0.91997200  1
  H  H117  1  0.77883700  0.48051300  0.55771700  1
  H  H118  1  0.52259500  0.38188400  0.17732300  1
  H  H119  1  0.42482000  0.91997200  0.53218800  1
  C  C120  1  0.92742200  0.21163700  0.50786700  1
  C  C121  1  0.31460200  0.57937000  0.76097000  1
  C  C122  1  0.42742200  0.00786700  0.71163700  1
  C  C123  1  0.37220900  0.04060200  0.95371200  1
  C  C124  1  0.81460200  0.26097000  0.07937000  1
  C  C125  1  0.25740200  0.54400200  0.12107900  1
  C  C126  1  0.95599800  0.24259800  0.37892100  1
  C  C127  1  0.26097000  0.07937000  0.81460200  1
  C  C128  1  0.71163700  0.42742200  0.00786700  1
  C  C129  1  0.99213300  0.28836300  0.57257800  1
  C  C130  1  0.28836300  0.57257800  0.99213300  1
  C  C131  1  0.45599800  0.87892100  0.74259800  1
  C  C132  1  0.54400200  0.12107900  0.25740200  1
  C  C133  1  0.95371200  0.37220900  0.04060200  1
  C  C134  1  0.37892100  0.95599800  0.24259800  1
  C  C135  1  0.87220900  0.45371200  0.54060200  1
  C  C136  1  0.78836300  0.49213300  0.07257800  1
  C  C137  1  0.95939800  0.04628800  0.62779100  1
  C  C138  1  0.87892100  0.74259800  0.45599800  1
  C  C139  1  0.23903000  0.68539800  0.42063000  1
  C  C140  1  0.21163700  0.50786700  0.92742200  1
  C  C141  1  0.76097000  0.31460200  0.57937000  1
  C  C142  1  0.54060200  0.87220900  0.45371200  1
  C  C143  1  0.04628800  0.62779100  0.95939800  1
  C  C144  1  0.45939800  0.12779100  0.54628800  1
  C  C145  1  0.57937000  0.76097000  0.31460200  1
  C  C146  1  0.54628800  0.45939800  0.12779100  1
  C  C147  1  0.04400200  0.75740200  0.62107900  1
  C  C148  1  0.18539800  0.73903000  0.92063000  1
  C  C149  1  0.12779100  0.54628800  0.45939800  1
  C  C150  1  0.68539800  0.42063000  0.23903000  1
  C  C151  1  0.00786700  0.71163700  0.42742200  1
  C  C152  1  0.92063000  0.18539800  0.73903000  1
  C  C153  1  0.74259800  0.45599800  0.87892100  1
  C  C154  1  0.62107900  0.04400200  0.75740200  1
  C  C155  1  0.50786700  0.92742200  0.21163700  1
  C  C156  1  0.45371200  0.54060200  0.87220900  1
  C  C157  1  0.73903000  0.92063000  0.18539800  1
  C  C158  1  0.62779100  0.95939800  0.04628800  1
  C  C159  1  0.42063000  0.23903000  0.68539800  1
  C  C160  1  0.04060200  0.95371200  0.37220900  1
  C  C161  1  0.07937000  0.81460200  0.26097000  1
  C  C162  1  0.12107900  0.25740200  0.54400200  1
  C  C163  1  0.57257800  0.99213300  0.28836300  1
  C  C164  1  0.75740200  0.62107900  0.04400200  1
  C  C165  1  0.24259800  0.37892100  0.95599800  1
  C  C166  1  0.49213300  0.07257800  0.78836300  1
  C  C167  1  0.07257800  0.78836300  0.49213300  1
