# generated using pymatgen
data_MgH16C4S4N2(O4F3)4
_symmetry_space_group_name_H-M   'P 1'
_cell_length_a   16.26985700
_cell_length_b   7.43584200
_cell_length_c   14.68634431
_cell_angle_alpha   67.98617041
_cell_angle_beta   90.00000000
_cell_angle_gamma   90.00000000
_symmetry_Int_Tables_number   1
_chemical_formula_structural   MgH16C4S4N2(O4F3)4
_chemical_formula_sum   'Mg2 H32 C8 S8 N4 O32 F24'
_cell_volume   1647.21803188
_cell_formula_units_Z   2
loop_
 _symmetry_equiv_pos_site_id
 _symmetry_equiv_pos_as_xyz
  1  'x, y, z'
loop_
 _atom_site_type_symbol
 _atom_site_label
 _atom_site_symmetry_multiplicity
 _atom_site_fract_x
 _atom_site_fract_y
 _atom_site_fract_z
 _atom_site_occupancy
  Mg  Mg0  1  0.00000000  0.00000000  0.00000000  1
  Mg  Mg1  1  0.50000000  0.00000000  0.50000000  1
  H  H2  1  0.03329000  0.99154500  0.74886100  1
  H  H3  1  0.22749400  0.49035100  0.30349100  1
  H  H4  1  0.16409800  0.49644500  0.62486700  1
  H  H5  1  0.46671000  0.99154500  0.24886100  1
  H  H6  1  0.59939000  0.89196400  0.66109000  1
  H  H7  1  0.83590200  0.50355500  0.37513300  1
  H  H8  1  0.13839300  0.90403700  0.86339900  1
  H  H9  1  0.77250600  0.50964900  0.69650900  1
  H  H10  1  0.40061000  0.10803600  0.33891000  1
  H  H11  1  0.31085400  0.40809500  0.35449900  1
  H  H12  1  0.81085400  0.59190500  0.14550100  1
  H  H13  1  0.83909100  0.76886700  0.78893500  1
  H  H14  1  0.53329000  0.00845500  0.75113900  1
  H  H15  1  0.86160700  0.09596300  0.13660100  1
  H  H16  1  0.72749400  0.50964900  0.19650900  1
  H  H17  1  0.09939000  0.10803600  0.83891000  1
  H  H18  1  0.78740400  0.94152700  0.40048400  1
  H  H19  1  0.33909100  0.23113300  0.71106500  1
  H  H20  1  0.21259600  0.05847300  0.59951600  1
  H  H21  1  0.27250600  0.49035100  0.80349100  1
  H  H22  1  0.96671000  0.00845500  0.25113900  1
  H  H23  1  0.66409800  0.50355500  0.87513300  1
  H  H24  1  0.28740400  0.05847300  0.09951600  1
  H  H25  1  0.68914600  0.59190500  0.64550100  1
  H  H26  1  0.33590200  0.49644500  0.12486700  1
  H  H27  1  0.16090900  0.23113300  0.21106500  1
  H  H28  1  0.63839300  0.09596300  0.63660100  1
  H  H29  1  0.90061000  0.89196400  0.16109000  1
  H  H30  1  0.66090900  0.76886700  0.28893500  1
  H  H31  1  0.71259600  0.94152700  0.90048400  1
  H  H32  1  0.18914600  0.40809500  0.85449900  1
  H  H33  1  0.36160700  0.90403700  0.36339900  1
  C  C34  1  0.88779000  0.46054000  0.42620700  1
  C  C35  1  0.64149100  0.86330400  0.15135200  1
  C  C36  1  0.85850900  0.86330400  0.65135200  1
  C  C37  1  0.35850900  0.13669600  0.84864800  1
  C  C38  1  0.38779000  0.53946000  0.07379300  1
  C  C39  1  0.11221000  0.53946000  0.57379300  1
  C  C40  1  0.14149100  0.13669600  0.34864800  1
  C  C41  1  0.61221000  0.46054000  0.92620700  1
  S  S42  1  0.65021900  0.28089500  0.41854000  1
  S  S43  1  0.74803200  0.99598400  0.31383700  1
  S  S44  1  0.34978100  0.71910500  0.58146000  1
  S  S45  1  0.84978100  0.28089500  0.91854000  1
  S  S46  1  0.24803200  0.00401600  0.18616300  1
  S  S47  1  0.25196800  0.00401600  0.68616300  1
  S  S48  1  0.15021900  0.71910500  0.08146000  1
  S  S49  1  0.75196800  0.99598400  0.81383700  1
  N  N50  1  0.80161300  0.78042300  0.84830100  1
  N  N51  1  0.19838700  0.21957700  0.15169900  1
  N  N52  1  0.69838700  0.78042300  0.34830100  1
  N  N53  1  0.30161300  0.21957700  0.65169900  1
  O  O54  1  0.24827700  0.38230200  0.85762000  1
  O  O55  1  0.02891900  0.39154400  0.78914300  1
  O  O56  1  0.58565900  0.02839100  0.64798100  1
  O  O57  1  0.75172300  0.61769800  0.14238000  1
  O  O58  1  0.27237000  0.73078600  0.63772000  1
  O  O59  1  0.59672900  0.44653800  0.36041900  1
  O  O60  1  0.09672900  0.55346200  0.13958100  1
  O  O61  1  0.06988300  0.31121200  0.86906200  1
  O  O62  1  0.69550900  0.66191900  0.43377700  1
  O  O63  1  0.77237000  0.26921400  0.86228000  1
  O  O64  1  0.72763000  0.26921400  0.36228000  1
  O  O65  1  0.22763000  0.73078600  0.13772000  1
  O  O66  1  0.74827700  0.61769800  0.64238000  1
  O  O67  1  0.40327100  0.55346200  0.63958100  1
  O  O68  1  0.08565900  0.97160900  0.85201900  1
  O  O69  1  0.97108100  0.60845600  0.21085700  1
  O  O70  1  0.89811400  0.08872400  0.93397300  1
  O  O71  1  0.30449100  0.33808100  0.56622300  1
  O  O72  1  0.60188600  0.08872400  0.43397300  1
  O  O73  1  0.25172300  0.38230200  0.35762000  1
  O  O74  1  0.39811400  0.91127600  0.56602700  1
  O  O75  1  0.43011700  0.31121200  0.36906200  1
  O  O76  1  0.80449100  0.66191900  0.93377700  1
  O  O77  1  0.47108100  0.39154400  0.28914300  1
  O  O78  1  0.10188600  0.91127600  0.06602700  1
  O  O79  1  0.91434100  0.02839100  0.14798100  1
  O  O80  1  0.90327100  0.44653800  0.86041900  1
  O  O81  1  0.56988300  0.68878800  0.63093800  1
  O  O82  1  0.93011700  0.68878800  0.13093800  1
  O  O83  1  0.52891900  0.60845600  0.71085700  1
  O  O84  1  0.41434100  0.97160900  0.35201900  1
  O  O85  1  0.19550900  0.33808100  0.06622300  1
  F  F86  1  0.55557500  0.60453900  0.90469700  1
  F  F87  1  0.99361900  0.00416800  0.69816300  1
  F  F88  1  0.57594700  0.29990000  0.92139500  1
  F  F89  1  0.13796300  0.57995000  0.48046800  1
  F  F90  1  0.67936900  0.02923500  0.09994100  1
  F  F91  1  0.07594700  0.70010000  0.57860500  1
  F  F92  1  0.32063100  0.97076500  0.90005900  1
  F  F93  1  0.49361900  0.99583200  0.80183700  1
  F  F94  1  0.63796300  0.42005000  0.01953200  1
  F  F95  1  0.44442500  0.39546100  0.09530300  1
  F  F96  1  0.00638100  0.99583200  0.30183700  1
  F  F97  1  0.05557500  0.39546100  0.59530300  1
  F  F98  1  0.90094500  0.81753300  0.58760800  1
  F  F99  1  0.09905500  0.18246700  0.41239200  1
  F  F100  1  0.42405300  0.70010000  0.07860500  1
  F  F101  1  0.17936900  0.97076500  0.40005900  1
  F  F102  1  0.82063100  0.02923500  0.59994100  1
  F  F103  1  0.50638100  0.00416800  0.19816300  1
  F  F104  1  0.94442500  0.60453900  0.40469700  1
  F  F105  1  0.36203700  0.57995000  0.98046800  1
  F  F106  1  0.40094500  0.18246700  0.91239200  1
  F  F107  1  0.86203700  0.42005000  0.51953200  1
  F  F108  1  0.59905500  0.81753300  0.08760800  1
  F  F109  1  0.92405300  0.29990000  0.42139500  1
