# generated using pymatgen
data_AgSbPbS3
_symmetry_space_group_name_H-M   'P 1'
_cell_length_a   12.18434700
_cell_length_b   5.85522500
_cell_length_c   8.19797710
_cell_angle_alpha   88.19180959
_cell_angle_beta   90.00000000
_cell_angle_gamma   90.00000000
_symmetry_Int_Tables_number   1
_chemical_formula_structural   AgSbPbS3
_chemical_formula_sum   'Ag4 Sb4 Pb4 S12'
_cell_volume   584.56962046
_cell_formula_units_Z   4
loop_
 _symmetry_equiv_pos_site_id
 _symmetry_equiv_pos_as_xyz
  1  'x, y, z'
loop_
 _atom_site_type_symbol
 _atom_site_label
 _atom_site_symmetry_multiplicity
 _atom_site_fract_x
 _atom_site_fract_y
 _atom_site_fract_z
 _atom_site_occupancy
  Ag  Ag0  1  0.90918500  0.73173300  0.39785100  1
  Ag  Ag1  1  0.09081500  0.26826700  0.60214900  1
  Ag  Ag2  1  0.59081500  0.73173300  0.89785100  1
  Ag  Ag3  1  0.40918500  0.26826700  0.10214900  1
  Sb  Sb4  1  0.25077800  0.74924900  0.38927200  1
  Sb  Sb5  1  0.24922200  0.74924900  0.88927200  1
  Sb  Sb6  1  0.74922200  0.25075100  0.61072800  1
  Sb  Sb7  1  0.75077800  0.25075100  0.11072800  1
  Pb  Pb8  1  0.42027400  0.23242900  0.63946900  1
  Pb  Pb9  1  0.57972600  0.76757100  0.36053100  1
  Pb  Pb10  1  0.92027400  0.76757100  0.86053100  1
  Pb  Pb11  1  0.07972600  0.23242900  0.13946900  1
  S  S12  1  0.08824400  0.73506800  0.58348500  1
  S  S13  1  0.59549300  0.27150700  0.38911300  1
  S  S14  1  0.22634000  0.18104700  0.85607900  1
  S  S15  1  0.41175600  0.73506800  0.08348500  1
  S  S16  1  0.40450700  0.72849300  0.61088700  1
  S  S17  1  0.09549300  0.72849300  0.11088700  1
  S  S18  1  0.58824400  0.26493200  0.91651500  1
  S  S19  1  0.77366000  0.81895300  0.14392100  1
  S  S20  1  0.91175600  0.26493200  0.41651500  1
  S  S21  1  0.72634000  0.81895300  0.64392100  1
  S  S22  1  0.27366000  0.18104700  0.35607900  1
  S  S23  1  0.90450700  0.27150700  0.88911300  1
