# generated using pymatgen
data_P2PbO8
_symmetry_space_group_name_H-M   'P 1'
_cell_length_a   8.69763486
_cell_length_b   5.51760623
_cell_length_c   8.49859790
_cell_angle_alpha   89.09705968
_cell_angle_beta   121.17338489
_cell_angle_gamma   108.95191717
_symmetry_Int_Tables_number   1
_chemical_formula_structural   P2PbO8
_chemical_formula_sum   'P4 Pb2 O16'
_cell_volume   324.13874021
_cell_formula_units_Z   2
loop_
 _symmetry_equiv_pos_site_id
 _symmetry_equiv_pos_as_xyz
  1  'x, y, z'
loop_
 _atom_site_type_symbol
 _atom_site_label
 _atom_site_symmetry_multiplicity
 _atom_site_fract_x
 _atom_site_fract_y
 _atom_site_fract_z
 _atom_site_occupancy
  P  P0  1  0.70905200  0.66307200  0.90848000  1
  P  P1  1  0.29094800  0.33692800  0.09152000  1
  P  P2  1  0.80059300  0.13128700  0.53019900  1
  P  P3  1  0.19940700  0.86871300  0.46980100  1
  Pb  Pb4  1  0.07552100  0.74299800  0.80399500  1
  Pb  Pb5  1  0.92447900  0.25700200  0.19600500  1
  O  O6  1  0.70100300  0.89248700  0.00703700  1
  O  O7  1  0.29899700  0.10751300  0.99296300  1
  O  O8  1  0.50925400  0.55122400  0.72113500  1
  O  O9  1  0.49074600  0.44877600  0.27886500  1
  O  O10  1  0.88354200  0.76822400  0.89056900  1
  O  O11  1  0.11645800  0.23177600  0.10943100  1
  O  O12  1  0.70846200  0.43103400  0.01462200  1
  O  O13  1  0.29153800  0.56896600  0.98537800  1
  O  O14  1  0.91053700  0.94230100  0.58326000  1
  O  O15  1  0.08946300  0.05769900  0.41674000  1
  O  O16  1  0.81052800  0.26767700  0.37398100  1
  O  O17  1  0.18947200  0.73232300  0.62601900  1
  O  O18  1  0.59089700  0.93902900  0.46230100  1
  O  O19  1  0.40910300  0.06097100  0.53769900  1
  O  O20  1  0.87232900  0.33853100  0.69857200  1
  O  O21  1  0.12767100  0.66146900  0.30142800  1
