# generated using pymatgen
data_NiH18C4S6(N2O)4
_symmetry_space_group_name_H-M   'P 1'
_cell_length_a   9.57014384
_cell_length_b   12.01425488
_cell_length_c   20.22618452
_cell_angle_alpha   90.00000000
_cell_angle_beta   90.00000000
_cell_angle_gamma   90.00000000
_symmetry_Int_Tables_number   1
_chemical_formula_structural   NiH18C4S6(N2O)4
_chemical_formula_sum   'Ni4 H72 C16 S24 N32 O16'
_cell_volume   2325.56922371
_cell_formula_units_Z   4
loop_
 _symmetry_equiv_pos_site_id
 _symmetry_equiv_pos_as_xyz
  1  'x, y, z'
loop_
 _atom_site_type_symbol
 _atom_site_label
 _atom_site_symmetry_multiplicity
 _atom_site_fract_x
 _atom_site_fract_y
 _atom_site_fract_z
 _atom_site_occupancy
  Ni  Ni0  1  0.44215402  0.54279744  0.09635622  1
  Ni  Ni1  1  0.94215402  0.95720256  0.90364378  1
  Ni  Ni2  1  0.05784598  0.45720256  0.59635622  1
  Ni  Ni3  1  0.55784598  0.04279744  0.40364378  1
  H  H4  1  0.06088895  0.99128324  0.54149614  1
  H  H5  1  0.22161116  0.46140424  0.35818165  1
  H  H6  1  0.72642536  0.38890457  0.93359535  1
  H  H7  1  0.22885064  0.34096269  0.81435206  1
  H  H8  1  0.59551512  0.27985939  0.57396115  1
  H  H9  1  0.77357464  0.61109543  0.43359535  1
  H  H10  1  0.18620981  0.89440479  0.81181380  1
  H  H11  1  0.17347636  0.82500355  0.32131255  1
  H  H12  1  0.26072952  0.94071821  0.34594032  1
  H  H13  1  0.06557853  0.36822487  0.84728891  1
  H  H14  1  0.82652364  0.32500355  0.17868745  1
  H  H15  1  0.06033681  0.05747230  0.46705690  1
  H  H16  1  0.72309212  0.17636254  0.65105186  1
  H  H17  1  0.27690788  0.67636254  0.84894814  1
  H  H18  1  0.43966319  0.94252770  0.96705690  1
  H  H19  1  0.90296087  0.76218688  0.99196072  1
  H  H20  1  0.93465801  0.65956234  0.22088698  1
  H  H21  1  0.06995882  0.05721634  0.03453158  1
  H  H22  1  0.09551512  0.22014061  0.42603885  1
  H  H23  1  0.56783008  0.71433744  0.84230807  1
  H  H24  1  0.56534199  0.34043766  0.72088698  1
  H  H25  1  0.69328351  0.52115882  0.24910561  1
  H  H26  1  0.56557853  0.13177513  0.15271109  1
  H  H27  1  0.43004118  0.94278366  0.53453158  1
  H  H28  1  0.90448488  0.72014061  0.07396115  1
  H  H29  1  0.43911105  0.00871676  0.04149614  1
  H  H30  1  0.78966881  0.24287652  0.38737198  1
  H  H31  1  0.40448488  0.77985939  0.92603885  1
  H  H32  1  0.30671649  0.02115882  0.25089439  1
  H  H33  1  0.77690788  0.82363746  0.15105186  1
  H  H34  1  0.71033119  0.75712348  0.88737198  1
  H  H35  1  0.00666480  0.53754842  0.23963663  1
  H  H36  1  0.59703913  0.23781312  0.49196072  1
  H  H37  1  0.27838884  0.53859576  0.85818165  1
  H  H38  1  0.09703913  0.26218688  0.50803928  1
  H  H39  1  0.06783008  0.78566256  0.15769193  1
  H  H40  1  0.76072952  0.55928179  0.65405968  1
  H  H41  1  0.93004118  0.55721634  0.46546842  1
  H  H42  1  0.22309212  0.32363746  0.34894814  1
  H  H43  1  0.68620981  0.60559521  0.18818620  1
  H  H44  1  0.22642536  0.11109543  0.06640465  1
  H  H45  1  0.67347636  0.67499645  0.67868745  1
  H  H46  1  0.27114936  0.65903731  0.31435206  1
  H  H47  1  0.99333520  0.03754842  0.26036337  1
  H  H48  1  0.28966881  0.25712348  0.61262802  1
  H  H49  1  0.19328351  0.97884118  0.75089439  1
  H  H50  1  0.56995882  0.44278366  0.96546842  1
  H  H51  1  0.93966319  0.55747230  0.03294310  1
  H  H52  1  0.77838884  0.96140424  0.14181835  1
  H  H53  1  0.43216992  0.21433744  0.65769193  1
  H  H54  1  0.43442147  0.63177513  0.34728891  1
  H  H55  1  0.49333520  0.46245158  0.73963663  1
  H  H56  1  0.43465801  0.84043766  0.77911302  1
  H  H57  1  0.77114936  0.84096269  0.68564794  1
  H  H58  1  0.72885064  0.15903731  0.18564794  1
  H  H59  1  0.93442147  0.86822487  0.65271109  1
  H  H60  1  0.21033119  0.74287652  0.11262802  1
  H  H61  1  0.40296087  0.73781312  0.00803928  1
  H  H62  1  0.06534199  0.15956234  0.27911302  1
  H  H63  1  0.81379019  0.39440479  0.68818620  1
  H  H64  1  0.72161116  0.03859576  0.64181835  1
  H  H65  1  0.50666480  0.96245158  0.76036337  1
  H  H66  1  0.56088895  0.50871676  0.45850386  1
  H  H67  1  0.31379019  0.10559521  0.31181380  1
  H  H68  1  0.93216992  0.28566256  0.34230807  1
  H  H69  1  0.32652364  0.17499645  0.82131255  1
  H  H70  1  0.93911105  0.49128324  0.95850386  1
  H  H71  1  0.73927048  0.44071821  0.15405968  1
  H  H72  1  0.56033681  0.44252770  0.53294310  1
  H  H73  1  0.80671649  0.47884118  0.74910561  1
  H  H74  1  0.23927048  0.05928179  0.84594032  1
  H  H75  1  0.27357464  0.88890457  0.56640465  1
  C  C76  1  0.14522932  0.38138338  0.43693892  1
  C  C77  1  0.37630512  0.37435286  0.67568239  1
  C  C78  1  0.13525994  0.20844697  0.85926958  1
  C  C79  1  0.75160644  0.49213366  0.50526981  1
  C  C80  1  0.86474006  0.70844697  0.64073042  1
  C  C81  1  0.12369488  0.62564714  0.17568239  1
  C  C82  1  0.64522932  0.11861662  0.56306108  1
  C  C83  1  0.62369488  0.87435286  0.82431761  1
  C  C84  1  0.24839356  0.99213366  0.99473019  1
  C  C85  1  0.87630512  0.12564714  0.32431761  1
  C  C86  1  0.74839356  0.50786634  0.00526981  1
  C  C87  1  0.36474006  0.79155303  0.35926958  1
  C  C88  1  0.35477068  0.61861662  0.93693892  1
  C  C89  1  0.85477068  0.88138338  0.06306108  1
  C  C90  1  0.63525994  0.29155303  0.14073042  1
  C  C91  1  0.25160644  0.00786634  0.49473019  1
  S  S92  1  0.83365369  0.99434542  0.01249571  1
  S  S93  1  0.26526143  0.48460533  0.66455340  1
  S  S94  1  0.16937770  0.90259678  0.93931161  1
  S  S95  1  0.97907125  0.16268528  0.89081532  1
  S  S96  1  0.76526143  0.01539467  0.33544660  1
  S  S97  1  0.33365369  0.50565458  0.98750429  1
  S  S98  1  0.66937770  0.59740322  0.06068839  1
  S  S99  1  0.02092875  0.66268528  0.60918468  1
  S  S100  1  0.16634631  0.49434542  0.48750429  1
  S  S101  1  0.23473857  0.51539467  0.16455340  1
  S  S102  1  0.33062230  0.09740322  0.43931161  1
  S  S103  1  0.42561942  0.85702671  0.14573090  1
  S  S104  1  0.53287148  0.73414580  0.19283453  1
  S  S105  1  0.57438058  0.35702671  0.35426910  1
  S  S106  1  0.07438058  0.14297329  0.64573090  1
  S  S107  1  0.96712852  0.26585420  0.69283453  1
  S  S108  1  0.83062230  0.40259678  0.56068839  1
  S  S109  1  0.47907125  0.33731472  0.10918468  1
  S  S110  1  0.03287148  0.76585420  0.80716547  1
  S  S111  1  0.46712852  0.23414580  0.30716547  1
  S  S112  1  0.52092875  0.83731472  0.39081532  1
  S  S113  1  0.92561942  0.64297329  0.85426910  1
  S  S114  1  0.66634631  0.00565458  0.51249571  1
  S  S115  1  0.73473857  0.98460533  0.83544660  1
  N  N116  1  0.25167679  0.85615638  0.34973554  1
  N  N117  1  0.38888897  0.99660098  0.99695561  1
  N  N118  1  0.90054741  0.78397662  0.04121144  1
  N  N119  1  0.61111103  0.49660098  0.50304439  1
  N  N120  1  0.14984623  0.31677649  0.84486296  1
  N  N121  1  0.87638943  0.21953896  0.35957647  1
  N  N122  1  0.62361057  0.78046104  0.85957647  1
  N  N123  1  0.75167679  0.64384362  0.65026446  1
  N  N124  1  0.24832321  0.14384362  0.84973554  1
  N  N125  1  0.52659822  0.88335512  0.77522936  1
  N  N126  1  0.59945259  0.21602338  0.54121144  1
  N  N127  1  0.47340178  0.38335512  0.72477064  1
  N  N128  1  0.97340178  0.11664488  0.27522936  1
  N  N129  1  0.35015377  0.68322351  0.34486296  1
  N  N130  1  0.12361057  0.71953896  0.14042353  1
  N  N131  1  0.32346323  0.94318272  0.53616901  1
  N  N132  1  0.82869009  0.88978507  0.12962320  1
  N  N133  1  0.67130991  0.11021493  0.62962320  1
  N  N134  1  0.17130991  0.38978507  0.37037680  1
  N  N135  1  0.32869009  0.61021493  0.87037680  1
  N  N136  1  0.74832321  0.35615638  0.15026446  1
  N  N137  1  0.67653677  0.44318272  0.96383099  1
  N  N138  1  0.09945259  0.28397662  0.45878856  1
  N  N139  1  0.88888897  0.50339902  0.00304439  1
  N  N140  1  0.37638943  0.28046104  0.64042353  1
  N  N141  1  0.17653677  0.05681728  0.03616901  1
  N  N142  1  0.02659822  0.61664488  0.22477064  1
  N  N143  1  0.64984623  0.18322351  0.15513704  1
  N  N144  1  0.82346323  0.55681728  0.46383099  1
  N  N145  1  0.11111103  0.00339902  0.49695561  1
  N  N146  1  0.85015377  0.81677649  0.65513704  1
  N  N147  1  0.40054741  0.71602338  0.95878856  1
  O  O148  1  0.47932877  0.44803789  0.37499614  1
  O  O149  1  0.24941757  0.94070484  0.78496994  1
  O  O150  1  0.25058243  0.05929516  0.28496994  1
  O  O151  1  0.97932877  0.05196211  0.62500386  1
  O  O152  1  0.63929067  0.30232156  0.41392635  1
  O  O153  1  0.68481148  0.39884390  0.30953204  1
  O  O154  1  0.86070933  0.69767844  0.91392635  1
  O  O155  1  0.18481148  0.10115610  0.69046796  1
  O  O156  1  0.81518852  0.60115610  0.80953204  1
  O  O157  1  0.13929067  0.19767844  0.58607365  1
  O  O158  1  0.52067123  0.94803789  0.12500386  1
  O  O159  1  0.02067123  0.55196211  0.87499614  1
  O  O160  1  0.31518852  0.89884390  0.19046796  1
  O  O161  1  0.36070933  0.80232156  0.08607365  1
  O  O162  1  0.74941757  0.55929516  0.21503006  1
  O  O163  1  0.75058243  0.44070484  0.71503006  1
