# generated using pymatgen
data_BaFe(Si2O5)2
_symmetry_space_group_name_H-M   'P 1'
_cell_length_a   10.88788597
_cell_length_b   10.88786546
_cell_length_c   11.13715230
_cell_angle_alpha   60.73805768
_cell_angle_beta   119.26190499
_cell_angle_gamma   89.99986976
_symmetry_Int_Tables_number   1
_chemical_formula_structural   BaFe(Si2O5)2
_chemical_formula_sum   'Ba4 Fe4 Si16 O40'
_cell_volume   954.01457980
_cell_formula_units_Z   4
loop_
 _symmetry_equiv_pos_site_id
 _symmetry_equiv_pos_as_xyz
  1  'x, y, z'
loop_
 _atom_site_type_symbol
 _atom_site_label
 _atom_site_symmetry_multiplicity
 _atom_site_fract_x
 _atom_site_fract_y
 _atom_site_fract_z
 _atom_site_occupancy
  Ba  Ba0  1  0.99999800  0.25000000  0.00000400  1
  Ba  Ba1  1  0.49999800  0.75000000  0.00000400  1
  Ba  Ba2  1  0.99999900  0.74999600  0.00000200  1
  Ba  Ba3  1  0.49999900  0.24999600  0.00000200  1
  Fe  Fe4  1  0.15985700  0.09014100  0.81971700  1
  Fe  Fe5  1  0.34014500  0.40985400  0.18028600  1
  Fe  Fe6  1  0.65986300  0.59013400  0.81973100  1
  Fe  Fe7  1  0.84014100  0.90986200  0.18027300  1
  Si  Si8  1  0.11077400  0.34684600  0.30630600  1
  Si  Si9  1  0.61077300  0.84684600  0.30630700  1
  Si  Si10  1  0.38922400  0.15315600  0.69369100  1
  Si  Si11  1  0.88922400  0.65315600  0.69369100  1
  Si  Si12  1  0.69553800  0.34684500  0.30630800  1
  Si  Si13  1  0.19553800  0.84684500  0.30630800  1
  Si  Si14  1  0.90315500  0.55446600  0.30630700  1
  Si  Si15  1  0.40315500  0.05446700  0.30630600  1
  Si  Si16  1  0.59684400  0.94553800  0.69369100  1
  Si  Si17  1  0.09684500  0.44553700  0.69369200  1
  Si  Si18  1  0.59684400  0.36077400  0.69369200  1
  Si  Si19  1  0.09684500  0.86077300  0.69369300  1
  Si  Si20  1  0.80446500  0.15315400  0.69369300  1
  Si  Si21  1  0.30446400  0.65315400  0.69369300  1
  Si  Si22  1  0.90315700  0.13922600  0.30630900  1
  Si  Si23  1  0.40315600  0.63922700  0.30630800  1
  O  O24  1  0.00000500  0.00000200  0.50000000  1
  O  O25  1  0.50000500  0.50000200  0.50000200  1
  O  O26  1  0.75001000  0.24999700  0.50000400  1
  O  O27  1  0.25001000  0.74999700  0.50000300  1
  O  O28  1  0.50000200  0.00000200  0.49999900  1
  O  O29  1  0.00000200  0.50000400  0.49999800  1
  O  O30  1  0.25000000  0.24999800  0.49999800  1
  O  O31  1  0.75000000  0.74999800  0.49999800  1
  O  O32  1  0.52054200  0.41391600  0.17216400  1
  O  O33  1  0.02054000  0.91391700  0.17216300  1
  O  O34  1  0.16391800  0.27053900  0.82784500  1
  O  O35  1  0.66391500  0.77054100  0.82784000  1
  O  O36  1  0.33607900  0.22946500  0.17215100  1
  O  O37  1  0.83608100  0.72946300  0.17215400  1
  O  O38  1  0.16391700  0.90162100  0.82784200  1
  O  O39  1  0.66391900  0.40162100  0.82784400  1
  O  O40  1  0.33608600  0.59837500  0.17216300  1
  O  O41  1  0.83608500  0.09837500  0.17216000  1
  O  O42  1  0.15161500  0.41392400  0.17215000  1
  O  O43  1  0.65161800  0.91392200  0.17215300  1
  O  O44  1  0.34836800  0.08608500  0.82783300  1
  O  O45  1  0.84836800  0.58608400  0.82783400  1
  O  O46  1  0.97946100  0.08607400  0.82785600  1
  O  O47  1  0.47946000  0.58607500  0.82785300  1
  O  O48  1  0.76301900  0.24040000  0.27261500  1
  O  O49  1  0.26301900  0.74040000  0.27261700  1
  O  O50  1  0.73698600  0.01301400  0.72738400  1
  O  O51  1  0.23698600  0.51301500  0.72738300  1
  O  O52  1  0.00959900  0.24040100  0.27261200  1
  O  O53  1  0.50960000  0.74040100  0.27261300  1
  O  O54  1  0.73698000  0.25960100  0.72738200  1
  O  O55  1  0.23698000  0.75960100  0.72738100  1
  O  O56  1  0.00960000  0.48698400  0.27261400  1
  O  O57  1  0.50960100  0.98698300  0.27261500  1
  O  O58  1  0.76301900  0.48698400  0.27261700  1
  O  O59  1  0.26301900  0.98698300  0.27261700  1
  O  O60  1  0.49040100  0.01302100  0.72738400  1
  O  O61  1  0.99040000  0.51302200  0.72738300  1
  O  O62  1  0.49039600  0.25960300  0.72737900  1
  O  O63  1  0.99039500  0.75960300  0.72737800  1
