# generated using pymatgen
data_NiAs3H3OF18
_symmetry_space_group_name_H-M   'P 1'
_cell_length_a   9.57516400
_cell_length_b   10.42860600
_cell_length_c   14.04656000
_cell_angle_alpha   90.00000000
_cell_angle_beta   90.00000000
_cell_angle_gamma   90.00000000
_symmetry_Int_Tables_number   1
_chemical_formula_structural   NiAs3H3OF18
_chemical_formula_sum   'Ni4 As12 H12 O4 F72'
_cell_volume   1402.62785571
_cell_formula_units_Z   4
loop_
 _symmetry_equiv_pos_site_id
 _symmetry_equiv_pos_as_xyz
  1  'x, y, z'
loop_
 _atom_site_type_symbol
 _atom_site_label
 _atom_site_symmetry_multiplicity
 _atom_site_fract_x
 _atom_site_fract_y
 _atom_site_fract_z
 _atom_site_occupancy
  Ni  Ni0  1  0.50000000  0.50000000  0.50000000  1
  Ni  Ni1  1  0.50000000  0.50000000  0.00000000  1
  Ni  Ni2  1  0.00000000  0.00000000  0.50000000  1
  Ni  Ni3  1  0.00000000  0.00000000  0.00000000  1
  As  As4  1  0.19690000  0.70519000  0.55056300  1
  As  As5  1  0.80310000  0.29481000  0.44943700  1
  As  As6  1  0.80310000  0.29481000  0.05056300  1
  As  As7  1  0.19690000  0.70519000  0.94943700  1
  As  As8  1  0.39070400  0.47786900  0.25000000  1
  As  As9  1  0.30310000  0.20519000  0.55056300  1
  As  As10  1  0.69690000  0.79481000  0.05056300  1
  As  As11  1  0.89070400  0.02213100  0.75000000  1
  As  As12  1  0.69690000  0.79481000  0.44943700  1
  As  As13  1  0.60929600  0.52213100  0.75000000  1
  As  As14  1  0.10929600  0.97786900  0.25000000  1
  As  As15  1  0.30310000  0.20519000  0.94943700  1
  H  H16  1  0.97859400  0.62328500  0.19274300  1
  H  H17  1  0.47859400  0.87671500  0.69274300  1
  H  H18  1  0.47859400  0.87671500  0.80725700  1
  H  H19  1  0.40100700  0.99335800  0.75000000  1
  H  H20  1  0.97859400  0.62328500  0.30725700  1
  H  H21  1  0.59899300  0.00664200  0.25000000  1
  H  H22  1  0.52140600  0.12328500  0.30725700  1
  H  H23  1  0.09899300  0.49335800  0.75000000  1
  H  H24  1  0.02140600  0.37671500  0.69274300  1
  H  H25  1  0.90100700  0.50664200  0.25000000  1
  H  H26  1  0.02140600  0.37671500  0.80725700  1
  H  H27  1  0.52140600  0.12328500  0.19274300  1
  O  O28  1  0.52031200  0.06854400  0.25000000  1
  O  O29  1  0.02031200  0.43145600  0.75000000  1
  O  O30  1  0.97968800  0.56854400  0.25000000  1
  O  O31  1  0.47968800  0.93145600  0.75000000  1
  F  F32  1  0.40051100  0.12179300  0.63659400  1
  F  F33  1  0.11133100  0.97563700  0.11954400  1
  F  F34  1  0.79483500  0.71279900  0.96606400  1
  F  F35  1  0.67164000  0.42149000  0.44017600  1
  F  F36  1  0.56193200  0.67208100  0.05014800  1
  F  F37  1  0.88866900  0.02436300  0.88045600  1
  F  F38  1  0.28429100  0.78853200  0.85786400  1
  F  F39  1  0.71956300  0.07643000  0.75000000  1
  F  F40  1  0.61133100  0.52436300  0.61954400  1
  F  F41  1  0.05186000  0.81605500  0.25000000  1
  F  F42  1  0.78429100  0.71146800  0.35786400  1
  F  F43  1  0.78429100  0.71146800  0.14213600  1
  F  F44  1  0.09948900  0.62179300  0.86340600  1
  F  F45  1  0.90051100  0.37820700  0.36340600  1
  F  F46  1  0.21570900  0.28853200  0.64213600  1
  F  F47  1  0.43427800  0.47346000  0.75000000  1
  F  F48  1  0.94814000  0.18394500  0.75000000  1
  F  F49  1  0.89071400  0.37849600  0.53962900  1
  F  F50  1  0.71570900  0.21146800  0.35786400  1
  F  F51  1  0.43806800  0.32791900  0.55014800  1
  F  F52  1  0.93427800  0.02654000  0.25000000  1
  F  F53  1  0.82836000  0.92149000  0.44017600  1
  F  F54  1  0.21956300  0.42357000  0.25000000  1
  F  F55  1  0.78043700  0.57643000  0.75000000  1
  F  F56  1  0.43806800  0.32791900  0.94985200  1
  F  F57  1  0.33453300  0.63651800  0.25000000  1
  F  F58  1  0.89071400  0.37849600  0.96037100  1
  F  F59  1  0.06572200  0.97346000  0.75000000  1
  F  F60  1  0.21570900  0.28853200  0.85786400  1
  F  F61  1  0.67164000  0.42149000  0.05982400  1
  F  F62  1  0.09948900  0.62179300  0.63659400  1
  F  F63  1  0.11133100  0.97563700  0.38045600  1
  F  F64  1  0.93806800  0.17208100  0.05014800  1
  F  F65  1  0.61133100  0.52436300  0.88045600  1
  F  F66  1  0.28429100  0.78853200  0.64213600  1
  F  F67  1  0.88866900  0.02436300  0.61954400  1
  F  F68  1  0.79483500  0.71279900  0.53393600  1
  F  F69  1  0.66546700  0.36348200  0.75000000  1
  F  F70  1  0.40051100  0.12179300  0.86340600  1
  F  F71  1  0.20516500  0.28720100  0.03393600  1
  F  F72  1  0.70516500  0.21279900  0.96606400  1
  F  F73  1  0.29483500  0.78720100  0.03393600  1
  F  F74  1  0.38866900  0.47563700  0.38045600  1
  F  F75  1  0.20516500  0.28720100  0.46606400  1
  F  F76  1  0.06193200  0.82791900  0.55014800  1
  F  F77  1  0.32836000  0.57851000  0.55982400  1
  F  F78  1  0.38866900  0.47563700  0.11954400  1
  F  F79  1  0.10928600  0.62150400  0.03962900  1
  F  F80  1  0.59948900  0.87820700  0.13659400  1
  F  F81  1  0.90051100  0.37820700  0.13659400  1
  F  F82  1  0.60928600  0.87849600  0.53962900  1
  F  F83  1  0.17164000  0.07851000  0.55982400  1
  F  F84  1  0.56193200  0.67208100  0.44985200  1
  F  F85  1  0.39071400  0.12150400  0.46037100  1
  F  F86  1  0.71570900  0.21146800  0.14213600  1
  F  F87  1  0.59948900  0.87820700  0.36340600  1
  F  F88  1  0.17164000  0.07851000  0.94017600  1
  F  F89  1  0.60928600  0.87849600  0.96037100  1
  F  F90  1  0.10928600  0.62150400  0.46037100  1
  F  F91  1  0.44814000  0.31605500  0.25000000  1
  F  F92  1  0.93806800  0.17208100  0.44985200  1
  F  F93  1  0.83453300  0.86348200  0.75000000  1
  F  F94  1  0.28043700  0.92357000  0.25000000  1
  F  F95  1  0.29483500  0.78720100  0.46606400  1
  F  F96  1  0.32836000  0.57851000  0.94017600  1
  F  F97  1  0.39071400  0.12150400  0.03962900  1
  F  F98  1  0.06193200  0.82791900  0.94985200  1
  F  F99  1  0.16546700  0.13651800  0.25000000  1
  F  F100  1  0.82836000  0.92149000  0.05982400  1
  F  F101  1  0.56572200  0.52654000  0.25000000  1
  F  F102  1  0.55186000  0.68394500  0.75000000  1
  F  F103  1  0.70516500  0.21279900  0.53393600  1
