# generated using pymatgen
data_AgH8C7S2O2F7
_symmetry_space_group_name_H-M   'P 1'
_cell_length_a   9.10179500
_cell_length_b   10.88582300
_cell_length_c   13.57592600
_cell_angle_alpha   90.00000000
_cell_angle_beta   90.00000000
_cell_angle_gamma   90.00000000
_symmetry_Int_Tables_number   1
_chemical_formula_structural   AgH8C7S2O2F7
_chemical_formula_sum   'Ag4 H32 C28 S8 O8 F28'
_cell_volume   1345.10993453
_cell_formula_units_Z   4
loop_
 _symmetry_equiv_pos_site_id
 _symmetry_equiv_pos_as_xyz
  1  'x, y, z'
loop_
 _atom_site_type_symbol
 _atom_site_label
 _atom_site_symmetry_multiplicity
 _atom_site_fract_x
 _atom_site_fract_y
 _atom_site_fract_z
 _atom_site_occupancy
  Ag  Ag0  1  0.66758300  0.22805300  0.03720300  1
  Ag  Ag1  1  0.16758300  0.77194700  0.96279700  1
  Ag  Ag2  1  0.16758300  0.27194700  0.03720300  1
  Ag  Ag3  1  0.66758300  0.72805300  0.96279700  1
  H  H4  1  0.64183800  0.08066100  0.26132200  1
  H  H5  1  0.83644000  0.59790700  0.76016900  1
  H  H6  1  0.64183800  0.58066100  0.73867800  1
  H  H7  1  0.33644000  0.90209300  0.76016900  1
  H  H8  1  0.14183800  0.91933900  0.73867800  1
  H  H9  1  0.89534800  0.14294100  0.81929400  1
  H  H10  1  0.14183800  0.41933900  0.26132200  1
  H  H11  1  0.33708800  0.20828000  0.77956800  1
  H  H12  1  0.83708800  0.79172000  0.22043200  1
  H  H13  1  0.26113900  0.54943800  0.27284800  1
  H  H14  1  0.02957800  0.25804400  0.79074700  1
  H  H15  1  0.52957800  0.74195600  0.20925300  1
  H  H16  1  0.47283200  0.00677100  0.88454600  1
  H  H17  1  0.40968500  0.50620800  0.98991900  1
  H  H18  1  0.52957800  0.24195600  0.79074700  1
  H  H19  1  0.33708800  0.70828000  0.22043200  1
  H  H20  1  0.40968500  0.00620800  0.01008100  1
  H  H21  1  0.39534800  0.35705900  0.81929400  1
  H  H22  1  0.76113900  0.45056200  0.72715200  1
  H  H23  1  0.97283200  0.99322900  0.11545400  1
  H  H24  1  0.02957800  0.75804400  0.20925300  1
  H  H25  1  0.33644000  0.40209300  0.23983100  1
  H  H26  1  0.90968500  0.49379200  0.01008100  1
  H  H27  1  0.47283200  0.50677100  0.11545400  1
  H  H28  1  0.83644000  0.09790700  0.23983100  1
  H  H29  1  0.39534800  0.85705900  0.18070600  1
  H  H30  1  0.97283200  0.49322900  0.88454600  1
  H  H31  1  0.26113900  0.04943800  0.72715200  1
  H  H32  1  0.83708800  0.29172000  0.77956800  1
  H  H33  1  0.76113900  0.95056200  0.27284800  1
  H  H34  1  0.90968500  0.99379200  0.98991900  1
  H  H35  1  0.89534800  0.64294100  0.18070600  1
  C  C36  1  0.68632600  0.87019800  0.60767500  1
  C  C37  1  0.26081300  0.09705600  0.20717600  1
  C  C38  1  0.24161400  0.96339800  0.76677800  1
  C  C39  1  0.92019000  0.24154300  0.82155100  1
  C  C40  1  0.24277900  0.03788200  0.31261700  1
  C  C41  1  0.42019000  0.75845700  0.17844900  1
  C  C42  1  0.24161400  0.46339800  0.23322200  1
  C  C43  1  0.76081300  0.40294400  0.20717600  1
  C  C44  1  0.18632600  0.12980200  0.39232500  1
  C  C45  1  0.24277900  0.53788200  0.68738300  1
  C  C46  1  0.42019000  0.25845700  0.82155100  1
  C  C47  1  0.74161400  0.53660200  0.76677800  1
  C  C48  1  0.92019000  0.74154300  0.17844900  1
  C  C49  1  0.71030300  0.90812800  0.49780800  1
  C  C50  1  0.74277900  0.46211800  0.31261700  1
  C  C51  1  0.39003400  0.04257700  0.93585600  1
  C  C52  1  0.71030300  0.40812800  0.50219200  1
  C  C53  1  0.26081300  0.59705600  0.79282400  1
  C  C54  1  0.74277900  0.96211800  0.68738300  1
  C  C55  1  0.21030300  0.09187200  0.50219200  1
  C  C56  1  0.74161400  0.03660200  0.23322200  1
  C  C57  1  0.21030300  0.59187200  0.49780800  1
  C  C58  1  0.39003400  0.54257700  0.06414400  1
  C  C59  1  0.89003400  0.95742300  0.06414400  1
  C  C60  1  0.18632600  0.62980200  0.60767500  1
  C  C61  1  0.89003400  0.45742300  0.93585600  1
  C  C62  1  0.76081300  0.90294400  0.79282400  1
  C  C63  1  0.68632600  0.37019800  0.39232500  1
  S  S64  1  0.91263100  0.79130200  0.05062100  1
  S  S65  1  0.70854000  0.50507200  0.89595500  1
  S  S66  1  0.91263100  0.29130200  0.94937900  1
  S  S67  1  0.41263100  0.20869800  0.94937900  1
  S  S68  1  0.20854000  0.99492800  0.89595500  1
  S  S69  1  0.41263100  0.70869800  0.05062100  1
  S  S70  1  0.20854000  0.49492800  0.10404500  1
  S  S71  1  0.70854000  0.00507200  0.10404500  1
  O  O72  1  0.64103200  0.86104900  0.82727600  1
  O  O73  1  0.64103200  0.36104900  0.17272400  1
  O  O74  1  0.14103200  0.13895100  0.17272400  1
  O  O75  1  0.88580400  0.90548600  0.82967700  1
  O  O76  1  0.38580400  0.09451400  0.17032300  1
  O  O77  1  0.38580400  0.59451400  0.82967700  1
  O  O78  1  0.14103200  0.63895100  0.82727600  1
  O  O79  1  0.88580400  0.40548600  0.17032300  1
  F  F80  1  0.87373900  0.01054700  0.65493100  1
  F  F81  1  0.35342700  0.09917900  0.52880400  1
  F  F82  1  0.14404000  0.94100800  0.30754000  1
  F  F83  1  0.35342700  0.59917900  0.47119600  1
  F  F84  1  0.64404000  0.55899200  0.30754000  1
  F  F85  1  0.37373900  0.98945300  0.34506900  1
  F  F86  1  0.03904600  0.14778000  0.37973500  1
  F  F87  1  0.25666600  0.74010200  0.62083000  1
  F  F88  1  0.53904600  0.85222000  0.62026500  1
  F  F89  1  0.13335200  0.16926200  0.56157700  1
  F  F90  1  0.14404000  0.44100800  0.69246000  1
  F  F91  1  0.66204200  0.02413100  0.48178500  1
  F  F92  1  0.03904600  0.64778000  0.62026500  1
  F  F93  1  0.66204200  0.52413100  0.51821500  1
  F  F94  1  0.16204200  0.47586900  0.48178500  1
  F  F95  1  0.37373900  0.48945300  0.65493100  1
  F  F96  1  0.64404000  0.05899200  0.69246000  1
  F  F97  1  0.75666600  0.25989800  0.37917000  1
  F  F98  1  0.85342700  0.90082100  0.47119600  1
  F  F99  1  0.87373900  0.51054700  0.34506900  1
  F  F100  1  0.53904600  0.35222000  0.37973500  1
  F  F101  1  0.85342700  0.40082100  0.52880400  1
  F  F102  1  0.63335200  0.83073800  0.43842300  1
  F  F103  1  0.75666600  0.75989800  0.62083000  1
  F  F104  1  0.63335200  0.33073800  0.56157700  1
  F  F105  1  0.16204200  0.97586900  0.51821500  1
  F  F106  1  0.25666600  0.24010200  0.37917000  1
  F  F107  1  0.13335200  0.66926200  0.43842300  1
