# generated using pymatgen
data_Si2H25C10N
_symmetry_space_group_name_H-M   'P 1'
_cell_length_a   13.12877800
_cell_length_b   9.08485200
_cell_length_c   13.44077723
_cell_angle_alpha   70.24901411
_cell_angle_beta   90.00000000
_cell_angle_gamma   90.00000000
_symmetry_Int_Tables_number   1
_chemical_formula_structural   Si2H25C10N
_chemical_formula_sum   'Si8 H100 C40 N4'
_cell_volume   1508.81055125
_cell_formula_units_Z   4
loop_
 _symmetry_equiv_pos_site_id
 _symmetry_equiv_pos_as_xyz
  1  'x, y, z'
loop_
 _atom_site_type_symbol
 _atom_site_label
 _atom_site_symmetry_multiplicity
 _atom_site_fract_x
 _atom_site_fract_y
 _atom_site_fract_z
 _atom_site_occupancy
  Si  Si0  1  0.91830700  0.83572900  0.21819600  1
  Si  Si1  1  0.42914300  0.90441600  0.50752900  1
  Si  Si2  1  0.07085700  0.90441600  0.00752900  1
  Si  Si3  1  0.57085700  0.09558400  0.49247100  1
  Si  Si4  1  0.92914300  0.09558400  0.99247100  1
  Si  Si5  1  0.58169300  0.83572900  0.71819600  1
  Si  Si6  1  0.08169300  0.16427100  0.78180400  1
  Si  Si7  1  0.41830700  0.16427100  0.28180400  1
  H  H8  1  0.15629200  0.31529200  0.93456000  1
  H  H9  1  0.60967300  0.86016500  0.94029500  1
  H  H10  1  0.39032700  0.13983500  0.05970500  1
  H  H11  1  0.50997800  0.70646400  0.44093900  1
  H  H12  1  0.49002200  0.29353600  0.55906100  1
  H  H13  1  0.75910300  0.06830200  0.51065000  1
  H  H14  1  0.91830400  0.94106900  0.77166600  1
  H  H15  1  0.81148000  0.58433400  0.40401000  1
  H  H16  1  0.84370800  0.68470800  0.06544000  1
  H  H17  1  0.78729200  0.97629600  0.92191700  1
  H  H18  1  0.73847700  0.48265200  0.33745300  1
  H  H19  1  0.24466400  0.45779800  0.85870200  1
  H  H20  1  0.72599600  0.18354600  0.38013300  1
  H  H21  1  0.00997800  0.29353600  0.05906100  1
  H  H22  1  0.51730100  0.52287500  0.69006300  1
  H  H23  1  0.34370800  0.31529200  0.43456000  1
  H  H24  1  0.99020600  0.20904200  0.50005500  1
  H  H25  1  0.76152300  0.48265200  0.83745300  1
  H  H26  1  0.91288800  0.38109400  0.96532500  1
  H  H27  1  0.98269900  0.52287500  0.19006300  1
  H  H28  1  0.27400400  0.81645400  0.61986700  1
  H  H29  1  0.47244000  0.51739200  0.17104700  1
  H  H30  1  0.08169600  0.05893100  0.22833400  1
  H  H31  1  0.15542500  0.75052100  0.40132200  1
  H  H32  1  0.41288800  0.61890600  0.53467500  1
  H  H33  1  0.23847700  0.51734800  0.16254700  1
  H  H34  1  0.93000000  0.66498300  0.45905100  1
  H  H35  1  0.40536000  0.02489700  0.86583900  1
  H  H36  1  0.26654000  0.25610700  0.88012000  1
  H  H37  1  0.25533600  0.45779800  0.35870200  1
  H  H38  1  0.00979400  0.79095800  0.49994500  1
  H  H39  1  0.66950300  0.93661700  0.72801200  1
  H  H40  1  0.34977000  0.78461300  0.76349000  1
  H  H41  1  0.10967300  0.13983500  0.55970500  1
  H  H42  1  0.43000000  0.33501700  0.04094900  1
  H  H43  1  0.87938500  0.26545900  0.09573200  1
  H  H44  1  0.74466400  0.54220200  0.64129800  1
  H  H45  1  0.02382500  0.90932000  0.69777400  1
  H  H46  1  0.22599600  0.81645400  0.11986700  1
  H  H47  1  0.90536000  0.97510300  0.63416100  1
  H  H48  1  0.84977000  0.21538700  0.73651000  1
  H  H49  1  0.97244000  0.48260800  0.32895300  1
  H  H50  1  0.83049700  0.93661700  0.22801200  1
  H  H51  1  0.23346000  0.25610700  0.38012000  1
  H  H52  1  0.84457500  0.24947900  0.59867800  1
  H  H53  1  0.49020600  0.79095800  0.99994500  1
  H  H54  1  0.33049700  0.06338300  0.27198800  1
  H  H55  1  0.65629200  0.68470800  0.56544000  1
  H  H56  1  0.74089700  0.06830200  0.01065000  1
  H  H57  1  0.88811400  0.39171400  0.26410600  1
  H  H58  1  0.41278500  0.61921400  0.85355400  1
  H  H59  1  0.89032700  0.86016500  0.44029500  1
  H  H60  1  0.58711200  0.38109400  0.46532500  1
  H  H61  1  0.41830400  0.05893100  0.72833400  1
  H  H62  1  0.11188600  0.60828600  0.73589400  1
  H  H63  1  0.65542500  0.24947900  0.09867800  1
  H  H64  1  0.65023000  0.21538700  0.23651000  1
  H  H65  1  0.71450700  0.68385900  0.31409100  1
  H  H66  1  0.57000000  0.66498300  0.95905100  1
  H  H67  1  0.08711200  0.61890600  0.03467500  1
  H  H68  1  0.58169600  0.94106900  0.27166600  1
  H  H69  1  0.78549300  0.68385900  0.81409100  1
  H  H70  1  0.28729200  0.02370400  0.57808300  1
  H  H71  1  0.77400400  0.18354600  0.88013300  1
  H  H72  1  0.28549300  0.31614100  0.68590900  1
  H  H73  1  0.52756000  0.48260800  0.82895300  1
  H  H74  1  0.08721500  0.61921400  0.35355400  1
  H  H75  1  0.01730100  0.47712500  0.80993700  1
  H  H76  1  0.16950300  0.06338300  0.77198800  1
  H  H77  1  0.31148000  0.41566600  0.09599000  1
  H  H78  1  0.25910300  0.93169800  0.98935000  1
  H  H79  1  0.24089700  0.93169800  0.48935000  1
  H  H80  1  0.73346000  0.74389300  0.11988000  1
  H  H81  1  0.97617500  0.09068000  0.30222600  1
  H  H82  1  0.99002200  0.70646400  0.94093900  1
  H  H83  1  0.38811400  0.60828600  0.23589400  1
  H  H84  1  0.91278500  0.38078600  0.64644600  1
  H  H85  1  0.15023000  0.78461300  0.26349000  1
  H  H86  1  0.68852000  0.58433400  0.90401000  1
  H  H87  1  0.09464000  0.02489700  0.36583900  1
  H  H88  1  0.37938500  0.73454100  0.40426800  1
  H  H89  1  0.52382500  0.09068000  0.80222600  1
  H  H90  1  0.18852000  0.41566600  0.59599000  1
  H  H91  1  0.50979400  0.20904200  0.00005500  1
  H  H92  1  0.75533600  0.54220200  0.14129800  1
  H  H93  1  0.71270800  0.97629600  0.42191700  1
  H  H94  1  0.59464000  0.97510300  0.13416100  1
  H  H95  1  0.21270800  0.02370400  0.07808300  1
  H  H96  1  0.61188600  0.39171400  0.76410600  1
  H  H97  1  0.47617500  0.90932000  0.19777400  1
  H  H98  1  0.58721500  0.38078600  0.14644600  1
  H  H99  1  0.48269900  0.47712500  0.30993700  1
  H  H100  1  0.62061500  0.26545900  0.59573200  1
  H  H101  1  0.34457500  0.75052100  0.90132200  1
  H  H102  1  0.02756000  0.51739200  0.67104700  1
  H  H103  1  0.21450700  0.31614100  0.18590900  1
  H  H104  1  0.26152300  0.51734800  0.66254700  1
  H  H105  1  0.07000000  0.33501700  0.54094900  1
  H  H106  1  0.12061500  0.73454100  0.90426800  1
  H  H107  1  0.76654000  0.74389300  0.61988000  1
  C  C108  1  0.60581100  0.25687600  0.16295500  1
  C  C109  1  0.04381100  0.21345500  0.56217700  1
  C  C110  1  0.04195300  0.01428200  0.30475600  1
  C  C111  1  0.77526100  0.59572300  0.32811700  1
  C  C112  1  0.54195300  0.98571800  0.19524400  1
  C  C113  1  0.72473900  0.59572300  0.82811700  1
  C  C114  1  0.56605000  0.27540700  0.53149700  1
  C  C115  1  0.93395000  0.27540700  0.03149700  1
  C  C116  1  0.49017300  0.84254200  0.82967400  1
  C  C117  1  0.20415600  0.92112700  0.05331900  1
  C  C118  1  0.45618900  0.21345500  0.06217700  1
  C  C119  1  0.64751800  0.63658900  0.73625500  1
  C  C120  1  0.89418900  0.25687600  0.66295500  1
  C  C121  1  0.35248200  0.36341100  0.26374500  1
  C  C122  1  0.85248200  0.63658900  0.23625500  1
  C  C123  1  0.95804700  0.98571800  0.69524400  1
  C  C124  1  0.45804700  0.01428200  0.80475600  1
  C  C125  1  0.10581100  0.74312400  0.33704500  1
  C  C126  1  0.50982700  0.15745800  0.17032600  1
  C  C127  1  0.92856000  0.50151900  0.25595800  1
  C  C128  1  0.57144000  0.50151900  0.75595800  1
  C  C129  1  0.95618900  0.78654500  0.43782300  1
  C  C130  1  0.42856000  0.49848100  0.24404200  1
  C  C131  1  0.20715300  0.34641100  0.86542800  1
  C  C132  1  0.22473900  0.40427700  0.67188300  1
  C  C133  1  0.43395000  0.72459300  0.46850300  1
  C  C134  1  0.99017300  0.15745800  0.67032600  1
  C  C135  1  0.14751800  0.36341100  0.76374500  1
  C  C136  1  0.29584400  0.92112700  0.55331900  1
  C  C137  1  0.79584400  0.07887300  0.94668100  1
  C  C138  1  0.70415600  0.07887300  0.44668100  1
  C  C139  1  0.54381100  0.78654500  0.93782300  1
  C  C140  1  0.70715300  0.65358900  0.63457200  1
  C  C141  1  0.39418900  0.74312400  0.83704500  1
  C  C142  1  0.06605000  0.72459300  0.96850300  1
  C  C143  1  0.07144000  0.49848100  0.74404200  1
  C  C144  1  0.27526100  0.40427700  0.17188300  1
  C  C145  1  0.00982700  0.84254200  0.32967400  1
  C  C146  1  0.79284700  0.65358900  0.13457200  1
  C  C147  1  0.29284700  0.34641100  0.36542800  1
  N  N148  1  0.02799900  0.07693000  0.90776500  1
  N  N149  1  0.52799900  0.92307000  0.59223500  1
  N  N150  1  0.47200100  0.07693000  0.40776500  1
  N  N151  1  0.97200100  0.92307000  0.09223500  1
