# generated using pymatgen
data_KTeOF3
_symmetry_space_group_name_H-M   'P 1'
_cell_length_a   5.88834000
_cell_length_b   5.47863200
_cell_length_c   8.14459453
_cell_angle_alpha   71.75819409
_cell_angle_beta   90.00000000
_cell_angle_gamma   90.00000000
_symmetry_Int_Tables_number   1
_chemical_formula_structural   KTeOF3
_chemical_formula_sum   'K2 Te2 O2 F6'
_cell_volume   249.54047145
_cell_formula_units_Z   2
loop_
 _symmetry_equiv_pos_site_id
 _symmetry_equiv_pos_as_xyz
  1  'x, y, z'
loop_
 _atom_site_type_symbol
 _atom_site_label
 _atom_site_symmetry_multiplicity
 _atom_site_fract_x
 _atom_site_fract_y
 _atom_site_fract_z
 _atom_site_occupancy
  K  K0  1  0.59838600  0.32274200  0.30891100  1
  K  K1  1  0.09838600  0.67725800  0.69108900  1
  Te  Te2  1  0.11785500  0.85920100  0.20625300  1
  Te  Te3  1  0.61785500  0.14079900  0.79374700  1
  O  O4  1  0.21199100  0.58678800  0.38391000  1
  O  O5  1  0.71199100  0.41321200  0.61609000  1
  F  F6  1  0.15182400  0.65643300  0.03705700  1
  F  F7  1  0.29325600  0.20841700  0.81451800  1
  F  F8  1  0.79325600  0.79158300  0.18548200  1
  F  F9  1  0.49368800  0.95963400  0.62699600  1
  F  F10  1  0.99368800  0.04036600  0.37300400  1
  F  F11  1  0.65182400  0.34356700  0.96294300  1
