# generated using pymatgen
data_NO2
_symmetry_space_group_name_H-M   'P 1'
_cell_length_a   7.86568785
_cell_length_b   7.86568785
_cell_length_c   7.86568785
_cell_angle_alpha   109.47122063
_cell_angle_beta   109.47122063
_cell_angle_gamma   109.47122063
_symmetry_Int_Tables_number   1
_chemical_formula_structural   NO2
_chemical_formula_sum   'N6 O12'
_cell_volume   374.61764746
_cell_formula_units_Z   6
loop_
 _symmetry_equiv_pos_site_id
 _symmetry_equiv_pos_as_xyz
  1  'x, y, z'
loop_
 _atom_site_type_symbol
 _atom_site_label
 _atom_site_symmetry_multiplicity
 _atom_site_fract_x
 _atom_site_fract_y
 _atom_site_fract_z
 _atom_site_occupancy
  N  N0  1  0.61010000  0.75000000  0.36010000  1
  N  N1  1  0.25000000  0.13990000  0.88990000  1
  N  N2  1  0.75000000  0.36010000  0.61010000  1
  N  N3  1  0.88990000  0.25000000  0.13990000  1
  N  N4  1  0.13990000  0.88990000  0.25000000  1
  N  N5  1  0.36010000  0.61010000  0.75000000  1
  O  O6  1  0.61442700  0.29058500  0.64890300  1
  O  O7  1  0.82384200  0.35831800  0.20941500  1
  O  O8  1  0.64890300  0.61442700  0.29058500  1
  O  O9  1  0.35831800  0.20941500  0.82384200  1
  O  O10  1  0.96552400  0.85109700  0.14168200  1
  O  O11  1  0.85109700  0.14168200  0.96552400  1
  O  O12  1  0.53447600  0.67615800  0.88557300  1
  O  O13  1  0.67615800  0.88557300  0.53447600  1
  O  O14  1  0.14168200  0.96552400  0.85109700  1
  O  O15  1  0.20941500  0.82384200  0.35831800  1
  O  O16  1  0.29058500  0.64890300  0.61442700  1
  O  O17  1  0.88557300  0.53447600  0.67615800  1
