# generated using pymatgen
data_La(In2Ni)3
_symmetry_space_group_name_H-M   'P 1'
_cell_length_a   4.42332200
_cell_length_b   7.64971100
_cell_length_c   11.96897600
_cell_angle_alpha   90.00000000
_cell_angle_beta   90.00000000
_cell_angle_gamma   90.00000000
_symmetry_Int_Tables_number   1
_chemical_formula_structural   La(In2Ni)3
_chemical_formula_sum   'La2 In12 Ni6'
_cell_volume   404.99585624
_cell_formula_units_Z   2
loop_
 _symmetry_equiv_pos_site_id
 _symmetry_equiv_pos_as_xyz
  1  'x, y, z'
loop_
 _atom_site_type_symbol
 _atom_site_label
 _atom_site_symmetry_multiplicity
 _atom_site_fract_x
 _atom_site_fract_y
 _atom_site_fract_z
 _atom_site_occupancy
  La  La0  1  0.50000000  0.50000000  0.67727700  1
  La  La1  1  0.00000000  0.00000000  0.32272300  1
  In  In2  1  0.00000000  0.70696700  0.83754400  1
  In  In3  1  0.00000000  0.80161500  0.58397800  1
  In  In4  1  0.00000000  0.50000000  0.25163900  1
  In  In5  1  0.50000000  0.20696700  0.16245600  1
  In  In6  1  0.00000000  0.00000000  0.01166600  1
  In  In7  1  0.00000000  0.29303300  0.83754400  1
  In  In8  1  0.50000000  0.50000000  0.98833400  1
  In  In9  1  0.50000000  0.79303300  0.16245600  1
  In  In10  1  0.50000000  0.30161500  0.41602200  1
  In  In11  1  0.00000000  0.19838500  0.58397800  1
  In  In12  1  0.50000000  0.69838500  0.41602200  1
  In  In13  1  0.50000000  0.00000000  0.74836100  1
  Ni  Ni14  1  0.50000000  0.00000000  0.53300000  1
  Ni  Ni15  1  0.00000000  0.50000000  0.46700000  1
  Ni  Ni16  1  0.00000000  0.32784400  0.06431900  1
  Ni  Ni17  1  0.00000000  0.67215600  0.06431900  1
  Ni  Ni18  1  0.50000000  0.17215600  0.93568100  1
  Ni  Ni19  1  0.50000000  0.82784400  0.93568100  1
