data_image0
_chemical_formula_structural       As4Ge2Zn2
_chemical_formula_sum              "As4 Ge2 Zn2"
_cell_length_a       5.74453
_cell_length_b       5.74453
_cell_length_c       6.95786
_cell_angle_alpha    114.381
_cell_angle_beta     114.381
_cell_angle_gamma    90

_space_group_name_H-M_alt    "P 1"
_space_group_IT_number       1

loop_
  _space_group_symop_operation_xyz
  'x, y, z'

loop_
  _atom_site_type_symbol
  _atom_site_label
  _atom_site_symmetry_multiplicity
  _atom_site_fract_x
  _atom_site_fract_y
  _atom_site_fract_z
  _atom_site_occupancy
  As  As1       1.0  0.37700  0.37500  0.25000  1.0000
  As  As2       1.0  0.87300  0.87500  0.25000  1.0000
  As  As3       1.0  0.62500  0.12700  0.75000  1.0000
  As  As4       1.0  0.12500  0.62300  0.75000  1.0000
  Ge  Ge1       1.0  0.50000  0.50000  0.00000  1.0000
  Ge  Ge2       1.0  0.75000  0.25000  0.50000  1.0000
  Zn  Zn1       1.0  0.00000  0.00000  0.00000  1.0000
  Zn  Zn2       1.0  0.25000  0.75000  0.50000  1.0000
