# generated using pymatgen
data_RbCu2I3
_symmetry_space_group_name_H-M   'P 1'
_cell_length_a   20.95717197
_cell_length_b   31.34736563
_cell_length_c   31.34736628
_cell_angle_alpha   102.68705967
_cell_angle_beta   90.00000000
_cell_angle_gamma   90.00000000
_symmetry_Int_Tables_number   1
_chemical_formula_structural   RbCu2I3
_chemical_formula_sum   'Rb2 Cu4 I6'
_cell_volume   20090.90640763
_cell_formula_units_Z   2
loop_
 _symmetry_equiv_pos_site_id
 _symmetry_equiv_pos_as_xyz
  1  'x, y, z'
loop_
 _atom_site_type_symbol
 _atom_site_label
 _atom_site_symmetry_multiplicity
 _atom_site_fract_x
 _atom_site_fract_y
 _atom_site_fract_z
 _atom_site_occupancy
  Rb  Rb0  1  0.75000000  0.18319516  0.81680484  1
  Rb  Rb1  1  0.25000000  0.81680484  0.18319516  1
  Cu  Cu2  1  0.50000000  0.83999366  0.83999366  1
  Cu  Cu3  1  -0.00000000  0.16000634  0.16000634  1
  Cu  Cu4  1  0.00000000  0.83999366  0.83999366  1
  Cu  Cu5  1  0.50000000  0.16000634  0.16000634  1
  I  I6  1  0.75000000  0.16439606  0.41300289  1
  I  I7  1  0.25000000  0.88429634  0.11570366  1
  I  I8  1  0.25000000  0.83560394  0.58699711  1
  I  I9  1  0.75000000  0.58699711  0.83560394  1
  I  I10  1  0.25000000  0.41300289  0.16439606  1
  I  I11  1  0.75000000  0.11570366  0.88429634  1
