# generated using pymatgen
data_OsC3IO3
_symmetry_space_group_name_H-M   'P 1'
_cell_length_a   14.18497000
_cell_length_b   6.51874200
_cell_length_c   7.42982150
_cell_angle_alpha   88.88512595
_cell_angle_beta   90.00000000
_cell_angle_gamma   90.00000000
_symmetry_Int_Tables_number   1
_chemical_formula_structural   OsC3IO3
_chemical_formula_sum   'Os4 C12 I4 O12'
_cell_volume   686.89186460
_cell_formula_units_Z   4
loop_
 _symmetry_equiv_pos_site_id
 _symmetry_equiv_pos_as_xyz
  1  'x, y, z'
loop_
 _atom_site_type_symbol
 _atom_site_label
 _atom_site_symmetry_multiplicity
 _atom_site_fract_x
 _atom_site_fract_y
 _atom_site_fract_z
 _atom_site_occupancy
  Os  Os0  1  0.65133100  0.24854400  0.71800400  1
  Os  Os1  1  0.34866900  0.75145600  0.28199600  1
  Os  Os2  1  0.15133100  0.75145600  0.28199600  1
  Os  Os3  1  0.84866900  0.24854400  0.71800400  1
  C  C4  1  0.87321700  0.12201800  0.49648200  1
  C  C5  1  0.46802600  0.61468300  0.25488000  1
  C  C6  1  0.11914900  0.99247200  0.15133100  1
  C  C7  1  0.38085100  0.99247200  0.15133100  1
  C  C8  1  0.53197400  0.38531700  0.74512000  1
  C  C9  1  0.61914900  0.00752800  0.84866900  1
  C  C10  1  0.12678300  0.87798200  0.50351800  1
  C  C11  1  0.88085100  0.00752800  0.84866900  1
  C  C12  1  0.96802600  0.38531700  0.74512000  1
  C  C13  1  0.03197400  0.61468300  0.25488000  1
  C  C14  1  0.37321700  0.87798200  0.50351800  1
  C  C15  1  0.62678300  0.12201800  0.49648200  1
  I  I16  1  0.75000000  0.56289100  0.53944700  1
  I  I17  1  0.25000000  0.43710900  0.46055300  1
  I  I18  1  0.75000000  0.38992000  0.01349000  1
  I  I19  1  0.25000000  0.61008000  0.98651000  1
  O  O20  1  0.59756200  0.85871800  0.92748200  1
  O  O21  1  0.54092300  0.53335800  0.24555800  1
  O  O22  1  0.10951700  0.96007000  0.63759300  1
  O  O23  1  0.39048300  0.96007000  0.63759300  1
  O  O24  1  0.60951700  0.03993000  0.36240700  1
  O  O25  1  0.45907700  0.46664200  0.75444200  1
  O  O26  1  0.09756200  0.14128200  0.07251800  1
  O  O27  1  0.89048300  0.03993000  0.36240700  1
  O  O28  1  0.95907700  0.53335800  0.24555800  1
  O  O29  1  0.90243800  0.85871800  0.92748200  1
  O  O30  1  0.40243800  0.14128200  0.07251800  1
  O  O31  1  0.04092300  0.46664200  0.75444200  1
