# generated using pymatgen
data_NaV2O5
_symmetry_space_group_name_H-M   'P 1'
_cell_length_a   3.72668700
_cell_length_b   5.06163100
_cell_length_c   11.71972800
_cell_angle_alpha   90.00000000
_cell_angle_beta   90.00000000
_cell_angle_gamma   90.00000000
_symmetry_Int_Tables_number   1
_chemical_formula_structural   NaV2O5
_chemical_formula_sum   'Na2 V4 O10'
_cell_volume   221.07057055
_cell_formula_units_Z   2
loop_
 _symmetry_equiv_pos_site_id
 _symmetry_equiv_pos_as_xyz
  1  'x, y, z'
loop_
 _atom_site_type_symbol
 _atom_site_label
 _atom_site_symmetry_multiplicity
 _atom_site_fract_x
 _atom_site_fract_y
 _atom_site_fract_z
 _atom_site_occupancy
  Na  Na0  1  0.50000000  0.40521700  0.52373400  1
  Na  Na1  1  0.00000000  0.59478300  0.02373400  1
  V  V2  1  0.50000000  0.10593600  0.15613000  1
  V  V3  1  0.00000000  0.89406400  0.65613000  1
  V  V4  1  0.50000000  0.89849900  0.85484200  1
  V  V5  1  0.00000000  0.10150100  0.35484200  1
  O  O6  1  0.00000000  0.42594300  0.37211700  1
  O  O7  1  0.50000000  0.57405700  0.87211700  1
  O  O8  1  0.00000000  0.02792400  0.18572700  1
  O  O9  1  0.50000000  0.97207600  0.68572700  1
  O  O10  1  0.00000000  0.01959000  0.51665300  1
  O  O11  1  0.50000000  0.98041000  0.01665300  1
  O  O12  1  0.50000000  0.43015900  0.14049400  1
  O  O13  1  0.00000000  0.56984100  0.64049400  1
  O  O14  1  0.50000000  0.01008000  0.32226200  1
  O  O15  1  0.00000000  0.98992000  0.82226200  1
