# generated using pymatgen
data_O2
_symmetry_space_group_name_H-M   'P 1'
_cell_length_a   4.33273531
_cell_length_b   4.17806799
_cell_length_c   2.41391538
_cell_angle_alpha   77.07824553
_cell_angle_beta   70.03191048
_cell_angle_gamma   32.88984399
_symmetry_Int_Tables_number   1
_chemical_formula_structural   O2
_chemical_formula_sum   O2
_cell_volume   22.13118887
_cell_formula_units_Z   1
loop_
 _symmetry_equiv_pos_site_id
 _symmetry_equiv_pos_as_xyz
  1  'x, y, z'
loop_
 _atom_site_type_symbol
 _atom_site_label
 _atom_site_symmetry_multiplicity
 _atom_site_fract_x
 _atom_site_fract_y
 _atom_site_fract_z
 _atom_site_occupancy
  O  O0  1  0.42109800  0.42109800  0.57890200  1
  O  O1  1  0.57890200  0.57890200  0.42109800  1
