# generated using pymatgen
data_NdNO4
_symmetry_space_group_name_H-M   'P 1'
_cell_length_a   5.45355200
_cell_length_b   7.35203300
_cell_length_c   9.53946400
_cell_angle_alpha   90.00000000
_cell_angle_beta   90.00000000
_cell_angle_gamma   90.00000000
_symmetry_Int_Tables_number   1
_chemical_formula_structural   NdNO4
_chemical_formula_sum   'Nd4 N4 O16'
_cell_volume   382.48189259
_cell_formula_units_Z   4
loop_
 _symmetry_equiv_pos_site_id
 _symmetry_equiv_pos_as_xyz
  1  'x, y, z'
loop_
 _atom_site_type_symbol
 _atom_site_label
 _atom_site_symmetry_multiplicity
 _atom_site_fract_x
 _atom_site_fract_y
 _atom_site_fract_z
 _atom_site_occupancy
  Nd  Nd0  1  0.75000000  0.71029200  0.84195600  1
  Nd  Nd1  1  0.25000000  0.28970800  0.15804400  1
  Nd  Nd2  1  0.25000000  0.78970800  0.34195600  1
  Nd  Nd3  1  0.75000000  0.21029200  0.65804400  1
  N  N4  1  0.75000000  0.20454300  0.34166300  1
  N  N5  1  0.25000000  0.29545700  0.84166300  1
  N  N6  1  0.25000000  0.79545700  0.65833700  1
  N  N7  1  0.75000000  0.70454300  0.15833700  1
  O  O8  1  0.75000000  0.99790900  0.81485100  1
  O  O9  1  0.25000000  0.50209100  0.31485100  1
  O  O10  1  0.95101800  0.67728900  0.09421700  1
  O  O11  1  0.04898200  0.32271100  0.90578300  1
  O  O12  1  0.75000000  0.26051400  0.21595100  1
  O  O13  1  0.04898200  0.82271100  0.59421700  1
  O  O14  1  0.54898200  0.17728900  0.40578300  1
  O  O15  1  0.75000000  0.76051400  0.28404900  1
  O  O16  1  0.45101800  0.82271100  0.59421700  1
  O  O17  1  0.25000000  0.00209100  0.18514900  1
  O  O18  1  0.45101800  0.32271100  0.90578300  1
  O  O19  1  0.54898200  0.67728900  0.09421700  1
  O  O20  1  0.75000000  0.49790900  0.68514900  1
  O  O21  1  0.25000000  0.23948600  0.71595100  1
  O  O22  1  0.95101800  0.17728900  0.40578300  1
  O  O23  1  0.25000000  0.73948600  0.78404900  1
