# generated using pymatgen
data_MoPN(Cl3O)2
_symmetry_space_group_name_H-M   'P 1'
_cell_length_a   11.36503500
_cell_length_b   8.40906300
_cell_length_c   12.73980759
_cell_angle_alpha   70.38364084
_cell_angle_beta   90.00000000
_cell_angle_gamma   90.00000000
_symmetry_Int_Tables_number   1
_chemical_formula_structural   MoPN(Cl3O)2
_chemical_formula_sum   'Mo4 P4 N4 Cl24 O8'
_cell_volume   1146.87072716
_cell_formula_units_Z   4
loop_
 _symmetry_equiv_pos_site_id
 _symmetry_equiv_pos_as_xyz
  1  'x, y, z'
loop_
 _atom_site_type_symbol
 _atom_site_label
 _atom_site_symmetry_multiplicity
 _atom_site_fract_x
 _atom_site_fract_y
 _atom_site_fract_z
 _atom_site_occupancy
  Mo  Mo0  1  0.38374400  0.92220100  0.12208700  1
  Mo  Mo1  1  0.88374400  0.07779900  0.37791300  1
  Mo  Mo2  1  0.61625600  0.07779900  0.87791300  1
  Mo  Mo3  1  0.11625600  0.92220100  0.62208700  1
  P  P4  1  0.24101300  0.33275800  0.02462900  1
  P  P5  1  0.25898700  0.33275800  0.52462900  1
  P  P6  1  0.75898700  0.66724200  0.97537100  1
  P  P7  1  0.74101300  0.66724200  0.47537100  1
  N  N8  1  0.06983500  0.70723300  0.66549700  1
  N  N9  1  0.43016500  0.70723300  0.16549700  1
  N  N10  1  0.56983500  0.29276700  0.83450300  1
  N  N11  1  0.93016500  0.29276700  0.33450300  1
  Cl  Cl12  1  0.90236100  0.04448100  0.20379300  1
  Cl  Cl13  1  0.68235000  0.14027600  0.38101200  1
  Cl  Cl14  1  0.69286400  0.44413700  0.06680200  1
  Cl  Cl15  1  0.80713600  0.44413700  0.56680200  1
  Cl  Cl16  1  0.90506100  0.03579700  0.58400500  1
  Cl  Cl17  1  0.59493900  0.03579700  0.08400500  1
  Cl  Cl18  1  0.09763900  0.95551900  0.79620700  1
  Cl  Cl19  1  0.11052600  0.28880600  0.93477200  1
  Cl  Cl20  1  0.30713600  0.55586300  0.93319800  1
  Cl  Cl21  1  0.38947400  0.28880600  0.43477200  1
  Cl  Cl22  1  0.88947400  0.71119400  0.06522800  1
  Cl  Cl23  1  0.81765000  0.14027600  0.88101200  1
  Cl  Cl24  1  0.59763900  0.04448100  0.70379300  1
  Cl  Cl25  1  0.09493900  0.96420300  0.41599500  1
  Cl  Cl26  1  0.19286400  0.55586300  0.43319800  1
  Cl  Cl27  1  0.66908100  0.63189900  0.34348500  1
  Cl  Cl28  1  0.33091900  0.36810100  0.65651500  1
  Cl  Cl29  1  0.83091900  0.63189900  0.84348500  1
  Cl  Cl30  1  0.16908100  0.36810100  0.15651500  1
  Cl  Cl31  1  0.61052600  0.71119400  0.56522800  1
  Cl  Cl32  1  0.40236100  0.95551900  0.29620700  1
  Cl  Cl33  1  0.31765000  0.85972400  0.61898800  1
  Cl  Cl34  1  0.40506100  0.96420300  0.91599500  1
  Cl  Cl35  1  0.18235000  0.85972400  0.11898800  1
  O  O36  1  0.16450900  0.19952400  0.55748400  1
  O  O37  1  0.33549100  0.19952400  0.05748400  1
  O  O38  1  0.66450900  0.80047600  0.94251600  1
  O  O39  1  0.45684400  0.56258400  0.18725800  1
  O  O40  1  0.95684400  0.43741600  0.31274200  1
  O  O41  1  0.04315600  0.56258400  0.68725800  1
  O  O42  1  0.54315600  0.43741600  0.81274200  1
  O  O43  1  0.83549100  0.80047600  0.44251600  1
