# generated using pymatgen
data_Pu
_symmetry_space_group_name_H-M   'P 1'
_cell_length_a   4.55493400
_cell_length_b   6.01329136
_cell_length_c   10.95229690
_cell_angle_alpha   101.92945780
_cell_angle_beta   90.00000000
_cell_angle_gamma   90.00000000
_symmetry_Int_Tables_number   1
_chemical_formula_structural   Pu
_chemical_formula_sum   Pu16
_cell_volume   293.50617872
_cell_formula_units_Z   16
loop_
 _symmetry_equiv_pos_site_id
 _symmetry_equiv_pos_as_xyz
  1  'x, y, z'
loop_
 _atom_site_type_symbol
 _atom_site_label
 _atom_site_symmetry_multiplicity
 _atom_site_fract_x
 _atom_site_fract_y
 _atom_site_fract_z
 _atom_site_occupancy
  Pu  Pu0  1  0.75000000  0.35033200  0.53669600  1
  Pu  Pu1  1  0.75000000  0.66548900  0.84291600  1
  Pu  Pu2  1  0.25000000  0.01843300  0.61829500  1
  Pu  Pu3  1  0.25000000  0.64966800  0.46330400  1
  Pu  Pu4  1  0.25000000  0.30177600  0.92729200  1
  Pu  Pu5  1  0.25000000  0.86556500  0.89091800  1
  Pu  Pu6  1  0.75000000  0.55676400  0.36343100  1
  Pu  Pu7  1  0.25000000  0.74897400  0.17007000  1
  Pu  Pu8  1  0.75000000  0.69822400  0.07270800  1
  Pu  Pu9  1  0.75000000  0.89205200  0.67341300  1
  Pu  Pu10  1  0.75000000  0.98156700  0.38170500  1
  Pu  Pu11  1  0.25000000  0.44323600  0.63656900  1
  Pu  Pu12  1  0.75000000  0.25102600  0.82993000  1
  Pu  Pu13  1  0.25000000  0.33451100  0.15708400  1
  Pu  Pu14  1  0.75000000  0.13443500  0.10908200  1
  Pu  Pu15  1  0.25000000  0.10794800  0.32658700  1
