# generated using pymatgen
data_SnS16(Cl2O)2
_symmetry_space_group_name_H-M   'P 1'
_cell_length_a   14.21997000
_cell_length_b   8.90686200
_cell_length_c   23.96798846
_cell_angle_alpha   69.86799047
_cell_angle_beta   90.00000000
_cell_angle_gamma   90.00000000
_symmetry_Int_Tables_number   1
_chemical_formula_structural   SnS16(Cl2O)2
_chemical_formula_sum   'Sn4 S64 Cl16 O8'
_cell_volume   2850.19981061
_cell_formula_units_Z   4
loop_
 _symmetry_equiv_pos_site_id
 _symmetry_equiv_pos_as_xyz
  1  'x, y, z'
loop_
 _atom_site_type_symbol
 _atom_site_label
 _atom_site_symmetry_multiplicity
 _atom_site_fract_x
 _atom_site_fract_y
 _atom_site_fract_z
 _atom_site_occupancy
  Sn  Sn0  1  0.63173000  0.98282500  0.70293500  1
  Sn  Sn1  1  0.13173000  0.01717500  0.79706500  1
  Sn  Sn2  1  0.36827000  0.01717500  0.29706500  1
  Sn  Sn3  1  0.86827000  0.98282500  0.20293500  1
  S  S4  1  0.29699300  0.38295700  0.04588500  1
  S  S5  1  0.54803600  0.27164700  0.48314400  1
  S  S6  1  0.96980400  0.54745200  0.77106000  1
  S  S7  1  0.30053500  0.62719200  0.63096100  1
  S  S8  1  0.45294900  0.86661500  0.81977800  1
  S  S9  1  0.53019600  0.54745200  0.27106000  1
  S  S10  1  0.47054300  0.98382100  0.88801700  1
  S  S11  1  0.41798500  0.61044600  0.87042800  1
  S  S12  1  0.35303900  0.81301300  0.56083000  1
  S  S13  1  0.19946500  0.62719200  0.13096100  1
  S  S14  1  0.85303900  0.18698700  0.93917000  1
  S  S15  1  0.97054300  0.01617900  0.61198300  1
  S  S16  1  0.41465200  0.23808300  0.45237200  1
  S  S17  1  0.89079000  0.98361100  0.40262400  1
  S  S18  1  0.08201500  0.61044600  0.37042800  1
  S  S19  1  0.54001600  0.49394700  0.87577600  1
  S  S20  1  0.70300700  0.61704300  0.95411500  1
  S  S21  1  0.63046200  0.38019400  0.29079500  1
  S  S22  1  0.69946500  0.37280800  0.36903900  1
  S  S23  1  0.02945700  0.98382100  0.38801700  1
  S  S24  1  0.10266300  0.55245500  0.54073000  1
  S  S25  1  0.60223800  0.58946200  0.69556600  1
  S  S26  1  0.35456100  0.20542100  0.02016200  1
  S  S27  1  0.10921000  0.01638900  0.59737600  1
  S  S28  1  0.91465200  0.76191700  0.04762800  1
  S  S29  1  0.13046200  0.61980600  0.20920500  1
  S  S30  1  0.45196400  0.72835300  0.51685600  1
  S  S31  1  0.95196400  0.27164700  0.98314400  1
  S  S32  1  0.08534800  0.23808300  0.95237200  1
  S  S33  1  0.13147300  0.44073300  0.89158900  1
  S  S34  1  0.04705100  0.86661500  0.31977800  1
  S  S35  1  0.64543900  0.79457900  0.97983800  1
  S  S36  1  0.63147300  0.55926700  0.60841100  1
  S  S37  1  0.58534800  0.76191700  0.54762800  1
  S  S38  1  0.85456100  0.79457900  0.47983800  1
  S  S39  1  0.86852700  0.55926700  0.10841100  1
  S  S40  1  0.39776200  0.41053800  0.30443400  1
  S  S41  1  0.45998400  0.50605300  0.12422400  1
  S  S42  1  0.14696100  0.81301300  0.06083000  1
  S  S43  1  0.04001600  0.50605300  0.62422400  1
  S  S44  1  0.39733700  0.55245500  0.04073000  1
  S  S45  1  0.64696100  0.18698700  0.43917000  1
  S  S46  1  0.58201500  0.38955400  0.12957200  1
  S  S47  1  0.89733700  0.44754500  0.45927000  1
  S  S48  1  0.10223800  0.41053800  0.80443400  1
  S  S49  1  0.95294900  0.13338500  0.68022200  1
  S  S50  1  0.89776200  0.58946200  0.19556600  1
  S  S51  1  0.80053500  0.37280800  0.86903900  1
  S  S52  1  0.60266300  0.44754500  0.95927000  1
  S  S53  1  0.60921000  0.98361100  0.90262400  1
  S  S54  1  0.39079000  0.01638900  0.09737600  1
  S  S55  1  0.36953800  0.61980600  0.70920500  1
  S  S56  1  0.20300700  0.38295700  0.54588500  1
  S  S57  1  0.86953800  0.38019400  0.79079500  1
  S  S58  1  0.91798500  0.38955400  0.62957200  1
  S  S59  1  0.95998400  0.49394700  0.37577600  1
  S  S60  1  0.04803600  0.72835300  0.01685600  1
  S  S61  1  0.52945700  0.01617900  0.11198300  1
  S  S62  1  0.14543900  0.20542100  0.52016200  1
  S  S63  1  0.54705100  0.13338500  0.18022200  1
  S  S64  1  0.79699300  0.61704300  0.45411500  1
  S  S65  1  0.36852700  0.44073300  0.39158900  1
  S  S66  1  0.46980400  0.45254800  0.72894000  1
  S  S67  1  0.03019600  0.45254800  0.22894000  1
  Cl  Cl68  1  0.74709300  0.79832000  0.75787500  1
  Cl  Cl69  1  0.24709300  0.20168000  0.74212500  1
  Cl  Cl70  1  0.27967000  0.92476000  0.38761100  1
  Cl  Cl71  1  0.17096400  0.80225200  0.76119900  1
  Cl  Cl72  1  0.82903600  0.19774800  0.23880100  1
  Cl  Cl73  1  0.67096400  0.19774800  0.73880100  1
  Cl  Cl74  1  0.25290700  0.20168000  0.24212500  1
  Cl  Cl75  1  0.98123900  0.91922200  0.83369600  1
  Cl  Cl76  1  0.72033000  0.07524000  0.61238900  1
  Cl  Cl77  1  0.01876100  0.08077800  0.16630400  1
  Cl  Cl78  1  0.48123900  0.08077800  0.66630400  1
  Cl  Cl79  1  0.51876100  0.91922200  0.33369600  1
  Cl  Cl80  1  0.77967000  0.07524000  0.11238900  1
  Cl  Cl81  1  0.22033000  0.92476000  0.88761100  1
  Cl  Cl82  1  0.32903600  0.80225200  0.26119900  1
  Cl  Cl83  1  0.75290700  0.79832000  0.25787500  1
  O  O84  1  0.07172600  0.23774600  0.82110700  1
  O  O85  1  0.57172600  0.76225400  0.67889300  1
  O  O86  1  0.44881500  0.14343400  0.20265000  1
  O  O87  1  0.92827400  0.76225400  0.17889300  1
  O  O88  1  0.94881500  0.85656600  0.29735000  1
  O  O89  1  0.42827400  0.23774600  0.32110700  1
  O  O90  1  0.55118500  0.85656600  0.79735000  1
  O  O91  1  0.05118500  0.14343400  0.70265000  1
