# generated using pymatgen
data_N2O
_symmetry_space_group_name_H-M   'P 1'
_cell_length_a   4.68546549
_cell_length_b   4.68546549
_cell_length_c   10.68278400
_cell_angle_alpha   90.00000000
_cell_angle_beta   90.00000000
_cell_angle_gamma   119.99999285
_symmetry_Int_Tables_number   1
_chemical_formula_structural   N2O
_chemical_formula_sum   'N6 O3'
_cell_volume   203.10499208
_cell_formula_units_Z   3
loop_
 _symmetry_equiv_pos_site_id
 _symmetry_equiv_pos_as_xyz
  1  'x, y, z'
loop_
 _atom_site_type_symbol
 _atom_site_label
 _atom_site_symmetry_multiplicity
 _atom_site_fract_x
 _atom_site_fract_y
 _atom_site_fract_z
 _atom_site_occupancy
  N  N0  1  0.74791300  0.13296300  0.34632600  1
  N  N1  1  0.38505000  0.25208700  0.01299300  1
  N  N2  1  0.86703700  0.61495000  0.67965900  1
  N  N3  1  0.25208700  0.38505000  0.98700700  1
  N  N4  1  0.13296300  0.74791300  0.65367400  1
  N  N5  1  0.61495000  0.86703700  0.32034100  1
  O  O6  1  0.72277600  0.00000000  0.83333300  1
  O  O7  1  0.27722400  0.27722400  0.50000000  1
  O  O8  1  0.00000000  0.72277600  0.16666700  1
