# generated using pymatgen
data_B2O
_symmetry_space_group_name_H-M   'P 1'
_cell_length_a   2.57155975
_cell_length_b   2.57155975
_cell_length_c   10.13160500
_cell_angle_alpha   90.00000000
_cell_angle_beta   90.00000000
_cell_angle_gamma   119.99999360
_symmetry_Int_Tables_number   1
_chemical_formula_structural   B2O
_chemical_formula_sum   'B4 O2'
_cell_volume   58.02326310
_cell_formula_units_Z   2
loop_
 _symmetry_equiv_pos_site_id
 _symmetry_equiv_pos_as_xyz
  1  'x, y, z'
loop_
 _atom_site_type_symbol
 _atom_site_label
 _atom_site_symmetry_multiplicity
 _atom_site_fract_x
 _atom_site_fract_y
 _atom_site_fract_z
 _atom_site_occupancy
  B  B0  1  0.00000000  0.00000000  0.58625500  1
  B  B1  1  0.66666700  0.33333300  0.02555500  1
  B  B2  1  0.00000000  0.00000000  0.41374500  1
  B  B3  1  0.33333300  0.66666700  0.97444500  1
  O  O4  1  0.33333300  0.66666700  0.64108700  1
  O  O5  1  0.66666700  0.33333300  0.35891300  1
