# generated using pymatgen
data_CoSO4
_symmetry_space_group_name_H-M   'P 1'
_cell_length_a   7.14223800
_cell_length_b   5.45640800
_cell_length_c   6.86062164
_cell_angle_alpha   77.35491726
_cell_angle_beta   90.00000000
_cell_angle_gamma   90.00000000
_symmetry_Int_Tables_number   1
_chemical_formula_structural   CoSO4
_chemical_formula_sum   'Co2 S2 O8'
_cell_volume   260.88005450
_cell_formula_units_Z   2
loop_
 _symmetry_equiv_pos_site_id
 _symmetry_equiv_pos_as_xyz
  1  'x, y, z'
loop_
 _atom_site_type_symbol
 _atom_site_label
 _atom_site_symmetry_multiplicity
 _atom_site_fract_x
 _atom_site_fract_y
 _atom_site_fract_z
 _atom_site_occupancy
  Co  Co0  1  0.00000000  0.00000000  0.00000000  1
  Co  Co1  1  0.50000000  0.00000000  0.00000000  1
  S  S2  1  0.75000000  0.06932300  0.26546600  1
  S  S3  1  0.25000000  0.93067700  0.73453400  1
  O  O4  1  0.25000000  0.74296300  0.61948700  1
  O  O5  1  0.25000000  0.82003200  0.97236100  1
  O  O6  1  0.75000000  0.17996800  0.02763900  1
  O  O7  1  0.07489100  0.08913000  0.71635100  1
  O  O8  1  0.75000000  0.25703700  0.38051300  1
  O  O9  1  0.92510900  0.91087000  0.28364900  1
  O  O10  1  0.57489100  0.91087000  0.28364900  1
  O  O11  1  0.42510900  0.08913000  0.71635100  1
