# generated using pymatgen
data_Sr15Fe10(Bi5O23)2
_symmetry_space_group_name_H-M   'P 1'
_cell_length_a   21.40565710
_cell_length_b   21.40565710
_cell_length_c   5.54635900
_cell_angle_alpha   90.00000000
_cell_angle_beta   90.00000000
_cell_angle_gamma   100.09453379
_symmetry_Int_Tables_number   1
_chemical_formula_structural   Sr15Fe10(Bi5O23)2
_chemical_formula_sum   'Sr30 Fe20 Bi20 O92'
_cell_volume   2502.01325863
_cell_formula_units_Z   2
loop_
 _symmetry_equiv_pos_site_id
 _symmetry_equiv_pos_as_xyz
  1  'x, y, z'
loop_
 _atom_site_type_symbol
 _atom_site_label
 _atom_site_symmetry_multiplicity
 _atom_site_fract_x
 _atom_site_fract_y
 _atom_site_fract_z
 _atom_site_occupancy
  Sr  Sr0  1  0.68846300  0.21021000  0.25308700  1
  Sr  Sr1  1  0.50000000  0.00000000  0.25510800  1
  Sr  Sr2  1  0.18717600  0.90785100  0.25656700  1
  Sr  Sr3  1  0.78979000  0.31153700  0.74691300  1
  Sr  Sr4  1  0.21021000  0.68846300  0.74691300  1
  Sr  Sr5  1  0.00531000  0.28060900  0.24964900  1
  Sr  Sr6  1  0.09214900  0.81282400  0.74343300  1
  Sr  Sr7  1  0.71939100  0.99469000  0.75035100  1
  Sr  Sr8  1  0.53017400  0.78704600  0.74632400  1
  Sr  Sr9  1  0.99469000  0.71939100  0.24964900  1
  Sr  Sr10  1  0.31153700  0.78979000  0.25308700  1
  Sr  Sr11  1  0.67789500  0.43111800  0.75112100  1
  Sr  Sr12  1  0.90785100  0.18717600  0.74343300  1
  Sr  Sr13  1  0.40717400  0.89417400  0.75134700  1
  Sr  Sr14  1  0.00000000  0.50000000  0.74489200  1
  Sr  Sr15  1  0.21295400  0.46982600  0.25367600  1
  Sr  Sr16  1  0.81282400  0.09214900  0.25656700  1
  Sr  Sr17  1  0.89322900  0.62577500  0.74220700  1
  Sr  Sr18  1  0.32210500  0.56888200  0.75112100  1
  Sr  Sr19  1  0.89417400  0.40717400  0.24865300  1
  Sr  Sr20  1  0.78704600  0.53017400  0.25367600  1
  Sr  Sr21  1  0.10677100  0.37422500  0.74220700  1
  Sr  Sr22  1  0.56888200  0.32210500  0.24887900  1
  Sr  Sr23  1  0.59282600  0.10582600  0.75134700  1
  Sr  Sr24  1  0.43111800  0.67789500  0.24887900  1
  Sr  Sr25  1  0.37422500  0.10677100  0.25779300  1
  Sr  Sr26  1  0.10582600  0.59282600  0.24865300  1
  Sr  Sr27  1  0.62577500  0.89322900  0.25779300  1
  Sr  Sr28  1  0.46982600  0.21295400  0.74632400  1
  Sr  Sr29  1  0.28060900  0.00531000  0.75035100  1
  Fe  Fe30  1  0.84751600  0.24989600  0.24638300  1
  Fe  Fe31  1  0.94454500  0.56322200  0.24466000  1
  Fe  Fe32  1  0.05056600  0.65560400  0.74784700  1
  Fe  Fe33  1  0.15248400  0.75010400  0.24638300  1
  Fe  Fe34  1  0.24989600  0.84751600  0.75361700  1
  Fe  Fe35  1  0.65560400  0.05056600  0.25215300  1
  Fe  Fe36  1  0.73025800  0.37232400  0.24949600  1
  Fe  Fe37  1  0.16323700  0.53007300  0.74936300  1
  Fe  Fe38  1  0.26974200  0.62767600  0.24949600  1
  Fe  Fe39  1  0.37232400  0.73025800  0.75050400  1
  Fe  Fe40  1  0.46992700  0.83676300  0.25063700  1
  Fe  Fe41  1  0.43677800  0.05545500  0.75534000  1
  Fe  Fe42  1  0.62767600  0.26974200  0.75050400  1
  Fe  Fe43  1  0.83676300  0.46992700  0.74936300  1
  Fe  Fe44  1  0.56322200  0.94454500  0.75534000  1
  Fe  Fe45  1  0.05545500  0.43677800  0.24466000  1
  Fe  Fe46  1  0.34439600  0.94943400  0.25215300  1
  Fe  Fe47  1  0.53007300  0.16323700  0.25063700  1
  Fe  Fe48  1  0.75010400  0.15248400  0.75361700  1
  Fe  Fe49  1  0.94943400  0.34439600  0.74784700  1
  Bi  Bi50  1  0.80877300  0.91281200  0.22963000  1
  Bi  Bi51  1  0.71648000  0.62405900  0.77427700  1
  Bi  Bi52  1  0.28279600  0.18313800  0.78080900  1
  Bi  Bi53  1  0.39689100  0.48147500  0.21204800  1
  Bi  Bi54  1  0.48147500  0.39689100  0.78795200  1
  Bi  Bi55  1  0.08718800  0.19122700  0.77037000  1
  Bi  Bi56  1  0.00750800  0.89996300  0.22016500  1
  Bi  Bi57  1  0.18313800  0.28279600  0.21919100  1
  Bi  Bi58  1  0.81686200  0.71720400  0.21919100  1
  Bi  Bi59  1  0.99249200  0.10003700  0.22016500  1
  Bi  Bi60  1  0.89996300  0.00750800  0.77983500  1
  Bi  Bi61  1  0.19122700  0.08718800  0.22963000  1
  Bi  Bi62  1  0.51852500  0.60310900  0.78795200  1
  Bi  Bi63  1  0.91281200  0.80877300  0.77037000  1
  Bi  Bi64  1  0.37594100  0.28352000  0.22572300  1
  Bi  Bi65  1  0.10003700  0.99249200  0.77983500  1
  Bi  Bi66  1  0.60310900  0.51852500  0.21204800  1
  Bi  Bi67  1  0.71720400  0.81686200  0.78080900  1
  Bi  Bi68  1  0.62405900  0.71648000  0.22572300  1
  Bi  Bi69  1  0.28352000  0.37594100  0.77427700  1
  O  O70  1  0.92184000  0.81357900  0.15456500  1
  O  O71  1  0.81357900  0.92184000  0.84543500  1
  O  O72  1  0.88462900  0.52318000  0.99889400  1
  O  O73  1  0.83590500  0.06976400  0.73337400  1
  O  O74  1  0.27253500  0.17098800  0.16556400  1
  O  O75  1  0.93023600  0.16409500  0.26662600  1
  O  O76  1  0.90073700  0.01287400  0.16592300  1
  O  O77  1  0.50000000  0.00000000  0.76212000  1
  O  O78  1  0.54938900  0.63968900  0.13552000  1
  O  O79  1  0.78799200  0.30941400  0.23605600  1
  O  O80  1  0.52318000  0.88462900  0.00110600  1
  O  O81  1  0.87703900  0.65097900  0.25741400  1
  O  O82  1  0.00958300  0.38287500  0.99343900  1
  O  O83  1  0.33083400  0.66916600  0.00000000  1
  O  O84  1  0.01287400  0.90073700  0.83407700  1
  O  O85  1  0.74376300  0.97401200  0.27436000  1
  O  O86  1  0.82901200  0.72746500  0.83443600  1
  O  O87  1  0.98712600  0.09926300  0.83407700  1
  O  O88  1  0.17098800  0.27253500  0.83443600  1
  O  O89  1  0.99041700  0.61712500  0.99343900  1
  O  O90  1  0.19164800  0.80835200  0.00000000  1
  O  O91  1  0.11376700  0.47896000  0.49323600  1
  O  O92  1  0.66888200  0.46183100  0.29938500  1
  O  O93  1  0.67224700  0.32775300  0.50000000  1
  O  O94  1  0.52104000  0.88623300  0.50676400  1
  O  O95  1  0.29080800  0.90493900  0.50554800  1
  O  O96  1  0.30941400  0.78799200  0.76394400  1
  O  O97  1  0.00782400  0.38482200  0.49809100  1
  O  O98  1  0.90662300  0.28849800  0.99749800  1
  O  O99  1  0.55800500  0.44199500  0.00000000  1
  O  O100  1  0.66916600  0.33083400  0.00000000  1
  O  O101  1  0.22052100  0.57503700  0.50298500  1
  O  O102  1  0.59429800  0.10739100  0.24255400  1
  O  O103  1  0.47896000  0.11376700  0.50676400  1
  O  O104  1  0.53816900  0.33111800  0.70061500  1
  O  O105  1  0.09337700  0.71150200  0.99749800  1
  O  O106  1  0.46183100  0.66888200  0.70061500  1
  O  O107  1  0.77947900  0.42496300  0.50298500  1
  O  O108  1  0.80835200  0.19164800  0.00000000  1
  O  O109  1  0.77657300  0.55790800  0.72899800  1
  O  O110  1  0.77599700  0.42897700  0.99836500  1
  O  O111  1  0.40570200  0.89260900  0.24255400  1
  O  O112  1  0.07816000  0.18642100  0.15456500  1
  O  O113  1  0.09926300  0.98712600  0.16592300  1
  O  O114  1  0.34902100  0.12296100  0.74258600  1
  O  O115  1  0.44199500  0.55800500  0.00000000  1
  O  O116  1  0.90493900  0.29080800  0.49445200  1
  O  O117  1  0.57503700  0.22052100  0.49701500  1
  O  O118  1  0.22342700  0.44209200  0.72899800  1
  O  O119  1  0.71150200  0.09337700  0.00250200  1
  O  O120  1  0.55790800  0.77657300  0.27100200  1
  O  O121  1  0.11537100  0.47682000  0.99889400  1
  O  O122  1  0.69058600  0.21200800  0.76394400  1
  O  O123  1  0.26511300  0.36027400  0.15313200  1
  O  O124  1  0.61517800  0.99217600  0.50190900  1
  O  O125  1  0.65097900  0.87703900  0.74258600  1
  O  O126  1  0.80537800  0.19462200  0.50000000  1
  O  O127  1  0.00000000  0.50000000  0.23788000  1
  O  O128  1  0.22400300  0.57102300  0.99836500  1
  O  O129  1  0.38287500  0.00958300  0.00656100  1
  O  O130  1  0.06976400  0.83590500  0.26662600  1
  O  O131  1  0.63968900  0.54938900  0.86448000  1
  O  O132  1  0.25623700  0.02598800  0.27436000  1
  O  O133  1  0.19462200  0.80537800  0.50000000  1
  O  O134  1  0.42496300  0.77947900  0.49701500  1
  O  O135  1  0.47682000  0.11537100  0.00110600  1
  O  O136  1  0.73488700  0.63972600  0.15313200  1
  O  O137  1  0.61712500  0.99041700  0.00656100  1
  O  O138  1  0.28849800  0.90662300  0.00250200  1
  O  O139  1  0.57102300  0.22400300  0.00163500  1
  O  O140  1  0.02598800  0.25623700  0.72564000  1
  O  O141  1  0.42897700  0.77599700  0.00163500  1
  O  O142  1  0.89260900  0.40570200  0.75744600  1
  O  O143  1  0.12296100  0.34902100  0.25741400  1
  O  O144  1  0.44209200  0.22342700  0.27100200  1
  O  O145  1  0.72746500  0.82901200  0.16556400  1
  O  O146  1  0.09506100  0.70919200  0.49445200  1
  O  O147  1  0.70919200  0.09506100  0.50554800  1
  O  O148  1  0.36031100  0.45061100  0.86448000  1
  O  O149  1  0.32775300  0.67224700  0.50000000  1
  O  O150  1  0.45061100  0.36031100  0.13552000  1
  O  O151  1  0.97401200  0.74376300  0.72564000  1
  O  O152  1  0.10739100  0.59429800  0.75744600  1
  O  O153  1  0.33111800  0.53816900  0.29938500  1
  O  O154  1  0.99217600  0.61517800  0.49809100  1
  O  O155  1  0.16409500  0.93023600  0.73337400  1
  O  O156  1  0.18642100  0.07816000  0.84543500  1
  O  O157  1  0.38482200  0.00782400  0.50190900  1
  O  O158  1  0.21200800  0.69058600  0.23605600  1
  O  O159  1  0.63972600  0.73488700  0.84686800  1
  O  O160  1  0.36027400  0.26511300  0.84686800  1
  O  O161  1  0.88623300  0.52104000  0.49323600  1
