# generated using pymatgen
data_RbNO3
_symmetry_space_group_name_H-M   'P 1'
_cell_length_a   11.66064320
_cell_length_b   11.66064320
_cell_length_c   7.39170800
_cell_angle_alpha   90.00000000
_cell_angle_beta   90.00000000
_cell_angle_gamma   119.99999544
_symmetry_Int_Tables_number   1
_chemical_formula_structural   RbNO3
_chemical_formula_sum   'Rb9 N9 O27'
_cell_volume   870.40317613
_cell_formula_units_Z   9
loop_
 _symmetry_equiv_pos_site_id
 _symmetry_equiv_pos_as_xyz
  1  'x, y, z'
loop_
 _atom_site_type_symbol
 _atom_site_label
 _atom_site_symmetry_multiplicity
 _atom_site_fract_x
 _atom_site_fract_y
 _atom_site_fract_z
 _atom_site_occupancy
  Rb  Rb0  1  0.09225200  0.56797900  0.91891500  1
  Rb  Rb1  1  0.47572700  0.90774800  0.25224800  1
  Rb  Rb2  1  0.73905600  0.56135900  0.25023400  1
  Rb  Rb3  1  0.43202100  0.52427300  0.58558200  1
  Rb  Rb4  1  0.10189700  0.22903700  0.05438800  1
  Rb  Rb5  1  0.77096300  0.87286000  0.72105500  1
  Rb  Rb6  1  0.12714000  0.89810300  0.38772200  1
  Rb  Rb7  1  0.82230300  0.26094400  0.58356800  1
  Rb  Rb8  1  0.43864100  0.17769700  0.91690100  1
  N  N9  1  0.76251000  0.22802500  0.07535300  1
  N  N10  1  0.40428500  0.53487600  0.07803100  1
  N  N11  1  0.08205700  0.18607500  0.57505400  1
  N  N12  1  0.13059000  0.59571500  0.41136500  1
  N  N13  1  0.46551500  0.23749000  0.40868600  1
  N  N14  1  0.46512400  0.86941000  0.74469800  1
  N  N15  1  0.77197500  0.53448500  0.74202000  1
  N  N16  1  0.10401800  0.91794300  0.90838800  1
  N  N17  1  0.81392500  0.89598200  0.24172100  1
  O  O18  1  0.06148100  0.13374300  0.42035800  1
  O  O19  1  0.07226200  0.93851900  0.75369200  1
  O  O20  1  0.17185800  0.01623100  0.01444300  1
  O  O21  1  0.88751500  0.29187600  0.05665800  1
  O  O22  1  0.35452300  0.46345600  0.21696600  1
  O  O23  1  0.49250700  0.28926800  0.56522200  1
  O  O24  1  0.53654400  0.89106800  0.88363200  1
  O  O25  1  0.73246700  0.93016700  0.29514400  1
  O  O26  1  0.52565000  0.62155400  0.07189500  1
  O  O27  1  0.98376900  0.15562700  0.68111000  1
  O  O28  1  0.79676100  0.50749300  0.89855600  1
  O  O29  1  0.71073200  0.20323900  0.23188900  1
  O  O30  1  0.68807800  0.18866400  0.93717400  1
  O  O31  1  0.06983300  0.80229900  0.96181000  1
  O  O32  1  0.50058600  0.31192200  0.27050700  1
  O  O33  1  0.32878600  0.51655300  0.94159700  1
  O  O34  1  0.84437300  0.82814200  0.34777600  1
  O  O35  1  0.86625700  0.92773800  0.08702500  1
  O  O36  1  0.09590400  0.47435000  0.40522800  1
  O  O37  1  0.37844600  0.90409600  0.73856200  1
  O  O38  1  0.40436100  0.11248500  0.38999200  1
  O  O39  1  0.81133600  0.49941400  0.60384100  1
  O  O40  1  0.10893200  0.64547700  0.55029900  1
  O  O41  1  0.70812400  0.59563900  0.72332500  1
  O  O42  1  0.18776600  0.67121400  0.27493100  1
  O  O43  1  0.48344700  0.81223400  0.60826400  1
  O  O44  1  0.19770100  0.26753300  0.62847700  1
