# generated using pymatgen
data_Os2Pt(CO)10
_symmetry_space_group_name_H-M   'P 1'
_cell_length_a   7.14474800
_cell_length_b   9.11847328
_cell_length_c   13.07253441
_cell_angle_alpha   81.31711925
_cell_angle_beta   81.62055412
_cell_angle_gamma   74.31800677
_symmetry_Int_Tables_number   1
_chemical_formula_structural   Os2Pt(CO)10
_chemical_formula_sum   'Os4 Pt2 C20 O20'
_cell_volume   805.62513129
_cell_formula_units_Z   2
loop_
 _symmetry_equiv_pos_site_id
 _symmetry_equiv_pos_as_xyz
  1  'x, y, z'
loop_
 _atom_site_type_symbol
 _atom_site_label
 _atom_site_symmetry_multiplicity
 _atom_site_fract_x
 _atom_site_fract_y
 _atom_site_fract_z
 _atom_site_occupancy
  Os  Os0  1  0.62532700  0.61952900  0.69833600  1
  Os  Os1  1  0.41793000  0.83480800  0.84865100  1
  Os  Os2  1  0.37467300  0.38047100  0.30166400  1
  Os  Os3  1  0.58207000  0.16519200  0.15134900  1
  Pt  Pt4  1  0.64365600  0.11280900  0.35915500  1
  Pt  Pt5  1  0.35634400  0.88719100  0.64084500  1
  C  C6  1  0.77495800  0.48069400  0.80099700  1
  C  C7  1  0.27780200  0.47637100  0.42561500  1
  C  C8  1  0.72219800  0.52362900  0.57438500  1
  C  C9  1  0.40856100  0.52054500  0.72356100  1
  C  C10  1  0.37963700  0.83854500  0.50187900  1
  C  C11  1  0.79972300  0.26083500  0.14004700  1
  C  C12  1  0.80638900  0.74892900  0.65564100  1
  C  C13  1  0.62036300  0.16145500  0.49812100  1
  C  C14  1  0.62247800  0.94466300  0.81345700  1
  C  C15  1  0.19361100  0.25107100  0.34435900  1
  C  C16  1  0.83224400  0.92009100  0.34984800  1
  C  C17  1  0.20027700  0.73916500  0.85995300  1
  C  C18  1  0.47119300  0.28587800  0.03067000  1
  C  C19  1  0.22504200  0.51930600  0.19900300  1
  C  C20  1  0.16775600  0.07990900  0.65015200  1
  C  C21  1  0.25401300  0.00781100  0.91106000  1
  C  C22  1  0.52880700  0.71412200  0.96933000  1
  C  C23  1  0.59143900  0.47945500  0.27643900  1
  C  C24  1  0.74598700  0.99218900  0.08894000  1
  C  C25  1  0.37752200  0.05533700  0.18654300  1
  O  O26  1  0.84125300  0.88803000  0.04771500  1
  O  O27  1  0.60850600  0.19312000  0.58183700  1
  O  O28  1  0.71404700  0.54319200  0.26786000  1
  O  O29  1  0.28595300  0.45680800  0.73214000  1
  O  O30  1  0.06489100  0.68936900  0.86967500  1
  O  O31  1  0.94995800  0.80467000  0.34712200  1
  O  O32  1  0.78340000  0.46834600  0.49769400  1
  O  O33  1  0.39149400  0.80688000  0.41816300  1
  O  O34  1  0.26322800  0.98290500  0.20185400  1
  O  O35  1  0.86052100  0.40091800  0.86581100  1
  O  O36  1  0.05004200  0.19533000  0.65287800  1
  O  O37  1  0.73677200  0.01709500  0.79814600  1
  O  O38  1  0.13947900  0.59908200  0.13418900  1
  O  O39  1  0.59660100  0.63926100  0.04149700  1
  O  O40  1  0.08291700  0.17851700  0.37811400  1
  O  O41  1  0.93510900  0.31063100  0.13032500  1
  O  O42  1  0.91708300  0.82148300  0.62188600  1
  O  O43  1  0.21660000  0.53165400  0.50230600  1
  O  O44  1  0.15874700  0.11197000  0.95228500  1
  O  O45  1  0.40339900  0.36073900  0.95850300  1
