# generated using pymatgen
data_RhSe2Cl7
_symmetry_space_group_name_H-M   'P 1'
_cell_length_a   14.34457600
_cell_length_b   8.21869400
_cell_length_c   12.37903767
_cell_angle_alpha   83.58769997
_cell_angle_beta   90.00000000
_cell_angle_gamma   90.00000000
_symmetry_Int_Tables_number   1
_chemical_formula_structural   RhSe2Cl7
_chemical_formula_sum   'Rh4 Se8 Cl28'
_cell_volume   1450.28019518
_cell_formula_units_Z   4
loop_
 _symmetry_equiv_pos_site_id
 _symmetry_equiv_pos_as_xyz
  1  'x, y, z'
loop_
 _atom_site_type_symbol
 _atom_site_label
 _atom_site_symmetry_multiplicity
 _atom_site_fract_x
 _atom_site_fract_y
 _atom_site_fract_z
 _atom_site_occupancy
  Rh  Rh0  1  0.40711500  0.95706300  0.60029800  1
  Rh  Rh1  1  0.90711500  0.04293700  0.89970200  1
  Rh  Rh2  1  0.09288500  0.95706300  0.10029800  1
  Rh  Rh3  1  0.59288500  0.04293700  0.39970200  1
  Se  Se4  1  0.92904300  0.77377700  0.84699300  1
  Se  Se5  1  0.07095700  0.22622300  0.15300700  1
  Se  Se6  1  0.86142800  0.22525000  0.74350500  1
  Se  Se7  1  0.57095700  0.77377700  0.34699300  1
  Se  Se8  1  0.13857200  0.77475000  0.25649500  1
  Se  Se9  1  0.63857200  0.22525000  0.24350500  1
  Se  Se10  1  0.42904300  0.22622300  0.65300700  1
  Se  Se11  1  0.36142800  0.77475000  0.75649500  1
  Cl  Cl12  1  0.25658900  0.96826300  0.11898300  1
  Cl  Cl13  1  0.67907000  0.09350900  0.10608000  1
  Cl  Cl14  1  0.01000500  0.66525300  0.33182200  1
  Cl  Cl15  1  0.29947600  0.30738000  0.72560700  1
  Cl  Cl16  1  0.01487200  0.80171100  0.69993700  1
  Cl  Cl17  1  0.75658900  0.03173700  0.38101700  1
  Cl  Cl18  1  0.92651900  0.92159300  0.08941200  1
  Cl  Cl19  1  0.24341100  0.96826300  0.61898300  1
  Cl  Cl20  1  0.42651900  0.07840700  0.41058800  1
  Cl  Cl21  1  0.32093000  0.90649100  0.89392000  1
  Cl  Cl22  1  0.82093000  0.09350900  0.60608000  1
  Cl  Cl23  1  0.79947600  0.69262000  0.77439300  1
  Cl  Cl24  1  0.10674900  0.68997900  0.04057200  1
  Cl  Cl25  1  0.39325100  0.68997900  0.54057200  1
  Cl  Cl26  1  0.51487200  0.19828900  0.80006300  1
  Cl  Cl27  1  0.74341100  0.03173700  0.88101700  1
  Cl  Cl28  1  0.07348100  0.07840700  0.91058800  1
  Cl  Cl29  1  0.98512800  0.19828900  0.30006300  1
  Cl  Cl30  1  0.89325100  0.31002100  0.95942800  1
  Cl  Cl31  1  0.51000500  0.33474700  0.16817800  1
  Cl  Cl32  1  0.60674900  0.31002100  0.45942800  1
  Cl  Cl33  1  0.20052400  0.30738000  0.22560700  1
  Cl  Cl34  1  0.48512800  0.80171100  0.19993700  1
  Cl  Cl35  1  0.98999500  0.33474700  0.66817800  1
  Cl  Cl36  1  0.17907000  0.90649100  0.39392000  1
  Cl  Cl37  1  0.57348100  0.92159300  0.58941200  1
  Cl  Cl38  1  0.48999500  0.66525300  0.83182200  1
  Cl  Cl39  1  0.70052400  0.69262000  0.27439300  1
