# generated using pymatgen
data_NaTa7O19
_symmetry_space_group_name_H-M   'P 1'
_cell_length_a   3.91585100
_cell_length_b   15.53068200
_cell_length_c   24.01509800
_cell_angle_alpha   90.00000000
_cell_angle_beta   90.00000000
_cell_angle_gamma   90.00000000
_symmetry_Int_Tables_number   1
_chemical_formula_structural   NaTa7O19
_chemical_formula_sum   'Na4 Ta28 O76'
_cell_volume   1460.49827687
_cell_formula_units_Z   4
loop_
 _symmetry_equiv_pos_site_id
 _symmetry_equiv_pos_as_xyz
  1  'x, y, z'
loop_
 _atom_site_type_symbol
 _atom_site_label
 _atom_site_symmetry_multiplicity
 _atom_site_fract_x
 _atom_site_fract_y
 _atom_site_fract_z
 _atom_site_occupancy
  Na  Na0  1  0.50000000  0.78412100  0.14424200  1
  Na  Na1  1  0.50000000  0.21587900  0.85575800  1
  Na  Na2  1  0.50000000  0.28412100  0.35575800  1
  Na  Na3  1  0.50000000  0.71587900  0.64424200  1
  Ta  Ta4  1  0.00000000  0.98672800  0.12327100  1
  Ta  Ta5  1  0.00000000  0.01327200  0.87672900  1
  Ta  Ta6  1  0.00000000  0.48672800  0.37672900  1
  Ta  Ta7  1  0.00000000  0.51327200  0.62327100  1
  Ta  Ta8  1  0.00000000  0.60977900  0.23200700  1
  Ta  Ta9  1  0.00000000  0.39022100  0.76799300  1
  Ta  Ta10  1  0.00000000  0.10977900  0.26799300  1
  Ta  Ta11  1  0.00000000  0.89022100  0.73200700  1
  Ta  Ta12  1  0.00000000  0.86482900  0.26051100  1
  Ta  Ta13  1  0.00000000  0.13517100  0.73948900  1
  Ta  Ta14  1  0.00000000  0.36482900  0.23948900  1
  Ta  Ta15  1  0.00000000  0.63517100  0.76051100  1
  Ta  Ta16  1  0.00000000  0.88984500  0.42267300  1
  Ta  Ta17  1  0.00000000  0.11015500  0.57732700  1
  Ta  Ta18  1  0.00000000  0.38984500  0.07732700  1
  Ta  Ta19  1  0.00000000  0.61015500  0.92267300  1
  Ta  Ta20  1  0.00000000  0.66211500  0.49703600  1
  Ta  Ta21  1  0.00000000  0.33788500  0.50296400  1
  Ta  Ta22  1  0.00000000  0.16211500  0.00296400  1
  Ta  Ta23  1  0.00000000  0.83788500  0.99703600  1
  Ta  Ta24  1  0.00000000  0.70038700  0.35723600  1
  Ta  Ta25  1  0.00000000  0.29961300  0.64276400  1
  Ta  Ta26  1  0.00000000  0.20038700  0.14276400  1
  Ta  Ta27  1  0.00000000  0.79961300  0.85723600  1
  Ta  Ta28  1  0.00000000  0.62790600  0.07968000  1
  Ta  Ta29  1  0.00000000  0.37209400  0.92032000  1
  Ta  Ta30  1  0.00000000  0.12790600  0.42032000  1
  Ta  Ta31  1  0.00000000  0.87209400  0.57968000  1
  O  O32  1  0.50000000  0.97587000  0.12464800  1
  O  O33  1  0.50000000  0.02413000  0.87535200  1
  O  O34  1  0.50000000  0.47587000  0.37535200  1
  O  O35  1  0.50000000  0.52413000  0.62464800  1
  O  O36  1  0.50000000  0.60702200  0.23064400  1
  O  O37  1  0.50000000  0.39297800  0.76935600  1
  O  O38  1  0.50000000  0.10702200  0.26935600  1
  O  O39  1  0.50000000  0.89297800  0.73064400  1
  O  O40  1  0.50000000  0.84944800  0.25339200  1
  O  O41  1  0.50000000  0.15055200  0.74660800  1
  O  O42  1  0.50000000  0.34944800  0.24660800  1
  O  O43  1  0.50000000  0.65055200  0.75339200  1
  O  O44  1  0.50000000  0.88678800  0.42070200  1
  O  O45  1  0.50000000  0.11321200  0.57929800  1
  O  O46  1  0.50000000  0.38678800  0.07929800  1
  O  O47  1  0.50000000  0.61321200  0.92070200  1
  O  O48  1  0.50000000  0.65654000  0.49323900  1
  O  O49  1  0.50000000  0.34346000  0.50676100  1
  O  O50  1  0.50000000  0.15654000  0.00676100  1
  O  O51  1  0.50000000  0.84346000  0.99323900  1
  O  O52  1  0.50000000  0.70010000  0.35636900  1
  O  O53  1  0.50000000  0.29990000  0.64363100  1
  O  O54  1  0.50000000  0.20010000  0.14363100  1
  O  O55  1  0.50000000  0.79990000  0.85636900  1
  O  O56  1  0.50000000  0.63949000  0.08410400  1
  O  O57  1  0.50000000  0.36051000  0.91589600  1
  O  O58  1  0.50000000  0.13949000  0.41589600  1
  O  O59  1  0.50000000  0.86051000  0.58410400  1
  O  O60  1  0.00000000  0.88705900  0.17802500  1
  O  O61  1  0.00000000  0.11294100  0.82197500  1
  O  O62  1  0.00000000  0.38705900  0.32197500  1
  O  O63  1  0.00000000  0.61294100  0.67802500  1
  O  O64  1  0.00000000  0.58061400  0.31684400  1
  O  O65  1  0.00000000  0.41938600  0.68315600  1
  O  O66  1  0.00000000  0.08061400  0.18315600  1
  O  O67  1  0.00000000  0.91938600  0.81684400  1
  O  O68  1  0.00000000  0.60100800  0.41811200  1
  O  O69  1  0.00000000  0.39899200  0.58188800  1
  O  O70  1  0.00000000  0.10100800  0.08188800  1
  O  O71  1  0.00000000  0.89899200  0.91811200  1
  O  O72  1  0.00000000  0.72547300  0.27049300  1
  O  O73  1  0.00000000  0.27452700  0.72950700  1
  O  O74  1  0.00000000  0.22547300  0.22950700  1
  O  O75  1  0.00000000  0.77452700  0.77049300  1
  O  O76  1  0.00000000  0.75707500  0.43565800  1
  O  O77  1  0.00000000  0.24292500  0.56434200  1
  O  O78  1  0.00000000  0.25707500  0.06434200  1
  O  O79  1  0.00000000  0.74292500  0.93565800  1
  O  O80  1  0.00000000  0.83508600  0.34417300  1
  O  O81  1  0.00000000  0.16491400  0.65582700  1
  O  O82  1  0.00000000  0.33508600  0.15582700  1
  O  O83  1  0.00000000  0.66491400  0.84417300  1
  O  O84  1  0.00000000  0.98274200  0.27886000  1
  O  O85  1  0.00000000  0.01725800  0.72114000  1
  O  O86  1  0.00000000  0.48274200  0.22114000  1
  O  O87  1  0.00000000  0.51725800  0.77886000  1
  O  O88  1  0.00000000  0.66807800  0.16054500  1
  O  O89  1  0.00000000  0.33192200  0.83945500  1
  O  O90  1  0.00000000  0.16807800  0.33945500  1
  O  O91  1  0.00000000  0.83192200  0.66054500  1
  O  O92  1  0.00000000  0.75310800  0.05469600  1
  O  O93  1  0.00000000  0.24689200  0.94530400  1
  O  O94  1  0.00000000  0.25310800  0.44530400  1
  O  O95  1  0.00000000  0.74689200  0.55469600  1
  O  O96  1  0.00000000  0.93106300  0.05106200  1
  O  O97  1  0.00000000  0.06893700  0.94893800  1
  O  O98  1  0.00000000  0.43106300  0.44893800  1
  O  O99  1  0.00000000  0.56893700  0.55106200  1
  O  O100  1  0.00000000  0.50817200  0.10125200  1
  O  O101  1  0.00000000  0.49182800  0.89874800  1
  O  O102  1  0.00000000  0.00817200  0.39874800  1
  O  O103  1  0.00000000  0.99182800  0.60125200  1
  O  O104  1  0.00000000  0.90371900  0.50183100  1
  O  O105  1  0.00000000  0.09628100  0.49816900  1
  O  O106  1  0.00000000  0.40371900  0.99816900  1
  O  O107  1  0.00000000  0.59628100  0.00183100  1
