# generated using pymatgen
data_AgC2N3
_symmetry_space_group_name_H-M   'P 1'
_cell_length_a   3.67362115
_cell_length_b   3.67362115
_cell_length_c   23.10325200
_cell_angle_alpha   90.00000000
_cell_angle_beta   90.00000000
_cell_angle_gamma   119.99998478
_symmetry_Int_Tables_number   1
_chemical_formula_structural   AgC2N3
_chemical_formula_sum   'Ag3 C6 N9'
_cell_volume   270.01789554
_cell_formula_units_Z   3
loop_
 _symmetry_equiv_pos_site_id
 _symmetry_equiv_pos_as_xyz
  1  'x, y, z'
loop_
 _atom_site_type_symbol
 _atom_site_label
 _atom_site_symmetry_multiplicity
 _atom_site_fract_x
 _atom_site_fract_y
 _atom_site_fract_z
 _atom_site_occupancy
  Ag  Ag0  1  0.00000000  0.34294200  0.66666700  1
  Ag  Ag1  1  0.34294200  0.00000000  0.33333300  1
  Ag  Ag2  1  0.65705800  0.65705800  0.00000000  1
  C  C3  1  0.05237600  0.43467800  0.21582200  1
  C  C4  1  0.94762400  0.38230200  0.11751100  1
  C  C5  1  0.56532200  0.61769800  0.54915500  1
  C  C6  1  0.43467800  0.05237600  0.78417800  1
  C  C7  1  0.61769800  0.56532200  0.45084500  1
  C  C8  1  0.38230200  0.94762400  0.88248900  1
  N  N9  1  0.43055600  0.53143800  0.59666600  1
  N  N10  1  0.24786200  0.00000000  0.83333300  1
  N  N11  1  0.53143800  0.43055600  0.40333400  1
  N  N12  1  0.00000000  0.24786200  0.16666700  1
  N  N13  1  0.75213800  0.75213800  0.50000000  1
  N  N14  1  0.89911800  0.46856200  0.07000000  1
  N  N15  1  0.10088200  0.56944400  0.26333300  1
  N  N16  1  0.46856200  0.89911800  0.93000000  1
  N  N17  1  0.56944400  0.10088200  0.73666700  1
