# generated using pymatgen
data_MnNF3
_symmetry_space_group_name_H-M   'P 1'
_cell_length_a   5.60362800
_cell_length_b   5.65827900
_cell_length_c   8.05470900
_cell_angle_alpha   90.00000000
_cell_angle_beta   90.00000000
_cell_angle_gamma   90.00000000
_symmetry_Int_Tables_number   1
_chemical_formula_structural   MnNF3
_chemical_formula_sum   'Mn4 N4 F12'
_cell_volume   255.38977737
_cell_formula_units_Z   4
loop_
 _symmetry_equiv_pos_site_id
 _symmetry_equiv_pos_as_xyz
  1  'x, y, z'
loop_
 _atom_site_type_symbol
 _atom_site_label
 _atom_site_symmetry_multiplicity
 _atom_site_fract_x
 _atom_site_fract_y
 _atom_site_fract_z
 _atom_site_occupancy
  Mn  Mn0  1  0.50000000  0.50000000  0.00000000  1
  Mn  Mn1  1  0.00000000  0.00000000  0.50000000  1
  Mn  Mn2  1  0.50000000  0.50000000  0.50000000  1
  Mn  Mn3  1  0.00000000  0.00000000  0.00000000  1
  N  N4  1  0.00279100  0.49747700  0.25000000  1
  N  N5  1  0.50279100  0.00252300  0.25000000  1
  N  N6  1  0.99720900  0.50252300  0.75000000  1
  N  N7  1  0.49720900  0.99747700  0.75000000  1
  F  F8  1  0.74922500  0.73324500  0.00423100  1
  F  F9  1  0.24922500  0.76675500  0.49576900  1
  F  F10  1  0.25077500  0.26675500  0.50423100  1
  F  F11  1  0.75077500  0.23324500  0.99576900  1
  F  F12  1  0.25077500  0.26675500  0.99576900  1
  F  F13  1  0.75077500  0.23324500  0.50423100  1
  F  F14  1  0.74922500  0.73324500  0.49576900  1
  F  F15  1  0.24922500  0.76675500  0.00423100  1
  F  F16  1  0.50062600  0.48972900  0.25000000  1
  F  F17  1  0.00062600  0.01027100  0.25000000  1
  F  F18  1  0.49937400  0.51027100  0.75000000  1
  F  F19  1  0.99937400  0.98972900  0.75000000  1
