# generated using pymatgen
data_Ba2Eu2Ti2Cu2O11
_symmetry_space_group_name_H-M   'P 1'
_cell_length_a   3.92462800
_cell_length_b   3.92462800
_cell_length_c   15.95445000
_cell_angle_alpha   90.00000000
_cell_angle_beta   90.00000000
_cell_angle_gamma   90.00000000
_symmetry_Int_Tables_number   1
_chemical_formula_structural   Ba2Eu2Ti2Cu2O11
_chemical_formula_sum   'Ba2 Eu2 Ti2 Cu2 O11'
_cell_volume   245.74168580
_cell_formula_units_Z   1
loop_
 _symmetry_equiv_pos_site_id
 _symmetry_equiv_pos_as_xyz
  1  'x, y, z'
loop_
 _atom_site_type_symbol
 _atom_site_label
 _atom_site_symmetry_multiplicity
 _atom_site_fract_x
 _atom_site_fract_y
 _atom_site_fract_z
 _atom_site_occupancy
  Ba  Ba0  1  0.00000000  0.00000000  0.76239700  1
  Ba  Ba1  1  0.00000000  0.00000000  0.23760300  1
  Eu  Eu2  1  0.00000000  0.00000000  0.00000000  1
  Eu  Eu3  1  0.00000000  0.00000000  0.50000000  1
  Ti  Ti4  1  0.50000000  0.50000000  0.62463600  1
  Ti  Ti5  1  0.50000000  0.50000000  0.37536400  1
  Cu  Cu6  1  0.50000000  0.50000000  0.10959300  1
  Cu  Cu7  1  0.50000000  0.50000000  0.89040700  1
  O  O8  1  0.50000000  0.50000000  0.74310500  1
  O  O9  1  0.50000000  0.00000000  0.61452100  1
  O  O10  1  0.00000000  0.50000000  0.61452100  1
  O  O11  1  0.00000000  0.50000000  0.38547900  1
  O  O12  1  0.50000000  0.50000000  0.50000000  1
  O  O13  1  0.50000000  0.50000000  0.25689500  1
  O  O14  1  0.00000000  0.50000000  0.09574900  1
  O  O15  1  0.00000000  0.50000000  0.90425100  1
  O  O16  1  0.50000000  0.00000000  0.90425100  1
  O  O17  1  0.50000000  0.00000000  0.38547900  1
  O  O18  1  0.50000000  0.00000000  0.09574900  1
