# generated using pymatgen
data_Pr2Ga
_symmetry_space_group_name_H-M   'P 1'
_cell_length_a   5.05559800
_cell_length_b   6.83136400
_cell_length_c   10.04370200
_cell_angle_alpha   90.00000000
_cell_angle_beta   90.00000000
_cell_angle_gamma   90.00000000
_symmetry_Int_Tables_number   1
_chemical_formula_structural   Pr2Ga
_chemical_formula_sum   'Pr8 Ga4'
_cell_volume   346.87562157
_cell_formula_units_Z   4
loop_
 _symmetry_equiv_pos_site_id
 _symmetry_equiv_pos_as_xyz
  1  'x, y, z'
loop_
 _atom_site_type_symbol
 _atom_site_label
 _atom_site_symmetry_multiplicity
 _atom_site_fract_x
 _atom_site_fract_y
 _atom_site_fract_z
 _atom_site_occupancy
  Pr  Pr0  1  0.25000000  0.82258800  0.93801300  1
  Pr  Pr1  1  0.75000000  0.55729300  0.80422500  1
  Pr  Pr2  1  0.75000000  0.05729300  0.69577500  1
  Pr  Pr3  1  0.75000000  0.17741200  0.06198700  1
  Pr  Pr4  1  0.75000000  0.67741200  0.43801300  1
  Pr  Pr5  1  0.25000000  0.94270700  0.30422500  1
  Pr  Pr6  1  0.25000000  0.44270700  0.19577500  1
  Pr  Pr7  1  0.25000000  0.32258800  0.56198700  1
  Ga  Ga8  1  0.75000000  0.71498600  0.12088700  1
  Ga  Ga9  1  0.25000000  0.28501400  0.87911300  1
  Ga  Ga10  1  0.75000000  0.21498600  0.37911300  1
  Ga  Ga11  1  0.25000000  0.78501400  0.62088700  1
