# generated using pymatgen
data_Bi3(TeCl5)2
_symmetry_space_group_name_H-M   'P 1'
_cell_length_a   7.27224000
_cell_length_b   11.10726987
_cell_length_c   15.52232995
_cell_angle_alpha   108.18704316
_cell_angle_beta   91.39709664
_cell_angle_gamma   106.87650261
_symmetry_Int_Tables_number   1
_chemical_formula_structural   Bi3(TeCl5)2
_chemical_formula_sum   'Bi6 Te4 Cl20'
_cell_volume   1130.71905252
_cell_formula_units_Z   2
loop_
 _symmetry_equiv_pos_site_id
 _symmetry_equiv_pos_as_xyz
  1  'x, y, z'
loop_
 _atom_site_type_symbol
 _atom_site_label
 _atom_site_symmetry_multiplicity
 _atom_site_fract_x
 _atom_site_fract_y
 _atom_site_fract_z
 _atom_site_occupancy
  Bi  Bi0  1  0.40207100  0.98957200  0.82301800  1
  Bi  Bi1  1  0.61975600  0.69648400  0.97440700  1
  Bi  Bi2  1  0.38024400  0.30351600  0.02559300  1
  Bi  Bi3  1  0.59792900  0.01042800  0.17698200  1
  Bi  Bi4  1  0.90517400  0.47017300  0.25760700  1
  Bi  Bi5  1  0.09482600  0.52982700  0.74239300  1
  Te  Te6  1  0.04946800  0.84303300  0.50996100  1
  Te  Te7  1  0.95053200  0.15696700  0.49003900  1
  Te  Te8  1  0.23777900  0.11122800  0.57985200  1
  Te  Te9  1  0.76222100  0.88877200  0.42014800  1
  Cl  Cl10  1  0.92069600  0.63270200  0.90735200  1
  Cl  Cl11  1  0.26200400  0.43615000  0.60189500  1
  Cl  Cl12  1  0.73799600  0.56385000  0.39810500  1
  Cl  Cl13  1  0.34397500  0.77427000  0.09533500  1
  Cl  Cl14  1  0.84440200  0.89576700  0.19386900  1
  Cl  Cl15  1  0.34123700  0.45919800  0.90090000  1
  Cl  Cl16  1  0.50441200  0.71922300  0.81752400  1
  Cl  Cl17  1  0.91618800  0.26241900  0.29477500  1
  Cl  Cl18  1  0.23112000  0.61189100  0.34632200  1
  Cl  Cl19  1  0.49558800  0.28077700  0.18247600  1
  Cl  Cl20  1  0.65602500  0.22573000  0.90466500  1
  Cl  Cl21  1  0.65876300  0.54080200  0.09910000  1
  Cl  Cl22  1  0.76888000  0.38810900  0.65367800  1
  Cl  Cl23  1  0.08381200  0.73758100  0.70522500  1
  Cl  Cl24  1  0.26369500  0.02550400  0.99159600  1
  Cl  Cl25  1  0.49261700  0.00595100  0.34006900  1
  Cl  Cl26  1  0.15559800  0.10423300  0.80613100  1
  Cl  Cl27  1  0.73630500  0.97449600  0.00840400  1
  Cl  Cl28  1  0.50738300  0.99404900  0.65993100  1
  Cl  Cl29  1  0.07930400  0.36729800  0.09264800  1
