# generated using pymatgen
data_Ti3(BiO3)4
_symmetry_space_group_name_H-M   'P 1'
_cell_length_a   3.86938685
_cell_length_b   3.86938685
_cell_length_c   33.50798900
_cell_angle_alpha   90.00000000
_cell_angle_beta   90.00000000
_cell_angle_gamma   90.91477134
_symmetry_Int_Tables_number   1
_chemical_formula_structural   Ti3(BiO3)4
_chemical_formula_sum   'Ti6 Bi8 O24'
_cell_volume   501.62285097
_cell_formula_units_Z   2
loop_
 _symmetry_equiv_pos_site_id
 _symmetry_equiv_pos_as_xyz
  1  'x, y, z'
loop_
 _atom_site_type_symbol
 _atom_site_label
 _atom_site_symmetry_multiplicity
 _atom_site_fract_x
 _atom_site_fract_y
 _atom_site_fract_z
 _atom_site_occupancy
  Ti  Ti0  1  0.98961600  0.98961600  0.50000000  1
  Ti  Ti1  1  0.51493100  0.48902800  0.12899700  1
  Ti  Ti2  1  0.48961600  0.48961600  0.00000000  1
  Ti  Ti3  1  0.01493100  0.98902800  0.37100300  1
  Ti  Ti4  1  0.48902800  0.51493100  0.87100300  1
  Ti  Ti5  1  0.98902800  0.01493100  0.62899700  1
  Bi  Bi6  1  0.02012600  0.98614400  0.78820000  1
  Bi  Bi7  1  0.52012600  0.48614400  0.71180000  1
  Bi  Bi8  1  0.91721000  0.07038400  0.93357500  1
  Bi  Bi9  1  0.41721000  0.57038400  0.56642500  1
  Bi  Bi10  1  0.07038400  0.91721000  0.06642500  1
  Bi  Bi11  1  0.48614400  0.52012600  0.28820000  1
  Bi  Bi12  1  0.57038400  0.41721000  0.43357500  1
  Bi  Bi13  1  0.98614400  0.02012600  0.21180000  1
  O  O14  1  0.50759800  0.01783900  0.50045000  1
  O  O15  1  0.99101500  0.02478000  0.68248600  1
  O  O16  1  0.52478000  0.49101500  0.18248600  1
  O  O17  1  0.01138000  0.49894400  0.74999700  1
  O  O18  1  0.48129300  0.00543500  0.11705500  1
  O  O19  1  0.48653500  0.52772100  0.05954300  1
  O  O20  1  0.52315200  0.00086900  0.88309900  1
  O  O21  1  0.52772100  0.48653500  0.94045700  1
  O  O22  1  0.49101500  0.52478000  0.81751400  1
  O  O23  1  0.02772100  0.98653500  0.55954300  1
  O  O24  1  0.00086900  0.52315200  0.11690100  1
  O  O25  1  0.51783900  0.00759800  0.00045000  1
  O  O26  1  0.00759800  0.51783900  0.99955000  1
  O  O27  1  0.01783900  0.50759800  0.49955000  1
  O  O28  1  0.02315200  0.50086900  0.61690100  1
  O  O29  1  0.99894400  0.51138000  0.24999700  1
  O  O30  1  0.50543500  0.98129300  0.61705500  1
  O  O31  1  0.50086900  0.02315200  0.38309900  1
  O  O32  1  0.98653500  0.02772100  0.44045700  1
  O  O33  1  0.00543500  0.48129300  0.88294500  1
  O  O34  1  0.49894400  0.01138000  0.25000300  1
  O  O35  1  0.02478000  0.99101500  0.31751400  1
  O  O36  1  0.51138000  0.99894400  0.75000300  1
  O  O37  1  0.98129300  0.50543500  0.38294500  1
