# generated using pymatgen
data_SrGa2(SiO4)2
_symmetry_space_group_name_H-M   'P 1'
_cell_length_a   9.45261705
_cell_length_b   9.45261705
_cell_length_c   8.59536944
_cell_angle_alpha   83.02091861
_cell_angle_beta   83.02091861
_cell_angle_gamma   89.67660976
_symmetry_Int_Tables_number   1
_chemical_formula_structural   SrGa2(SiO4)2
_chemical_formula_sum   'Sr4 Ga8 Si8 O32'
_cell_volume   756.64186650
_cell_formula_units_Z   4
loop_
 _symmetry_equiv_pos_site_id
 _symmetry_equiv_pos_as_xyz
  1  'x, y, z'
loop_
 _atom_site_type_symbol
 _atom_site_label
 _atom_site_symmetry_multiplicity
 _atom_site_fract_x
 _atom_site_fract_y
 _atom_site_fract_z
 _atom_site_occupancy
  Sr  Sr0  1  0.42835400  0.93847200  0.30177800  1
  Sr  Sr1  1  0.06152800  0.57164600  0.19822200  1
  Sr  Sr2  1  0.57164600  0.06152800  0.69822200  1
  Sr  Sr3  1  0.93847200  0.42835400  0.80177800  1
  Ga  Ga4  1  0.05917100  0.20102200  0.11912900  1
  Ga  Ga5  1  0.79897800  0.94082900  0.38087100  1
  Ga  Ga6  1  0.94082900  0.79897800  0.88087100  1
  Ga  Ga7  1  0.20102200  0.05917100  0.61912900  1
  Ga  Ga8  1  0.29296100  0.54729300  0.52565400  1
  Ga  Ga9  1  0.45270700  0.70703900  0.97434600  1
  Ga  Ga10  1  0.70703900  0.45270700  0.47434600  1
  Ga  Ga11  1  0.54729300  0.29296100  0.02565400  1
  Si  Si12  1  0.93932000  0.21849200  0.49103700  1
  Si  Si13  1  0.78150800  0.06068000  0.00896300  1
  Si  Si14  1  0.06068000  0.78150800  0.50896300  1
  Si  Si15  1  0.21849200  0.93932000  0.99103700  1
  Si  Si16  1  0.27726500  0.43477100  0.90304100  1
  Si  Si17  1  0.56522900  0.72273500  0.59695900  1
  Si  Si18  1  0.72273500  0.56522900  0.09695900  1
  Si  Si19  1  0.43477100  0.27726500  0.40304100  1
  O  O20  1  0.90988900  0.17865100  0.00187100  1
  O  O21  1  0.82134900  0.09011100  0.49812900  1
  O  O22  1  0.09011100  0.82134900  0.99812900  1
  O  O23  1  0.17865100  0.90988900  0.50187100  1
  O  O24  1  0.43093400  0.68716500  0.50297500  1
  O  O25  1  0.31283500  0.56906600  0.99702500  1
  O  O26  1  0.56906600  0.31283500  0.49702500  1
  O  O27  1  0.68716500  0.43093400  0.00297500  1
  O  O28  1  0.18346900  0.05397300  0.11912300  1
  O  O29  1  0.94602700  0.81653100  0.38087700  1
  O  O30  1  0.81653100  0.94602700  0.88087700  1
  O  O31  1  0.05397300  0.18346900  0.61912300  1
  O  O32  1  0.67643300  0.59146900  0.60618400  1
  O  O33  1  0.40853100  0.32356700  0.89381600  1
  O  O34  1  0.32356700  0.40853100  0.39381600  1
  O  O35  1  0.59146900  0.67643300  0.10618400  1
  O  O36  1  0.01381200  0.26773000  0.31073200  1
  O  O37  1  0.73227000  0.98618800  0.18926800  1
  O  O38  1  0.98618800  0.73227000  0.68926800  1
  O  O39  1  0.26773000  0.01381200  0.81073200  1
  O  O40  1  0.87496700  0.62491200  0.99298500  1
  O  O41  1  0.37508800  0.12503300  0.50701500  1
  O  O42  1  0.12503300  0.37508800  0.00701500  1
  O  O43  1  0.62491200  0.87496700  0.49298500  1
  O  O44  1  0.85829200  0.35799600  0.55917800  1
  O  O45  1  0.64200400  0.14170800  0.94082200  1
  O  O46  1  0.14170800  0.64200400  0.44082200  1
  O  O47  1  0.35799600  0.85829200  0.05917800  1
  O  O48  1  0.77694800  0.52047200  0.27013400  1
  O  O49  1  0.47952800  0.22305200  0.22986600  1
  O  O50  1  0.22305200  0.47952800  0.72986600  1
  O  O51  1  0.52047200  0.77694800  0.77013400  1
