# generated using pymatgen
data_P(CN)3
_symmetry_space_group_name_H-M   'P 1'
_cell_length_a   11.36482441
_cell_length_b   11.36482441
_cell_length_c   11.36482441
_cell_angle_alpha   103.26610910
_cell_angle_beta   103.26610910
_cell_angle_gamma   122.75527441
_symmetry_Int_Tables_number   1
_chemical_formula_structural   P(CN)3
_chemical_formula_sum   'P8 C24 N24'
_cell_volume   1083.60811061
_cell_formula_units_Z   8
loop_
 _symmetry_equiv_pos_site_id
 _symmetry_equiv_pos_as_xyz
  1  'x, y, z'
loop_
 _atom_site_type_symbol
 _atom_site_label
 _atom_site_symmetry_multiplicity
 _atom_site_fract_x
 _atom_site_fract_y
 _atom_site_fract_z
 _atom_site_occupancy
  P  P0  1  0.83991900  0.09587400  0.73227300  1
  P  P1  1  0.89235400  0.16008100  0.25595400  1
  P  P2  1  0.36360000  0.10764600  0.26772700  1
  P  P3  1  0.88640000  0.65412600  0.24404600  1
  P  P4  1  0.35764600  0.11360000  0.76772700  1
  P  P5  1  0.41008100  0.64235400  0.75595400  1
  P  P6  1  0.90412600  0.63640000  0.74404600  1
  P  P7  1  0.34587400  0.58991900  0.23227300  1
  C  C8  1  0.42962100  0.29790100  0.76465400  1
  C  C9  1  0.35725500  0.74964800  0.21448600  1
  C  C10  1  0.25737800  0.01538300  0.08781000  1
  C  C11  1  0.99964800  0.10725500  0.71448600  1
  C  C12  1  0.33503200  0.57037900  0.86828000  1
  C  C13  1  0.92757300  0.16956800  0.91219000  1
  C  C14  1  0.25035200  0.46483700  0.60760600  1
  C  C15  1  0.89274500  0.60723100  0.89239400  1
  C  C16  1  0.91496800  0.28324800  0.73534600  1
  C  C17  1  0.71483700  0.00035200  0.10760600  1
  C  C18  1  0.53516300  0.14276900  0.78551400  1
  C  C19  1  0.82037900  0.08503200  0.36828000  1
  C  C20  1  0.54790100  0.17962100  0.26465400  1
  C  C21  1  0.39276900  0.28516300  0.28551400  1
  C  C22  1  0.41956800  0.67757300  0.41219000  1
  C  C23  1  0.71675200  0.45209900  0.63172000  1
  C  C24  1  0.26538300  0.00737800  0.58781000  1
  C  C25  1  0.85723100  0.64274500  0.39239400  1
  C  C26  1  0.70209900  0.46675200  0.13172000  1
  C  C27  1  0.83043200  0.74262200  0.75800500  1
  C  C28  1  0.53324800  0.66496800  0.23534600  1
  C  C29  1  0.98461700  0.07242700  0.24199500  1
  C  C30  1  0.32242700  0.73461700  0.74199500  1
  C  C31  1  0.99262200  0.58043200  0.25800500  1
  N  N32  1  0.07492600  0.54817300  0.26931700  1
  N  N33  1  0.60315100  0.90813500  0.00721000  1
  N  N34  1  0.46801400  0.41804200  0.77007300  1
  N  N35  1  0.60203000  0.33195800  0.54997200  1
  N  N36  1  0.19439100  0.92507400  0.47324600  1
  N  N37  1  0.64797000  0.69794100  0.22992700  1
  N  N38  1  0.66804200  0.21801400  0.27007300  1
  N  N39  1  0.05560900  0.02885500  0.23068300  1
  N  N40  1  0.90092400  0.59594000  0.99279000  1
  N  N41  1  0.58195800  0.35203000  0.04997200  1
  N  N42  1  0.27885500  0.80560900  0.73068300  1
  N  N43  1  0.94794100  0.39797000  0.72992700  1
  N  N44  1  0.15813500  0.35315100  0.50721000  1
  N  N45  1  0.17507400  0.94439100  0.97324600  1
  N  N46  1  0.34907600  0.84186500  0.19501600  1
  N  N47  1  0.09186500  0.09907600  0.69501600  1
  N  N48  1  0.78198600  0.05205900  0.45002800  1
  N  N49  1  0.84594000  0.65092400  0.49279000  1
  N  N50  1  0.30205900  0.53198600  0.95002800  1
  N  N51  1  0.40406000  0.39684900  0.30498400  1
  N  N52  1  0.64684900  0.15406000  0.80498400  1
  N  N53  1  0.97114500  0.20182700  0.02675400  1
  N  N54  1  0.45182700  0.72114500  0.52675400  1
  N  N55  1  0.79817300  0.82492600  0.76931700  1
