# generated using pymatgen
data_Na(SeO3)2
_symmetry_space_group_name_H-M   'P 1'
_cell_length_a   5.52540400
_cell_length_b   5.85755700
_cell_length_c   11.63477605
_cell_angle_alpha   75.71569872
_cell_angle_beta   90.00000000
_cell_angle_gamma   90.00000000
_symmetry_Int_Tables_number   1
_chemical_formula_structural   Na(SeO3)2
_chemical_formula_sum   'Na2 Se4 O12'
_cell_volume   364.92173494
_cell_formula_units_Z   2
loop_
 _symmetry_equiv_pos_site_id
 _symmetry_equiv_pos_as_xyz
  1  'x, y, z'
loop_
 _atom_site_type_symbol
 _atom_site_label
 _atom_site_symmetry_multiplicity
 _atom_site_fract_x
 _atom_site_fract_y
 _atom_site_fract_z
 _atom_site_occupancy
  Na  Na0  1  0.01664200  0.00413000  0.50542600  1
  Na  Na1  1  0.98335800  0.00413000  0.00542600  1
  Se  Se2  1  0.31267600  0.33836600  0.71455600  1
  Se  Se3  1  0.68732400  0.33836600  0.21455600  1
  Se  Se4  1  0.86528000  0.66518300  0.77872800  1
  Se  Se5  1  0.13472000  0.66518300  0.27872800  1
  O  O6  1  0.24031200  0.24723700  0.59529900  1
  O  O7  1  0.75968800  0.24723700  0.09529900  1
  O  O8  1  0.13092100  0.62414600  0.69357700  1
  O  O9  1  0.86907900  0.62414600  0.19357700  1
  O  O10  1  0.21971300  0.16106900  0.83934400  1
  O  O11  1  0.78028700  0.16106900  0.33934400  1
  O  O12  1  0.74489900  0.89030400  0.68185600  1
  O  O13  1  0.25510100  0.89030400  0.18185600  1
  O  O14  1  0.70520300  0.41371500  0.80221700  1
  O  O15  1  0.29479700  0.41371500  0.30221700  1
  O  O16  1  0.95500400  0.70685100  0.90599600  1
  O  O17  1  0.04499600  0.70685100  0.40599600  1
