# generated using pymatgen
data_K2V2P4O15
_symmetry_space_group_name_H-M   'P 1'
_cell_length_a   9.66064600
_cell_length_b   11.67149700
_cell_length_c   22.40730000
_cell_angle_alpha   90.00000000
_cell_angle_beta   90.00000000
_cell_angle_gamma   90.00000000
_symmetry_Int_Tables_number   1
_chemical_formula_structural   K2V2P4O15
_chemical_formula_sum   'K16 V16 P32 O120'
_cell_volume   2526.51720374
_cell_formula_units_Z   8
loop_
 _symmetry_equiv_pos_site_id
 _symmetry_equiv_pos_as_xyz
  1  'x, y, z'
loop_
 _atom_site_type_symbol
 _atom_site_label
 _atom_site_symmetry_multiplicity
 _atom_site_fract_x
 _atom_site_fract_y
 _atom_site_fract_z
 _atom_site_occupancy
  K  K0  1  0.06586100  0.34603200  0.43830700  1
  K  K1  1  0.56586100  0.65396800  0.06169300  1
  K  K2  1  0.93413900  0.65396800  0.56169300  1
  K  K3  1  0.03637400  0.80024800  0.86500300  1
  K  K4  1  0.56586100  0.15396800  0.43830700  1
  K  K5  1  0.46362600  0.30024800  0.13499700  1
  K  K6  1  0.43413900  0.84603200  0.56169300  1
  K  K7  1  0.53637400  0.19975200  0.63499700  1
  K  K8  1  0.03637400  0.30024800  0.63499700  1
  K  K9  1  0.06586100  0.84603200  0.06169300  1
  K  K10  1  0.93413900  0.15396800  0.93830700  1
  K  K11  1  0.53637400  0.69975200  0.86500300  1
  K  K12  1  0.46362600  0.80024800  0.36500300  1
  K  K13  1  0.43413900  0.34603200  0.93830700  1
  K  K14  1  0.96362600  0.19975200  0.13499700  1
  K  K15  1  0.96362600  0.69975200  0.36500300  1
  V  V16  1  0.75788200  0.88048000  0.46961300  1
  V  V17  1  0.25788200  0.61952000  0.46961300  1
  V  V18  1  0.01671200  0.56803800  0.72493100  1
  V  V19  1  0.48328800  0.06803800  0.27506900  1
  V  V20  1  0.24211800  0.61952000  0.96961300  1
  V  V21  1  0.25788200  0.11952000  0.03038700  1
  V  V22  1  0.51671200  0.93196200  0.72493100  1
  V  V23  1  0.98328800  0.43196200  0.27506900  1
  V  V24  1  0.74211800  0.38048000  0.53038700  1
  V  V25  1  0.75788200  0.38048000  0.03038700  1
  V  V26  1  0.01671200  0.06803800  0.77506900  1
  V  V27  1  0.48328800  0.56803800  0.22493100  1
  V  V28  1  0.51671200  0.43196200  0.77506900  1
  V  V29  1  0.98328800  0.93196200  0.22493100  1
  V  V30  1  0.24211800  0.11952000  0.53038700  1
  V  V31  1  0.74211800  0.88048000  0.96961300  1
  P  P32  1  0.71949800  0.94017700  0.11301900  1
  P  P33  1  0.12524300  0.38051700  0.02994900  1
  P  P34  1  0.21949800  0.55982300  0.11301900  1
  P  P35  1  0.48058200  0.34891600  0.30833400  1
  P  P36  1  0.37475700  0.88051700  0.97005100  1
  P  P37  1  0.27015900  0.52703400  0.33212200  1
  P  P38  1  0.28050200  0.05982300  0.88698100  1
  P  P39  1  0.22984100  0.02703400  0.66787800  1
  P  P40  1  0.87475700  0.11948300  0.52994900  1
  P  P41  1  0.71949800  0.44017700  0.38698100  1
  P  P42  1  0.12524300  0.88051700  0.47005100  1
  P  P43  1  0.77015900  0.47296600  0.16787800  1
  P  P44  1  0.78050200  0.44017700  0.88698100  1
  P  P45  1  0.72984100  0.47296600  0.66787800  1
  P  P46  1  0.87475700  0.61948300  0.97005100  1
  P  P47  1  0.21949800  0.05982300  0.38698100  1
  P  P48  1  0.51941800  0.65108400  0.69166600  1
  P  P49  1  0.72984100  0.97296600  0.83212200  1
  P  P50  1  0.37475700  0.38051700  0.52994900  1
  P  P51  1  0.27015900  0.02703400  0.16787800  1
  P  P52  1  0.22984100  0.52703400  0.83212200  1
  P  P53  1  0.98058200  0.15108400  0.30833400  1
  P  P54  1  0.01941800  0.34891600  0.80833400  1
  P  P55  1  0.77015900  0.97296600  0.33212200  1
  P  P56  1  0.62524300  0.11948300  0.02994900  1
  P  P57  1  0.98058200  0.65108400  0.19166600  1
  P  P58  1  0.62524300  0.61948300  0.47005100  1
  P  P59  1  0.48058200  0.84891600  0.19166600  1
  P  P60  1  0.78050200  0.94017700  0.61301900  1
  P  P61  1  0.01941800  0.84891600  0.69166600  1
  P  P62  1  0.28050200  0.55982300  0.61301900  1
  P  P63  1  0.51941800  0.15108400  0.80833400  1
  O  O64  1  0.87427900  0.86961400  0.65905400  1
  O  O65  1  0.62559100  0.52543200  0.16233100  1
  O  O66  1  0.01771600  0.67111300  0.97609200  1
  O  O67  1  0.55192300  0.27635600  0.81610300  1
  O  O68  1  0.44807700  0.22364400  0.31610300  1
  O  O69  1  0.16744800  0.96125600  0.52076500  1
  O  O70  1  0.90548700  0.41440900  0.53612200  1
  O  O71  1  0.70248100  0.88443200  0.88112000  1
  O  O72  1  0.37427900  0.63038600  0.65905400  1
  O  O73  1  0.62572100  0.86961400  0.15905400  1
  O  O74  1  0.87469800  0.58019600  0.15212900  1
  O  O75  1  0.01420200  0.89614100  0.75457400  1
  O  O76  1  0.37469800  0.91980400  0.15212900  1
  O  O77  1  0.48228400  0.67111300  0.47609200  1
  O  O78  1  0.75617800  0.35804600  0.93925000  1
  O  O79  1  0.05192300  0.22364400  0.81610300  1
  O  O80  1  0.62559100  0.02543200  0.33766900  1
  O  O81  1  0.19495600  0.07359000  0.72942900  1
  O  O82  1  0.59451300  0.91440900  0.46387800  1
  O  O83  1  0.83255200  0.53874400  0.02076500  1
  O  O84  1  0.34493000  0.51577200  0.14465600  1
  O  O85  1  0.15507000  0.51577200  0.64465600  1
  O  O86  1  0.58366800  0.61769800  0.27650400  1
  O  O87  1  0.26030200  0.29143400  0.54138800  1
  O  O88  1  0.48228400  0.17111300  0.02390800  1
  O  O89  1  0.40548700  0.08559100  0.53612200  1
  O  O90  1  0.16744800  0.46125600  0.97923500  1
  O  O91  1  0.19495600  0.57359000  0.77057100  1
  O  O92  1  0.70248100  0.38443200  0.61888000  1
  O  O93  1  0.91633200  0.61769800  0.77650400  1
  O  O94  1  0.51771600  0.82888700  0.97609200  1
  O  O95  1  0.91633200  0.11769800  0.72349600  1
  O  O96  1  0.26030200  0.79143400  0.95861200  1
  O  O97  1  0.87469800  0.08019600  0.34787100  1
  O  O98  1  0.48579800  0.39614100  0.24542600  1
  O  O99  1  0.76030200  0.20856600  0.54138800  1
  O  O100  1  0.37951700  0.45765300  0.59185800  1
  O  O101  1  0.30504400  0.57359000  0.27057100  1
  O  O102  1  0.01771600  0.17111300  0.52390800  1
  O  O103  1  0.98579800  0.60385900  0.25457400  1
  O  O104  1  0.66744800  0.03874400  0.97923500  1
  O  O105  1  0.98579800  0.10385900  0.24542600  1
  O  O106  1  0.30504400  0.07359000  0.22942900  1
  O  O107  1  0.59451300  0.41440900  0.03612200  1
  O  O108  1  0.12530200  0.41980400  0.84787100  1
  O  O109  1  0.01420200  0.39614100  0.74542600  1
  O  O110  1  0.62048300  0.04234700  0.09185800  1
  O  O111  1  0.58366800  0.11769800  0.22349600  1
  O  O112  1  0.12572100  0.63038600  0.15905400  1
  O  O113  1  0.25617800  0.14195400  0.93925000  1
  O  O114  1  0.48579800  0.89614100  0.25457400  1
  O  O115  1  0.73969800  0.70856600  0.45861200  1
  O  O116  1  0.29751900  0.11556800  0.11888000  1
  O  O117  1  0.62530200  0.08019600  0.84787100  1
  O  O118  1  0.79751900  0.38443200  0.11888000  1
  O  O119  1  0.73969800  0.20856600  0.04138800  1
  O  O120  1  0.08366800  0.38230200  0.22349600  1
  O  O121  1  0.20248100  0.11556800  0.61888000  1
  O  O122  1  0.37951700  0.95765300  0.90814200  1
  O  O123  1  0.87951700  0.04234700  0.59185800  1
  O  O124  1  0.94807700  0.27635600  0.31610300  1
  O  O125  1  0.23969800  0.29143400  0.04138800  1
  O  O126  1  0.12530200  0.91980400  0.65212900  1
  O  O127  1  0.37427900  0.13038600  0.84094600  1
  O  O128  1  0.74382200  0.85804600  0.06075000  1
  O  O129  1  0.76030200  0.70856600  0.95861200  1
  O  O130  1  0.33255200  0.96125600  0.02076500  1
  O  O131  1  0.37440900  0.47456800  0.83766900  1
  O  O132  1  0.33255200  0.46125600  0.47923500  1
  O  O133  1  0.40548700  0.58559100  0.96387800  1
  O  O134  1  0.34493000  0.01577200  0.35534400  1
  O  O135  1  0.62530200  0.58019600  0.65212900  1
  O  O136  1  0.84493000  0.98422800  0.14465600  1
  O  O137  1  0.44807700  0.72364400  0.18389700  1
  O  O138  1  0.65507000  0.98422800  0.64465600  1
  O  O139  1  0.87951700  0.54234700  0.90814200  1
  O  O140  1  0.41633200  0.88230200  0.77650400  1
  O  O141  1  0.05192300  0.72364400  0.68389700  1
  O  O142  1  0.09451300  0.08559100  0.03612200  1
  O  O143  1  0.37469800  0.41980400  0.34787100  1
  O  O144  1  0.12048300  0.45765300  0.09185800  1
  O  O145  1  0.84493000  0.48422800  0.35534400  1
  O  O146  1  0.62048300  0.54234700  0.40814200  1
  O  O147  1  0.74382200  0.35804600  0.43925000  1
  O  O148  1  0.20248100  0.61556800  0.88112000  1
  O  O149  1  0.12572100  0.13038600  0.34094600  1
  O  O150  1  0.87427900  0.36961400  0.84094600  1
  O  O151  1  0.69495600  0.42641000  0.72942900  1
  O  O152  1  0.41633200  0.38230200  0.72349600  1
  O  O153  1  0.15507000  0.01577200  0.85534400  1
  O  O154  1  0.83255200  0.03874400  0.47923500  1
  O  O155  1  0.94807700  0.77635600  0.18389700  1
  O  O156  1  0.87440900  0.02543200  0.83766900  1
  O  O157  1  0.62572100  0.36961400  0.34094600  1
  O  O158  1  0.98228400  0.32888700  0.02390800  1
  O  O159  1  0.98228400  0.82888700  0.47609200  1
  O  O160  1  0.75617800  0.85804600  0.56075000  1
  O  O161  1  0.23969800  0.79143400  0.45861200  1
  O  O162  1  0.51420200  0.10385900  0.74542600  1
  O  O163  1  0.80504400  0.42641000  0.22942900  1
  O  O164  1  0.69495600  0.92641000  0.77057100  1
  O  O165  1  0.08366800  0.88230200  0.27650400  1
  O  O166  1  0.65507000  0.48422800  0.85534400  1
  O  O167  1  0.66744800  0.53874400  0.52076500  1
  O  O168  1  0.24382200  0.14195400  0.43925000  1
  O  O169  1  0.51771600  0.32888700  0.52390800  1
  O  O170  1  0.51420200  0.60385900  0.75457400  1
  O  O171  1  0.12048300  0.95765300  0.40814200  1
  O  O172  1  0.12559100  0.97456800  0.16233100  1
  O  O173  1  0.90548700  0.91440900  0.96387800  1
  O  O174  1  0.87440900  0.52543200  0.66233100  1
  O  O175  1  0.29751900  0.61556800  0.38112000  1
  O  O176  1  0.79751900  0.88443200  0.38112000  1
  O  O177  1  0.25617800  0.64195400  0.56075000  1
  O  O178  1  0.09451300  0.58559100  0.46387800  1
  O  O179  1  0.24382200  0.64195400  0.06075000  1
  O  O180  1  0.55192300  0.77635600  0.68389700  1
  O  O181  1  0.37440900  0.97456800  0.66233100  1
  O  O182  1  0.12559100  0.47456800  0.33766900  1
  O  O183  1  0.80504400  0.92641000  0.27057100  1
