# generated using pymatgen
data_Na3GdBr6
_symmetry_space_group_name_H-M   'P 1'
_cell_length_a   7.76356700
_cell_length_b   7.31541300
_cell_length_c   13.17470459
_cell_angle_alpha   56.52922515
_cell_angle_beta   90.00000000
_cell_angle_gamma   90.00000000
_symmetry_Int_Tables_number   1
_chemical_formula_structural   Na3GdBr6
_chemical_formula_sum   'Na6 Gd2 Br12'
_cell_volume   624.15746974
_cell_formula_units_Z   2
loop_
 _symmetry_equiv_pos_site_id
 _symmetry_equiv_pos_as_xyz
  1  'x, y, z'
loop_
 _atom_site_type_symbol
 _atom_site_label
 _atom_site_symmetry_multiplicity
 _atom_site_fract_x
 _atom_site_fract_y
 _atom_site_fract_z
 _atom_site_occupancy
  Na  Na0  1  0.91936200  0.70857100  0.26665500  1
  Na  Na1  1  0.08063800  0.29142900  0.73334500  1
  Na  Na2  1  0.58063800  0.70857100  0.76665500  1
  Na  Na3  1  0.00000000  0.50000000  0.00000000  1
  Na  Na4  1  0.50000000  0.50000000  0.50000000  1
  Na  Na5  1  0.41936200  0.29142900  0.23334500  1
  Gd  Gd6  1  0.50000000  0.00000000  0.00000000  1
  Gd  Gd7  1  0.00000000  0.00000000  0.50000000  1
  Br  Br8  1  0.81881000  0.61462400  0.56609400  1
  Br  Br9  1  0.31881000  0.38537600  0.93390600  1
  Br  Br10  1  0.56513600  0.90031100  0.23864200  1
  Br  Br11  1  0.19101200  0.74877200  0.08025400  1
  Br  Br12  1  0.68119000  0.61462400  0.06609400  1
  Br  Br13  1  0.69101200  0.25122800  0.41974600  1
  Br  Br14  1  0.43486400  0.09968900  0.76135800  1
  Br  Br15  1  0.30898800  0.74877200  0.58025400  1
  Br  Br16  1  0.80898800  0.25122800  0.91974600  1
  Br  Br17  1  0.06513600  0.09968900  0.26135800  1
  Br  Br18  1  0.18119000  0.38537600  0.43390600  1
  Br  Br19  1  0.93486400  0.90031100  0.73864200  1
