# generated using pymatgen
data_H8PtO6
_symmetry_space_group_name_H-M   'P 1'
_cell_length_a   5.60322052
_cell_length_b   5.60322052
_cell_length_c   7.31233325
_cell_angle_alpha   86.62778495
_cell_angle_beta   86.62778495
_cell_angle_gamma   82.68553578
_symmetry_Int_Tables_number   1
_chemical_formula_structural   H8PtO6
_chemical_formula_sum   'H16 Pt2 O12'
_cell_volume   227.01038129
_cell_formula_units_Z   2
loop_
 _symmetry_equiv_pos_site_id
 _symmetry_equiv_pos_as_xyz
  1  'x, y, z'
loop_
 _atom_site_type_symbol
 _atom_site_label
 _atom_site_symmetry_multiplicity
 _atom_site_fract_x
 _atom_site_fract_y
 _atom_site_fract_z
 _atom_site_occupancy
  H  H0  1  0.87127700  0.62605000  0.84760400  1
  H  H1  1  0.14658100  0.47551800  0.83934700  1
  H  H2  1  0.37991400  0.13227300  0.64754000  1
  H  H3  1  0.25695100  0.89054500  0.74666700  1
  H  H4  1  0.13227300  0.37991400  0.14754000  1
  H  H5  1  0.89054500  0.25695100  0.24666700  1
  H  H6  1  0.47551800  0.14658100  0.33934700  1
  H  H7  1  0.62605000  0.87127700  0.34760400  1
  H  H8  1  0.75507800  0.60678800  0.09232200  1
  H  H9  1  0.46217000  0.43765000  0.50923600  1
  H  H10  1  0.43765000  0.46217000  0.00923600  1
  H  H11  1  0.60678800  0.75507800  0.59232200  1
  H  H12  1  0.94613900  0.02935500  0.98327400  1
  H  H13  1  0.85128100  0.16642900  0.71257600  1
  H  H14  1  0.16642900  0.85128100  0.21257600  1
  H  H15  1  0.02935500  0.94613900  0.48327400  1
  Pt  Pt16  1  0.00413800  0.49789800  0.50432200  1
  Pt  Pt17  1  0.49789800  0.00413800  0.00432200  1
  O  O18  1  0.03522200  0.59610300  0.76465100  1
  O  O19  1  0.40646100  0.96893000  0.74070100  1
  O  O20  1  0.96893000  0.40646100  0.24070100  1
  O  O21  1  0.59610300  0.03522200  0.26465100  1
  O  O22  1  0.66615800  0.66254400  0.98199200  1
  O  O23  1  0.34486200  0.31562100  0.51109100  1
  O  O24  1  0.31562100  0.34486200  0.01109100  1
  O  O25  1  0.66254400  0.66615800  0.48199200  1
  O  O26  1  0.80976200  0.13890800  0.92636100  1
  O  O27  1  0.87247500  0.18365600  0.57325000  1
  O  O28  1  0.18365600  0.87247500  0.07325000  1
  O  O29  1  0.13890800  0.80976200  0.42636100  1
