# generated using pymatgen
data_CdI2
_symmetry_space_group_name_H-M   'P 1'
_cell_length_a   4.34505834
_cell_length_b   4.34505834
_cell_length_c   80.92837900
_cell_angle_alpha   90.00000000
_cell_angle_beta   90.00000000
_cell_angle_gamma   120.00000516
_symmetry_Int_Tables_number   1
_chemical_formula_structural   CdI2
_chemical_formula_sum   'Cd11 I22'
_cell_volume   1323.19141470
_cell_formula_units_Z   11
loop_
 _symmetry_equiv_pos_site_id
 _symmetry_equiv_pos_as_xyz
  1  'x, y, z'
loop_
 _atom_site_type_symbol
 _atom_site_label
 _atom_site_symmetry_multiplicity
 _atom_site_fract_x
 _atom_site_fract_y
 _atom_site_fract_z
 _atom_site_occupancy
  Cd  Cd0  1  0.33333300  0.66666700  0.84089700  1
  Cd  Cd1  1  0.66666700  0.33333300  0.20454000  1
  Cd  Cd2  1  0.66666700  0.33333300  0.02273300  1
  Cd  Cd3  1  0.33333300  0.66666700  0.11365900  1
  Cd  Cd4  1  0.66666700  0.33333300  0.38639200  1
  Cd  Cd5  1  0.33333300  0.66666700  0.29545900  1
  Cd  Cd6  1  0.33333300  0.66666700  0.56817900  1
  Cd  Cd7  1  0.66666700  0.33333300  0.47727700  1
  Cd  Cd8  1  0.33333300  0.66666700  0.93180800  1
  Cd  Cd9  1  0.66666700  0.33333300  0.74999200  1
  Cd  Cd10  1  0.33333300  0.66666700  0.65906500  1
  I  I11  1  0.00000000  0.00000000  0.09226900  1
  I  I12  1  0.66666700  0.33333300  0.86228000  1
  I  I13  1  0.66666700  0.33333300  0.68044600  1
  I  I14  1  0.00000000  0.00000000  0.45589100  1
  I  I15  1  0.33333300  0.66666700  0.40776900  1
  I  I16  1  0.00000000  0.00000000  0.18316500  1
  I  I17  1  0.00000000  0.00000000  0.63769700  1
  I  I18  1  0.66666700  0.33333300  0.95317600  1
  I  I19  1  0.00000000  0.00000000  0.72860500  1
  I  I20  1  0.00000000  0.00000000  0.54681000  1
  I  I21  1  0.33333300  0.66666700  0.77136500  1
  I  I22  1  0.00000000  0.00000000  0.81953000  1
  I  I23  1  0.33333300  0.66666700  0.04411200  1
  I  I24  1  0.66666700  0.33333300  0.58953900  1
  I  I25  1  0.33333300  0.66666700  0.22590900  1
  I  I26  1  0.00000000  0.00000000  0.91040200  1
  I  I27  1  0.00000000  0.00000000  0.27409300  1
  I  I28  1  0.00000000  0.00000000  0.00138900  1
  I  I29  1  0.00000000  0.00000000  0.36502100  1
  I  I30  1  0.66666700  0.33333300  0.13503200  1
  I  I31  1  0.66666700  0.33333300  0.31684700  1
  I  I32  1  0.33333300  0.66666700  0.49865200  1
