# generated using pymatgen
data_NaHO
_symmetry_space_group_name_H-M   'P 1'
_cell_length_a   3.36098525
_cell_length_b   3.36098525
_cell_length_c   3.36098532
_cell_angle_alpha   69.08153479
_cell_angle_beta   69.08153479
_cell_angle_gamma   69.08151967
_symmetry_Int_Tables_number   1
_chemical_formula_structural   NaHO
_chemical_formula_sum   'Na1 H1 O1'
_cell_volume   31.95947919
_cell_formula_units_Z   1
loop_
 _symmetry_equiv_pos_site_id
 _symmetry_equiv_pos_as_xyz
  1  'x, y, z'
loop_
 _atom_site_type_symbol
 _atom_site_label
 _atom_site_symmetry_multiplicity
 _atom_site_fract_x
 _atom_site_fract_y
 _atom_site_fract_z
 _atom_site_occupancy
  Na  Na0  1  0.01403000  0.01403000  0.01403000  1
  H  H1  1  0.61330600  0.61330600  0.61330600  1
  O  O2  1  0.48586900  0.48586900  0.48586900  1
