# generated using pymatgen
data_VHO3
_symmetry_space_group_name_H-M   'P 1'
_cell_length_a   8.57039400
_cell_length_b   5.11584800
_cell_length_c   8.29087982
_cell_angle_alpha   80.62159446
_cell_angle_beta   90.00000000
_cell_angle_gamma   90.00000000
_symmetry_Int_Tables_number   1
_chemical_formula_structural   VHO3
_chemical_formula_sum   'V6 H6 O18'
_cell_volume   358.65340851
_cell_formula_units_Z   6
loop_
 _symmetry_equiv_pos_site_id
 _symmetry_equiv_pos_as_xyz
  1  'x, y, z'
loop_
 _atom_site_type_symbol
 _atom_site_label
 _atom_site_symmetry_multiplicity
 _atom_site_fract_x
 _atom_site_fract_y
 _atom_site_fract_z
 _atom_site_occupancy
  V  V0  1  0.55421700  0.54554100  0.17768500  1
  V  V1  1  0.05421700  0.45445900  0.82231500  1
  V  V2  1  0.44406200  0.44190300  0.82701500  1
  V  V3  1  0.94406200  0.55809700  0.17298500  1
  V  V4  1  0.75376000  0.07035800  0.07082600  1
  V  V5  1  0.25376000  0.92964200  0.92917400  1
  H  H6  1  0.36889800  0.21937500  0.36753600  1
  H  H7  1  0.86889800  0.78062500  0.63246400  1
  H  H8  1  0.77790700  0.16839800  0.56442700  1
  H  H9  1  0.65950900  0.92621000  0.60112300  1
  H  H10  1  0.27790700  0.83160200  0.43557300  1
  H  H11  1  0.15950900  0.07379000  0.39887700  1
  O  O12  1  0.58762100  0.32274800  0.00949500  1
  O  O13  1  0.08762100  0.67725200  0.99050500  1
  O  O14  1  0.40766700  0.66885700  0.99957200  1
  O  O15  1  0.90766700  0.33114300  0.00042800  1
  O  O16  1  0.59565300  0.86612100  0.20996600  1
  O  O17  1  0.09565300  0.13387900  0.79003400  1
  O  O18  1  0.39991200  0.11628800  0.78610600  1
  O  O19  1  0.89991200  0.88371200  0.21389400  1
  O  O20  1  0.74831600  0.41562400  0.24372200  1
  O  O21  1  0.24831600  0.58437600  0.75627800  1
  O  O22  1  0.75270500  0.89404500  0.92477400  1
  O  O23  1  0.25270500  0.10595500  0.07522600  1
  O  O24  1  0.43434700  0.40109200  0.33208300  1
  O  O25  1  0.93434700  0.59890800  0.66791700  1
  O  O26  1  0.55957600  0.57834000  0.68270000  1
  O  O27  1  0.05957600  0.42166000  0.31730000  1
  O  O28  1  0.76478900  0.98082000  0.56110900  1
  O  O29  1  0.26478900  0.01918000  0.43889100  1
