# generated using pymatgen
data_EuAg
_symmetry_space_group_name_H-M   'P 1'
_cell_length_a   15.44536048
_cell_length_b   18.09683452
_cell_length_c   28.00055893
_cell_angle_alpha   75.86388745
_cell_angle_beta   92.52757499
_cell_angle_gamma   91.97799769
_symmetry_Int_Tables_number   1
_chemical_formula_structural   EuAg
_chemical_formula_sum   'Eu4 Ag4'
_cell_volume   7579.83452820
_cell_formula_units_Z   4
loop_
 _symmetry_equiv_pos_site_id
 _symmetry_equiv_pos_as_xyz
  1  'x, y, z'
loop_
 _atom_site_type_symbol
 _atom_site_label
 _atom_site_symmetry_multiplicity
 _atom_site_fract_x
 _atom_site_fract_y
 _atom_site_fract_z
 _atom_site_occupancy
  Eu  Eu0  1  0.74994221  0.86600902  0.82337324  1
  Eu  Eu1  1  0.25015282  0.36640580  0.68945436  1
  Eu  Eu2  1  0.74975077  0.63264055  0.31833310  1
  Eu  Eu3  1  0.25011134  0.13525236  0.17470170  1
  Ag  Ag4  1  0.25013644  0.62177579  0.04819143  1
  Ag  Ag5  1  0.75000671  0.12488170  0.44703409  1
  Ag  Ag6  1  0.75025690  0.37486462  0.94805185  1
  Ag  Ag7  1  0.24964380  0.87817016  0.55085924  1
