# generated using pymatgen
data_TbMn5Ge3
_symmetry_space_group_name_H-M   'P 1'
_cell_length_a   4.11989100
_cell_length_b   12.19125900
_cell_length_c   13.98888100
_cell_angle_alpha   90.00000000
_cell_angle_beta   90.00000000
_cell_angle_gamma   90.00000000
_symmetry_Int_Tables_number   1
_chemical_formula_structural   TbMn5Ge3
_chemical_formula_sum   'Tb4 Mn20 Ge12'
_cell_volume   702.61474505
_cell_formula_units_Z   4
loop_
 _symmetry_equiv_pos_site_id
 _symmetry_equiv_pos_as_xyz
  1  'x, y, z'
loop_
 _atom_site_type_symbol
 _atom_site_label
 _atom_site_symmetry_multiplicity
 _atom_site_fract_x
 _atom_site_fract_y
 _atom_site_fract_z
 _atom_site_occupancy
  Tb  Tb0  1  0.75000000  0.41245000  0.29324700  1
  Tb  Tb1  1  0.25000000  0.58755000  0.70675300  1
  Tb  Tb2  1  0.25000000  0.91245000  0.20675300  1
  Tb  Tb3  1  0.75000000  0.08755000  0.79324700  1
  Mn  Mn4  1  0.75000000  0.96574800  0.56342500  1
  Mn  Mn5  1  0.75000000  0.11729600  0.31310300  1
  Mn  Mn6  1  0.25000000  0.29347900  0.68484100  1
  Mn  Mn7  1  0.75000000  0.38270400  0.81310300  1
  Mn  Mn8  1  0.25000000  0.41058700  0.49800700  1
  Mn  Mn9  1  0.25000000  0.61729600  0.18689700  1
  Mn  Mn10  1  0.75000000  0.79347900  0.81515900  1
  Mn  Mn11  1  0.25000000  0.20652100  0.18484100  1
  Mn  Mn12  1  0.25000000  0.08941300  0.99800700  1
  Mn  Mn13  1  0.75000000  0.53425200  0.06342500  1
  Mn  Mn14  1  0.25000000  0.88270400  0.68689700  1
  Mn  Mn15  1  0.75000000  0.29058700  0.01943400  1
  Mn  Mn16  1  0.75000000  0.70652100  0.31515900  1
  Mn  Mn17  1  0.25000000  0.79058700  0.48056600  1
  Mn  Mn18  1  0.75000000  0.91058700  0.00199300  1
  Mn  Mn19  1  0.75000000  0.20941300  0.51943400  1
  Mn  Mn20  1  0.25000000  0.46574800  0.93657500  1
  Mn  Mn21  1  0.75000000  0.58941300  0.50199300  1
  Mn  Mn22  1  0.25000000  0.70941300  0.98056600  1
  Mn  Mn23  1  0.25000000  0.03425200  0.43657500  1
  Ge  Ge24  1  0.75000000  0.41084500  0.61950200  1
  Ge  Ge25  1  0.25000000  0.58915500  0.38049800  1
  Ge  Ge26  1  0.25000000  0.91084500  0.88049800  1
  Ge  Ge27  1  0.75000000  0.90961800  0.37993700  1
  Ge  Ge28  1  0.25000000  0.09038200  0.62006300  1
  Ge  Ge29  1  0.25000000  0.24012200  0.37805300  1
  Ge  Ge30  1  0.75000000  0.59038200  0.87993700  1
  Ge  Ge31  1  0.75000000  0.74012200  0.12194700  1
  Ge  Ge32  1  0.75000000  0.75987800  0.62194700  1
  Ge  Ge33  1  0.75000000  0.08915500  0.11950200  1
  Ge  Ge34  1  0.25000000  0.40961800  0.12006300  1
  Ge  Ge35  1  0.25000000  0.25987800  0.87805300  1
