# generated using pymatgen
data_H9BrO4
_symmetry_space_group_name_H-M   'P 1'
_cell_length_a   11.65268600
_cell_length_b   7.09684300
_cell_length_c   7.19948322
_cell_angle_alpha   71.71689290
_cell_angle_beta   90.00000000
_cell_angle_gamma   90.00000000
_symmetry_Int_Tables_number   1
_chemical_formula_structural   H9BrO4
_chemical_formula_sum   'H36 Br4 O16'
_cell_volume   565.32185226
_cell_formula_units_Z   4
loop_
 _symmetry_equiv_pos_site_id
 _symmetry_equiv_pos_as_xyz
  1  'x, y, z'
loop_
 _atom_site_type_symbol
 _atom_site_label
 _atom_site_symmetry_multiplicity
 _atom_site_fract_x
 _atom_site_fract_y
 _atom_site_fract_z
 _atom_site_occupancy
  H  H0  1  0.74853200  0.77951600  0.82635800  1
  H  H1  1  0.67075200  0.64889400  0.00278600  1
  H  H2  1  0.17075200  0.35110600  0.99721400  1
  H  H3  1  0.24853200  0.22048400  0.17364200  1
  H  H4  1  0.81629000  0.02198500  0.15583200  1
  H  H5  1  0.74023200  0.16961900  0.96914600  1
  H  H6  1  0.73435600  0.90644500  0.03512900  1
  H  H7  1  0.31629000  0.97801500  0.84416800  1
  H  H8  1  0.23435600  0.09355500  0.96487100  1
  H  H9  1  0.24023200  0.83038100  0.03085400  1
  H  H10  1  0.74268700  0.32922100  0.68480700  1
  H  H11  1  0.82278700  0.41624400  0.81821700  1
  H  H12  1  0.24268700  0.67077900  0.31519300  1
  H  H13  1  0.32278700  0.58375600  0.18178300  1
  H  H14  1  0.67835400  0.31211000  0.38574600  1
  H  H15  1  0.81482500  0.35812200  0.39094500  1
  H  H16  1  0.17835400  0.68789000  0.61425400  1
  H  H17  1  0.31482500  0.64187800  0.60905500  1
  H  H18  1  0.84470900  0.85952300  0.51836100  1
  H  H19  1  0.76270100  0.03085000  0.53517800  1
  H  H20  1  0.34470900  0.14047700  0.48163900  1
  H  H21  1  0.26270100  0.96915000  0.46482200  1
  H  H22  1  0.61065600  0.63282500  0.38081900  1
  H  H23  1  0.66444100  0.79362500  0.47991100  1
  H  H24  1  0.11065600  0.36717500  0.61918100  1
  H  H25  1  0.16444100  0.20637500  0.52008900  1
  H  H26  1  0.44066700  0.46473800  0.83176900  1
  H  H27  1  0.49319100  0.59897500  0.63372900  1
  H  H28  1  0.94066700  0.53526200  0.16823100  1
  H  H29  1  0.99319100  0.40102500  0.36627100  1
  H  H30  1  0.49099900  0.13065500  0.18502500  1
  H  H31  1  0.48589600  0.98931200  0.04258900  1
  H  H32  1  0.53019000  0.88534900  0.28850300  1
  H  H33  1  0.99099900  0.86934500  0.81497500  1
  H  H34  1  0.98589600  0.01068800  0.95741100  1
  H  H35  1  0.03019000  0.11465100  0.71149700  1
  Br  Br36  1  0.48988400  0.00571800  0.74978200  1
  Br  Br37  1  0.98988400  0.99428200  0.25021800  1
  Br  Br38  1  0.51816600  0.43551800  0.17899500  1
  Br  Br39  1  0.01816600  0.56448200  0.82100500  1
  O  O40  1  0.73921200  0.73509400  0.97156500  1
  O  O41  1  0.23921200  0.26490600  0.02843500  1
  O  O42  1  0.73888400  0.03201500  0.08826500  1
  O  O43  1  0.23888400  0.96798500  0.91173500  1
  O  O44  1  0.74775000  0.35309900  0.81507300  1
  O  O45  1  0.24775000  0.64690100  0.18492700  1
  O  O46  1  0.74740400  0.27932700  0.46929800  1
  O  O47  1  0.24740400  0.72067300  0.53070200  1
  O  O48  1  0.77012100  0.88160700  0.57303200  1
  O  O49  1  0.27012100  0.11839300  0.42696800  1
  O  O50  1  0.59212100  0.74250000  0.43142000  1
  O  O51  1  0.09212100  0.25750000  0.56858000  1
  O  O52  1  0.42630500  0.51592200  0.69138100  1
  O  O53  1  0.92630500  0.48407800  0.30861900  1
  O  O54  1  0.47465700  0.99089300  0.18421400  1
  O  O55  1  0.97465700  0.00910700  0.81578600  1
