# generated using pymatgen
data_H2CO2
_symmetry_space_group_name_H-M   'P 1'
_cell_length_a   3.89668100
_cell_length_b   5.97549800
_cell_length_c   9.80011600
_cell_angle_alpha   90.00000000
_cell_angle_beta   90.00000000
_cell_angle_gamma   90.00000000
_symmetry_Int_Tables_number   1
_chemical_formula_structural   H2CO2
_chemical_formula_sum   'H8 C4 O8'
_cell_volume   228.19187433
_cell_formula_units_Z   4
loop_
 _symmetry_equiv_pos_site_id
 _symmetry_equiv_pos_as_xyz
  1  'x, y, z'
loop_
 _atom_site_type_symbol
 _atom_site_label
 _atom_site_symmetry_multiplicity
 _atom_site_fract_x
 _atom_site_fract_y
 _atom_site_fract_z
 _atom_site_occupancy
  H  H0  1  0.35863900  0.91669300  0.52259800  1
  H  H1  1  0.64136100  0.41669300  0.47740200  1
  H  H2  1  0.85863900  0.41669300  0.97740200  1
  H  H3  1  0.14136100  0.91669300  0.02259800  1
  H  H4  1  0.19752500  0.09390500  0.81648700  1
  H  H5  1  0.80247500  0.59390500  0.18351300  1
  H  H6  1  0.69752500  0.59390500  0.68351300  1
  H  H7  1  0.30247500  0.09390500  0.31648700  1
  C  C8  1  0.25404500  0.18720900  0.62913900  1
  C  C9  1  0.74595500  0.68720900  0.37086100  1
  C  C10  1  0.75404500  0.68720900  0.87086100  1
  C  C11  1  0.24595500  0.18720900  0.12913900  1
  O  O12  1  0.32821200  0.08231000  0.51119600  1
  O  O13  1  0.67178800  0.58231000  0.48880400  1
  O  O14  1  0.82821200  0.58231000  0.98880400  1
  O  O15  1  0.17178800  0.08231000  0.01119600  1
  O  O16  1  0.24097700  0.03089500  0.72456700  1
  O  O17  1  0.75902300  0.53089500  0.27543300  1
  O  O18  1  0.74097700  0.53089500  0.77543300  1
  O  O19  1  0.25902300  0.03089500  0.22456700  1
