# generated using pymatgen
data_Ba(Mo3O5)2
_symmetry_space_group_name_H-M   'P 1'
_cell_length_a   9.14128200
_cell_length_b   9.61443013
_cell_length_c   10.51228374
_cell_angle_alpha   89.87122321
_cell_angle_beta   89.70747766
_cell_angle_gamma   89.11723001
_symmetry_Int_Tables_number   1
_chemical_formula_structural   Ba(Mo3O5)2
_chemical_formula_sum   'Ba4 Mo24 O40'
_cell_volume   923.78200433
_cell_formula_units_Z   4
loop_
 _symmetry_equiv_pos_site_id
 _symmetry_equiv_pos_as_xyz
  1  'x, y, z'
loop_
 _atom_site_type_symbol
 _atom_site_label
 _atom_site_symmetry_multiplicity
 _atom_site_fract_x
 _atom_site_fract_y
 _atom_site_fract_z
 _atom_site_occupancy
  Ba  Ba0  1  0.25359600  0.01600700  0.90094000  1
  Ba  Ba1  1  0.75179900  0.98775100  0.09990900  1
  Ba  Ba2  1  0.75300300  0.51400000  0.59951300  1
  Ba  Ba3  1  0.24039000  0.48605000  0.40206300  1
  Mo  Mo4  1  0.59091900  0.87620600  0.72090300  1
  Mo  Mo5  1  0.09285400  0.11755200  0.28295100  1
  Mo  Mo6  1  0.41245000  0.37398800  0.78801700  1
  Mo  Mo7  1  0.90899100  0.62690600  0.21848500  1
  Mo  Mo8  1  0.40952300  0.12269000  0.28139400  1
  Mo  Mo9  1  0.90974800  0.87393700  0.71139900  1
  Mo  Mo10  1  0.58981600  0.62480400  0.21263000  1
  Mo  Mo11  1  0.08941800  0.37663300  0.78078300  1
  Mo  Mo12  1  0.24845500  0.87151300  0.21603800  1
  Mo  Mo13  1  0.75408400  0.12903600  0.78690000  1
  Mo  Mo14  1  0.74669900  0.37020900  0.28681900  1
  Mo  Mo15  1  0.25442000  0.63049200  0.71387100  1
  Mo  Mo16  1  0.59700400  0.13648500  0.54528600  1
  Mo  Mo17  1  0.09547500  0.87330700  0.45049800  1
  Mo  Mo18  1  0.40948600  0.63341500  0.95403900  1
  Mo  Mo19  1  0.90330800  0.36272600  0.04536200  1
  Mo  Mo20  1  0.40439500  0.86382600  0.45576400  1
  Mo  Mo21  1  0.90823400  0.13605200  0.54466000  1
  Mo  Mo22  1  0.59054900  0.36385500  0.04579800  1
  Mo  Mo23  1  0.10207700  0.63284300  0.95179800  1
  Mo  Mo24  1  0.24788800  0.11922700  0.54142900  1
  Mo  Mo25  1  0.75280900  0.88049100  0.46004000  1
  Mo  Mo26  1  0.74883200  0.62029500  0.96155500  1
  Mo  Mo27  1  0.25232300  0.38069800  0.04026500  1
  O  O28  1  0.58477900  0.01066800  0.85970900  1
  O  O29  1  0.09663500  0.99305700  0.13113600  1
  O  O30  1  0.39584200  0.51008100  0.63242100  1
  O  O31  1  0.91681900  0.48904300  0.35541400  1
  O  O32  1  0.41124700  0.98797000  0.14141100  1
  O  O33  1  0.89862000  0.01056500  0.86506400  1
  O  O34  1  0.60219200  0.48951800  0.36661200  1
  O  O35  1  0.08447300  0.51080300  0.64131400  1
  O  O36  1  0.24687000  0.74529800  0.54095700  1
  O  O37  1  0.75181500  0.26680300  0.46069100  1
  O  O38  1  0.74845700  0.23413800  0.95974800  1
  O  O39  1  0.24531100  0.75406000  0.04168700  1
  O  O40  1  0.57385500  0.00081000  0.38218400  1
  O  O41  1  0.07635900  0.99740800  0.62354200  1
  O  O42  1  0.42254700  0.50245500  0.12525300  1
  O  O43  1  0.93003500  0.50144500  0.88278500  1
  O  O44  1  0.58905000  0.23617100  0.20895700  1
  O  O45  1  0.43058800  0.99673000  0.61934600  1
  O  O46  1  0.57958600  0.49791300  0.87560400  1
  O  O47  1  0.07156200  0.50444600  0.11515000  1
  O  O48  1  0.24151600  0.24207200  0.71238100  1
  O  O49  1  0.75686400  0.75819500  0.29107200  1
  O  O50  1  0.74289100  0.74272500  0.79191800  1
  O  O51  1  0.25086000  0.25388600  0.21293000  1
  O  O52  1  0.40294100  0.76553100  0.79408500  1
  O  O53  1  0.90658100  0.23991600  0.20686900  1
  O  O54  1  0.59241600  0.25976500  0.70736100  1
  O  O55  1  0.09503200  0.74052900  0.29157300  1
  O  O56  1  0.08155600  0.26580400  0.95486200  1
  O  O57  1  0.58564900  0.74300600  0.04209900  1
  O  O58  1  0.91995000  0.76141200  0.53793800  1
  O  O59  1  0.41590500  0.23228300  0.45304400  1
  O  O60  1  0.91989900  0.73422400  0.04549100  1
  O  O61  1  0.41295000  0.25500200  0.95844700  1
  O  O62  1  0.08541400  0.23868800  0.45009700  1
  O  O63  1  0.58737200  0.76395700  0.54873200  1
  O  O64  1  0.90699500  0.26373300  0.70673400  1
  O  O65  1  0.41427700  0.74052900  0.29725600  1
  O  O66  1  0.08223100  0.75450400  0.79725700  1
  O  O67  1  0.92350900  0.00386700  0.37175700  1
