# generated using pymatgen
data_Mn3Fe2(SiO4)3
_symmetry_space_group_name_H-M   'P 1'
_cell_length_a   10.36266426
_cell_length_b   10.36266426
_cell_length_c   10.36266426
_cell_angle_alpha   109.47122063
_cell_angle_beta   109.47122063
_cell_angle_gamma   109.47122063
_symmetry_Int_Tables_number   1
_chemical_formula_structural   Mn3Fe2(SiO4)3
_chemical_formula_sum   'Mn12 Fe8 Si12 O48'
_cell_volume   856.62824950
_cell_formula_units_Z   4
loop_
 _symmetry_equiv_pos_site_id
 _symmetry_equiv_pos_as_xyz
  1  'x, y, z'
loop_
 _atom_site_type_symbol
 _atom_site_label
 _atom_site_symmetry_multiplicity
 _atom_site_fract_x
 _atom_site_fract_y
 _atom_site_fract_z
 _atom_site_occupancy
  Mn  Mn0  1  0.87500000  0.62500000  0.25000000  1
  Mn  Mn1  1  0.62500000  0.87500000  0.75000000  1
  Mn  Mn2  1  0.25000000  0.87500000  0.62500000  1
  Mn  Mn3  1  0.75000000  0.62500000  0.87500000  1
  Mn  Mn4  1  0.62500000  0.25000000  0.87500000  1
  Mn  Mn5  1  0.12500000  0.25000000  0.37500000  1
  Mn  Mn6  1  0.12500000  0.37500000  0.75000000  1
  Mn  Mn7  1  0.37500000  0.12500000  0.25000000  1
  Mn  Mn8  1  0.75000000  0.12500000  0.37500000  1
  Mn  Mn9  1  0.25000000  0.37500000  0.12500000  1
  Mn  Mn10  1  0.87500000  0.75000000  0.62500000  1
  Mn  Mn11  1  0.37500000  0.75000000  0.12500000  1
  Fe  Fe12  1  0.50000000  0.00000000  0.50000000  1
  Fe  Fe13  1  0.00000000  0.50000000  0.00000000  1
  Fe  Fe14  1  0.50000000  0.50000000  0.50000000  1
  Fe  Fe15  1  0.00000000  0.00000000  0.00000000  1
  Fe  Fe16  1  0.00000000  0.50000000  0.50000000  1
  Fe  Fe17  1  0.50000000  0.50000000  0.00000000  1
  Fe  Fe18  1  0.50000000  0.00000000  0.00000000  1
  Fe  Fe19  1  0.00000000  0.00000000  0.50000000  1
  Si  Si20  1  0.12500000  0.75000000  0.87500000  1
  Si  Si21  1  0.25000000  0.62500000  0.37500000  1
  Si  Si22  1  0.62500000  0.75000000  0.37500000  1
  Si  Si23  1  0.87500000  0.12500000  0.75000000  1
  Si  Si24  1  0.37500000  0.25000000  0.62500000  1
  Si  Si25  1  0.37500000  0.62500000  0.75000000  1
  Si  Si26  1  0.62500000  0.37500000  0.25000000  1
  Si  Si27  1  0.25000000  0.12500000  0.87500000  1
  Si  Si28  1  0.12500000  0.87500000  0.25000000  1
  Si  Si29  1  0.75000000  0.37500000  0.62500000  1
  Si  Si30  1  0.87500000  0.25000000  0.12500000  1
  Si  Si31  1  0.75000000  0.87500000  0.12500000  1
  O  O32  1  0.87936800  0.39476200  0.08785900  1
  O  O33  1  0.79150900  0.87936800  0.98460600  1
  O  O34  1  0.39476200  0.80690300  0.51539400  1
  O  O35  1  0.69309700  0.08785900  0.70849100  1
  O  O36  1  0.80690300  0.51539400  0.39476200  1
  O  O37  1  0.98460600  0.79150900  0.87936800  1
  O  O38  1  0.08785900  0.70849100  0.69309700  1
  O  O39  1  0.98460600  0.69309700  0.10523800  1
  O  O40  1  0.79150900  0.41214100  0.80690300  1
  O  O41  1  0.41214100  0.80690300  0.79150900  1
  O  O42  1  0.70849100  0.51539400  0.62063200  1
  O  O43  1  0.08785900  0.87936800  0.39476200  1
  O  O44  1  0.39476200  0.08785900  0.87936800  1
  O  O45  1  0.10523800  0.98460600  0.69309700  1
  O  O46  1  0.51539400  0.62063200  0.70849100  1
  O  O47  1  0.80690300  0.79150900  0.41214100  1
  O  O48  1  0.10523800  0.62063200  0.41214100  1
  O  O49  1  0.62063200  0.70849100  0.51539400  1
  O  O50  1  0.87936800  0.98460600  0.79150900  1
  O  O51  1  0.69309700  0.10523800  0.98460600  1
  O  O52  1  0.58785900  0.89476200  0.37936800  1
  O  O53  1  0.70849100  0.69309700  0.08785900  1
  O  O54  1  0.62063200  0.41214100  0.10523800  1
  O  O55  1  0.41214100  0.10523800  0.62063200  1
  O  O56  1  0.12063200  0.60523800  0.91214100  1
  O  O57  1  0.20849100  0.12063200  0.01539400  1
  O  O58  1  0.60523800  0.19309700  0.48460600  1
  O  O59  1  0.30690300  0.91214100  0.29150900  1
  O  O60  1  0.19309700  0.48460600  0.60523800  1
  O  O61  1  0.01539400  0.20849100  0.12063200  1
  O  O62  1  0.91214100  0.29150900  0.30690300  1
  O  O63  1  0.01539400  0.30690300  0.89476200  1
  O  O64  1  0.20849100  0.58785900  0.19309700  1
  O  O65  1  0.58785900  0.19309700  0.20849100  1
  O  O66  1  0.29150900  0.48460600  0.37936800  1
  O  O67  1  0.91214100  0.12063200  0.60523800  1
  O  O68  1  0.60523800  0.91214100  0.12063200  1
  O  O69  1  0.89476200  0.01539400  0.30690300  1
  O  O70  1  0.48460600  0.37936800  0.29150900  1
  O  O71  1  0.19309700  0.20849100  0.58785900  1
  O  O72  1  0.89476200  0.37936800  0.58785900  1
  O  O73  1  0.37936800  0.29150900  0.48460600  1
  O  O74  1  0.12063200  0.01539400  0.20849100  1
  O  O75  1  0.30690300  0.89476200  0.01539400  1
  O  O76  1  0.48460600  0.60523800  0.19309700  1
  O  O77  1  0.29150900  0.30690300  0.91214100  1
  O  O78  1  0.37936800  0.58785900  0.89476200  1
  O  O79  1  0.51539400  0.39476200  0.80690300  1
