# generated using pymatgen
data_H7ClO3
_symmetry_space_group_name_H-M   'P 1'
_cell_length_a   6.59483744
_cell_length_b   6.59483744
_cell_length_c   6.52447705
_cell_angle_alpha   70.55711635
_cell_angle_beta   70.55711635
_cell_angle_gamma   107.81271332
_symmetry_Int_Tables_number   1
_chemical_formula_structural   H7ClO3
_chemical_formula_sum   'H14 Cl2 O6'
_cell_volume   222.89864769
_cell_formula_units_Z   2
loop_
 _symmetry_equiv_pos_site_id
 _symmetry_equiv_pos_as_xyz
  1  'x, y, z'
loop_
 _atom_site_type_symbol
 _atom_site_label
 _atom_site_symmetry_multiplicity
 _atom_site_fract_x
 _atom_site_fract_y
 _atom_site_fract_z
 _atom_site_occupancy
  H  H0  1  0.78574200  0.94969200  0.40999800  1
  H  H1  1  0.54241400  0.70468900  0.57900300  1
  H  H2  1  0.94969200  0.78574200  0.90999800  1
  H  H3  1  0.70468900  0.54241400  0.07900300  1
  H  H4  1  0.20322500  0.32214800  0.72891100  1
  H  H5  1  0.43481400  0.43869700  0.46037900  1
  H  H6  1  0.32214800  0.20322500  0.22891100  1
  H  H7  1  0.43869700  0.43481400  0.96037900  1
  H  H8  1  0.45027300  0.16729100  0.73614600  1
  H  H9  1  0.61323700  0.08562700  0.86718300  1
  H  H10  1  0.55114800  0.95789300  0.69453700  1
  H  H11  1  0.16729100  0.45027300  0.23614600  1
  H  H12  1  0.08562700  0.61323700  0.36718300  1
  H  H13  1  0.95789300  0.55114800  0.19453700  1
  Cl  Cl14  1  0.18332000  0.85903800  0.45875200  1
  Cl  Cl15  1  0.85903800  0.18332000  0.95875200  1
  O  O16  1  0.65148700  0.84309700  0.58135200  1
  O  O17  1  0.84309700  0.65148700  0.08135200  1
  O  O18  1  0.38724400  0.38507800  0.63585400  1
  O  O19  1  0.38507800  0.38724400  0.13585400  1
  O  O20  1  0.48370800  0.02833100  0.81549300  1
  O  O21  1  0.02833100  0.48370800  0.31549300  1
