# generated using pymatgen
data_CdI2
_symmetry_space_group_name_H-M   'P 1'
_cell_length_a   4.34408974
_cell_length_b   4.34408974
_cell_length_c   73.64844600
_cell_angle_alpha   90.00000000
_cell_angle_beta   90.00000000
_cell_angle_gamma   119.99999609
_symmetry_Int_Tables_number   1
_chemical_formula_structural   CdI2
_chemical_formula_sum   'Cd10 I20'
_cell_volume   1203.62670149
_cell_formula_units_Z   10
loop_
 _symmetry_equiv_pos_site_id
 _symmetry_equiv_pos_as_xyz
  1  'x, y, z'
loop_
 _atom_site_type_symbol
 _atom_site_label
 _atom_site_symmetry_multiplicity
 _atom_site_fract_x
 _atom_site_fract_y
 _atom_site_fract_z
 _atom_site_occupancy
  Cd  Cd0  1  0.00000000  0.00000000  0.52499900  1
  Cd  Cd1  1  0.00000000  0.00000000  0.22499600  1
  Cd  Cd2  1  0.00000000  0.00000000  0.72499600  1
  Cd  Cd3  1  0.33333300  0.66666700  0.82500300  1
  Cd  Cd4  1  0.00000000  0.00000000  0.42500800  1
  Cd  Cd5  1  0.33333300  0.66666700  0.92498800  1
  Cd  Cd6  1  0.00000000  0.00000000  0.02500000  1
  Cd  Cd7  1  0.33333300  0.66666700  0.32499800  1
  Cd  Cd8  1  0.33333300  0.66666700  0.12498800  1
  Cd  Cd9  1  0.33333300  0.66666700  0.62498700  1
  I  I10  1  0.33333300  0.66666700  0.20149900  1
  I  I11  1  0.66666700  0.33333300  0.44852500  1
  I  I12  1  0.66666700  0.33333300  0.94850200  1
  I  I13  1  0.00000000  0.00000000  0.10148100  1
  I  I14  1  0.00000000  0.00000000  0.90147000  1
  I  I15  1  0.66666700  0.33333300  0.34851800  1
  I  I16  1  0.33333300  0.66666700  0.40150000  1
  I  I17  1  0.66666700  0.33333300  0.04851800  1
  I  I18  1  0.00000000  0.00000000  0.30148600  1
  I  I19  1  0.66666700  0.33333300  0.54851800  1
  I  I20  1  0.00000000  0.00000000  0.60147900  1
  I  I21  1  0.66666700  0.33333300  0.14850400  1
  I  I22  1  0.66666700  0.33333300  0.24851600  1
  I  I23  1  0.33333300  0.66666700  0.00149600  1
  I  I24  1  0.33333300  0.66666700  0.70149900  1
  I  I25  1  0.66666700  0.33333300  0.84852100  1
  I  I26  1  0.66666700  0.33333300  0.64850400  1
  I  I27  1  0.00000000  0.00000000  0.80148700  1
  I  I28  1  0.66666700  0.33333300  0.74851600  1
  I  I29  1  0.33333300  0.66666700  0.50149600  1
