# generated using pymatgen
data_Ba(H2O3)2
_symmetry_space_group_name_H-M   'P 1'
_cell_length_a   6.13247264
_cell_length_b   6.13247264
_cell_length_c   6.38435201
_cell_angle_alpha   86.90982578
_cell_angle_beta   86.90982578
_cell_angle_gamma   93.89676776
_symmetry_Int_Tables_number   1
_chemical_formula_structural   Ba(H2O3)2
_chemical_formula_sum   'Ba2 H8 O12'
_cell_volume   238.79461433
_cell_formula_units_Z   2
loop_
 _symmetry_equiv_pos_site_id
 _symmetry_equiv_pos_as_xyz
  1  'x, y, z'
loop_
 _atom_site_type_symbol
 _atom_site_label
 _atom_site_symmetry_multiplicity
 _atom_site_fract_x
 _atom_site_fract_y
 _atom_site_fract_z
 _atom_site_occupancy
  Ba  Ba0  1  0.18399000  0.81601000  0.75000000  1
  Ba  Ba1  1  0.81601000  0.18399000  0.25000000  1
  H  H2  1  0.01900900  0.65440100  0.27564900  1
  H  H3  1  0.34559900  0.98099100  0.22435100  1
  H  H4  1  0.98099100  0.34559900  0.72435100  1
  H  H5  1  0.65440100  0.01900900  0.77564900  1
  H  H6  1  0.64989000  0.72233000  0.07544300  1
  H  H7  1  0.27767000  0.35011000  0.42455700  1
  H  H8  1  0.35011000  0.27767000  0.92455700  1
  H  H9  1  0.72233000  0.64989000  0.57544300  1
  O  O10  1  0.95275200  0.76225000  0.14865400  1
  O  O11  1  0.23775000  0.04724800  0.35134600  1
  O  O12  1  0.04724800  0.23775000  0.85134600  1
  O  O13  1  0.76225000  0.95275200  0.64865400  1
  O  O14  1  0.77413300  0.61840200  0.07217800  1
  O  O15  1  0.38159800  0.22586700  0.42782200  1
  O  O16  1  0.22586700  0.38159800  0.92782200  1
  O  O17  1  0.61840200  0.77413300  0.57217800  1
  O  O18  1  0.90291100  0.47093000  0.57470300  1
  O  O19  1  0.52907000  0.09708900  0.92529700  1
  O  O20  1  0.09708900  0.52907000  0.42529700  1
  O  O21  1  0.47093000  0.90291100  0.07470300  1
