# generated using pymatgen
data_Sc(HO)3
_symmetry_space_group_name_H-M   'P 1'
_cell_length_a   6.84210219
_cell_length_b   6.84210219
_cell_length_c   6.84210229
_cell_angle_alpha   109.26031129
_cell_angle_beta   109.26031129
_cell_angle_gamma   109.26031268
_symmetry_Int_Tables_number   1
_chemical_formula_structural   Sc(HO)3
_chemical_formula_sum   'Sc4 H12 O12'
_cell_volume   248.48048518
_cell_formula_units_Z   4
loop_
 _symmetry_equiv_pos_site_id
 _symmetry_equiv_pos_as_xyz
  1  'x, y, z'
loop_
 _atom_site_type_symbol
 _atom_site_label
 _atom_site_symmetry_multiplicity
 _atom_site_fract_x
 _atom_site_fract_y
 _atom_site_fract_z
 _atom_site_occupancy
  Sc  Sc0  1  0.00000000  0.00000000  0.50000000  1
  Sc  Sc1  1  0.00000000  0.50000000  0.00000000  1
  Sc  Sc2  1  0.50000000  0.50000000  0.50000000  1
  Sc  Sc3  1  0.50000000  0.00000000  0.00000000  1
  H  H4  1  0.73632600  0.69400300  0.04245200  1
  H  H5  1  0.26367400  0.30599700  0.95754800  1
  H  H6  1  0.37336400  0.54734800  0.82317400  1
  H  H7  1  0.62663600  0.45265200  0.17682600  1
  H  H8  1  0.54734800  0.82317400  0.37336400  1
  H  H9  1  0.45265200  0.17682600  0.62663600  1
  H  H10  1  0.69400300  0.04245200  0.73632600  1
  H  H11  1  0.30599700  0.95754800  0.26367400  1
  H  H12  1  0.17682600  0.62663600  0.45265200  1
  H  H13  1  0.82317400  0.37336400  0.54734800  1
  H  H14  1  0.95754800  0.26367400  0.30599700  1
  H  H15  1  0.04245200  0.73632600  0.69400300  1
  O  O16  1  0.85827900  0.68682000  0.16717700  1
  O  O17  1  0.14172100  0.31318000  0.83282300  1
  O  O18  1  0.50186300  0.67398500  0.82604900  1
  O  O19  1  0.49813700  0.32601500  0.17395100  1
  O  O20  1  0.67398500  0.82604900  0.50186300  1
  O  O21  1  0.32601500  0.17395100  0.49813700  1
  O  O22  1  0.68682000  0.16717700  0.85827900  1
  O  O23  1  0.31318000  0.83282300  0.14172100  1
  O  O24  1  0.17395100  0.49813700  0.32601500  1
  O  O25  1  0.82604900  0.50186300  0.67398500  1
  O  O26  1  0.83282300  0.14172100  0.31318000  1
  O  O27  1  0.16717700  0.85827900  0.68682000  1
