# generated using pymatgen
data_TeHO3
_symmetry_space_group_name_H-M   'P 1'
_cell_length_a   8.27137800
_cell_length_b   4.91138600
_cell_length_c   12.06611057
_cell_angle_alpha   87.67387459
_cell_angle_beta   90.00000000
_cell_angle_gamma   90.00000000
_symmetry_Int_Tables_number   1
_chemical_formula_structural   TeHO3
_chemical_formula_sum   'Te8 H8 O24'
_cell_volume   489.76892623
_cell_formula_units_Z   8
loop_
 _symmetry_equiv_pos_site_id
 _symmetry_equiv_pos_as_xyz
  1  'x, y, z'
loop_
 _atom_site_type_symbol
 _atom_site_label
 _atom_site_symmetry_multiplicity
 _atom_site_fract_x
 _atom_site_fract_y
 _atom_site_fract_z
 _atom_site_occupancy
  Te  Te0  1  0.69932300  0.98684300  0.38550900  1
  Te  Te1  1  0.78136200  0.48540800  0.60657100  1
  Te  Te2  1  0.21863800  0.48540800  0.10657100  1
  Te  Te3  1  0.30067700  0.98684300  0.88550900  1
  Te  Te4  1  0.59753800  0.87728800  0.08225300  1
  Te  Te5  1  0.91226400  0.31720300  0.92861900  1
  Te  Te6  1  0.08773600  0.31720300  0.42861900  1
  Te  Te7  1  0.40246200  0.87728800  0.58225300  1
  H  H8  1  0.64211000  0.21297800  0.75657300  1
  H  H9  1  0.35789000  0.21297800  0.25657300  1
  H  H10  1  0.76926800  0.51011000  0.14291900  1
  H  H11  1  0.23073200  0.51011000  0.64291900  1
  H  H12  1  0.60772500  0.44100400  0.29840800  1
  H  H13  1  0.88326900  0.88204900  0.70141500  1
  H  H14  1  0.11673100  0.88204900  0.20141500  1
  H  H15  1  0.39227500  0.44100400  0.79840800  1
  O  O16  1  0.70326000  0.75524500  0.26475100  1
  O  O17  1  0.75828600  0.21861900  0.73332200  1
  O  O18  1  0.24171400  0.21861900  0.23332200  1
  O  O19  1  0.29674000  0.75524500  0.76475100  1
  O  O20  1  0.70816900  0.52270000  0.07272000  1
  O  O21  1  0.80116600  0.99600700  0.96685700  1
  O  O22  1  0.19883400  0.99600700  0.46685700  1
  O  O23  1  0.29183100  0.52270000  0.57272000  1
  O  O24  1  0.59265900  0.67431200  0.65490200  1
  O  O25  1  0.90319400  0.17205400  0.34473800  1
  O  O26  1  0.09680600  0.17205400  0.84473800  1
  O  O27  1  0.40734100  0.67431200  0.15490200  1
  O  O28  1  0.65421500  0.23257400  0.51477800  1
  O  O29  1  0.83524000  0.73102600  0.47835300  1
  O  O30  1  0.16476000  0.73102600  0.97835300  1
  O  O31  1  0.34578500  0.23257400  0.01477800  1
  O  O32  1  0.50270600  0.80164500  0.43798400  1
  O  O33  1  0.97517100  0.28052400  0.57185700  1
  O  O34  1  0.02482900  0.28052400  0.07185700  1
  O  O35  1  0.49729400  0.80164500  0.93798400  1
  O  O36  1  0.57029200  0.24640400  0.29476200  1
  O  O37  1  0.92003300  0.69017800  0.70218900  1
  O  O38  1  0.07996700  0.69017800  0.20218900  1
  O  O39  1  0.42970800  0.24640400  0.79476200  1
