# generated using pymatgen
data_MnAl6Si4O19
_symmetry_space_group_name_H-M   'P 1'
_cell_length_a   5.74431600
_cell_length_b   9.61367300
_cell_length_c   11.96088425
_cell_angle_alpha   72.46850103
_cell_angle_beta   90.00000000
_cell_angle_gamma   90.00000000
_symmetry_Int_Tables_number   1
_chemical_formula_structural   MnAl6Si4O19
_chemical_formula_sum   'Mn2 Al12 Si8 O38'
_cell_volume   629.84705854
_cell_formula_units_Z   2
loop_
 _symmetry_equiv_pos_site_id
 _symmetry_equiv_pos_as_xyz
  1  'x, y, z'
loop_
 _atom_site_type_symbol
 _atom_site_label
 _atom_site_symmetry_multiplicity
 _atom_site_fract_x
 _atom_site_fract_y
 _atom_site_fract_z
 _atom_site_occupancy
  Mn  Mn0  1  0.75000000  0.64013700  0.62076300  1
  Mn  Mn1  1  0.25000000  0.35986300  0.37923700  1
  Al  Al2  1  0.75000000  0.67704200  0.90416800  1
  Al  Al3  1  0.25000000  0.32295800  0.09583200  1
  Al  Al4  1  0.75000000  0.90860300  0.13458300  1
  Al  Al5  1  0.25000000  0.09139700  0.86541700  1
  Al  Al6  1  0.49180600  0.06968200  0.30810400  1
  Al  Al7  1  0.99180600  0.93031800  0.69189600  1
  Al  Al8  1  0.50819400  0.93031800  0.69189600  1
  Al  Al9  1  0.00819400  0.06968200  0.30810400  1
  Al  Al10  1  0.50130300  0.59423500  0.16524100  1
  Al  Al11  1  0.00130300  0.40576500  0.83475900  1
  Al  Al12  1  0.49869700  0.40576500  0.83475900  1
  Al  Al13  1  0.99869700  0.59423500  0.16524100  1
  Si  Si14  1  0.75000000  0.17020100  0.47128500  1
  Si  Si15  1  0.25000000  0.82979900  0.52871500  1
  Si  Si16  1  0.75000000  0.48892900  0.41547100  1
  Si  Si17  1  0.25000000  0.51107100  0.58452900  1
  Si  Si18  1  0.75000000  0.32399700  0.09384500  1
  Si  Si19  1  0.25000000  0.67600300  0.90615500  1
  Si  Si20  1  0.75000000  0.10014600  0.85103300  1
  Si  Si21  1  0.25000000  0.89985400  0.14896700  1
  O  O22  1  0.75000000  0.01142200  0.98859300  1
  O  O23  1  0.25000000  0.98857800  0.01140700  1
  O  O24  1  0.75000000  0.53578200  0.83518000  1
  O  O25  1  0.25000000  0.46421800  0.16482000  1
  O  O26  1  0.75000000  0.46932500  0.13879600  1
  O  O27  1  0.25000000  0.53067500  0.86120400  1
  O  O28  1  0.75000000  0.27742400  0.83243200  1
  O  O29  1  0.25000000  0.72257600  0.16756800  1
  O  O30  1  0.75000000  0.62530400  0.47149700  1
  O  O31  1  0.25000000  0.37469600  0.52850300  1
  O  O32  1  0.75000000  0.32810200  0.50963200  1
  O  O33  1  0.25000000  0.67189800  0.49036800  1
  O  O34  1  0.75000000  0.71793100  0.15896300  1
  O  O35  1  0.25000000  0.28206900  0.84103700  1
  O  O36  1  0.75000000  0.17367800  0.20064300  1
  O  O37  1  0.25000000  0.82632200  0.79935700  1
  O  O38  1  0.75000000  0.04934500  0.60508700  1
  O  O39  1  0.25000000  0.95065500  0.39491300  1
  O  O40  1  0.75000000  0.01805600  0.40188200  1
  O  O41  1  0.25000000  0.98194400  0.59811800  1
  O  O42  1  0.75000000  0.83214900  0.78451600  1
  O  O43  1  0.25000000  0.16785100  0.21548400  1
  O  O44  1  0.48825000  0.21039200  0.39607400  1
  O  O45  1  0.98825000  0.78960800  0.60392600  1
  O  O46  1  0.51175000  0.78960800  0.60392600  1
  O  O47  1  0.01175000  0.21039200  0.39607400  1
  O  O48  1  0.51291800  0.33217700  0.01438000  1
  O  O49  1  0.01291800  0.66782300  0.98562000  1
  O  O50  1  0.48708200  0.66782300  0.98562000  1
  O  O51  1  0.98708200  0.33217700  0.01438000  1
  O  O52  1  0.49327700  0.93738000  0.20902700  1
  O  O53  1  0.99327700  0.06262000  0.79097300  1
  O  O54  1  0.50672300  0.06262000  0.79097300  1
  O  O55  1  0.00672300  0.93738000  0.20902700  1
  O  O56  1  0.51353900  0.50634600  0.32965700  1
  O  O57  1  0.01353900  0.49365400  0.67034300  1
  O  O58  1  0.48646100  0.49365400  0.67034300  1
  O  O59  1  0.98646100  0.50634600  0.32965700  1
