# generated using pymatgen
data_H7NO6
_symmetry_space_group_name_H-M   'P 1'
_cell_length_a   9.77473800
_cell_length_b   3.77406400
_cell_length_c   14.79504223
_cell_angle_alpha   87.36491344
_cell_angle_beta   90.00000000
_cell_angle_gamma   90.00000000
_symmetry_Int_Tables_number   1
_chemical_formula_structural   H7NO6
_chemical_formula_sum   'H28 N4 O24'
_cell_volume   545.21918676
_cell_formula_units_Z   4
loop_
 _symmetry_equiv_pos_site_id
 _symmetry_equiv_pos_as_xyz
  1  'x, y, z'
loop_
 _atom_site_type_symbol
 _atom_site_label
 _atom_site_symmetry_multiplicity
 _atom_site_fract_x
 _atom_site_fract_y
 _atom_site_fract_z
 _atom_site_occupancy
  H  H0  1  0.80089000  0.23782700  0.46193100  1
  H  H1  1  0.68918700  0.70497300  0.02500200  1
  H  H2  1  0.30089000  0.76217300  0.53806900  1
  H  H3  1  0.18918700  0.29502700  0.97499800  1
  H  H4  1  0.89660400  0.89389400  0.38894200  1
  H  H5  1  0.70387400  0.93363900  0.42794800  1
  H  H6  1  0.60660100  0.36668100  0.09940800  1
  H  H7  1  0.79082300  0.40049600  0.06721500  1
  H  H8  1  0.39660400  0.10610600  0.61105800  1
  H  H9  1  0.20387400  0.06636100  0.57205200  1
  H  H10  1  0.10660100  0.63331900  0.90059200  1
  H  H11  1  0.29082300  0.59950400  0.93278500  1
  H  H12  1  0.75042200  0.76489500  0.62922700  1
  H  H13  1  0.75579700  0.25537700  0.83884700  1
  H  H14  1  0.69916900  0.74342800  0.72887800  1
  H  H15  1  0.85869000  0.31875900  0.75625800  1
  H  H16  1  0.25042200  0.23510500  0.37077300  1
  H  H17  1  0.25579700  0.74462300  0.16115300  1
  H  H18  1  0.19916900  0.25657200  0.27112200  1
  H  H19  1  0.35869000  0.68124100  0.24374200  1
  H  H20  1  0.51580600  0.41279700  0.57460200  1
  H  H21  1  0.56963300  0.09568300  0.64789800  1
  H  H22  1  0.97582400  0.93816200  0.93428100  1
  H  H23  1  0.93002300  0.65672600  0.85729000  1
  H  H24  1  0.06963300  0.90431700  0.35210200  1
  H  H25  1  0.01580600  0.58720300  0.42539800  1
  H  H26  1  0.43002300  0.34327400  0.14271000  1
  H  H27  1  0.47582400  0.06183800  0.06571900  1
  N  N28  1  0.97216300  0.36515300  0.58421800  1
  N  N29  1  0.52214300  0.87765300  0.90576800  1
  N  N30  1  0.47216300  0.63484700  0.41578200  1
  N  N31  1  0.02214300  0.12234700  0.09423200  1
  O  O32  1  0.85723000  0.49744800  0.55769800  1
  O  O33  1  0.64345500  0.97142700  0.92867600  1
  O  O34  1  0.35723000  0.50255200  0.44230200  1
  O  O35  1  0.14345500  0.02857300  0.07132400  1
  O  O36  1  0.06394000  0.32054000  0.52311600  1
  O  O37  1  0.43484600  0.81696700  0.97083300  1
  O  O38  1  0.56394000  0.67946000  0.47688400  1
  O  O39  1  0.93484600  0.18303300  0.02916700  1
  O  O40  1  0.99563100  0.27894500  0.66489900  1
  O  O41  1  0.48929100  0.84428400  0.82633100  1
  O  O42  1  0.49563100  0.72105500  0.33510100  1
  O  O43  1  0.98929100  0.15571600  0.17366900  1
  O  O44  1  0.78299300  0.08688100  0.41040600  1
  O  O45  1  0.70818300  0.54750000  0.07960200  1
  O  O46  1  0.28299300  0.91311900  0.58959400  1
  O  O47  1  0.20818300  0.45250000  0.92039800  1
  O  O48  1  0.69595500  0.89531500  0.67296200  1
  O  O49  1  0.81186800  0.43601300  0.80602400  1
  O  O50  1  0.19595500  0.10468500  0.32703800  1
  O  O51  1  0.31186800  0.56398700  0.19397600  1
  O  O52  1  0.48759100  0.25854900  0.62800300  1
  O  O53  1  0.00733000  0.80554800  0.88112700  1
  O  O54  1  0.98759100  0.74145100  0.37199700  1
  O  O55  1  0.50733000  0.19445200  0.11887300  1
