# generated using pymatgen
data_NaH2SNO3
_symmetry_space_group_name_H-M   'P 1'
_cell_length_a   5.13721800
_cell_length_b   13.60838700
_cell_length_c   17.83929300
_cell_angle_alpha   90.00000000
_cell_angle_beta   90.00000000
_cell_angle_gamma   90.00000000
_symmetry_Int_Tables_number   1
_chemical_formula_structural   NaH2SNO3
_chemical_formula_sum   'Na12 H24 S12 N12 O36'
_cell_volume   1247.13160571
_cell_formula_units_Z   12
loop_
 _symmetry_equiv_pos_site_id
 _symmetry_equiv_pos_as_xyz
  1  'x, y, z'
loop_
 _atom_site_type_symbol
 _atom_site_label
 _atom_site_symmetry_multiplicity
 _atom_site_fract_x
 _atom_site_fract_y
 _atom_site_fract_z
 _atom_site_occupancy
  Na  Na0  1  0.96459200  0.49492000  0.72540000  1
  Na  Na1  1  0.53540800  0.50508000  0.22540000  1
  Na  Na2  1  0.46459200  0.00508000  0.27460000  1
  Na  Na3  1  0.03540800  0.99492000  0.77460000  1
  Na  Na4  1  0.87045500  0.78264500  0.16992900  1
  Na  Na5  1  0.62954500  0.21735500  0.66992900  1
  Na  Na6  1  0.37045500  0.71735500  0.83007100  1
  Na  Na7  1  0.12954500  0.28264500  0.33007100  1
  Na  Na8  1  0.96999000  0.77864900  0.67795200  1
  Na  Na9  1  0.53001000  0.22135100  0.17795200  1
  Na  Na10  1  0.46999000  0.72135100  0.32204800  1
  Na  Na11  1  0.03001000  0.27864900  0.82204800  1
  H  H12  1  0.32189600  0.99760800  0.52050600  1
  H  H13  1  0.17810400  0.00239200  0.02050600  1
  H  H14  1  0.82189600  0.50239200  0.47949400  1
  H  H15  1  0.67810400  0.49760800  0.97949400  1
  H  H16  1  0.90364100  0.04443700  0.41096500  1
  H  H17  1  0.59635900  0.95556300  0.91096500  1
  H  H18  1  0.40364100  0.45556300  0.58903500  1
  H  H19  1  0.09635900  0.54443700  0.08903500  1
  H  H20  1  0.36440000  0.27387100  0.47124600  1
  H  H21  1  0.13560000  0.72612900  0.97124600  1
  H  H22  1  0.86440000  0.22612900  0.52875400  1
  H  H23  1  0.63560000  0.77387100  0.02875400  1
  H  H24  1  0.58396000  0.33274000  0.42490000  1
  H  H25  1  0.91604000  0.66726000  0.92490000  1
  H  H26  1  0.08396000  0.16726000  0.57510000  1
  H  H27  1  0.41604000  0.83274000  0.07510000  1
  H  H28  1  0.01573800  0.10934800  0.02653500  1
  H  H29  1  0.48426200  0.89065200  0.52653500  1
  H  H30  1  0.51573800  0.39065200  0.97346500  1
  H  H31  1  0.98426200  0.60934800  0.47346500  1
  H  H32  1  0.84447400  0.00215000  0.02147300  1
  H  H33  1  0.65552600  0.99785000  0.52147300  1
  H  H34  1  0.34447400  0.49785000  0.97852700  1
  H  H35  1  0.15552600  0.50215000  0.47852700  1
  S  S36  1  0.98150400  0.89762100  0.37141700  1
  S  S37  1  0.51849600  0.10237900  0.87141700  1
  S  S38  1  0.48150400  0.60237900  0.62858300  1
  S  S39  1  0.01849600  0.39762100  0.12858300  1
  S  S40  1  0.93711300  0.75942200  0.49998200  1
  S  S41  1  0.56288700  0.24057800  0.99998200  1
  S  S42  1  0.43711300  0.74057800  0.50001800  1
  S  S43  1  0.06288700  0.25942200  0.00001800  1
  S  S44  1  0.01033300  0.03044500  0.14533300  1
  S  S45  1  0.48966700  0.96955500  0.64533300  1
  S  S46  1  0.51033300  0.46955500  0.85466700  1
  S  S47  1  0.98966700  0.53044500  0.35466700  1
  N  N48  1  0.96093900  0.97485200  0.43256200  1
  N  N49  1  0.53906100  0.02514800  0.93256200  1
  N  N50  1  0.46093900  0.52514800  0.56743800  1
  N  N51  1  0.03906100  0.47485200  0.06743800  1
  N  N52  1  0.38523600  0.32747400  0.43090800  1
  N  N53  1  0.11476400  0.67252600  0.93090800  1
  N  N54  1  0.88523600  0.17252600  0.56909200  1
  N  N55  1  0.61476400  0.82747400  0.06909200  1
  N  N56  1  0.01232900  0.03429400  0.04308000  1
  N  N57  1  0.48767100  0.96570600  0.54308000  1
  N  N58  1  0.51232900  0.46570600  0.95692000  1
  N  N59  1  0.98767100  0.53429400  0.45692000  1
  O  O60  1  0.79749200  0.89771700  0.30781600  1
  O  O61  1  0.70250800  0.10228300  0.80781600  1
  O  O62  1  0.29749200  0.60228300  0.69218400  1
  O  O63  1  0.20250800  0.39771700  0.19218400  1
  O  O64  1  0.24796300  0.87302400  0.34545900  1
  O  O65  1  0.25203700  0.12697600  0.84545900  1
  O  O66  1  0.74796300  0.62697600  0.65454100  1
  O  O67  1  0.75203700  0.37302400  0.15454100  1
  O  O68  1  0.89179700  0.78743400  0.41004500  1
  O  O69  1  0.60820300  0.21256600  0.91004500  1
  O  O70  1  0.39179700  0.71256600  0.58995500  1
  O  O71  1  0.10820300  0.28743400  0.08995500  1
  O  O72  1  0.15877000  0.66125400  0.11786800  1
  O  O73  1  0.34123000  0.33874600  0.61786800  1
  O  O74  1  0.65877000  0.83874600  0.88213200  1
  O  O75  1  0.84123000  0.16125400  0.38213200  1
  O  O76  1  0.47739500  0.17103100  0.30188100  1
  O  O77  1  0.02260500  0.82896900  0.80188100  1
  O  O78  1  0.97739500  0.32896900  0.69811900  1
  O  O79  1  0.52260500  0.67103100  0.19811900  1
  O  O80  1  0.75173600  0.18080500  0.31025500  1
  O  O81  1  0.74826400  0.81919500  0.81025500  1
  O  O82  1  0.25173600  0.31919500  0.68974500  1
  O  O83  1  0.24826400  0.68080500  0.18974500  1
  O  O84  1  0.73823300  0.05056800  0.16128000  1
  O  O85  1  0.76176700  0.94943200  0.66128000  1
  O  O86  1  0.23823300  0.44943200  0.83872000  1
  O  O87  1  0.26176700  0.55056800  0.33872000  1
  O  O88  1  0.18723200  0.10890200  0.16527500  1
  O  O89  1  0.31276800  0.89109800  0.66527500  1
  O  O90  1  0.68723200  0.39109800  0.83472500  1
  O  O91  1  0.81276800  0.60890200  0.33472500  1
  O  O92  1  0.10695600  0.93308100  0.16283000  1
  O  O93  1  0.39304400  0.06691900  0.66283000  1
  O  O94  1  0.60695600  0.56691900  0.83717000  1
  O  O95  1  0.89304400  0.43308100  0.33717000  1
