# generated using pymatgen
data_Si2H2O5
_symmetry_space_group_name_H-M   'P 1'
_cell_length_a   5.09485600
_cell_length_b   6.11788831
_cell_length_c   8.48547552
_cell_angle_alpha   109.35471825
_cell_angle_beta   106.31350421
_cell_angle_gamma   93.54499956
_symmetry_Int_Tables_number   1
_chemical_formula_structural   Si2H2O5
_chemical_formula_sum   'Si4 H4 O10'
_cell_volume   235.96433411
_cell_formula_units_Z   2
loop_
 _symmetry_equiv_pos_site_id
 _symmetry_equiv_pos_as_xyz
  1  'x, y, z'
loop_
 _atom_site_type_symbol
 _atom_site_label
 _atom_site_symmetry_multiplicity
 _atom_site_fract_x
 _atom_site_fract_y
 _atom_site_fract_z
 _atom_site_occupancy
  Si  Si0  1  0.65786100  0.49107200  0.21505100  1
  Si  Si1  1  0.42051100  0.49834600  0.79726500  1
  Si  Si2  1  0.94571900  0.80831900  0.81926300  1
  Si  Si3  1  0.12207300  0.17925100  0.20514400  1
  H  H4  1  0.81208200  0.44906300  0.98257900  1
  H  H5  1  0.75564100  0.82830000  0.45823300  1
  H  H6  1  0.08616000  0.06186400  0.68630000  1
  H  H7  1  0.22972500  0.12875400  0.47380600  1
  O  O8  1  0.63945100  0.49204900  0.00319100  1
  O  O9  1  0.94255900  0.99352300  0.00819500  1
  O  O10  1  0.94310400  0.39065000  0.26149300  1
  O  O11  1  0.66514900  0.60755100  0.74116300  1
  O  O12  1  0.22266000  0.68407300  0.86126100  1
  O  O13  1  0.39040200  0.30598400  0.17717100  1
  O  O14  1  0.66108800  0.75745200  0.32800600  1
  O  O15  1  0.27698000  0.23920500  0.67684400  1
  O  O16  1  0.93448700  0.92605600  0.67326600  1
  O  O17  1  0.19515200  0.04963200  0.34217500  1
