# generated using pymatgen
data_H4N2O3
_symmetry_space_group_name_H-M   'P 1'
_cell_length_a   6.46005800
_cell_length_b   6.69280300
_cell_length_c   7.42330300
_cell_angle_alpha   90.00000000
_cell_angle_beta   90.00000000
_cell_angle_gamma   90.00000000
_symmetry_Int_Tables_number   1
_chemical_formula_structural   H4N2O3
_chemical_formula_sum   'H16 N8 O12'
_cell_volume   320.95315324
_cell_formula_units_Z   4
loop_
 _symmetry_equiv_pos_site_id
 _symmetry_equiv_pos_as_xyz
  1  'x, y, z'
loop_
 _atom_site_type_symbol
 _atom_site_label
 _atom_site_symmetry_multiplicity
 _atom_site_fract_x
 _atom_site_fract_y
 _atom_site_fract_z
 _atom_site_occupancy
  H  H0  1  0.91943800  0.66430100  0.49557400  1
  H  H1  1  0.91943800  0.83569900  0.99557400  1
  H  H2  1  0.41943800  0.33569900  0.50442600  1
  H  H3  1  0.41943800  0.16430100  0.00442600  1
  H  H4  1  0.01303400  0.61177700  0.79397200  1
  H  H5  1  0.43127400  0.86280900  0.34902600  1
  H  H6  1  0.66495000  0.81625000  0.01675700  1
  H  H7  1  0.51303400  0.38822300  0.20602800  1
  H  H8  1  0.93127400  0.13719100  0.65097400  1
  H  H9  1  0.16495000  0.18375000  0.98324300  1
  H  H10  1  0.93127400  0.36280900  0.15097400  1
  H  H11  1  0.16495000  0.31625000  0.48324300  1
  H  H12  1  0.51303400  0.11177700  0.70602800  1
  H  H13  1  0.66495000  0.68375000  0.51675700  1
  H  H14  1  0.43127400  0.63719100  0.84902600  1
  H  H15  1  0.01303400  0.88822300  0.29397200  1
  N  N16  1  0.28381100  0.18097900  0.07573900  1
  N  N17  1  0.28381100  0.31902100  0.57573900  1
  N  N18  1  0.78381100  0.81902100  0.92426100  1
  N  N19  1  0.78381100  0.68097900  0.42426100  1
  N  N20  1  0.25845700  0.51223400  0.66564500  1
  N  N21  1  0.25845700  0.98776600  0.16564500  1
  N  N22  1  0.75845700  0.48776600  0.33435500  1
  N  N23  1  0.75845700  0.01223400  0.83435500  1
  O  O24  1  0.24819300  0.66988200  0.57346300  1
  O  O25  1  0.24819300  0.83011800  0.07346300  1
  O  O26  1  0.74819300  0.33011800  0.42653700  1
  O  O27  1  0.74819300  0.16988200  0.92653700  1
  O  O28  1  0.06923800  0.47544800  0.77560300  1
  O  O29  1  0.43618500  0.99616200  0.29215200  1
  O  O30  1  0.56923800  0.52455200  0.22439700  1
  O  O31  1  0.93618500  0.00383800  0.70784800  1
  O  O32  1  0.93618500  0.49616200  0.20784800  1
  O  O33  1  0.56923800  0.97544800  0.72439700  1
  O  O34  1  0.43618500  0.50383800  0.79215200  1
  O  O35  1  0.06923800  0.02455200  0.27560300  1
