data_image0
_chemical_formula_structural       Cl2Li5N
_chemical_formula_sum              "Cl2 Li5 N1"
_cell_length_a       3.64078
_cell_length_b       3.64078
_cell_length_c       9.77814
_cell_angle_alpha    100.729
_cell_angle_beta     79.2707
_cell_angle_gamma    120

_space_group_name_H-M_alt    "P 1"
_space_group_IT_number       1

loop_
  _space_group_symop_operation_xyz
  'x, y, z'

loop_
  _atom_site_type_symbol
  _atom_site_label
  _atom_site_symmetry_multiplicity
  _atom_site_fract_x
  _atom_site_fract_y
  _atom_site_fract_z
  _atom_site_occupancy
  Cl  Cl1       1.0  0.21800  0.78200  0.34500  1.0000
  Cl  Cl2       1.0  0.78200  0.21800  0.65500  1.0000
  Li  Li1       1.0  0.32500  0.67500  0.02450  1.0000
  Li  Li2       1.0  0.93300  0.06740  0.20200  1.0000
  Li  Li3       1.0  0.50000  0.50000  0.50000  1.0000
  Li  Li4       1.0  0.06740  0.93300  0.79800  1.0000
  Li  Li5       1.0  0.67500  0.32500  0.97500  1.0000
  N   N1        1.0  0.00000  0.00000  0.00000  1.0000
