# generated using pymatgen
data_Ba(H2O3)2
_symmetry_space_group_name_H-M   'P 1'
_cell_length_a   6.50077918
_cell_length_b   6.50077918
_cell_length_c   6.46020480
_cell_angle_alpha   86.40207882
_cell_angle_beta   86.40207882
_cell_angle_gamma   97.38188723
_symmetry_Int_Tables_number   1
_chemical_formula_structural   Ba(H2O3)2
_chemical_formula_sum   'Ba2 H8 O12'
_cell_volume   269.52015753
_cell_formula_units_Z   2
loop_
 _symmetry_equiv_pos_site_id
 _symmetry_equiv_pos_as_xyz
  1  'x, y, z'
loop_
 _atom_site_type_symbol
 _atom_site_label
 _atom_site_symmetry_multiplicity
 _atom_site_fract_x
 _atom_site_fract_y
 _atom_site_fract_z
 _atom_site_occupancy
  Ba  Ba0  1  0.16945200  0.83054800  0.50000000  1
  Ba  Ba1  1  0.83393600  0.16606400  0.00000000  1
  H  H2  1  0.62265800  0.61500800  0.77883600  1
  H  H3  1  0.82235100  0.66306300  0.89024100  1
  H  H4  1  0.38499200  0.37734200  0.22116400  1
  H  H5  1  0.33693700  0.17764900  0.10975900  1
  H  H6  1  0.01428300  0.41124900  0.42329300  1
  H  H7  1  0.58875100  0.98571700  0.57670700  1
  H  H8  1  0.07735800  0.63872900  0.04655600  1
  H  H9  1  0.36127100  0.92264200  0.95344400  1
  O  O10  1  0.05314700  0.81276800  0.93499500  1
  O  O11  1  0.18723200  0.94685300  0.06500500  1
  O  O12  1  0.12566000  0.20634200  0.66876500  1
  O  O13  1  0.79365800  0.87434000  0.33123500  1
  O  O14  1  0.75453200  0.56068000  0.80063600  1
  O  O15  1  0.43932000  0.24546800  0.19936400  1
  O  O16  1  0.15527200  0.41035000  0.60770400  1
  O  O17  1  0.58965000  0.84472800  0.39229600  1
  O  O18  1  0.93469900  0.44704200  0.29664500  1
  O  O19  1  0.55295800  0.06530100  0.70335500  1
  O  O20  1  0.11413400  0.49709400  0.14061000  1
  O  O21  1  0.50290600  0.88586600  0.85939000  1
