# generated using pymatgen
data_FeHO2
_symmetry_space_group_name_H-M   'P 1'
_cell_length_a   10.65328612
_cell_length_b   6.14172972
_cell_length_c   10.62161608
_cell_angle_alpha   89.89321025
_cell_angle_beta   88.95411277
_cell_angle_gamma   89.98619500
_symmetry_Int_Tables_number   1
_chemical_formula_structural   FeHO2
_chemical_formula_sum   'Fe16 H16 O32'
_cell_volume   694.85112849
_cell_formula_units_Z   16
loop_
 _symmetry_equiv_pos_site_id
 _symmetry_equiv_pos_as_xyz
  1  'x, y, z'
loop_
 _atom_site_type_symbol
 _atom_site_label
 _atom_site_symmetry_multiplicity
 _atom_site_fract_x
 _atom_site_fract_y
 _atom_site_fract_z
 _atom_site_occupancy
  Fe  Fe0  1  0.33001100  0.98477300  0.12851500  1
  Fe  Fe1  1  0.14281500  0.99057000  0.63462400  1
  Fe  Fe2  1  0.84739500  0.24646800  0.62775000  1
  Fe  Fe3  1  0.67388700  0.24244100  0.11955300  1
  Fe  Fe4  1  0.66054000  0.00712000  0.82076100  1
  Fe  Fe5  1  0.86816700  0.99351600  0.32568100  1
  Fe  Fe6  1  0.14893000  0.24461300  0.34926600  1
  Fe  Fe7  1  0.35115400  0.24133900  0.82719900  1
  Fe  Fe8  1  0.32422600  0.50631900  0.12705600  1
  Fe  Fe9  1  0.14369700  0.49591800  0.63454500  1
  Fe  Fe10  1  0.84972600  0.74523200  0.61352700  1
  Fe  Fe11  1  0.68228000  0.74183500  0.11943200  1
  Fe  Fe12  1  0.65815400  0.48728100  0.81881700  1
  Fe  Fe13  1  0.86861700  0.49295100  0.32564300  1
  Fe  Fe14  1  0.16463200  0.74554600  0.33425700  1
  Fe  Fe15  1  0.35994800  0.74198100  0.82447000  1
  H  H16  1  0.33341800  0.98868300  0.41324700  1
  H  H17  1  0.41256100  0.97817800  0.62925400  1
  H  H18  1  0.91753500  0.24607200  0.10413600  1
  H  H19  1  0.64902500  0.02881100  0.55695400  1
  H  H20  1  0.60378300  0.97208100  0.31596600  1
  H  H21  1  0.13683400  0.22177800  0.09327700  1
  H  H22  1  0.47134500  0.25484000  0.03591100  1
  H  H23  1  0.09197800  0.24191800  0.84109300  1
  H  H24  1  0.33607400  0.50615100  0.40867800  1
  H  H25  1  0.41396500  0.46425700  0.63171000  1
  H  H26  1  0.85931600  0.73302900  0.86238500  1
  H  H27  1  0.94425300  0.74023200  0.12925200  1
  H  H28  1  0.66277200  0.51069100  0.54068400  1
  H  H29  1  0.59696100  0.48363500  0.30967400  1
  H  H30  1  0.48221500  0.74517000  0.03238000  1
  H  H31  1  0.11794900  0.74056200  0.85628500  1
  O  O32  1  0.29388400  0.99350100  0.33137600  1
  O  O33  1  0.04741100  0.98958100  0.32157000  1
  O  O34  1  0.34180100  0.99075600  0.68835700  1
  O  O35  1  0.33214500  0.99115600  0.94584600  1
  O  O36  1  0.78576800  0.25002100  0.80603400  1
  O  O37  1  0.53330800  0.24538400  0.81365800  1
  O  O38  1  0.85932500  0.24293600  0.17587100  1
  O  O39  1  0.83529000  0.24338200  0.43328800  1
  O  O40  1  0.70531300  0.99419100  0.62507700  1
  O  O41  1  0.96172700  0.99259200  0.63967000  1
  O  O42  1  0.67266400  0.98956500  0.25597900  1
  O  O43  1  0.67844700  0.99146400  0.00906200  1
  O  O44  1  0.20683200  0.24119900  0.14990000  1
  O  O45  1  0.46462700  0.24659200  0.12889900  1
  O  O46  1  0.15789200  0.24126100  0.77670800  1
  O  O47  1  0.17427100  0.24349400  0.52607300  1
  O  O48  1  0.29265400  0.49662600  0.32908200  1
  O  O49  1  0.04772100  0.50015400  0.32143000  1
  O  O50  1  0.34249300  0.48933900  0.68867700  1
  O  O51  1  0.33152700  0.49363500  0.94544500  1
  O  O52  1  0.79084600  0.74450000  0.80369500  1
  O  O53  1  0.54063700  0.74632700  0.81355100  1
  O  O54  1  0.86533500  0.74103800  0.17801200  1
  O  O55  1  0.82898400  0.74307900  0.43050100  1
  O  O56  1  0.70602500  0.50053300  0.62014600  1
  O  O57  1  0.96262200  0.49796500  0.63984900  1
  O  O58  1  0.67133700  0.49069400  0.25590100  1
  O  O59  1  0.67720900  0.49393100  0.00867800  1
  O  O60  1  0.20775900  0.74791000  0.15189900  1
  O  O61  1  0.46872600  0.74358100  0.12495900  1
  O  O62  1  0.16422000  0.74124300  0.77636000  1
  O  O63  1  0.17353400  0.74380700  0.51864500  1
