# generated using pymatgen
data_Sr(H2O3)2
_symmetry_space_group_name_H-M   'P 1'
_cell_length_a   6.03479203
_cell_length_b   6.03479203
_cell_length_c   6.11660131
_cell_angle_alpha   88.03117126
_cell_angle_beta   88.03117126
_cell_angle_gamma   97.88584492
_symmetry_Int_Tables_number   1
_chemical_formula_structural   Sr(H2O3)2
_chemical_formula_sum   'Sr2 H8 O12'
_cell_volume   220.35015445
_cell_formula_units_Z   2
loop_
 _symmetry_equiv_pos_site_id
 _symmetry_equiv_pos_as_xyz
  1  'x, y, z'
loop_
 _atom_site_type_symbol
 _atom_site_label
 _atom_site_symmetry_multiplicity
 _atom_site_fract_x
 _atom_site_fract_y
 _atom_site_fract_z
 _atom_site_occupancy
  Sr  Sr0  1  0.80228100  0.18431900  0.25963100  1
  Sr  Sr1  1  0.18431900  0.80228100  0.75963100  1
  H  H2  1  0.62114400  0.99510400  0.73463800  1
  H  H3  1  0.00238500  0.31616300  0.75758300  1
  H  H4  1  0.31616300  0.00238500  0.25758300  1
  H  H5  1  0.99510400  0.62114400  0.23463800  1
  H  H6  1  0.39329300  0.29264300  0.91899100  1
  H  H7  1  0.29264300  0.39329300  0.41899100  1
  H  H8  1  0.80786600  0.65927900  0.55573400  1
  H  H9  1  0.65927900  0.80786600  0.05573400  1
  O  O10  1  0.82098500  0.83462100  0.53092100  1
  O  O11  1  0.07470100  0.23302300  0.88365600  1
  O  O12  1  0.23302300  0.07470100  0.38365600  1
  O  O13  1  0.83462100  0.82098500  0.03092100  1
  O  O14  1  0.60443000  0.90426600  0.58807800  1
  O  O15  1  0.27326400  0.39913800  0.91793600  1
  O  O16  1  0.39913800  0.27326400  0.41793600  1
  O  O17  1  0.90426600  0.60443000  0.08807800  1
  O  O18  1  0.44679000  0.91013100  0.07270900  1
  O  O19  1  0.10703100  0.54749500  0.42657300  1
  O  O20  1  0.54749500  0.10703100  0.92657300  1
  O  O21  1  0.91013100  0.44679000  0.57270900  1
