# generated using pymatgen
data_Yb(HO)3
_symmetry_space_group_name_H-M   'P 1'
_cell_length_a   6.28760641
_cell_length_b   6.28760641
_cell_length_c   3.54392500
_cell_angle_alpha   90.00000000
_cell_angle_beta   90.00000000
_cell_angle_gamma   120.00000433
_symmetry_Int_Tables_number   1
_chemical_formula_structural   Yb(HO)3
_chemical_formula_sum   'Yb2 H6 O6'
_cell_volume   121.33492649
_cell_formula_units_Z   2
loop_
 _symmetry_equiv_pos_site_id
 _symmetry_equiv_pos_as_xyz
  1  'x, y, z'
loop_
 _atom_site_type_symbol
 _atom_site_label
 _atom_site_symmetry_multiplicity
 _atom_site_fract_x
 _atom_site_fract_y
 _atom_site_fract_z
 _atom_site_occupancy
  Yb  Yb0  1  0.33333300  0.66666700  0.25000000  1
  Yb  Yb1  1  0.66666700  0.33333300  0.75000000  1
  H  H2  1  0.83482700  0.71417100  0.25000000  1
  H  H3  1  0.87934400  0.16517300  0.25000000  1
  H  H4  1  0.28582900  0.12065600  0.25000000  1
  H  H5  1  0.16517300  0.28582900  0.75000000  1
  H  H6  1  0.12065600  0.83482700  0.75000000  1
  H  H7  1  0.71417100  0.87934400  0.75000000  1
  O  O8  1  0.91881900  0.61810700  0.25000000  1
  O  O9  1  0.69928900  0.08118100  0.25000000  1
  O  O10  1  0.38189300  0.30071100  0.25000000  1
  O  O11  1  0.08118100  0.38189300  0.75000000  1
  O  O12  1  0.30071100  0.91881900  0.75000000  1
  O  O13  1  0.61810700  0.69928900  0.75000000  1
