# generated using pymatgen
data_H7NO6
_symmetry_space_group_name_H-M   'P 1'
_cell_length_a   4.01205600
_cell_length_b   9.57036200
_cell_length_c   15.08709700
_cell_angle_alpha   90.00000000
_cell_angle_beta   90.00000000
_cell_angle_gamma   90.00000000
_symmetry_Int_Tables_number   1
_chemical_formula_structural   H7NO6
_chemical_formula_sum   'H28 N4 O24'
_cell_volume   579.29667282
_cell_formula_units_Z   4
loop_
 _symmetry_equiv_pos_site_id
 _symmetry_equiv_pos_as_xyz
  1  'x, y, z'
loop_
 _atom_site_type_symbol
 _atom_site_label
 _atom_site_symmetry_multiplicity
 _atom_site_fract_x
 _atom_site_fract_y
 _atom_site_fract_z
 _atom_site_occupancy
  H  H0  1  0.40082800  0.72264000  0.66554900  1
  H  H1  1  0.65471500  0.80461600  0.60080100  1
  H  H2  1  0.90082800  0.77736000  0.33445100  1
  H  H3  1  0.15471500  0.69538400  0.39919900  1
  H  H4  1  0.34528500  0.30461600  0.89919900  1
  H  H5  1  0.59917200  0.22264000  0.83445100  1
  H  H6  1  0.09917200  0.27736000  0.16554900  1
  H  H7  1  0.84528500  0.19538400  0.10080100  1
  H  H8  1  0.62633200  0.79946800  0.93037200  1
  H  H9  1  0.61961100  0.68712500  0.00553800  1
  H  H10  1  0.12633200  0.70053200  0.06962800  1
  H  H11  1  0.11961100  0.81287500  0.99446200  1
  H  H12  1  0.37366800  0.29946800  0.56962800  1
  H  H13  1  0.38038900  0.18712500  0.49446200  1
  H  H14  1  0.87366800  0.20053200  0.43037200  1
  H  H15  1  0.88038900  0.31287500  0.50553800  1
  H  H16  1  0.02538000  0.54481000  0.80620700  1
  H  H17  1  0.75966600  0.43275800  0.85894600  1
  H  H18  1  0.79139500  0.59970800  0.89472900  1
  H  H19  1  0.52538000  0.95519000  0.19379300  1
  H  H20  1  0.25966600  0.06724200  0.14105400  1
  H  H21  1  0.29139500  0.90029200  0.10527100  1
  H  H22  1  0.97462000  0.04481000  0.69379300  1
  H  H23  1  0.20860500  0.09970800  0.60527100  1
  H  H24  1  0.24033400  0.93275800  0.64105400  1
  H  H25  1  0.47462000  0.45519000  0.30620700  1
  H  H26  1  0.70860500  0.40029200  0.39472900  1
  H  H27  1  0.74033400  0.56724200  0.35894600  1
  N  N28  1  0.83199800  0.97659300  0.83886500  1
  N  N29  1  0.33199800  0.52340700  0.16113500  1
  N  N30  1  0.16800200  0.47659300  0.66113500  1
  N  N31  1  0.66800200  0.02340700  0.33886500  1
  O  O32  1  0.00871900  0.87575700  0.81672600  1
  O  O33  1  0.50871900  0.62424300  0.18327400  1
  O  O34  1  0.99128100  0.37575700  0.68327400  1
  O  O35  1  0.49128100  0.12424300  0.31672600  1
  O  O36  1  0.80418800  0.08373400  0.78689700  1
  O  O37  1  0.30418800  0.41626600  0.21310300  1
  O  O38  1  0.19581200  0.58373400  0.71310300  1
  O  O39  1  0.69581200  0.91626600  0.28689700  1
  O  O40  1  0.67466900  0.97858700  0.91216600  1
  O  O41  1  0.17466900  0.52141300  0.08783400  1
  O  O42  1  0.32533100  0.47858700  0.58783400  1
  O  O43  1  0.82533100  0.02141300  0.41216600  1
  O  O44  1  0.48232700  0.81599300  0.64542500  1
  O  O45  1  0.98232700  0.68400700  0.35457500  1
  O  O46  1  0.51767300  0.31599300  0.85457500  1
  O  O47  1  0.01767300  0.18400700  0.14542500  1
  O  O48  1  0.57211500  0.69916100  0.94230700  1
  O  O49  1  0.07211500  0.80083900  0.05769300  1
  O  O50  1  0.42788500  0.19916100  0.55769300  1
  O  O51  1  0.92788500  0.30083900  0.44230700  1
  O  O52  1  0.92417000  0.51690500  0.86601600  1
  O  O53  1  0.42417000  0.98309500  0.13398400  1
  O  O54  1  0.07583000  0.01690500  0.63398400  1
  O  O55  1  0.57583000  0.48309500  0.36601600  1
