# generated using pymatgen
data_NO4
_symmetry_space_group_name_H-M   'P 1'
_cell_length_a   4.96915100
_cell_length_b   6.12619200
_cell_length_c   8.12935600
_cell_angle_alpha   90.00000000
_cell_angle_beta   90.00000000
_cell_angle_gamma   90.00000000
_symmetry_Int_Tables_number   1
_chemical_formula_structural   NO4
_chemical_formula_sum   'N4 O16'
_cell_volume   247.47363670
_cell_formula_units_Z   4
loop_
 _symmetry_equiv_pos_site_id
 _symmetry_equiv_pos_as_xyz
  1  'x, y, z'
loop_
 _atom_site_type_symbol
 _atom_site_label
 _atom_site_symmetry_multiplicity
 _atom_site_fract_x
 _atom_site_fract_y
 _atom_site_fract_z
 _atom_site_occupancy
  N  N0  1  0.47668700  0.79548600  0.40809300  1
  N  N1  1  0.97668700  0.20451400  0.59190700  1
  N  N2  1  0.97668700  0.70451400  0.90809300  1
  N  N3  1  0.47668700  0.29548600  0.09190700  1
  O  O4  1  0.64846800  0.73533800  0.51360500  1
  O  O5  1  0.14846800  0.26466200  0.48639500  1
  O  O6  1  0.14846800  0.76466200  0.01360500  1
  O  O7  1  0.64846800  0.23533800  0.98639500  1
  O  O8  1  0.22871900  0.77374700  0.44175400  1
  O  O9  1  0.72871900  0.22625300  0.55824600  1
  O  O10  1  0.72871900  0.72625300  0.94175400  1
  O  O11  1  0.22871900  0.27374700  0.05824600  1
  O  O12  1  0.54869400  0.87334200  0.27157000  1
  O  O13  1  0.04869400  0.12665800  0.72843000  1
  O  O14  1  0.04869400  0.62665800  0.77157000  1
  O  O15  1  0.54869400  0.37334200  0.22843000  1
  O  O16  1  0.99443200  0.93621000  0.23868100  1
  O  O17  1  0.49443200  0.06379000  0.76131900  1
  O  O18  1  0.49443200  0.56379000  0.73868100  1
  O  O19  1  0.99443200  0.43621000  0.26131900  1
