# generated using pymatgen
data_H4SO5
_symmetry_space_group_name_H-M   'P 1'
_cell_length_a   6.96571400
_cell_length_b   7.66925000
_cell_length_c   8.83197208
_cell_angle_alpha   71.30530765
_cell_angle_beta   90.00000000
_cell_angle_gamma   90.00000000
_symmetry_Int_Tables_number   1
_chemical_formula_structural   H4SO5
_chemical_formula_sum   'H16 S4 O20'
_cell_volume   446.92663606
_cell_formula_units_Z   4
loop_
 _symmetry_equiv_pos_site_id
 _symmetry_equiv_pos_as_xyz
  1  'x, y, z'
loop_
 _atom_site_type_symbol
 _atom_site_label
 _atom_site_symmetry_multiplicity
 _atom_site_fract_x
 _atom_site_fract_y
 _atom_site_fract_z
 _atom_site_occupancy
  H  H0  1  0.56301200  0.39026700  0.11911300  1
  H  H1  1  0.43698800  0.39026700  0.61911300  1
  H  H2  1  0.59077600  0.96471400  0.05648200  1
  H  H3  1  0.40922400  0.96471400  0.55648200  1
  H  H4  1  0.94053600  0.36002900  0.72186900  1
  H  H5  1  0.80391600  0.23093400  0.87774700  1
  H  H6  1  0.98011700  0.36627300  0.90607100  1
  H  H7  1  0.68187800  0.73494400  0.64796200  1
  H  H8  1  0.29209500  0.77514900  0.57681300  1
  H  H9  1  0.35443700  0.80713200  0.73762500  1
  H  H10  1  0.64556300  0.80713200  0.23762500  1
  H  H11  1  0.31812200  0.73494400  0.14796200  1
  H  H12  1  0.70790500  0.77514900  0.07681300  1
  H  H13  1  0.19608400  0.23093400  0.37774700  1
  H  H14  1  0.05946400  0.36002900  0.22186900  1
  H  H15  1  0.01988300  0.36627300  0.40607100  1
  S  S16  1  0.91764100  0.68509600  0.51064900  1
  S  S17  1  0.43902500  0.26627500  0.95337500  1
  S  S18  1  0.56097500  0.26627500  0.45337500  1
  S  S19  1  0.08235900  0.68509600  0.01064900  1
  O  O20  1  0.21392100  0.77324900  0.88142600  1
  O  O21  1  0.69493600  0.16265900  0.57260800  1
  O  O22  1  0.30506400  0.16265900  0.07260800  1
  O  O23  1  0.78607900  0.77324900  0.38142600  1
  O  O24  1  0.81372200  0.68568300  0.67199300  1
  O  O25  1  0.36305700  0.35484800  0.79285000  1
  O  O26  1  0.63694300  0.35484800  0.29285000  1
  O  O27  1  0.18627800  0.68568300  0.17199300  1
  O  O28  1  0.95207300  0.48614500  0.53642600  1
  O  O29  1  0.52578500  0.43126000  0.00082900  1
  O  O30  1  0.47421500  0.43126000  0.50082900  1
  O  O31  1  0.04792700  0.48614500  0.03642600  1
  O  O32  1  0.09674400  0.78574500  0.50130100  1
  O  O33  1  0.61111100  0.14516000  0.94780000  1
  O  O34  1  0.38888900  0.14516000  0.44780000  1
  O  O35  1  0.90325600  0.78574500  0.00130100  1
  O  O36  1  0.93779700  0.28705800  0.84114700  1
  O  O37  1  0.40833500  0.82098100  0.62709900  1
  O  O38  1  0.59166500  0.82098100  0.12709900  1
  O  O39  1  0.06220300  0.28705800  0.34114700  1
