# generated using pymatgen
data_Ti3H2O7
_symmetry_space_group_name_H-M   'P 1'
_cell_length_a   3.77956000
_cell_length_b   9.49472764
_cell_length_c   16.06678547
_cell_angle_alpha   96.90595444
_cell_angle_beta   96.40610609
_cell_angle_gamma   89.95729999
_symmetry_Int_Tables_number   1
_chemical_formula_structural   Ti3H2O7
_chemical_formula_sum   'Ti6 H4 O14'
_cell_volume   568.76694797
_cell_formula_units_Z   2
loop_
 _symmetry_equiv_pos_site_id
 _symmetry_equiv_pos_as_xyz
  1  'x, y, z'
loop_
 _atom_site_type_symbol
 _atom_site_label
 _atom_site_symmetry_multiplicity
 _atom_site_fract_x
 _atom_site_fract_y
 _atom_site_fract_z
 _atom_site_occupancy
  Ti  Ti0  1  0.22758400  0.20869100  0.45603900  1
  Ti  Ti1  1  0.77168500  0.79180200  0.54473800  1
  Ti  Ti2  1  0.21318500  0.52081600  0.42315700  1
  Ti  Ti3  1  0.78731900  0.47969700  0.57642600  1
  Ti  Ti4  1  0.20616300  0.83434000  0.39723500  1
  Ti  Ti5  1  0.80043200  0.16557700  0.60296400  1
  H  H6  1  0.15511400  0.77456400  0.22811400  1
  H  H7  1  0.00025800  0.92975900  0.24003400  1
  H  H8  1  0.88619800  0.23494800  0.77206000  1
  H  H9  1  0.88345200  0.06125900  0.76680900  1
  O  O10  1  0.19216900  0.04056600  0.39730400  1
  O  O11  1  0.80062600  0.95896600  0.60469800  1
  O  O12  1  0.18970500  0.33948700  0.37549400  1
  O  O13  1  0.81032100  0.66135600  0.62490400  1
  O  O14  1  0.17377900  0.64953500  0.34285500  1
  O  O15  1  0.82600500  0.35269000  0.65616500  1
  O  O16  1  0.20309300  0.87151500  0.25560900  1
  O  O17  1  0.86691600  0.14407600  0.73663500  1
  O  O18  1  0.28728300  0.15435800  0.57702100  1
  O  O19  1  0.71351800  0.84490900  0.42276200  1
  O  O20  1  0.27005300  0.45271800  0.54111100  1
  O  O21  1  0.73035100  0.54804500  0.45853800  1
  O  O22  1  0.25440800  0.76427100  0.50828900  1
  O  O23  1  0.74561400  0.23682000  0.49194600  1
