# generated using pymatgen
data_Ba(HO)2
_symmetry_space_group_name_H-M   'P 1'
_cell_length_a   6.86942000
_cell_length_b   8.14121972
_cell_length_c   9.49226569
_cell_angle_alpha   90.26785193
_cell_angle_beta   98.06612762
_cell_angle_gamma   91.06095756
_symmetry_Int_Tables_number   1
_chemical_formula_structural   Ba(HO)2
_chemical_formula_sum   'Ba8 H16 O16'
_cell_volume   525.50310355
_cell_formula_units_Z   8
loop_
 _symmetry_equiv_pos_site_id
 _symmetry_equiv_pos_as_xyz
  1  'x, y, z'
loop_
 _atom_site_type_symbol
 _atom_site_label
 _atom_site_symmetry_multiplicity
 _atom_site_fract_x
 _atom_site_fract_y
 _atom_site_fract_z
 _atom_site_occupancy
  Ba  Ba0  1  0.73646800  0.86182000  0.09777600  1
  Ba  Ba1  1  0.24162800  0.64412500  0.60019200  1
  Ba  Ba2  1  0.24340300  0.14705900  0.90304200  1
  Ba  Ba3  1  0.74290400  0.35111900  0.40577400  1
  Ba  Ba4  1  0.70986100  0.92460100  0.65373400  1
  Ba  Ba5  1  0.21675000  0.55349500  0.17093400  1
  Ba  Ba6  1  0.27941500  0.03830000  0.32188100  1
  Ba  Ba7  1  0.78924300  0.44583900  0.81562700  1
  H  H8  1  0.81361000  0.95271600  0.37413700  1
  H  H9  1  0.14114400  0.61516500  0.87975300  1
  H  H10  1  0.36651300  0.10605800  0.62164100  1
  H  H11  1  0.69335000  0.45433900  0.11469000  1
  H  H12  1  0.65655300  0.15531300  0.82449400  1
  H  H13  1  0.09221200  0.31512800  0.31411800  1
  H  H14  1  0.22790300  0.84468600  0.02300300  1
  H  H15  1  0.72208500  0.64553900  0.51024600  1
  H  H16  1  0.88765900  0.18198600  0.06461800  1
  H  H17  1  0.37679700  0.32601500  0.54627700  1
  H  H18  1  0.87979400  0.76595800  0.87463800  1
  H  H19  1  0.54306700  0.76126100  0.35703100  1
  H  H20  1  0.04836800  0.14722700  0.62653500  1
  H  H21  1  0.55002400  0.21950400  0.12884100  1
  H  H22  1  0.95215700  0.71265900  0.37632800  1
  H  H23  1  0.46170200  0.65119700  0.87505400  1
  O  O24  1  0.68448600  0.00496100  0.36959200  1
  O  O25  1  0.19146300  0.50116000  0.87585900  1
  O  O26  1  0.31104400  0.99244800  0.61645000  1
  O  O27  1  0.80529700  0.53110900  0.11492800  1
  O  O28  1  0.64669100  0.12925000  0.92299400  1
  O  O29  1  0.14274900  0.37142700  0.40396400  1
  O  O30  1  0.34660400  0.86907300  0.09193500  1
  O  O31  1  0.84976400  0.62997000  0.57522400  1
  O  O32  1  0.01344700  0.16111100  0.12459700  1
  O  O33  1  0.49830200  0.31503100  0.61425100  1
  O  O34  1  0.01307000  0.81172900  0.88327200  1
  O  O35  1  0.49932100  0.66057900  0.40014600  1
  O  O36  1  0.94280600  0.19261900  0.67423400  1
  O  O37  1  0.46145100  0.28919500  0.17325500  1
  O  O38  1  0.03012000  0.79129500  0.32892300  1
  O  O39  1  0.56178700  0.70407400  0.82466500  1
