# generated using pymatgen
data_Ca(H8O5)2
_symmetry_space_group_name_H-M   'P 1'
_cell_length_a   5.91458400
_cell_length_b   6.95867402
_cell_length_c   11.04949986
_cell_angle_alpha   89.59177953
_cell_angle_beta   87.37806556
_cell_angle_gamma   88.96513793
_symmetry_Int_Tables_number   1
_chemical_formula_structural   Ca(H8O5)2
_chemical_formula_sum   'Ca2 H32 O20'
_cell_volume   454.21236307
_cell_formula_units_Z   2
loop_
 _symmetry_equiv_pos_site_id
 _symmetry_equiv_pos_as_xyz
  1  'x, y, z'
loop_
 _atom_site_type_symbol
 _atom_site_label
 _atom_site_symmetry_multiplicity
 _atom_site_fract_x
 _atom_site_fract_y
 _atom_site_fract_z
 _atom_site_occupancy
  Ca  Ca0  1  0.01416700  0.94592200  0.26603800  1
  Ca  Ca1  1  0.00163600  0.01188700  0.74624000  1
  H  H2  1  0.29608600  0.41151600  0.36082400  1
  H  H3  1  0.96591800  0.28311500  0.38758600  1
  H  H4  1  0.95895900  0.55403300  0.39475700  1
  H  H5  1  0.70897400  0.65852600  0.37940500  1
  H  H6  1  0.64628000  0.23834300  0.36087100  1
  H  H7  1  0.49598600  0.98608300  0.36703600  1
  H  H8  1  0.33293500  0.87497500  0.45843100  1
  H  H9  1  0.84923800  0.33907900  0.93759000  1
  H  H10  1  0.03710000  0.37344200  0.83838800  1
  H  H11  1  0.23809800  0.63449800  0.85875200  1
  H  H12  1  0.96510000  0.67261000  0.88018000  1
  H  H13  1  0.35438800  0.26626300  0.85959000  1
  H  H14  1  0.27451300  0.12142800  0.96769400  1
  H  H15  1  0.53784600  0.99087800  0.86377900  1
  H  H16  1  0.70377800  0.91213700  0.95838900  1
  H  H17  1  0.86415600  0.69651000  0.55286500  1
  H  H18  1  0.96749100  0.55706100  0.64794900  1
  H  H19  1  0.26900200  0.36578200  0.64613700  1
  H  H20  1  0.10607300  0.33200500  0.53709200  1
  H  H21  1  0.45912600  0.95613400  0.62583400  1
  H  H22  1  0.36844300  0.74381400  0.65162800  1
  H  H23  1  0.63253700  0.23479500  0.64170000  1
  H  H24  1  0.70851500  0.11815600  0.51829800  1
  H  H25  1  0.14539300  0.73067300  0.03862500  1
  H  H26  1  0.03920000  0.57195600  0.12301400  1
  H  H27  1  0.02263000  0.26668800  0.11126700  1
  H  H28  1  0.77242000  0.36843400  0.15119700  1
  H  H29  1  0.52118200  0.98086100  0.13298800  1
  H  H30  1  0.63086200  0.77505100  0.13986100  1
  H  H31  1  0.32647300  0.23291700  0.15188100  1
  H  H32  1  0.62921400  0.56522400  0.71375700  1
  H  H33  1  0.35783200  0.56797100  0.18699800  1
  O  O34  1  0.07557500  0.38454400  0.40564600  1
  O  O35  1  0.86621700  0.69329300  0.39236300  1
  O  O36  1  0.73874300  0.12263400  0.37883600  1
  O  O37  1  0.35226000  0.91002700  0.37143700  1
  O  O38  1  0.87933500  0.33310400  0.84885600  1
  O  O39  1  0.10683400  0.74172400  0.88552900  1
  O  O40  1  0.30566900  0.12703900  0.87714800  1
  O  O41  1  0.68544600  0.91824200  0.87019800  1
  O  O42  1  0.87659100  0.67766100  0.64228900  1
  O  O43  1  0.12293000  0.30873300  0.62930000  1
  O  O44  1  0.32223200  0.87332100  0.62186500  1
  O  O45  1  0.68266000  0.10712100  0.61289000  1
  O  O46  1  0.13446200  0.69093700  0.12691000  1
  O  O47  1  0.90531100  0.37394400  0.09500100  1
  O  O48  1  0.66961300  0.91011700  0.12597100  1
  O  O49  1  0.23684100  0.12459600  0.12557900  1
  O  O50  1  0.46942500  0.45501000  0.33904200  1
  O  O51  1  0.38800700  0.48603800  0.83429300  1
  O  O52  1  0.47305400  0.51451900  0.70789600  1
  O  O53  1  0.48003800  0.47085000  0.20617100  1
