# generated using pymatgen
data_NbHO3
_symmetry_space_group_name_H-M   'P 1'
_cell_length_a   6.80160332
_cell_length_b   6.74508132
_cell_length_c   6.77872703
_cell_angle_alpha   109.80688916
_cell_angle_beta   108.58307604
_cell_angle_gamma   109.98730423
_symmetry_Int_Tables_number   1
_chemical_formula_structural   NbHO3
_chemical_formula_sum   'Nb4 H4 O12'
_cell_volume   239.47595717
_cell_formula_units_Z   4
loop_
 _symmetry_equiv_pos_site_id
 _symmetry_equiv_pos_as_xyz
  1  'x, y, z'
loop_
 _atom_site_type_symbol
 _atom_site_label
 _atom_site_symmetry_multiplicity
 _atom_site_fract_x
 _atom_site_fract_y
 _atom_site_fract_z
 _atom_site_occupancy
  Nb  Nb0  1  0.52019000  0.02113900  0.03217000  1
  Nb  Nb1  1  0.04207600  0.02316300  0.53644600  1
  Nb  Nb2  1  0.01351900  0.53131600  0.01461100  1
  Nb  Nb3  1  0.50610100  0.51046400  0.48450900  1
  H  H4  1  0.10707400  0.50763600  0.40670000  1
  H  H5  1  0.89392900  0.48744700  0.60186700  1
  H  H6  1  0.60192300  0.09818700  0.70182300  1
  H  H7  1  0.47985100  0.58606600  0.87919000  1
  O  O8  1  0.20219700  0.90555400  0.70401300  1
  O  O9  1  0.78979700  0.09514400  0.28541500  1
  O  O10  1  0.18208200  0.49378000  0.30577700  1
  O  O11  1  0.80649100  0.50190200  0.69069500  1
  O  O12  1  0.68855400  0.18470400  0.87747100  1
  O  O13  1  0.29013800  0.79091000  0.07802600  1
  O  O14  1  0.29153000  0.21254900  0.50062500  1
  O  O15  1  0.69650400  0.79113200  0.50061000  1
  O  O16  1  0.91180000  0.70093700  0.19628000  1
  O  O17  1  0.07777400  0.28830100  0.79674300  1
  O  O18  1  0.49017900  0.29375100  0.20363100  1
  O  O19  1  0.51097000  0.69095300  0.80930400  1
