# generated using pymatgen
data_Si4H2O9
_symmetry_space_group_name_H-M   'P 1'
_cell_length_a   7.61883303
_cell_length_b   7.61883303
_cell_length_c   15.73186293
_cell_angle_alpha   76.02641733
_cell_angle_beta   76.02641733
_cell_angle_gamma   89.99807501
_symmetry_Int_Tables_number   1
_chemical_formula_structural   Si4H2O9
_chemical_formula_sum   'Si16 H8 O36'
_cell_volume   858.28563350
_cell_formula_units_Z   4
loop_
 _symmetry_equiv_pos_site_id
 _symmetry_equiv_pos_as_xyz
  1  'x, y, z'
loop_
 _atom_site_type_symbol
 _atom_site_label
 _atom_site_symmetry_multiplicity
 _atom_site_fract_x
 _atom_site_fract_y
 _atom_site_fract_z
 _atom_site_occupancy
  Si  Si0  1  0.33061600  0.66938400  0.25000000  1
  Si  Si1  1  0.91916100  0.08083900  0.25000000  1
  Si  Si2  1  0.08083900  0.91916100  0.75000000  1
  Si  Si3  1  0.66938400  0.33061600  0.75000000  1
  Si  Si4  1  0.33083000  0.08164000  0.24903400  1
  Si  Si5  1  0.91836000  0.66917000  0.25096600  1
  Si  Si6  1  0.08164000  0.33083000  0.74903400  1
  Si  Si7  1  0.66917000  0.91836000  0.75096600  1
  Si  Si8  1  0.69775400  0.24892200  0.10437400  1
  Si  Si9  1  0.69852700  0.65415800  0.10296500  1
  Si  Si10  1  0.30147300  0.34584200  0.89703500  1
  Si  Si11  1  0.30224600  0.75107800  0.89562600  1
  Si  Si12  1  0.75107800  0.30224600  0.39562600  1
  Si  Si13  1  0.34584200  0.30147300  0.39703500  1
  Si  Si14  1  0.65415800  0.69852700  0.60296500  1
  Si  Si15  1  0.24892200  0.69775400  0.60437400  1
  H  H16  1  0.77251200  0.23839500  0.95547400  1
  H  H17  1  0.74060800  0.94435800  0.01901300  1
  H  H18  1  0.25939200  0.05564200  0.98098700  1
  H  H19  1  0.22748800  0.76160500  0.04452600  1
  H  H20  1  0.76160500  0.22748800  0.54452600  1
  H  H21  1  0.05564200  0.25939200  0.48098700  1
  H  H22  1  0.94435800  0.74060800  0.51901300  1
  H  H23  1  0.23839500  0.77251200  0.45547400  1
  O  O24  1  0.74227900  0.16093300  0.01623300  1
  O  O25  1  0.74400500  0.81750200  0.01318100  1
  O  O26  1  0.25599500  0.18249800  0.98681900  1
  O  O27  1  0.25772100  0.83906600  0.98376700  1
  O  O28  1  0.83906700  0.25772100  0.48376700  1
  O  O29  1  0.18249800  0.25599500  0.48681900  1
  O  O30  1  0.81750200  0.74400500  0.51318100  1
  O  O31  1  0.16093300  0.74227900  0.51623300  1
  O  O32  1  0.17829900  0.84191100  0.66406000  1
  O  O33  1  0.65859200  0.49142900  0.66347400  1
  O  O34  1  0.34140800  0.50857100  0.33652600  1
  O  O35  1  0.82170100  0.15808900  0.33594000  1
  O  O36  1  0.17576200  0.49339200  0.66241700  1
  O  O37  1  0.65437200  0.84252100  0.66519600  1
  O  O38  1  0.34562800  0.15747900  0.33480400  1
  O  O39  1  0.82423800  0.50660800  0.33758300  1
  O  O40  1  0.15808900  0.82170100  0.83594000  1
  O  O41  1  0.50857100  0.34140800  0.83652600  1
  O  O42  1  0.49142900  0.65859200  0.16347400  1
  O  O43  1  0.84191100  0.17829900  0.16406000  1
  O  O44  1  0.15747900  0.34562800  0.83480400  1
  O  O45  1  0.50660800  0.82423800  0.83758300  1
  O  O46  1  0.49339200  0.17576200  0.16241700  1
  O  O47  1  0.84252100  0.65437200  0.16519600  1
  O  O48  1  0.53309200  0.28562600  0.43082200  1
  O  O49  1  0.46690800  0.71437400  0.56917800  1
  O  O50  1  0.71437400  0.46690800  0.06917800  1
  O  O51  1  0.28562600  0.53309200  0.93082200  1
  O  O52  1  0.86158600  0.34707500  0.77789200  1
  O  O53  1  0.86263000  0.87442600  0.77572400  1
  O  O54  1  0.13737000  0.12557400  0.22427600  1
  O  O55  1  0.13841400  0.65292500  0.22210800  1
  O  O56  1  0.65292500  0.13841400  0.72210800  1
  O  O57  1  0.12557400  0.13737000  0.72427600  1
  O  O58  1  0.87442600  0.86263000  0.27572400  1
  O  O59  1  0.34707500  0.86158600  0.27789200  1
