# generated using pymatgen
data_Fe4Si2Sn7O16
_symmetry_space_group_name_H-M   'P 1'
_cell_length_a   6.94184204
_cell_length_b   11.68912041
_cell_length_c   11.69075805
_cell_angle_alpha   72.87812364
_cell_angle_beta   107.28340688
_cell_angle_gamma   72.72745211
_symmetry_Int_Tables_number   1
_chemical_formula_structural   Fe4Si2Sn7O16
_chemical_formula_sum   'Fe8 Si4 Sn14 O32'
_cell_volume   785.11071346
_cell_formula_units_Z   2
loop_
 _symmetry_equiv_pos_site_id
 _symmetry_equiv_pos_as_xyz
  1  'x, y, z'
loop_
 _atom_site_type_symbol
 _atom_site_label
 _atom_site_symmetry_multiplicity
 _atom_site_fract_x
 _atom_site_fract_y
 _atom_site_fract_z
 _atom_site_occupancy
  Fe  Fe0  1  0.50015700  0.24995900  0.25035600  1
  Fe  Fe1  1  0.49998300  0.00014200  0.50001500  1
  Fe  Fe2  1  0.00001100  0.00011400  0.50009800  1
  Fe  Fe3  1  0.99999700  0.00012400  0.99999400  1
  Fe  Fe4  1  0.00002800  0.49992100  0.49999600  1
  Fe  Fe5  1  0.50021400  0.74998200  0.75018200  1
  Fe  Fe6  1  0.49949800  0.50027000  0.99986800  1
  Fe  Fe7  1  0.99982800  0.50030000  0.99975000  1
  Si  Si8  1  0.66657100  0.45223300  0.78559400  1
  Si  Si9  1  0.66670600  0.95217900  0.28572200  1
  Si  Si10  1  0.33321600  0.54784200  0.21421300  1
  Si  Si11  1  0.33355900  0.04759500  0.71443000  1
  Sn  Sn12  1  0.99981300  0.25007900  0.24982700  1
  Sn  Sn13  1  0.00002800  0.75000300  0.74995100  1
  Sn  Sn14  1  0.83430600  0.58288100  0.25146600  1
  Sn  Sn15  1  0.83438000  0.08296100  0.75150000  1
  Sn  Sn16  1  0.33116100  0.83453900  0.99996600  1
  Sn  Sn17  1  0.33125200  0.33440800  0.49985200  1
  Sn  Sn18  1  0.83426300  0.83452800  0.00009100  1
  Sn  Sn19  1  0.83429100  0.33433200  0.50000000  1
  Sn  Sn20  1  0.16569500  0.16570100  0.99998000  1
  Sn  Sn21  1  0.16578200  0.66550500  0.49999300  1
  Sn  Sn22  1  0.66873800  0.16557600  0.00016200  1
  Sn  Sn23  1  0.66885400  0.66549600  0.50009100  1
  Sn  Sn24  1  0.16568500  0.41707000  0.74853500  1
  Sn  Sn25  1  0.16569300  0.91710200  0.24857900  1
  O  O26  1  0.66658500  0.76750100  0.10074200  1
  O  O27  1  0.66663100  0.26751700  0.60077900  1
  O  O28  1  0.33338900  0.23244900  0.89920000  1
  O  O29  1  0.33342400  0.73248200  0.39926500  1
  O  O30  1  0.33292400  0.45924500  0.12513600  1
  O  O31  1  0.33402500  0.95841800  0.62592500  1
  O  O32  1  0.66639800  0.54114700  0.87434300  1
  O  O33  1  0.66696900  0.04074000  0.37477700  1
  O  O34  1  0.53722800  0.55557800  0.63010100  1
  O  O35  1  0.53704200  0.05630800  0.13047300  1
  O  O36  1  0.92571600  0.36167600  0.82455100  1
  O  O37  1  0.92572000  0.86156300  0.32444500  1
  O  O38  1  0.46304900  0.44332600  0.36935100  1
  O  O39  1  0.46272400  0.94467400  0.87001700  1
  O  O40  1  0.53718300  0.36150800  0.82447100  1
  O  O41  1  0.53713500  0.86147500  0.32435400  1
  O  O42  1  0.46277500  0.63859600  0.17581500  1
  O  O43  1  0.46286700  0.13825600  0.67517500  1
  O  O44  1  0.07445000  0.63853100  0.17578800  1
  O  O45  1  0.07414300  0.13808000  0.67503700  1
  O  O46  1  0.69119300  0.27077500  0.11674600  1
  O  O47  1  0.69140600  0.77077900  0.61662700  1
  O  O48  1  0.84529100  0.46086500  0.15164100  1
  O  O49  1  0.84591500  0.96046400  0.65210800  1
  O  O50  1  0.15435900  0.53943800  0.84810800  1
  O  O51  1  0.15442800  0.03933800  0.34823100  1
  O  O52  1  0.15412800  0.27093100  0.11650600  1
  O  O53  1  0.15417200  0.77080100  0.61653100  1
  O  O54  1  0.30891600  0.72915000  0.88345300  1
  O  O55  1  0.30846300  0.22929700  0.38314900  1
  O  O56  1  0.84576900  0.72912500  0.88355700  1
  O  O57  1  0.84587700  0.22912800  0.38338600  1
