# generated using pymatgen
data_BaH4O3
_symmetry_space_group_name_H-M   'P 1'
_cell_length_a   7.00694600
_cell_length_b   3.98903000
_cell_length_c   6.38820063
_cell_angle_alpha   89.19940090
_cell_angle_beta   90.00000000
_cell_angle_gamma   90.00000000
_symmetry_Int_Tables_number   1
_chemical_formula_structural   BaH4O3
_chemical_formula_sum   'Ba2 H8 O6'
_cell_volume   178.53863968
_cell_formula_units_Z   2
loop_
 _symmetry_equiv_pos_site_id
 _symmetry_equiv_pos_as_xyz
  1  'x, y, z'
loop_
 _atom_site_type_symbol
 _atom_site_label
 _atom_site_symmetry_multiplicity
 _atom_site_fract_x
 _atom_site_fract_y
 _atom_site_fract_z
 _atom_site_occupancy
  Ba  Ba0  1  0.24075500  0.99577400  0.34422300  1
  Ba  Ba1  1  0.74075500  0.00422600  0.65577700  1
  H  H2  1  0.19761500  0.80443300  0.87268000  1
  H  H3  1  0.19880000  0.20650000  0.87263900  1
  H  H4  1  0.69761500  0.19556700  0.12732000  1
  H  H5  1  0.69880000  0.79350000  0.12736100  1
  H  H6  1  0.40758600  0.50331300  0.99075800  1
  H  H7  1  0.90758600  0.49668700  0.00924200  1
  H  H8  1  0.55187100  0.51993800  0.39575300  1
  H  H9  1  0.05187100  0.48006200  0.60424700  1
  O  O10  1  0.14807100  0.00836600  0.79061900  1
  O  O11  1  0.64807100  0.99163400  0.20938100  1
  O  O12  1  0.27239900  0.50165100  0.03130300  1
  O  O13  1  0.77239900  0.49834900  0.96869700  1
  O  O14  1  0.47953600  0.50528000  0.52648000  1
  O  O15  1  0.97953600  0.49472000  0.47352000  1
