# generated using pymatgen
data_TlHO
_symmetry_space_group_name_H-M   'P 1'
_cell_length_a   4.43893413
_cell_length_b   4.43893413
_cell_length_c   21.78736198
_cell_angle_alpha   88.43754222
_cell_angle_beta   88.43754222
_cell_angle_gamma   91.98186660
_symmetry_Int_Tables_number   1
_chemical_formula_structural   TlHO
_chemical_formula_sum   'Tl8 H8 O8'
_cell_volume   428.71381421
_cell_formula_units_Z   8
loop_
 _symmetry_equiv_pos_site_id
 _symmetry_equiv_pos_as_xyz
  1  'x, y, z'
loop_
 _atom_site_type_symbol
 _atom_site_label
 _atom_site_symmetry_multiplicity
 _atom_site_fract_x
 _atom_site_fract_y
 _atom_site_fract_z
 _atom_site_occupancy
  Tl  Tl0  1  0.08741100  0.41645700  0.94572900  1
  Tl  Tl1  1  0.58354300  0.91258900  0.05427100  1
  Tl  Tl2  1  0.61842800  0.90584100  0.54834700  1
  Tl  Tl3  1  0.09415900  0.38157200  0.45165300  1
  Tl  Tl4  1  0.07396600  0.89802600  0.80254200  1
  Tl  Tl5  1  0.10197400  0.92603400  0.19745800  1
  Tl  Tl6  1  0.59963700  0.41519300  0.69330500  1
  Tl  Tl7  1  0.58480700  0.40036300  0.30669500  1
  H  H8  1  0.10317600  0.95949000  0.65974400  1
  H  H9  1  0.04051000  0.89682400  0.34025600  1
  H  H10  1  0.54946300  0.39763500  0.83430500  1
  H  H11  1  0.60236500  0.45053700  0.16569500  1
  H  H12  1  0.11745500  0.46196400  0.59946200  1
  H  H13  1  0.53803600  0.88254500  0.40053800  1
  H  H14  1  0.56698800  0.92103200  0.91100800  1
  H  H15  1  0.07896800  0.43301200  0.08899200  1
  O  O16  1  0.12635000  0.09465300  0.69387000  1
  O  O17  1  0.90534700  0.87365000  0.30613000  1
  O  O18  1  0.40798700  0.37841600  0.80114800  1
  O  O19  1  0.62158400  0.59201300  0.19885200  1
  O  O20  1  0.13981700  0.59372800  0.56278600  1
  O  O21  1  0.40627200  0.86018300  0.43721400  1
  O  O22  1  0.41660300  0.89504900  0.94425100  1
  O  O23  1  0.10495100  0.58339700  0.05574900  1
