# generated using pymatgen
data_Na2CoH4(SeO5)2
_symmetry_space_group_name_H-M   'P 1'
_cell_length_a   6.08717600
_cell_length_b   6.82105145
_cell_length_c   6.83372031
_cell_angle_alpha   99.14121336
_cell_angle_beta   96.06755507
_cell_angle_gamma   106.74088984
_symmetry_Int_Tables_number   1
_chemical_formula_structural   Na2CoH4(SeO5)2
_chemical_formula_sum   'Na2 Co1 H4 Se2 O10'
_cell_volume   264.80105412
_cell_formula_units_Z   1
loop_
 _symmetry_equiv_pos_site_id
 _symmetry_equiv_pos_as_xyz
  1  'x, y, z'
loop_
 _atom_site_type_symbol
 _atom_site_label
 _atom_site_symmetry_multiplicity
 _atom_site_fract_x
 _atom_site_fract_y
 _atom_site_fract_z
 _atom_site_occupancy
  Na  Na0  1  0.60291200  0.19965200  0.75741400  1
  Na  Na1  1  0.39708800  0.80034800  0.24258600  1
  Co  Co2  1  0.00000000  0.00000000  0.00000000  1
  H  H3  1  0.90284900  0.15920300  0.47372400  1
  H  H4  1  0.09715100  0.84079700  0.52627600  1
  H  H5  1  0.91703700  0.65216400  0.38186300  1
  H  H6  1  0.08296300  0.34783600  0.61813700  1
  Se  Se7  1  0.52923600  0.32568000  0.26643600  1
  Se  Se8  1  0.47076400  0.67432000  0.73356400  1
  O  O9  1  0.31341400  0.26822200  0.06769400  1
  O  O10  1  0.68658600  0.73177800  0.93230600  1
  O  O11  1  0.82309500  0.18515700  0.05128000  1
  O  O12  1  0.17690500  0.81484300  0.94872000  1
  O  O13  1  0.40981700  0.22239300  0.45188700  1
  O  O14  1  0.59018300  0.77760700  0.54811300  1
  O  O15  1  0.05744300  0.76625700  0.38568300  1
  O  O16  1  0.94255700  0.23374300  0.61431700  1
  O  O17  1  0.68120400  0.12114500  0.20675300  1
  O  O18  1  0.31879600  0.87885500  0.79324700  1
