# generated using pymatgen
data_Cs2KMn(CN)6
_symmetry_space_group_name_H-M   'P 1'
_cell_length_a   8.22354500
_cell_length_b   7.70834500
_cell_length_c   13.58682356
_cell_angle_alpha   55.69635004
_cell_angle_beta   90.00000000
_cell_angle_gamma   90.00000000
_symmetry_Int_Tables_number   1
_chemical_formula_structural   Cs2KMn(CN)6
_chemical_formula_sum   'Cs4 K2 Mn2 C12 N12'
_cell_volume   711.46084633
_cell_formula_units_Z   2
loop_
 _symmetry_equiv_pos_site_id
 _symmetry_equiv_pos_as_xyz
  1  'x, y, z'
loop_
 _atom_site_type_symbol
 _atom_site_label
 _atom_site_symmetry_multiplicity
 _atom_site_fract_x
 _atom_site_fract_y
 _atom_site_fract_z
 _atom_site_occupancy
  Cs  Cs0  1  0.93000100  0.72751700  0.75072000  1
  Cs  Cs1  1  0.43000100  0.27248300  0.74928000  1
  Cs  Cs2  1  0.56999900  0.72751700  0.25072000  1
  Cs  Cs3  1  0.06999900  0.27248300  0.24928000  1
  K  K4  1  0.50000000  0.50000000  0.00000000  1
  K  K5  1  0.00000000  0.50000000  0.50000000  1
  Mn  Mn6  1  0.50000000  0.00000000  0.50000000  1
  Mn  Mn7  1  0.00000000  0.00000000  0.00000000  1
  C  C8  1  0.70318500  0.16607100  0.45974700  1
  C  C9  1  0.37137600  0.24477000  0.46732900  1
  C  C10  1  0.20318500  0.83392900  0.04025300  1
  C  C11  1  0.79681500  0.16607100  0.95974700  1
  C  C12  1  0.12862400  0.24477000  0.96732900  1
  C  C13  1  0.97710700  0.90372300  0.16850400  1
  C  C14  1  0.52289300  0.90372300  0.66850400  1
  C  C15  1  0.02289300  0.09627700  0.83149600  1
  C  C16  1  0.29681500  0.83392900  0.54025300  1
  C  C17  1  0.87137600  0.75523000  0.03267100  1
  C  C18  1  0.62862400  0.75523000  0.53267100  1
  C  C19  1  0.47710700  0.09627700  0.33149600  1
  N  N20  1  0.95890500  0.84887800  0.26813000  1
  N  N21  1  0.17737600  0.73270500  0.56612100  1
  N  N22  1  0.67737600  0.26729500  0.93387900  1
  N  N23  1  0.45890500  0.15112200  0.23187000  1
  N  N24  1  0.79475500  0.60845600  0.05430400  1
  N  N25  1  0.32262400  0.73270500  0.06612100  1
  N  N26  1  0.70524500  0.60845600  0.55430400  1
  N  N27  1  0.29475500  0.39154400  0.44569600  1
  N  N28  1  0.54109500  0.84887800  0.76813000  1
  N  N29  1  0.20524500  0.39154400  0.94569600  1
  N  N30  1  0.04109500  0.15112200  0.73187000  1
  N  N31  1  0.82262400  0.26729500  0.43387900  1
