# generated using pymatgen
data_Mo2H2O7
_symmetry_space_group_name_H-M   'P 1'
_cell_length_a   3.80801400
_cell_length_b   7.40245700
_cell_length_c   9.46779607
_cell_angle_alpha   75.60711090
_cell_angle_beta   90.00000000
_cell_angle_gamma   90.00000000
_symmetry_Int_Tables_number   1
_chemical_formula_structural   Mo2H2O7
_chemical_formula_sum   'Mo4 H4 O14'
_cell_volume   258.50805194
_cell_formula_units_Z   2
loop_
 _symmetry_equiv_pos_site_id
 _symmetry_equiv_pos_as_xyz
  1  'x, y, z'
loop_
 _atom_site_type_symbol
 _atom_site_label
 _atom_site_symmetry_multiplicity
 _atom_site_fract_x
 _atom_site_fract_y
 _atom_site_fract_z
 _atom_site_occupancy
  Mo  Mo0  1  0.25089500  0.81601900  0.97499500  1
  Mo  Mo1  1  0.75089500  0.18398100  0.02500500  1
  Mo  Mo2  1  0.71677500  0.83251900  0.44049100  1
  Mo  Mo3  1  0.21677500  0.16748100  0.55950900  1
  H  H4  1  0.94963300  0.68846100  0.71835700  1
  H  H5  1  0.44963300  0.31153900  0.28164300  1
  H  H6  1  0.85779800  0.59881100  0.29611000  1
  H  H7  1  0.35779800  0.40118900  0.70389000  1
  O  O8  1  0.76370600  0.71420000  0.64359100  1
  O  O9  1  0.26370600  0.28580000  0.35640900  1
  O  O10  1  0.22516300  0.64457800  0.87970600  1
  O  O11  1  0.72516300  0.35542200  0.12029400  1
  O  O12  1  0.75109000  0.89966000  0.96660200  1
  O  O13  1  0.25109000  0.10034000  0.03339800  1
  O  O14  1  0.24211700  0.68677600  0.15439800  1
  O  O15  1  0.74211700  0.31322400  0.84560200  1
  O  O16  1  0.24694400  0.88988800  0.46962700  1
  O  O17  1  0.74694400  0.11011200  0.53037300  1
  O  O18  1  0.26810100  0.02391600  0.73935500  1
  O  O19  1  0.76810100  0.97608400  0.26064500  1
  O  O20  1  0.75450700  0.60524600  0.39071900  1
  O  O21  1  0.25450700  0.39475400  0.60928100  1
