# generated using pymatgen
data_Ba(HO)2
_symmetry_space_group_name_H-M   'P 1'
_cell_length_a   8.22762300
_cell_length_b   7.08655100
_cell_length_c   10.46383579
_cell_angle_alpha   60.01461631
_cell_angle_beta   90.00000000
_cell_angle_gamma   90.00000000
_symmetry_Int_Tables_number   1
_chemical_formula_structural   Ba(HO)2
_chemical_formula_sum   'Ba8 H16 O16'
_cell_volume   528.43891674
_cell_formula_units_Z   8
loop_
 _symmetry_equiv_pos_site_id
 _symmetry_equiv_pos_as_xyz
  1  'x, y, z'
loop_
 _atom_site_type_symbol
 _atom_site_label
 _atom_site_symmetry_multiplicity
 _atom_site_fract_x
 _atom_site_fract_y
 _atom_site_fract_z
 _atom_site_occupancy
  Ba  Ba0  1  0.88008700  0.32517200  0.92566100  1
  Ba  Ba1  1  0.61991300  0.32517200  0.42566100  1
  Ba  Ba2  1  0.11991300  0.67482800  0.07433900  1
  Ba  Ba3  1  0.38008700  0.67482800  0.57433900  1
  Ba  Ba4  1  0.96319400  0.92804000  0.34580800  1
  Ba  Ba5  1  0.53680600  0.92804000  0.84580800  1
  Ba  Ba6  1  0.03680600  0.07196000  0.65419200  1
  Ba  Ba7  1  0.46319400  0.07196000  0.15419200  1
  H  H8  1  0.10364000  0.65288000  0.71664500  1
  H  H9  1  0.39636000  0.65288000  0.21664500  1
  H  H10  1  0.89636000  0.34712000  0.28335500  1
  H  H11  1  0.60364000  0.34712000  0.78335500  1
  H  H12  1  0.19109000  0.22899800  0.19789300  1
  H  H13  1  0.30891000  0.22899800  0.69789300  1
  H  H14  1  0.80891000  0.77100200  0.80210700  1
  H  H15  1  0.69109000  0.77100200  0.30210700  1
  H  H16  1  0.19683300  0.17827900  0.92857800  1
  H  H17  1  0.30316700  0.17827900  0.42857800  1
  H  H18  1  0.80316700  0.82172100  0.07142200  1
  H  H19  1  0.69683300  0.82172100  0.57142200  1
  H  H20  1  0.17614200  0.55872100  0.37594100  1
  H  H21  1  0.32385800  0.55872100  0.87594100  1
  H  H22  1  0.82385800  0.44127900  0.62405900  1
  H  H23  1  0.67614200  0.44127900  0.12405900  1
  O  O24  1  0.04081600  0.68869100  0.62709200  1
  O  O25  1  0.45918400  0.68869100  0.12709200  1
  O  O26  1  0.95918400  0.31130900  0.37290800  1
  O  O27  1  0.54081600  0.31130900  0.87290800  1
  O  O28  1  0.14000900  0.25775300  0.10410200  1
  O  O29  1  0.35999100  0.25775300  0.60410200  1
  O  O30  1  0.85999100  0.74224700  0.89589800  1
  O  O31  1  0.64000900  0.74224700  0.39589800  1
  O  O32  1  0.16931000  0.10637400  0.87283100  1
  O  O33  1  0.33069000  0.10637400  0.37283100  1
  O  O34  1  0.83069000  0.89362600  0.12716900  1
  O  O35  1  0.66931000  0.89362600  0.62716900  1
  O  O36  1  0.21812900  0.70763700  0.32044200  1
  O  O37  1  0.28187100  0.70763700  0.82044200  1
  O  O38  1  0.78187100  0.29236300  0.67955800  1
  O  O39  1  0.71812900  0.29236300  0.17955800  1
