# generated using pymatgen
data_SrH4O3
_symmetry_space_group_name_H-M   'P 1'
_cell_length_a   3.93720200
_cell_length_b   5.68021932
_cell_length_c   7.57648232
_cell_angle_alpha   90.32010001
_cell_angle_beta   92.46811364
_cell_angle_gamma   93.91384347
_symmetry_Int_Tables_number   1
_chemical_formula_structural   SrH4O3
_chemical_formula_sum   'Sr2 H8 O6'
_cell_volume   168.88357935
_cell_formula_units_Z   2
loop_
 _symmetry_equiv_pos_site_id
 _symmetry_equiv_pos_as_xyz
  1  'x, y, z'
loop_
 _atom_site_type_symbol
 _atom_site_label
 _atom_site_symmetry_multiplicity
 _atom_site_fract_x
 _atom_site_fract_y
 _atom_site_fract_z
 _atom_site_occupancy
  Sr  Sr0  1  0.98528900  0.36373000  0.29406200  1
  Sr  Sr1  1  0.99413300  0.63497000  0.77556300  1
  H  H2  1  0.31136300  0.96283100  0.14932000  1
  H  H3  1  0.77701400  0.85203900  0.13712900  1
  H  H4  1  0.78637900  0.09889700  0.65608900  1
  H  H5  1  0.20016300  0.10739400  0.65648600  1
  H  H6  1  0.48159800  0.40162100  0.55417600  1
  H  H7  1  0.49149100  0.81626600  0.57586500  1
  H  H8  1  0.45424600  0.27181900  0.02114800  1
  H  H9  1  0.60348400  0.54980200  0.02335400  1
  O  O10  1  0.91166300  0.72131200  0.10130900  1
  O  O11  1  0.00103600  0.20958400  0.63113600  1
  O  O12  1  0.45494100  0.10848700  0.17735400  1
  O  O13  1  0.49231800  0.91391000  0.68568100  1
  O  O14  1  0.51942600  0.53221200  0.47339000  1
  O  O15  1  0.46609600  0.42645500  0.94391700  1
