# generated using pymatgen
data_BaNd2Ti3O10
_symmetry_space_group_name_H-M   'P 1'
_cell_length_a   7.67602100
_cell_length_b   7.78485400
_cell_length_c   14.54373845
_cell_angle_alpha   82.44806188
_cell_angle_beta   90.00000000
_cell_angle_gamma   90.00000000
_symmetry_Int_Tables_number   1
_chemical_formula_structural   BaNd2Ti3O10
_chemical_formula_sum   'Ba4 Nd8 Ti12 O40'
_cell_volume   861.54752101
_cell_formula_units_Z   4
loop_
 _symmetry_equiv_pos_site_id
 _symmetry_equiv_pos_as_xyz
  1  'x, y, z'
loop_
 _atom_site_type_symbol
 _atom_site_label
 _atom_site_symmetry_multiplicity
 _atom_site_fract_x
 _atom_site_fract_y
 _atom_site_fract_z
 _atom_site_occupancy
  Ba  Ba0  1  0.75000000  0.12873100  0.49421200  1
  Ba  Ba1  1  0.25000000  0.87126900  0.50578800  1
  Ba  Ba2  1  0.75000000  0.63483400  0.46637600  1
  Ba  Ba3  1  0.25000000  0.36516600  0.53362400  1
  Nd  Nd4  1  0.25000000  0.21528900  0.13508800  1
  Nd  Nd5  1  0.75000000  0.78471100  0.86491200  1
  Nd  Nd6  1  0.25000000  0.29487100  0.84401300  1
  Nd  Nd7  1  0.75000000  0.70512900  0.15598700  1
  Nd  Nd8  1  0.25000000  0.70691900  0.16745000  1
  Nd  Nd9  1  0.75000000  0.29308100  0.83255000  1
  Nd  Nd10  1  0.25000000  0.78497300  0.85184000  1
  Nd  Nd11  1  0.75000000  0.21502700  0.14816000  1
  Ti  Ti12  1  0.50194000  0.93283000  0.29043500  1
  Ti  Ti13  1  0.00194000  0.06717000  0.70956500  1
  Ti  Ti14  1  0.49806000  0.06717000  0.70956500  1
  Ti  Ti15  1  0.99806000  0.93283000  0.29043500  1
  Ti  Ti16  1  0.49960700  0.42125400  0.29454800  1
  Ti  Ti17  1  0.99960700  0.57874600  0.70545200  1
  Ti  Ti18  1  0.50039300  0.57874600  0.70545200  1
  Ti  Ti19  1  0.00039300  0.42125400  0.29454800  1
  Ti  Ti20  1  0.50000000  0.50000000  0.00000000  1
  Ti  Ti21  1  0.00000000  0.50000000  0.00000000  1
  Ti  Ti22  1  0.50000000  0.00000000  0.00000000  1
  Ti  Ti23  1  0.00000000  0.00000000  0.00000000  1
  O  O24  1  0.25000000  0.06356400  0.97819200  1
  O  O25  1  0.75000000  0.93643600  0.02180800  1
  O  O26  1  0.75000000  0.09338700  0.70607800  1
  O  O27  1  0.25000000  0.90661300  0.29392200  1
  O  O28  1  0.25000000  0.04951000  0.75666900  1
  O  O29  1  0.75000000  0.95049000  0.24333100  1
  O  O30  1  0.48460100  0.18741200  0.25142200  1
  O  O31  1  0.98460100  0.81258800  0.74857800  1
  O  O32  1  0.51539900  0.81258800  0.74857800  1
  O  O33  1  0.01539900  0.18741200  0.25142200  1
  O  O34  1  0.54872000  0.91507000  0.41034400  1
  O  O35  1  0.04872000  0.08493000  0.58965600  1
  O  O36  1  0.45128000  0.08493000  0.58965600  1
  O  O37  1  0.95128000  0.91507000  0.41034400  1
  O  O38  1  0.45199600  0.94743100  0.13156700  1
  O  O39  1  0.75000000  0.55507600  0.71398400  1
  O  O40  1  0.95199600  0.05256900  0.86843300  1
  O  O41  1  0.04800400  0.94743100  0.13156700  1
  O  O42  1  0.54585800  0.24473600  0.02000100  1
  O  O43  1  0.04585800  0.75526400  0.97999900  1
  O  O44  1  0.45414200  0.75526400  0.97999900  1
  O  O45  1  0.95414200  0.24473600  0.02000100  1
  O  O46  1  0.25000000  0.44475300  0.98458900  1
  O  O47  1  0.75000000  0.55524700  0.01541100  1
  O  O48  1  0.03369700  0.49126100  0.13186600  1
  O  O49  1  0.53369700  0.50873900  0.86813400  1
  O  O50  1  0.96630300  0.50873900  0.86813400  1
  O  O51  1  0.46630300  0.49126100  0.13186600  1
  O  O52  1  0.96694600  0.38196700  0.41620700  1
  O  O53  1  0.46694600  0.61803300  0.58379300  1
  O  O54  1  0.03305400  0.61803300  0.58379300  1
  O  O55  1  0.53305400  0.38196700  0.41620700  1
  O  O56  1  0.97881100  0.68109300  0.27264500  1
  O  O57  1  0.47881100  0.31890700  0.72735500  1
  O  O58  1  0.02118900  0.31890700  0.72735500  1
  O  O59  1  0.52118900  0.68109300  0.27264500  1
  O  O60  1  0.75000000  0.42159100  0.25244500  1
  O  O61  1  0.25000000  0.57840900  0.74755500  1
  O  O62  1  0.25000000  0.44492400  0.28601600  1
  O  O63  1  0.54800400  0.05256900  0.86843300  1
