# generated using pymatgen
data_V3(HO4)2
_symmetry_space_group_name_H-M   'P 1'
_cell_length_a   9.34771000
_cell_length_b   3.72412500
_cell_length_c   17.02715004
_cell_angle_alpha   88.50653641
_cell_angle_beta   90.00000000
_cell_angle_gamma   90.00000000
_symmetry_Int_Tables_number   1
_chemical_formula_structural   V3(HO4)2
_chemical_formula_sum   'V12 H8 O32'
_cell_volume   592.54848262
_cell_formula_units_Z   4
loop_
 _symmetry_equiv_pos_site_id
 _symmetry_equiv_pos_as_xyz
  1  'x, y, z'
loop_
 _atom_site_type_symbol
 _atom_site_label
 _atom_site_symmetry_multiplicity
 _atom_site_fract_x
 _atom_site_fract_y
 _atom_site_fract_z
 _atom_site_occupancy
  V  V0  1  0.37677400  0.25147300  0.45251100  1
  V  V1  1  0.12322600  0.25147300  0.95251100  1
  V  V2  1  0.62322600  0.74852700  0.54748900  1
  V  V3  1  0.87677400  0.74852700  0.04748900  1
  V  V4  1  0.44136200  0.22791500  0.65498400  1
  V  V5  1  0.05863800  0.22791500  0.15498400  1
  V  V6  1  0.55863800  0.77208500  0.34501600  1
  V  V7  1  0.94136200  0.77208500  0.84501600  1
  V  V8  1  0.40693600  0.24979100  0.04997000  1
  V  V9  1  0.09306400  0.24979100  0.54997000  1
  V  V10  1  0.59306400  0.75020900  0.95003000  1
  V  V11  1  0.90693600  0.75020900  0.45003000  1
  H  H12  1  0.22151500  0.01560300  0.74725100  1
  H  H13  1  0.27848500  0.01560300  0.24725100  1
  H  H14  1  0.77848500  0.98439700  0.25274900  1
  H  H15  1  0.72151500  0.98439700  0.75274900  1
  H  H16  1  0.61977600  0.44521000  0.74704900  1
  H  H17  1  0.88022400  0.44521000  0.24704900  1
  H  H18  1  0.38022400  0.55479000  0.25295100  1
  H  H19  1  0.11977600  0.55479000  0.75295100  1
  O  O20  1  0.57060500  0.24393400  0.54364000  1
  O  O21  1  0.92939500  0.24393400  0.04364000  1
  O  O22  1  0.42939500  0.75606600  0.45636000  1
  O  O23  1  0.07060500  0.75606600  0.95636000  1
  O  O24  1  0.22630700  0.25703600  0.40513100  1
  O  O25  1  0.27369300  0.25703600  0.90513100  1
  O  O26  1  0.77369300  0.74296400  0.59486900  1
  O  O27  1  0.72630700  0.74296400  0.09486900  1
  O  O28  1  0.52041300  0.26974000  0.37210800  1
  O  O29  1  0.97958700  0.26974000  0.87210800  1
  O  O30  1  0.47958700  0.73026000  0.62789200  1
  O  O31  1  0.02041300  0.73026000  0.12789200  1
  O  O32  1  0.29055400  0.24770900  0.55623600  1
  O  O33  1  0.20944600  0.24770900  0.05623600  1
  O  O34  1  0.70944600  0.75229100  0.44376400  1
  O  O35  1  0.79055400  0.75229100  0.94376400  1
  O  O36  1  0.30092900  0.18174200  0.72026700  1
  O  O37  1  0.19907100  0.18174200  0.22026700  1
  O  O38  1  0.69907100  0.81825800  0.27973300  1
  O  O39  1  0.80092900  0.81825800  0.77973300  1
  O  O40  1  0.60654700  0.21724200  0.72078200  1
  O  O41  1  0.89345300  0.21724200  0.22078200  1
  O  O42  1  0.39345300  0.78275800  0.27921800  1
  O  O43  1  0.10654700  0.78275800  0.77921800  1
  O  O44  1  0.57503300  0.25020100  0.97944100  1
  O  O45  1  0.92496700  0.25020100  0.47944100  1
  O  O46  1  0.42496700  0.74979900  0.02055900  1
  O  O47  1  0.07503300  0.74979900  0.52055900  1
  O  O48  1  0.46082100  0.24841500  0.13907300  1
  O  O49  1  0.03917900  0.24841500  0.63907300  1
  O  O50  1  0.53917900  0.75158500  0.86092700  1
  O  O51  1  0.96082100  0.75158500  0.36092700  1
