# generated using pymatgen
data_U(HO2)2
_symmetry_space_group_name_H-M   'P 1'
_cell_length_a   5.60037134
_cell_length_b   5.60037134
_cell_length_c   7.17559200
_cell_angle_alpha   90.00000000
_cell_angle_beta   90.00000000
_cell_angle_gamma   136.59438748
_symmetry_Int_Tables_number   1
_chemical_formula_structural   U(HO2)2
_chemical_formula_sum   'U2 H4 O8'
_cell_volume   154.64946552
_cell_formula_units_Z   2
loop_
 _symmetry_equiv_pos_site_id
 _symmetry_equiv_pos_as_xyz
  1  'x, y, z'
loop_
 _atom_site_type_symbol
 _atom_site_label
 _atom_site_symmetry_multiplicity
 _atom_site_fract_x
 _atom_site_fract_y
 _atom_site_fract_z
 _atom_site_occupancy
  U  U0  1  0.24309800  0.75690200  0.49779800  1
  U  U1  1  0.75690200  0.24309800  0.99779800  1
  H  H2  1  0.57278200  0.42721800  0.63315400  1
  H  H3  1  0.42721800  0.57278200  0.13315400  1
  H  H4  1  0.91103700  0.08896300  0.36243600  1
  H  H5  1  0.08896300  0.91103700  0.86243600  1
  O  O6  1  0.08352300  0.91647700  0.39590700  1
  O  O7  1  0.40288600  0.59711400  0.60112300  1
  O  O8  1  0.91647700  0.08352300  0.89590700  1
  O  O9  1  0.59711400  0.40288600  0.10112300  1
  O  O10  1  0.81564800  0.18435200  0.35233400  1
  O  O11  1  0.66850200  0.33149800  0.63901700  1
  O  O12  1  0.18435200  0.81564800  0.85233400  1
  O  O13  1  0.33149800  0.66850200  0.13901700  1
