# generated using pymatgen
data_Na3Si2PO8
_symmetry_space_group_name_H-M   'P 1'
_cell_length_a   7.18435000
_cell_length_b   10.85181500
_cell_length_c   12.30660400
_cell_angle_alpha   90.00000000
_cell_angle_beta   90.00000000
_cell_angle_gamma   90.00000000
_symmetry_Int_Tables_number   1
_chemical_formula_structural   Na3Si2PO8
_chemical_formula_sum   'Na12 Si8 P4 O32'
_cell_volume   959.46268549
_cell_formula_units_Z   4
loop_
 _symmetry_equiv_pos_site_id
 _symmetry_equiv_pos_as_xyz
  1  'x, y, z'
loop_
 _atom_site_type_symbol
 _atom_site_label
 _atom_site_symmetry_multiplicity
 _atom_site_fract_x
 _atom_site_fract_y
 _atom_site_fract_z
 _atom_site_occupancy
  Na  Na0  1  0.05014000  0.22222400  0.34760600  1
  Na  Na1  1  0.94986000  0.72222400  0.15239400  1
  Na  Na2  1  0.70314600  0.21299800  0.87915800  1
  Na  Na3  1  0.35749600  0.71733400  0.31645000  1
  Na  Na4  1  0.79685400  0.78700200  0.37915800  1
  Na  Na5  1  0.85749600  0.78266600  0.68355000  1
  Na  Na6  1  0.44986000  0.77777600  0.84760600  1
  Na  Na7  1  0.14250400  0.28266600  0.81645000  1
  Na  Na8  1  0.20314600  0.28700200  0.12084200  1
  Na  Na9  1  0.29685400  0.71299800  0.62084200  1
  Na  Na10  1  0.64250400  0.21733400  0.18355000  1
  Na  Na11  1  0.55014000  0.27777600  0.65239400  1
  Si  Si12  1  0.52874100  0.95882900  0.59047300  1
  Si  Si13  1  0.11017900  0.61206900  0.86790800  1
  Si  Si14  1  0.97125900  0.04117100  0.09047300  1
  Si  Si15  1  0.88982100  0.11206900  0.63209200  1
  Si  Si16  1  0.38982100  0.38793100  0.36790800  1
  Si  Si17  1  0.47125900  0.45882900  0.90952700  1
  Si  Si18  1  0.02874100  0.54117100  0.40952700  1
  Si  Si19  1  0.61017900  0.88793100  0.13209200  1
  P  P20  1  0.63632400  0.49639900  0.47116500  1
  P  P21  1  0.36367600  0.99639900  0.02883500  1
  P  P22  1  0.13632400  0.00360100  0.52883500  1
  P  P23  1  0.86367600  0.50360100  0.97116500  1
  O  O24  1  0.95081500  0.13330300  0.19122500  1
  O  O25  1  0.42219400  0.40328700  0.03258000  1
  O  O26  1  0.57780600  0.90328700  0.46742000  1
  O  O27  1  0.04918500  0.63330300  0.30877500  1
  O  O28  1  0.92219400  0.09671300  0.96742000  1
  O  O29  1  0.16947300  0.95639900  0.08569300  1
  O  O30  1  0.40386600  0.82172100  0.47657800  1
  O  O31  1  0.50687400  0.52495900  0.35930600  1
  O  O32  1  0.61414600  0.78641900  0.22340100  1
  O  O33  1  0.17529300  0.42089800  0.40338200  1
  O  O34  1  0.38585400  0.28641900  0.27659900  1
  O  O35  1  0.45081500  0.36669700  0.80877500  1
  O  O36  1  0.83052700  0.45639900  0.41430700  1
  O  O37  1  0.09613400  0.17827900  0.97657800  1
  O  O38  1  0.07780600  0.59671300  0.53258000  1
  O  O39  1  0.67529300  0.07910200  0.59661800  1
  O  O40  1  0.33052700  0.04360100  0.58569300  1
  O  O41  1  0.52799300  0.35755000  0.47823800  1
  O  O42  1  0.59613400  0.32172100  0.02342200  1
  O  O43  1  0.82470700  0.92089800  0.09661800  1
  O  O44  1  0.90386600  0.67827900  0.52342200  1
  O  O45  1  0.88585400  0.21358100  0.72340100  1
  O  O46  1  0.02799300  0.14245000  0.52176200  1
  O  O47  1  0.66947300  0.54360100  0.91430700  1
  O  O48  1  0.32470700  0.57910200  0.90338200  1
  O  O49  1  0.00687400  0.97504100  0.64069400  1
  O  O50  1  0.11414600  0.71358100  0.77659900  1
  O  O51  1  0.54918500  0.86669700  0.69122500  1
  O  O52  1  0.47200700  0.85755000  0.02176200  1
  O  O53  1  0.49312600  0.02495900  0.14069400  1
  O  O54  1  0.97200700  0.64245000  0.97823800  1
  O  O55  1  0.99312600  0.47504100  0.85930600  1
