# generated using pymatgen
data_Si2H2O3
_symmetry_space_group_name_H-M   'P 1'
_cell_length_a   8.41836600
_cell_length_b   10.87016417
_cell_length_c   11.75652542
_cell_angle_alpha   85.13382966
_cell_angle_beta   109.37490743
_cell_angle_gamma   111.71185155
_symmetry_Int_Tables_number   1
_chemical_formula_structural   Si2H2O3
_chemical_formula_sum   'Si20 H20 O30'
_cell_volume   942.01883170
_cell_formula_units_Z   10
loop_
 _symmetry_equiv_pos_site_id
 _symmetry_equiv_pos_as_xyz
  1  'x, y, z'
loop_
 _atom_site_type_symbol
 _atom_site_label
 _atom_site_symmetry_multiplicity
 _atom_site_fract_x
 _atom_site_fract_y
 _atom_site_fract_z
 _atom_site_occupancy
  Si  Si0  1  0.55237400  0.86083500  0.92497200  1
  Si  Si1  1  0.29731000  0.61658100  0.54502400  1
  Si  Si2  1  0.38337400  0.10723200  0.02805500  1
  Si  Si3  1  0.75455300  0.39417500  0.41229500  1
  Si  Si4  1  0.80059200  0.06283200  0.74726800  1
  Si  Si5  1  0.51523700  0.40518500  0.77012700  1
  Si  Si6  1  0.16086800  0.91431300  0.24476300  1
  Si  Si7  1  0.56280400  0.57147900  0.22227400  1
  Si  Si8  1  0.19964100  0.98550600  0.82818800  1
  Si  Si9  1  0.91142600  0.49251400  0.71907900  1
  Si  Si10  1  0.80305700  0.99372800  0.21026100  1
  Si  Si11  1  0.07146200  0.49451700  0.29756200  1
  Si  Si12  1  0.93155300  0.75108500  0.51912000  1
  Si  Si13  1  0.12839400  0.73434600  0.97202000  1
  Si  Si14  1  0.05466600  0.21951700  0.46308900  1
  Si  Si15  1  0.84142900  0.27767500  0.03161500  1
  Si  Si16  1  0.62358400  0.88027200  0.50489100  1
  Si  Si17  1  0.67840400  0.60431100  0.00725200  1
  Si  Si18  1  0.39942300  0.13174700  0.50103700  1
  Si  Si19  1  0.25747600  0.35606400  0.02622800  1
  H  H20  1  0.86871100  0.92883100  0.91764800  1
  H  H21  1  0.57006900  0.58358100  0.61471500  1
  H  H22  1  0.11384900  0.05645800  0.07554500  1
  H  H23  1  0.10031200  0.15474000  0.73893300  1
  H  H24  1  0.27487600  0.66193200  0.23354500  1
  H  H25  1  0.94722600  0.73159800  0.72354600  1
  H  H26  1  0.02459200  0.18075000  0.17221900  1
  H  H27  1  0.21808300  0.33775600  0.31735400  1
  H  H28  1  0.83245000  0.69744900  0.88156300  1
  H  H29  1  0.48969000  0.36573100  0.47684700  1
  H  H30  1  0.35959600  0.83271300  0.73090400  1
  H  H31  1  0.62970000  0.22241200  0.23282200  1
  H  H32  1  0.57230000  0.84871500  0.70834700  1
  H  H33  1  0.29200700  0.46455400  0.94233600  1
  H  H34  1  0.46041100  0.00114500  0.38797800  1
  H  H35  1  0.51831100  0.33014500  0.21369000  1
  H  H36  1  0.30841600  0.01765200  0.66026500  1
  H  H37  1  0.17774700  0.55991400  0.89810600  1
  H  H38  1  0.76351900  0.04852100  0.38984300  1
  H  H39  1  0.80584800  0.45017000  0.12602300  1
  O  O40  1  0.79173800  0.98160200  0.88865800  1
  O  O41  1  0.44666800  0.53236600  0.61478100  1
  O  O42  1  0.19864200  0.00973800  0.09981200  1
  O  O43  1  0.68097500  0.52069000  0.35396600  1
  O  O44  1  0.03664100  0.06405400  0.75929900  1
  O  O45  1  0.71739300  0.45389100  0.74691200  1
  O  O46  1  0.00503300  0.97565300  0.24223000  1
  O  O47  1  0.24972200  0.56723900  0.24619400  1
  O  O48  1  0.06490000  0.83542800  0.85162000  1
  O  O49  1  0.90733600  0.66532500  0.65514400  1
  O  O50  1  0.89260100  0.15213300  0.13878400  1
  O  O51  1  0.12545200  0.34869600  0.34477400  1
  O  O52  1  0.78638300  0.82249600  0.50473100  1
  O  O53  1  0.88885300  0.67656000  0.96432000  1
  O  O54  1  0.20735900  0.15977300  0.45627100  1
  O  O55  1  0.05487100  0.32272500  0.02594300  1
  O  O56  1  0.63806900  0.74667500  0.98494800  1
  O  O57  1  0.44001000  0.74251600  0.49634700  1
  O  O58  1  0.28573500  0.22671800  0.98905200  1
  O  O59  1  0.53701200  0.30031400  0.46369400  1
  O  O60  1  0.46050800  0.80031600  0.76787000  1
  O  O61  1  0.62046700  0.29707100  0.26820600  1
  O  O62  1  0.68312000  0.90787500  0.66529000  1
  O  O63  1  0.55430200  0.52014700  0.87375300  1
  O  O64  1  0.36184100  0.04110500  0.36134000  1
  O  O65  1  0.40690400  0.40842000  0.16336900  1
  O  O66  1  0.23855600  0.94893000  0.70599300  1
  O  O67  1  0.08132700  0.59795500  0.86880000  1
  O  O68  1  0.85625500  0.09970000  0.34980300  1
  O  O69  1  0.89869700  0.40719500  0.15060600  1
