# generated using pymatgen
data_Na(Mo2O3)2
_symmetry_space_group_name_H-M   'P 1'
_cell_length_a   3.80666400
_cell_length_b   8.84780300
_cell_length_c   8.84780300
_cell_angle_alpha   90.00000000
_cell_angle_beta   90.00000000
_cell_angle_gamma   90.00000000
_symmetry_Int_Tables_number   1
_chemical_formula_structural   Na(Mo2O3)2
_chemical_formula_sum   'Na2 Mo8 O12'
_cell_volume   297.99943015
_cell_formula_units_Z   2
loop_
 _symmetry_equiv_pos_site_id
 _symmetry_equiv_pos_as_xyz
  1  'x, y, z'
loop_
 _atom_site_type_symbol
 _atom_site_label
 _atom_site_symmetry_multiplicity
 _atom_site_fract_x
 _atom_site_fract_y
 _atom_site_fract_z
 _atom_site_occupancy
  Na  Na0  1  0.00000000  0.50000000  0.50000000  1
  Na  Na1  1  0.00000000  0.00000000  0.00000000  1
  Mo  Mo2  1  0.00000000  0.61098200  0.88901800  1
  Mo  Mo3  1  0.00000000  0.11098200  0.61098200  1
  Mo  Mo4  1  0.00000000  0.88901800  0.38901800  1
  Mo  Mo5  1  0.00000000  0.38901800  0.11098200  1
  Mo  Mo6  1  0.50000000  0.78406500  0.71593500  1
  Mo  Mo7  1  0.50000000  0.28406500  0.78406500  1
  Mo  Mo8  1  0.50000000  0.71593500  0.21593500  1
  Mo  Mo9  1  0.50000000  0.21593500  0.28406500  1
  O  O10  1  0.50000000  0.45993100  0.24533900  1
  O  O11  1  0.50000000  0.54006900  0.75466100  1
  O  O12  1  0.50000000  0.24533900  0.54006900  1
  O  O13  1  0.50000000  0.75466100  0.45993100  1
  O  O14  1  0.50000000  0.74533900  0.95993100  1
  O  O15  1  0.50000000  0.04006900  0.74533900  1
  O  O16  1  0.50000000  0.95993100  0.25466100  1
  O  O17  1  0.50000000  0.25466100  0.04006900  1
  O  O18  1  0.00000000  0.83485900  0.66514100  1
  O  O19  1  0.00000000  0.33485900  0.83485900  1
  O  O20  1  0.00000000  0.16514100  0.33485900  1
  O  O21  1  0.00000000  0.66514100  0.16514100  1
