# generated using pymatgen
data_Mg2NiH4
_symmetry_space_group_name_H-M   'P 1'
_cell_length_a   4.43112114
_cell_length_b   4.43112114
_cell_length_c   6.57671867
_cell_angle_alpha   89.63386022
_cell_angle_beta   89.63386022
_cell_angle_gamma   91.87807916
_symmetry_Int_Tables_number   1
_chemical_formula_structural   Mg2NiH4
_chemical_formula_sum   'Mg4 Ni2 H8'
_cell_volume   129.05796731
_cell_formula_units_Z   2
loop_
 _symmetry_equiv_pos_site_id
 _symmetry_equiv_pos_as_xyz
  1  'x, y, z'
loop_
 _atom_site_type_symbol
 _atom_site_label
 _atom_site_symmetry_multiplicity
 _atom_site_fract_x
 _atom_site_fract_y
 _atom_site_fract_z
 _atom_site_occupancy
  Mg  Mg0  1  0.00345800  0.50579900  0.74471200  1
  Mg  Mg1  1  0.50579900  0.00345800  0.74471200  1
  Mg  Mg2  1  0.99654200  0.49420100  0.25528800  1
  Mg  Mg3  1  0.49420100  0.99654200  0.25528800  1
  Ni  Ni4  1  0.00000000  0.00000000  0.00000000  1
  Ni  Ni5  1  0.50000000  0.50000000  0.50000000  1
  H  H6  1  0.76022000  0.23978000  0.00000000  1
  H  H7  1  0.23978000  0.76022000  0.00000000  1
  H  H8  1  0.24979500  0.24979500  0.98288600  1
  H  H9  1  0.75020500  0.75020500  0.01711400  1
  H  H10  1  0.48327900  0.48327900  0.26608400  1
  H  H11  1  0.51672100  0.51672100  0.73391600  1
  H  H12  1  0.24880700  0.24880700  0.51794800  1
  H  H13  1  0.75119300  0.75119300  0.48205200  1
