# generated using pymatgen
data_Eu2GeSe4
_symmetry_space_group_name_H-M   'P 1'
_cell_length_a   7.13106300
_cell_length_b   6.97736800
_cell_length_c   8.34932227
_cell_angle_alpha   72.21338079
_cell_angle_beta   90.00000000
_cell_angle_gamma   90.00000000
_symmetry_Int_Tables_number   1
_chemical_formula_structural   Eu2GeSe4
_chemical_formula_sum   'Eu4 Ge2 Se8'
_cell_volume   395.57209737
_cell_formula_units_Z   2
loop_
 _symmetry_equiv_pos_site_id
 _symmetry_equiv_pos_as_xyz
  1  'x, y, z'
loop_
 _atom_site_type_symbol
 _atom_site_label
 _atom_site_symmetry_multiplicity
 _atom_site_fract_x
 _atom_site_fract_y
 _atom_site_fract_z
 _atom_site_occupancy
  Eu  Eu0  1  0.27763300  0.22609300  0.44433000  1
  Eu  Eu1  1  0.29441800  0.25120500  0.93701800  1
  Eu  Eu2  1  0.77763300  0.77390700  0.55567000  1
  Eu  Eu3  1  0.79441800  0.74879500  0.06298200  1
  Ge  Ge4  1  0.75182600  0.23344500  0.69451000  1
  Ge  Ge5  1  0.25182600  0.76655500  0.30549000  1
  Se  Se6  1  0.52351000  0.98080400  0.25021300  1
  Se  Se7  1  0.71683700  0.42813300  0.88564600  1
  Se  Se8  1  0.02351000  0.01919600  0.74978700  1
  Se  Se9  1  0.70222000  0.42015000  0.40511800  1
  Se  Se10  1  0.51045200  0.98329400  0.76203000  1
  Se  Se11  1  0.21683700  0.57186700  0.11435400  1
  Se  Se12  1  0.20222000  0.57985000  0.59488200  1
  Se  Se13  1  0.01045200  0.01670600  0.23797000  1
