# generated using pymatgen
data_Mg(BrO3)2
_symmetry_space_group_name_H-M   'P 1'
_cell_length_a   5.70230173
_cell_length_b   5.70230173
_cell_length_c   6.26969239
_cell_angle_alpha   65.92457057
_cell_angle_beta   65.92457057
_cell_angle_gamma   60.14269242
_symmetry_Int_Tables_number   1
_chemical_formula_structural   Mg(BrO3)2
_chemical_formula_sum   'Mg1 Br2 O6'
_cell_volume   155.93097552
_cell_formula_units_Z   1
loop_
 _symmetry_equiv_pos_site_id
 _symmetry_equiv_pos_as_xyz
  1  'x, y, z'
loop_
 _atom_site_type_symbol
 _atom_site_label
 _atom_site_symmetry_multiplicity
 _atom_site_fract_x
 _atom_site_fract_y
 _atom_site_fract_z
 _atom_site_occupancy
  Mg  Mg0  1  0.00000000  0.00000000  0.00000000  1
  Br  Br1  1  0.64309600  0.64309600  0.09732600  1
  Br  Br2  1  0.35690400  0.35690400  0.90267400  1
  O  O3  1  0.75697500  0.75697500  0.23058900  1
  O  O4  1  0.24302500  0.24302500  0.76941100  1
  O  O5  1  0.23830300  0.70634700  0.78233600  1
  O  O6  1  0.70634700  0.23830300  0.78233600  1
  O  O7  1  0.76169700  0.29365300  0.21766400  1
  O  O8  1  0.29365300  0.76169700  0.21766400  1
