# generated using pymatgen
data_NaHF2
_symmetry_space_group_name_H-M   'P 1'
_cell_length_a   3.56076203
_cell_length_b   3.56076203
_cell_length_c   3.18458561
_cell_angle_alpha   84.16156256
_cell_angle_beta   84.16156256
_cell_angle_gamma   86.83308580
_symmetry_Int_Tables_number   1
_chemical_formula_structural   NaHF2
_chemical_formula_sum   'Na1 H1 F2'
_cell_volume   39.91848798
_cell_formula_units_Z   1
loop_
 _symmetry_equiv_pos_site_id
 _symmetry_equiv_pos_as_xyz
  1  'x, y, z'
loop_
 _atom_site_type_symbol
 _atom_site_label
 _atom_site_symmetry_multiplicity
 _atom_site_fract_x
 _atom_site_fract_y
 _atom_site_fract_z
 _atom_site_occupancy
  Na  Na0  1  0.21873700  0.78126300  0.00000000  1
  H  H1  1  0.89784300  0.10215700  0.50000000  1
  F  F2  1  0.15126500  0.27758700  0.38910900  1
  F  F3  1  0.72241300  0.84873500  0.61089100  1
