# generated using pymatgen
data_MoH4O5
_symmetry_space_group_name_H-M   'P 1'
_cell_length_a   4.28476100
_cell_length_b   6.48393013
_cell_length_c   8.09726675
_cell_angle_alpha   89.72778625
_cell_angle_beta   89.61481827
_cell_angle_gamma   80.68205412
_symmetry_Int_Tables_number   1
_chemical_formula_structural   MoH4O5
_chemical_formula_sum   'Mo2 H8 O10'
_cell_volume   221.98413318
_cell_formula_units_Z   2
loop_
 _symmetry_equiv_pos_site_id
 _symmetry_equiv_pos_as_xyz
  1  'x, y, z'
loop_
 _atom_site_type_symbol
 _atom_site_label
 _atom_site_symmetry_multiplicity
 _atom_site_fract_x
 _atom_site_fract_y
 _atom_site_fract_z
 _atom_site_occupancy
  Mo  Mo0  1  0.94386700  0.01561400  0.29205600  1
  Mo  Mo1  1  0.05139900  0.98313300  0.79270600  1
  H  H2  1  0.35741400  0.44289500  0.94434700  1
  H  H3  1  0.65517500  0.55755800  0.44502600  1
  H  H4  1  0.42275000  0.19739600  0.30251900  1
  H  H5  1  0.56932400  0.80698900  0.82440000  1
  H  H6  1  0.62953700  0.44163100  0.07142200  1
  H  H7  1  0.16596200  0.64084800  0.16823800  1
  H  H8  1  0.37825000  0.55986600  0.57135000  1
  H  H9  1  0.83309300  0.35858500  0.66421400  1
  O  O10  1  0.01116700  0.96925800  0.00835600  1
  O  O11  1  0.97829200  0.02808000  0.50715900  1
  O  O12  1  0.44590500  0.53122300  0.02287300  1
  O  O13  1  0.56131900  0.46923400  0.52176600  1
  O  O14  1  0.47551600  0.04568700  0.28265100  1
  O  O15  1  0.52082000  0.95483500  0.78984700  1
  O  O16  1  0.93059300  0.27463500  0.22334200  1
  O  O17  1  0.05579300  0.72073200  0.26327400  1
  O  O18  1  0.07203600  0.72412100  0.72364500  1
  O  O19  1  0.94362300  0.27822100  0.75983100  1
