# generated using pymatgen
data_ScMo3O8
_symmetry_space_group_name_H-M   'P 1'
_cell_length_a   6.09696003
_cell_length_b   6.09696003
_cell_length_c   4.63847037
_cell_angle_alpha   89.55968574
_cell_angle_beta   89.55968574
_cell_angle_gamma   59.86262734
_symmetry_Int_Tables_number   1
_chemical_formula_structural   ScMo3O8
_chemical_formula_sum   'Sc1 Mo3 O8'
_cell_volume   149.11186319
_cell_formula_units_Z   1
loop_
 _symmetry_equiv_pos_site_id
 _symmetry_equiv_pos_as_xyz
  1  'x, y, z'
loop_
 _atom_site_type_symbol
 _atom_site_label
 _atom_site_symmetry_multiplicity
 _atom_site_fract_x
 _atom_site_fract_y
 _atom_site_fract_z
 _atom_site_occupancy
  Sc  Sc0  1  0.67258800  0.32741200  0.00000000  1
  Mo  Mo1  1  0.17375800  0.82624200  0.50000000  1
  Mo  Mo2  1  0.16099200  0.33179800  0.48824500  1
  Mo  Mo3  1  0.66820200  0.83900800  0.51175500  1
  O  O4  1  0.49558300  0.16753000  0.26239500  1
  O  O5  1  0.32330200  0.99304000  0.72699100  1
  O  O6  1  0.31998200  0.51442400  0.72798300  1
  O  O7  1  0.83493900  0.99448200  0.72861000  1
  O  O8  1  0.00551800  0.16506100  0.27139000  1
  O  O9  1  0.00696000  0.67669800  0.27300900  1
  O  O10  1  0.83247000  0.50441700  0.73760500  1
  O  O11  1  0.48557600  0.68001800  0.27201700  1
