# generated using pymatgen
data_Mg10(SiO6)3
_symmetry_space_group_name_H-M   'P 1'
_cell_length_a   5.15161700
_cell_length_b   8.76650200
_cell_length_c   14.15647700
_cell_angle_alpha   90.00000000
_cell_angle_beta   90.00000000
_cell_angle_gamma   90.00000000
_symmetry_Int_Tables_number   1
_chemical_formula_structural   Mg10(SiO6)3
_chemical_formula_sum   'Mg20 Si6 O36'
_cell_volume   639.33001146
_cell_formula_units_Z   2
loop_
 _symmetry_equiv_pos_site_id
 _symmetry_equiv_pos_as_xyz
  1  'x, y, z'
loop_
 _atom_site_type_symbol
 _atom_site_label
 _atom_site_symmetry_multiplicity
 _atom_site_fract_x
 _atom_site_fract_y
 _atom_site_fract_z
 _atom_site_occupancy
  Mg  Mg0  1  0.82733700  0.50000000  0.67353400  1
  Mg  Mg1  1  0.32733700  0.00000000  0.82646600  1
  Mg  Mg2  1  0.50000000  0.15709800  0.50000000  1
  Mg  Mg3  1  0.50000000  0.84290200  0.50000000  1
  Mg  Mg4  1  0.00000000  0.34290200  0.00000000  1
  Mg  Mg5  1  0.00000000  0.65709800  0.00000000  1
  Mg  Mg6  1  0.64594600  0.32114500  0.32426700  1
  Mg  Mg7  1  0.64594600  0.67885500  0.32426700  1
  Mg  Mg8  1  0.14594600  0.17885500  0.17573300  1
  Mg  Mg9  1  0.14594600  0.82114500  0.17573300  1
  Mg  Mg10  1  0.35405400  0.32114500  0.67573300  1
  Mg  Mg11  1  0.35405400  0.67885500  0.67573300  1
  Mg  Mg12  1  0.85405400  0.17885500  0.82426700  1
  Mg  Mg13  1  0.85405400  0.82114500  0.82426700  1
  Mg  Mg14  1  0.17266300  0.50000000  0.32646600  1
  Mg  Mg15  1  0.67266300  0.00000000  0.17353400  1
  Mg  Mg16  1  0.00000000  0.32129800  0.50000000  1
  Mg  Mg17  1  0.00000000  0.67870200  0.50000000  1
  Mg  Mg18  1  0.50000000  0.17870200  0.00000000  1
  Mg  Mg19  1  0.50000000  0.82129800  0.00000000  1
  Si  Si20  1  0.50000000  0.50000000  0.50000000  1
  Si  Si21  1  0.00000000  0.00000000  0.00000000  1
  Si  Si22  1  0.00280900  0.00000000  0.62376200  1
  Si  Si23  1  0.50280900  0.50000000  0.87623800  1
  Si  Si24  1  0.99719100  0.00000000  0.37623800  1
  Si  Si25  1  0.49719100  0.50000000  0.12376200  1
  O  O26  1  0.01222100  0.33539300  0.74342100  1
  O  O27  1  0.01222100  0.66460700  0.74342100  1
  O  O28  1  0.51222100  0.16460700  0.75657900  1
  O  O29  1  0.51222100  0.83539300  0.75657900  1
  O  O30  1  0.49867500  0.50000000  0.75735800  1
  O  O31  1  0.99867500  0.00000000  0.74264200  1
  O  O32  1  0.19920600  0.50000000  0.57702800  1
  O  O33  1  0.69920600  0.00000000  0.92297200  1
  O  O34  1  0.64428400  0.35357600  0.57318900  1
  O  O35  1  0.64428400  0.64642400  0.57318900  1
  O  O36  1  0.14428400  0.14642400  0.92681100  1
  O  O37  1  0.14428400  0.85357600  0.92681100  1
  O  O38  1  0.16239500  0.15697800  0.58775200  1
  O  O39  1  0.16239500  0.84302200  0.58775200  1
  O  O40  1  0.66239500  0.34302200  0.91224800  1
  O  O41  1  0.66239500  0.65697800  0.91224800  1
  O  O42  1  0.70606900  0.00000000  0.57902800  1
  O  O43  1  0.20606900  0.50000000  0.92097200  1
  O  O44  1  0.80079400  0.50000000  0.42297200  1
  O  O45  1  0.30079400  0.00000000  0.07702800  1
  O  O46  1  0.35571600  0.35357600  0.42681100  1
  O  O47  1  0.35571600  0.64642400  0.42681100  1
  O  O48  1  0.85571600  0.14642400  0.07318900  1
  O  O49  1  0.85571600  0.85357600  0.07318900  1
  O  O50  1  0.83760500  0.15697800  0.41224800  1
  O  O51  1  0.83760500  0.84302200  0.41224800  1
  O  O52  1  0.33760500  0.34302200  0.08775200  1
  O  O53  1  0.33760500  0.65697800  0.08775200  1
  O  O54  1  0.29393100  0.00000000  0.42097200  1
  O  O55  1  0.79393100  0.50000000  0.07902800  1
  O  O56  1  0.50132500  0.50000000  0.24264200  1
  O  O57  1  0.00132500  0.00000000  0.25735800  1
  O  O58  1  0.98777900  0.33539300  0.25657900  1
  O  O59  1  0.98777900  0.66460700  0.25657900  1
  O  O60  1  0.48777900  0.16460700  0.24342100  1
  O  O61  1  0.48777900  0.83539300  0.24342100  1
