# generated using pymatgen
data_PdC9N3Cl5
_symmetry_space_group_name_H-M   'P 1'
_cell_length_a   10.99997000
_cell_length_b   11.30429800
_cell_length_c   15.26535500
_cell_angle_alpha   90.00000000
_cell_angle_beta   90.00000000
_cell_angle_gamma   90.00000000
_symmetry_Int_Tables_number   1
_chemical_formula_structural   PdC9N3Cl5
_chemical_formula_sum   'Pd4 C36 N12 Cl20'
_cell_volume   1898.20016503
_cell_formula_units_Z   4
loop_
 _symmetry_equiv_pos_site_id
 _symmetry_equiv_pos_as_xyz
  1  'x, y, z'
loop_
 _atom_site_type_symbol
 _atom_site_label
 _atom_site_symmetry_multiplicity
 _atom_site_fract_x
 _atom_site_fract_y
 _atom_site_fract_z
 _atom_site_occupancy
  Pd  Pd0  1  0.72850500  0.25000000  0.10808800  1
  Pd  Pd1  1  0.22850500  0.25000000  0.39191200  1
  Pd  Pd2  1  0.27149500  0.75000000  0.89191200  1
  Pd  Pd3  1  0.77149500  0.75000000  0.60808800  1
  C  C4  1  0.17277800  0.25000000  0.91337300  1
  C  C5  1  0.67277800  0.25000000  0.58662700  1
  C  C6  1  0.82722200  0.75000000  0.08662700  1
  C  C7  1  0.32722200  0.75000000  0.41337300  1
  C  C8  1  0.93391600  0.31243300  0.92503100  1
  C  C9  1  0.43391600  0.18756700  0.57496900  1
  C  C10  1  0.06608400  0.81243300  0.07496900  1
  C  C11  1  0.56608400  0.68756700  0.42503100  1
  C  C12  1  0.06608400  0.68756700  0.07496900  1
  C  C13  1  0.56608400  0.81243300  0.42503100  1
  C  C14  1  0.93391600  0.18756700  0.92503100  1
  C  C15  1  0.43391600  0.31243300  0.57496900  1
  C  C16  1  0.96883000  0.49019900  0.35712600  1
  C  C17  1  0.46883000  0.00980100  0.14287400  1
  C  C18  1  0.03117000  0.99019900  0.64287400  1
  C  C19  1  0.53117000  0.50980100  0.85712600  1
  C  C20  1  0.03117000  0.50980100  0.64287400  1
  C  C21  1  0.53117000  0.99019900  0.85712600  1
  C  C22  1  0.96883000  0.00980100  0.35712600  1
  C  C23  1  0.46883000  0.49019900  0.14287400  1
  C  C24  1  0.07937000  0.49488600  0.35893900  1
  C  C25  1  0.57937000  0.00511400  0.14106100  1
  C  C26  1  0.92063000  0.99488600  0.64106100  1
  C  C27  1  0.42063000  0.50511400  0.85893900  1
  C  C28  1  0.92063000  0.50511400  0.64106100  1
  C  C29  1  0.42063000  0.99488600  0.85893900  1
  C  C30  1  0.07937000  0.00511400  0.35893900  1
  C  C31  1  0.57937000  0.49488600  0.14106100  1
  C  C32  1  0.74546400  0.45796100  0.35990700  1
  C  C33  1  0.24546400  0.04203900  0.14009300  1
  C  C34  1  0.25453600  0.95796100  0.64009300  1
  C  C35  1  0.75453600  0.54203900  0.85990700  1
  C  C36  1  0.25453600  0.54203900  0.64009300  1
  C  C37  1  0.75453600  0.95796100  0.85990700  1
  C  C38  1  0.74546400  0.04203900  0.35990700  1
  C  C39  1  0.24546400  0.45796100  0.14009300  1
  N  N40  1  0.06351400  0.25000000  0.91741000  1
  N  N41  1  0.56351400  0.25000000  0.58259000  1
  N  N42  1  0.93648600  0.75000000  0.08259000  1
  N  N43  1  0.43648600  0.75000000  0.41741000  1
  N  N44  1  0.85170700  0.48029100  0.35744200  1
  N  N45  1  0.35170700  0.01970900  0.14255800  1
  N  N46  1  0.14829300  0.98029100  0.64255800  1
  N  N47  1  0.64829300  0.51970900  0.85744200  1
  N  N48  1  0.14829300  0.51970900  0.64255800  1
  N  N49  1  0.64829300  0.98029100  0.85744200  1
  N  N50  1  0.85170700  0.01970900  0.35744200  1
  N  N51  1  0.35170700  0.48029100  0.14255800  1
  Cl  Cl52  1  0.54653200  0.25000000  0.03390400  1
  Cl  Cl53  1  0.04653200  0.25000000  0.46609600  1
  Cl  Cl54  1  0.45346800  0.75000000  0.96609600  1
  Cl  Cl55  1  0.95346800  0.75000000  0.53390400  1
  Cl  Cl56  1  0.92046100  0.25000000  0.16745600  1
  Cl  Cl57  1  0.42046100  0.25000000  0.33254400  1
  Cl  Cl58  1  0.07953900  0.75000000  0.83254400  1
  Cl  Cl59  1  0.57953900  0.75000000  0.66745600  1
  Cl  Cl60  1  0.72260800  0.46167600  0.12975800  1
  Cl  Cl61  1  0.22260800  0.03832400  0.37024200  1
  Cl  Cl62  1  0.27739200  0.96167600  0.87024200  1
  Cl  Cl63  1  0.77739200  0.53832400  0.62975800  1
  Cl  Cl64  1  0.27739200  0.53832400  0.87024200  1
  Cl  Cl65  1  0.77739200  0.96167600  0.62975800  1
  Cl  Cl66  1  0.72260800  0.03832400  0.12975800  1
  Cl  Cl67  1  0.22260800  0.46167600  0.37024200  1
  Cl  Cl68  1  0.37615300  0.25000000  0.68817400  1
  Cl  Cl69  1  0.87615300  0.25000000  0.81182600  1
  Cl  Cl70  1  0.62384700  0.75000000  0.31182600  1
  Cl  Cl71  1  0.12384700  0.75000000  0.18817400  1
