# generated using pymatgen
data_ZnFeC5N6O
_symmetry_space_group_name_H-M   'P 1'
_cell_length_a   12.59847580
_cell_length_b   12.59847580
_cell_length_c   12.59847632
_cell_angle_alpha   99.95492107
_cell_angle_beta   99.95492107
_cell_angle_gamma   99.95492225
_symmetry_Int_Tables_number   1
_chemical_formula_structural   ZnFeC5N6O
_chemical_formula_sum   'Zn6 Fe6 C30 N36 O6'
_cell_volume   1897.04715986
_cell_formula_units_Z   6
loop_
 _symmetry_equiv_pos_site_id
 _symmetry_equiv_pos_as_xyz
  1  'x, y, z'
loop_
 _atom_site_type_symbol
 _atom_site_label
 _atom_site_symmetry_multiplicity
 _atom_site_fract_x
 _atom_site_fract_y
 _atom_site_fract_z
 _atom_site_occupancy
  Zn  Zn0  1  0.37015000  0.91479200  0.21887000  1
  Zn  Zn1  1  0.91479200  0.21887000  0.37015000  1
  Zn  Zn2  1  0.08520800  0.78113000  0.62985000  1
  Zn  Zn3  1  0.62985000  0.08520800  0.78113000  1
  Zn  Zn4  1  0.21887000  0.37015000  0.91479200  1
  Zn  Zn5  1  0.78113000  0.62985000  0.08520800  1
  Fe  Fe6  1  0.44420500  0.71005800  0.83907200  1
  Fe  Fe7  1  0.83907200  0.44420500  0.71005800  1
  Fe  Fe8  1  0.71005800  0.83907200  0.44420500  1
  Fe  Fe9  1  0.16092800  0.55579500  0.28994200  1
  Fe  Fe10  1  0.28994200  0.16092800  0.55579500  1
  Fe  Fe11  1  0.55579500  0.28994200  0.16092800  1
  C  C12  1  0.14500100  0.16061000  0.47974900  1
  C  C13  1  0.52025100  0.85499900  0.83939000  1
  C  C14  1  0.06530000  0.42550800  0.30640200  1
  C  C15  1  0.74778100  0.78036100  0.30806000  1
  C  C16  1  0.58558200  0.87611600  0.36246700  1
  C  C17  1  0.30806000  0.74778100  0.78036100  1
  C  C18  1  0.21963900  0.69194000  0.25221900  1
  C  C19  1  0.25221900  0.21963900  0.69194000  1
  C  C20  1  0.78036100  0.30806000  0.74778100  1
  C  C21  1  0.21264300  0.01109200  0.59070800  1
  C  C22  1  0.12388400  0.63753300  0.41441800  1
  C  C23  1  0.47974900  0.14500100  0.16061000  1
  C  C24  1  0.85499900  0.83939000  0.52025100  1
  C  C25  1  0.78735700  0.98890800  0.40929200  1
  C  C26  1  0.01109200  0.59070800  0.21264300  1
  C  C27  1  0.30640200  0.06530000  0.42550800  1
  C  C28  1  0.36246700  0.58558200  0.87611600  1
  C  C29  1  0.69359800  0.93470000  0.57449200  1
  C  C30  1  0.93470000  0.57449200  0.69359800  1
  C  C31  1  0.69194000  0.25221900  0.21963900  1
  C  C32  1  0.16061000  0.47974900  0.14500100  1
  C  C33  1  0.98890800  0.40929200  0.78735700  1
  C  C34  1  0.83939000  0.52025100  0.85499900  1
  C  C35  1  0.87611600  0.36246700  0.58558200  1
  C  C36  1  0.57449200  0.69359800  0.93470000  1
  C  C37  1  0.59070800  0.21264300  0.01109200  1
  C  C38  1  0.42550800  0.30640200  0.06530000  1
  C  C39  1  0.63753300  0.41441800  0.12388400  1
  C  C40  1  0.40929200  0.78735700  0.98890800  1
  C  C41  1  0.41441800  0.12388400  0.63753300  1
  N  N42  1  0.38583100  0.83058800  0.06851400  1
  N  N43  1  0.68852100  0.49333100  0.10684200  1
  N  N44  1  0.76573200  0.73784400  0.22512000  1
  N  N45  1  0.01239800  0.34466200  0.31813200  1
  N  N46  1  0.93824300  0.82824000  0.56882600  1
  N  N47  1  0.17176000  0.43117400  0.06175700  1
  N  N48  1  0.34769900  0.27153000  0.53895100  1
  N  N49  1  0.93148600  0.61416900  0.16941200  1
  N  N50  1  0.27153000  0.53895100  0.34769900  1
  N  N51  1  0.65533700  0.68186800  0.98760200  1
  N  N52  1  0.61416900  0.16941200  0.93148600  1
  N  N53  1  0.43117400  0.06175700  0.17176000  1
  N  N54  1  0.73784400  0.22512000  0.76573200  1
  N  N55  1  0.53895100  0.34769900  0.27153000  1
  N  N56  1  0.89315800  0.31147900  0.50666900  1
  N  N57  1  0.22512000  0.76573200  0.73784400  1
  N  N58  1  0.46104900  0.65230100  0.72847000  1
  N  N59  1  0.82824000  0.56882600  0.93824300  1
  N  N60  1  0.31813200  0.01239800  0.34466200  1
  N  N61  1  0.56882600  0.93824300  0.82824000  1
  N  N62  1  0.34466200  0.31813200  0.01239800  1
  N  N63  1  0.16941200  0.93148600  0.61416900  1
  N  N64  1  0.23426800  0.26215600  0.77488000  1
  N  N65  1  0.10684200  0.68852100  0.49333100  1
  N  N66  1  0.68186800  0.98760200  0.65533800  1
  N  N67  1  0.50666900  0.89315800  0.31147900  1
  N  N68  1  0.65230100  0.72847000  0.46104900  1
  N  N69  1  0.72847000  0.46104900  0.65230100  1
  N  N70  1  0.83058800  0.06851400  0.38583100  1
  N  N71  1  0.77488000  0.23426800  0.26215600  1
  N  N72  1  0.06175700  0.17176000  0.43117400  1
  N  N73  1  0.49333100  0.10684200  0.68852100  1
  N  N74  1  0.26215600  0.77488000  0.23426800  1
  N  N75  1  0.98760200  0.65533700  0.68186800  1
  N  N76  1  0.06851400  0.38583100  0.83058800  1
  N  N77  1  0.31147900  0.50666900  0.89315800  1
  O  O78  1  0.11370200  0.93480500  0.05095700  1
  O  O79  1  0.93480500  0.05095700  0.11370200  1
  O  O80  1  0.05095700  0.11370200  0.93480500  1
  O  O81  1  0.94904300  0.88629800  0.06519500  1
  O  O82  1  0.06519500  0.94904300  0.88629800  1
  O  O83  1  0.88629800  0.06519500  0.94904300  1
