# generated using pymatgen
data_KCuCl3
_symmetry_space_group_name_H-M   'P 1'
_cell_length_a   14.37214100
_cell_length_b   4.75782200
_cell_length_c   9.83098369
_cell_angle_alpha   89.24271194
_cell_angle_beta   90.00000000
_cell_angle_gamma   90.00000000
_symmetry_Int_Tables_number   1
_chemical_formula_structural   KCuCl3
_chemical_formula_sum   'K4 Cu4 Cl12'
_cell_volume   672.18481881
_cell_formula_units_Z   4
loop_
 _symmetry_equiv_pos_site_id
 _symmetry_equiv_pos_as_xyz
  1  'x, y, z'
loop_
 _atom_site_type_symbol
 _atom_site_label
 _atom_site_symmetry_multiplicity
 _atom_site_fract_x
 _atom_site_fract_y
 _atom_site_fract_z
 _atom_site_occupancy
  K  K0  1  0.15042100  0.75721400  0.53671000  1
  K  K1  1  0.65042100  0.24278600  0.96329000  1
  K  K2  1  0.84957900  0.24278600  0.46329000  1
  K  K3  1  0.34957900  0.75721400  0.03671000  1
  Cu  Cu4  1  0.54024000  0.35849300  0.35137900  1
  Cu  Cu5  1  0.95976000  0.35849300  0.85137900  1
  Cu  Cu6  1  0.04024000  0.64150700  0.14862100  1
  Cu  Cu7  1  0.45976000  0.64150700  0.64862100  1
  Cl  Cl8  1  0.90293100  0.47243600  0.06124000  1
  Cl  Cl9  1  0.40293100  0.52756400  0.43876000  1
  Cl  Cl10  1  0.68025900  0.22059000  0.27756500  1
  Cl  Cl11  1  0.46959300  0.25865500  0.15169700  1
  Cl  Cl12  1  0.53040700  0.74134500  0.84830300  1
  Cl  Cl13  1  0.81974100  0.22059000  0.77756500  1
  Cl  Cl14  1  0.09706900  0.52756400  0.93876000  1
  Cl  Cl15  1  0.03040700  0.25865500  0.65169700  1
  Cl  Cl16  1  0.18025900  0.77941000  0.22243500  1
  Cl  Cl17  1  0.59706900  0.47243600  0.56124000  1
  Cl  Cl18  1  0.31974100  0.77941000  0.72243500  1
  Cl  Cl19  1  0.96959300  0.74134500  0.34830300  1
