# generated using pymatgen
data_K2Mo4O13
_symmetry_space_group_name_H-M   'P 1'
_cell_length_a   7.72176500
_cell_length_b   15.71045200
_cell_length_c   18.97184400
_cell_angle_alpha   90.00000000
_cell_angle_beta   90.00000000
_cell_angle_gamma   90.00000000
_symmetry_Int_Tables_number   1
_chemical_formula_structural   K2Mo4O13
_chemical_formula_sum   'K16 Mo32 O104'
_cell_volume   2301.52027692
_cell_formula_units_Z   8
loop_
 _symmetry_equiv_pos_site_id
 _symmetry_equiv_pos_as_xyz
  1  'x, y, z'
loop_
 _atom_site_type_symbol
 _atom_site_label
 _atom_site_symmetry_multiplicity
 _atom_site_fract_x
 _atom_site_fract_y
 _atom_site_fract_z
 _atom_site_occupancy
  K  K0  1  0.10706500  0.52972100  0.08435200  1
  K  K1  1  0.22945500  0.28407100  0.06712600  1
  K  K2  1  0.72945500  0.21592900  0.93287400  1
  K  K3  1  0.39293500  0.47027900  0.58435200  1
  K  K4  1  0.72945500  0.28407100  0.43287400  1
  K  K5  1  0.27054500  0.78407100  0.06712600  1
  K  K6  1  0.10706500  0.97027900  0.58435200  1
  K  K7  1  0.89293500  0.47027900  0.91564800  1
  K  K8  1  0.27054500  0.71592900  0.56712600  1
  K  K9  1  0.77054500  0.71592900  0.93287400  1
  K  K10  1  0.89293500  0.02972100  0.41564800  1
  K  K11  1  0.39293500  0.02972100  0.08435200  1
  K  K12  1  0.60706500  0.97027900  0.91564800  1
  K  K13  1  0.22945500  0.21592900  0.56712600  1
  K  K14  1  0.60706500  0.52972100  0.41564800  1
  K  K15  1  0.77054500  0.78407100  0.43287400  1
  Mo  Mo16  1  0.17199200  0.56846300  0.74392600  1
  Mo  Mo17  1  0.67199200  0.56846300  0.75607400  1
  Mo  Mo18  1  0.39424300  0.43210700  0.89262800  1
  Mo  Mo19  1  0.10575700  0.93210700  0.89262800  1
  Mo  Mo20  1  0.79393000  0.63839200  0.59773600  1
  Mo  Mo21  1  0.39424300  0.06789300  0.39262800  1
  Mo  Mo22  1  0.60575700  0.93210700  0.60737200  1
  Mo  Mo23  1  0.57900700  0.77744700  0.75097900  1
  Mo  Mo24  1  0.82800800  0.06846300  0.75607400  1
  Mo  Mo25  1  0.82800800  0.43153700  0.25607400  1
  Mo  Mo26  1  0.92099300  0.27744700  0.75097900  1
  Mo  Mo27  1  0.20607000  0.36160800  0.40226400  1
  Mo  Mo28  1  0.20607000  0.13839200  0.90226400  1
  Mo  Mo29  1  0.10575700  0.56789300  0.39262800  1
  Mo  Mo30  1  0.29393000  0.86160800  0.40226400  1
  Mo  Mo31  1  0.89424300  0.06789300  0.10737200  1
  Mo  Mo32  1  0.57900700  0.72255300  0.25097900  1
  Mo  Mo33  1  0.89424300  0.43210700  0.60737200  1
  Mo  Mo34  1  0.79393000  0.86160800  0.09773600  1
  Mo  Mo35  1  0.42099300  0.27744700  0.74902100  1
  Mo  Mo36  1  0.17199200  0.93153700  0.24392600  1
  Mo  Mo37  1  0.92099300  0.22255300  0.25097900  1
  Mo  Mo38  1  0.42099300  0.22255300  0.24902100  1
  Mo  Mo39  1  0.07900700  0.77744700  0.74902100  1
  Mo  Mo40  1  0.32800800  0.43153700  0.24392600  1
  Mo  Mo41  1  0.60575700  0.56789300  0.10737200  1
  Mo  Mo42  1  0.32800800  0.06846300  0.74392600  1
  Mo  Mo43  1  0.67199200  0.93153700  0.25607400  1
  Mo  Mo44  1  0.70607000  0.36160800  0.09773600  1
  Mo  Mo45  1  0.29393000  0.63839200  0.90226400  1
  Mo  Mo46  1  0.70607000  0.13839200  0.59773600  1
  Mo  Mo47  1  0.07900700  0.72255300  0.24902100  1
  O  O48  1  0.19271000  0.67775700  0.81605800  1
  O  O49  1  0.16910300  0.85307000  0.81964600  1
  O  O50  1  0.73579800  0.08644800  0.04305200  1
  O  O51  1  0.42698700  0.33315900  0.19503800  1
  O  O52  1  0.10044800  0.22721500  0.93679100  1
  O  O53  1  0.73579800  0.41355200  0.54305200  1
  O  O54  1  0.83089700  0.14693000  0.18035400  1
  O  O55  1  0.92330800  0.51564000  0.30479800  1
  O  O56  1  0.23579800  0.08644800  0.45694800  1
  O  O57  1  0.07301300  0.66684100  0.69503800  1
  O  O58  1  0.22211600  0.52079900  0.83275700  1
  O  O59  1  0.61380800  0.62268000  0.54278100  1
  O  O60  1  0.86539000  0.77011200  0.78412400  1
  O  O61  1  0.42330800  0.51564000  0.19520200  1
  O  O62  1  0.72211600  0.52079900  0.66724300  1
  O  O63  1  0.10044800  0.27278500  0.43679100  1
  O  O64  1  0.77788400  0.47920100  0.16724300  1
  O  O65  1  0.94501100  0.34232700  0.82384800  1
  O  O66  1  0.88619200  0.37732000  0.04278100  1
  O  O67  1  0.63461000  0.22988800  0.28412400  1
  O  O68  1  0.13461000  0.27011200  0.71587600  1
  O  O69  1  0.80729000  0.17775700  0.68394200  1
  O  O70  1  0.42229100  0.62050700  0.07588900  1
  O  O71  1  0.44501100  0.15767300  0.17615200  1
  O  O72  1  0.76420200  0.58644800  0.04305200  1
  O  O73  1  0.63461000  0.27011200  0.78412400  1
  O  O74  1  0.69271000  0.82224300  0.18394200  1
  O  O75  1  0.61724300  0.07244500  0.79369300  1
  O  O76  1  0.88275700  0.57244500  0.79369300  1
  O  O77  1  0.66910300  0.85307000  0.68035400  1
  O  O78  1  0.76420200  0.91355200  0.54305200  1
  O  O79  1  0.61724300  0.42755500  0.29369300  1
  O  O80  1  0.69271000  0.67775700  0.68394200  1
  O  O81  1  0.54571100  0.44991400  0.07574300  1
  O  O82  1  0.44501100  0.34232700  0.67615200  1
  O  O83  1  0.07301300  0.83315900  0.19503800  1
  O  O84  1  0.38275700  0.57244500  0.70630700  1
  O  O85  1  0.13461000  0.22988800  0.21587600  1
  O  O86  1  0.57301300  0.66684100  0.80496200  1
  O  O87  1  0.92229100  0.87949300  0.92411100  1
  O  O88  1  0.38275700  0.92755500  0.20630700  1
  O  O89  1  0.55498900  0.65767300  0.32384800  1
  O  O90  1  0.39955200  0.77278500  0.43679100  1
  O  O91  1  0.42330800  0.98436000  0.69520200  1
  O  O92  1  0.11724300  0.07244500  0.70630700  1
  O  O93  1  0.92698700  0.16684100  0.80496200  1
  O  O94  1  0.45428900  0.94991400  0.42425700  1
  O  O95  1  0.19271000  0.82224300  0.31605800  1
  O  O96  1  0.11380800  0.87732000  0.45721900  1
  O  O97  1  0.38619200  0.12268000  0.95721900  1
  O  O98  1  0.92229100  0.62050700  0.42411100  1
  O  O99  1  0.07669200  0.01564000  0.19520200  1
  O  O100  1  0.07770900  0.12050700  0.07588900  1
  O  O101  1  0.72211600  0.97920100  0.16724300  1
  O  O102  1  0.07770900  0.37949300  0.57588900  1
  O  O103  1  0.80729000  0.32224300  0.18394200  1
  O  O104  1  0.88275700  0.92755500  0.29369300  1
  O  O105  1  0.57770900  0.37949300  0.92411100  1
  O  O106  1  0.26420200  0.91355200  0.95694800  1
  O  O107  1  0.92698700  0.33315900  0.30496200  1
  O  O108  1  0.38619200  0.37732000  0.45721900  1
  O  O109  1  0.92330800  0.98436000  0.80479800  1
  O  O110  1  0.60044800  0.22721500  0.56320900  1
  O  O111  1  0.57301300  0.83315900  0.30496200  1
  O  O112  1  0.30729000  0.17775700  0.81605800  1
  O  O113  1  0.36539000  0.77011200  0.71587600  1
  O  O114  1  0.89955200  0.72721500  0.56320900  1
  O  O115  1  0.27788400  0.02079900  0.83275700  1
  O  O116  1  0.94501100  0.15767300  0.32384800  1
  O  O117  1  0.60044800  0.27278500  0.06320900  1
  O  O118  1  0.45428900  0.55008600  0.92425700  1
  O  O119  1  0.83089700  0.35307000  0.68035400  1
  O  O120  1  0.54571100  0.05008600  0.57574300  1
  O  O121  1  0.22211600  0.97920100  0.33275700  1
  O  O122  1  0.57669200  0.48436000  0.80479800  1
  O  O123  1  0.95428900  0.55008600  0.57574300  1
  O  O124  1  0.05498900  0.65767300  0.17615200  1
  O  O125  1  0.66910300  0.64693000  0.18035400  1
  O  O126  1  0.04571100  0.05008600  0.92425700  1
  O  O127  1  0.77788400  0.02079900  0.66724300  1
  O  O128  1  0.57770900  0.12050700  0.42411100  1
  O  O129  1  0.33089700  0.35307000  0.81964600  1
  O  O130  1  0.42698700  0.16684100  0.69503800  1
  O  O131  1  0.61380800  0.87732000  0.04278100  1
  O  O132  1  0.11380800  0.62268000  0.95721900  1
  O  O133  1  0.16910300  0.64693000  0.31964600  1
  O  O134  1  0.04571100  0.44991400  0.42425700  1
  O  O135  1  0.23579800  0.41355200  0.95694800  1
  O  O136  1  0.26420200  0.58644800  0.45694800  1
  O  O137  1  0.95428900  0.94991400  0.07574300  1
  O  O138  1  0.55498900  0.84232700  0.82384800  1
  O  O139  1  0.88619200  0.12268000  0.54278100  1
  O  O140  1  0.39955200  0.72721500  0.93679100  1
  O  O141  1  0.33089700  0.14693000  0.31964600  1
  O  O142  1  0.11724300  0.42755500  0.20630700  1
  O  O143  1  0.27788400  0.47920100  0.33275700  1
  O  O144  1  0.42229100  0.87949300  0.57588900  1
  O  O145  1  0.30729000  0.32224300  0.31605800  1
  O  O146  1  0.07669200  0.48436000  0.69520200  1
  O  O147  1  0.89955200  0.77278500  0.06320900  1
  O  O148  1  0.05498900  0.84232700  0.67615200  1
  O  O149  1  0.86539000  0.72988800  0.28412400  1
  O  O150  1  0.57669200  0.01564000  0.30479800  1
  O  O151  1  0.36539000  0.72988800  0.21587600  1
