# generated using pymatgen
data_Mo2P2O11
_symmetry_space_group_name_H-M   'P 1'
_cell_length_a   6.39414000
_cell_length_b   10.67116700
_cell_length_c   12.78104100
_cell_angle_alpha   90.00000000
_cell_angle_beta   90.00000000
_cell_angle_gamma   90.00000000
_symmetry_Int_Tables_number   1
_chemical_formula_structural   Mo2P2O11
_chemical_formula_sum   'Mo8 P8 O44'
_cell_volume   872.08794952
_cell_formula_units_Z   4
loop_
 _symmetry_equiv_pos_site_id
 _symmetry_equiv_pos_as_xyz
  1  'x, y, z'
loop_
 _atom_site_type_symbol
 _atom_site_label
 _atom_site_symmetry_multiplicity
 _atom_site_fract_x
 _atom_site_fract_y
 _atom_site_fract_z
 _atom_site_occupancy
  Mo  Mo0  1  0.75000000  0.51175300  0.25037400  1
  Mo  Mo1  1  0.75000000  0.78128400  0.00612100  1
  Mo  Mo2  1  0.25000000  0.48824700  0.74962600  1
  Mo  Mo3  1  0.25000000  0.01175300  0.24962600  1
  Mo  Mo4  1  0.25000000  0.28128400  0.49387900  1
  Mo  Mo5  1  0.75000000  0.98824700  0.75037400  1
  Mo  Mo6  1  0.25000000  0.21871600  0.99387900  1
  Mo  Mo7  1  0.75000000  0.71871600  0.50612100  1
  P  P8  1  0.25000000  0.68939000  0.97687800  1
  P  P9  1  0.25000000  0.81061000  0.47687800  1
  P  P10  1  0.25000000  0.50463000  0.15819600  1
  P  P11  1  0.75000000  0.18939000  0.52312200  1
  P  P12  1  0.75000000  0.49537000  0.84180400  1
  P  P13  1  0.25000000  0.99537000  0.65819600  1
  P  P14  1  0.75000000  0.31061000  0.02312200  1
  P  P15  1  0.75000000  0.00463000  0.34180400  1
  O  O16  1  0.75000000  0.13064600  0.40882700  1
  O  O17  1  0.75000000  0.41467900  0.10319600  1
  O  O18  1  0.25000000  0.91467900  0.39680400  1
  O  O19  1  0.55656000  0.22558500  0.02675400  1
  O  O20  1  0.25000000  0.36534400  0.65723900  1
  O  O21  1  0.44335600  0.98100200  0.72850300  1
  O  O22  1  0.44344000  0.72558500  0.47324600  1
  O  O23  1  0.25000000  0.31382700  0.88164100  1
  O  O24  1  0.05656000  0.72558500  0.47324600  1
  O  O25  1  0.55656000  0.27441500  0.52675400  1
  O  O26  1  0.94335600  0.01899800  0.27149700  1
  O  O27  1  0.25000000  0.18617300  0.38164100  1
  O  O28  1  0.25000000  0.39144400  0.09026300  1
  O  O29  1  0.55664400  0.01899800  0.27149700  1
  O  O30  1  0.75000000  0.57036000  0.55576600  1
  O  O31  1  0.25000000  0.10855600  0.59026300  1
  O  O32  1  0.25000000  0.61780300  0.67273600  1
  O  O33  1  0.25000000  0.42964000  0.44423400  1
  O  O34  1  0.75000000  0.86534400  0.84276100  1
  O  O35  1  0.94335600  0.48100200  0.77149700  1
  O  O36  1  0.05656000  0.77441500  0.97324600  1
  O  O37  1  0.44344000  0.77441500  0.97324600  1
  O  O38  1  0.44335600  0.51899800  0.22850300  1
  O  O39  1  0.25000000  0.58532100  0.89680400  1
  O  O40  1  0.75000000  0.60855600  0.90973700  1
  O  O41  1  0.75000000  0.08532100  0.60319600  1
  O  O42  1  0.25000000  0.13465600  0.15723900  1
  O  O43  1  0.55664400  0.48100200  0.77149700  1
  O  O44  1  0.05664400  0.98100200  0.72850300  1
  O  O45  1  0.25000000  0.63064600  0.09117300  1
  O  O46  1  0.75000000  0.63465600  0.34276100  1
  O  O47  1  0.75000000  0.81382700  0.61835900  1
  O  O48  1  0.75000000  0.89144400  0.40973700  1
  O  O49  1  0.94344000  0.27441500  0.52675400  1
  O  O50  1  0.75000000  0.38219700  0.32726400  1
  O  O51  1  0.94344000  0.22558500  0.02675400  1
  O  O52  1  0.05664400  0.51899800  0.22850300  1
  O  O53  1  0.75000000  0.11780300  0.82726400  1
  O  O54  1  0.25000000  0.88219700  0.17273600  1
  O  O55  1  0.75000000  0.68617300  0.11835900  1
  O  O56  1  0.75000000  0.92964000  0.05576600  1
  O  O57  1  0.75000000  0.36935400  0.90882700  1
  O  O58  1  0.25000000  0.86935400  0.59117300  1
  O  O59  1  0.25000000  0.07036000  0.94423400  1
