# generated using pymatgen
data_Tm15S22
_symmetry_space_group_name_H-M   'P 1'
_cell_length_a   19.37211957
_cell_length_b   19.37211957
_cell_length_c   11.19781461
_cell_angle_alpha   89.08136278
_cell_angle_beta   89.08136278
_cell_angle_gamma   11.40836379
_symmetry_Int_Tables_number   1
_chemical_formula_structural   Tm15S22
_chemical_formula_sum   'Tm15 S22'
_cell_volume   831.10982211
_cell_formula_units_Z   1
loop_
 _symmetry_equiv_pos_site_id
 _symmetry_equiv_pos_as_xyz
  1  'x, y, z'
loop_
 _atom_site_type_symbol
 _atom_site_label
 _atom_site_symmetry_multiplicity
 _atom_site_fract_x
 _atom_site_fract_y
 _atom_site_fract_z
 _atom_site_occupancy
  Tm  Tm0  1  0.23445400  0.23445400  0.35297700  1
  Tm  Tm1  1  0.43102100  0.43102100  0.35716700  1
  Tm  Tm2  1  0.56897900  0.56897900  0.64283300  1
  Tm  Tm3  1  0.76554600  0.76554600  0.64702300  1
  Tm  Tm4  1  0.39507200  0.39507200  0.01055400  1
  Tm  Tm5  1  0.60492800  0.60492800  0.98944600  1
  Tm  Tm6  1  0.03950300  0.03950300  0.27245300  1
  Tm  Tm7  1  0.86670900  0.86670900  0.65750300  1
  Tm  Tm8  1  0.13329100  0.13329100  0.34249700  1
  Tm  Tm9  1  0.70121900  0.70121900  0.05678600  1
  Tm  Tm10  1  0.15709100  0.15709000  0.69444500  1
  Tm  Tm11  1  0.96049700  0.96049700  0.72754700  1
  Tm  Tm12  1  0.50000000  0.50000000  0.00000000  1
  Tm  Tm13  1  0.84290900  0.84290900  0.30555500  1
  Tm  Tm14  1  0.29878100  0.29878100  0.94321400  1
  S  S15  1  0.40993600  0.40993600  0.75183400  1
  S  S16  1  0.05271300  0.05271300  0.49790500  1
  S  S17  1  0.94728700  0.94728700  0.50209500  1
  S  S18  1  0.95110600  0.95110600  0.96849100  1
  S  S19  1  0.22015300  0.22015300  0.59197700  1
  S  S20  1  0.77984700  0.77984700  0.40802300  1
  S  S21  1  0.68620700  0.68620700  0.30749800  1
  S  S22  1  0.66669000  0.66669000  0.85058700  1
  S  S23  1  0.33331000  0.33331000  0.14941300  1
  S  S24  1  0.31379300  0.31379300  0.69250200  1
  S  S25  1  0.49275500  0.49275500  0.23849500  1
  S  S26  1  0.75510500  0.75510500  0.87963400  1
  S  S27  1  0.50724500  0.50724500  0.76150500  1
  S  S28  1  0.04889400  0.04889400  0.03150900  1
  S  S29  1  0.63383500  0.63383500  0.53851600  1
  S  S30  1  0.85295600  0.85295600  0.90739100  1
  S  S31  1  0.09295400  0.09295400  0.79371100  1
  S  S32  1  0.24489500  0.24489500  0.12036600  1
  S  S33  1  0.90704600  0.90704600  0.20628900  1
  S  S34  1  0.14704400  0.14704400  0.09260900  1
  S  S35  1  0.59006400  0.59006400  0.24816600  1
  S  S36  1  0.36616500  0.36616500  0.46148400  1
