# generated using pymatgen
data_Na2Zr(SiO3)6
_symmetry_space_group_name_H-M   'P 1'
_cell_length_a   7.24653600
_cell_length_b   14.63571500
_cell_length_c   14.90571900
_cell_angle_alpha   90.00000000
_cell_angle_beta   90.00000000
_cell_angle_gamma   90.00000000
_symmetry_Int_Tables_number   1
_chemical_formula_structural   Na2Zr(SiO3)6
_chemical_formula_sum   'Na8 Zr4 Si24 O72'
_cell_volume   1580.87425798
_cell_formula_units_Z   4
loop_
 _symmetry_equiv_pos_site_id
 _symmetry_equiv_pos_as_xyz
  1  'x, y, z'
loop_
 _atom_site_type_symbol
 _atom_site_label
 _atom_site_symmetry_multiplicity
 _atom_site_fract_x
 _atom_site_fract_y
 _atom_site_fract_z
 _atom_site_occupancy
  Na  Na0  1  0.46619400  0.75000000  0.76539600  1
  Na  Na1  1  0.53380600  0.25000000  0.23460400  1
  Na  Na2  1  0.46619400  0.25000000  0.73460400  1
  Na  Na3  1  0.53380600  0.75000000  0.26539600  1
  Na  Na4  1  0.99161300  0.50000000  0.75000000  1
  Na  Na5  1  0.00838700  0.00000000  0.25000000  1
  Na  Na6  1  0.00838700  0.50000000  0.25000000  1
  Na  Na7  1  0.99161300  0.00000000  0.75000000  1
  Zr  Zr8  1  0.49325200  0.50000000  0.75000000  1
  Zr  Zr9  1  0.50674800  0.00000000  0.25000000  1
  Zr  Zr10  1  0.50674800  0.50000000  0.25000000  1
  Zr  Zr11  1  0.49325200  0.00000000  0.75000000  1
  Si  Si12  1  0.77221600  0.64402200  0.61208600  1
  Si  Si13  1  0.22778400  0.14402200  0.38791400  1
  Si  Si14  1  0.77221600  0.35597800  0.88791400  1
  Si  Si15  1  0.22778400  0.85597800  0.11208600  1
  Si  Si16  1  0.22778400  0.35597800  0.38791400  1
  Si  Si17  1  0.77221600  0.85597800  0.61208600  1
  Si  Si18  1  0.22778400  0.64402200  0.11208600  1
  Si  Si19  1  0.77221600  0.14402200  0.88791400  1
  Si  Si20  1  0.50825000  0.64058100  0.95299100  1
  Si  Si21  1  0.49175000  0.14058100  0.04700900  1
  Si  Si22  1  0.50825000  0.35941900  0.54700900  1
  Si  Si23  1  0.49175000  0.85941900  0.45299100  1
  Si  Si24  1  0.49175000  0.35941900  0.04700900  1
  Si  Si25  1  0.50825000  0.85941900  0.95299100  1
  Si  Si26  1  0.49175000  0.64058100  0.45299100  1
  Si  Si27  1  0.50825000  0.14058100  0.54700900  1
  Si  Si28  1  0.21540000  0.64240600  0.60655000  1
  Si  Si29  1  0.78460000  0.14240600  0.39345000  1
  Si  Si30  1  0.21540000  0.35759400  0.89345000  1
  Si  Si31  1  0.78460000  0.85759400  0.10655000  1
  Si  Si32  1  0.78460000  0.35759400  0.39345000  1
  Si  Si33  1  0.21540000  0.85759400  0.60655000  1
  Si  Si34  1  0.78460000  0.64240600  0.10655000  1
  Si  Si35  1  0.21540000  0.14240600  0.89345000  1
  O  O36  1  0.99319900  0.63373600  0.59534400  1
  O  O37  1  0.00680100  0.13373600  0.40465600  1
  O  O38  1  0.99319900  0.36626400  0.90465600  1
  O  O39  1  0.00680100  0.86626400  0.09534400  1
  O  O40  1  0.00680100  0.36626400  0.40465600  1
  O  O41  1  0.99319900  0.86626400  0.59534400  1
  O  O42  1  0.00680100  0.63373600  0.09534400  1
  O  O43  1  0.99319900  0.13373600  0.90465600  1
  O  O44  1  0.72413100  0.75000000  0.64410800  1
  O  O45  1  0.27586900  0.25000000  0.35589200  1
  O  O46  1  0.72413100  0.25000000  0.85589200  1
  O  O47  1  0.27586900  0.75000000  0.14410800  1
  O  O48  1  0.70992000  0.57681600  0.69181300  1
  O  O49  1  0.29008000  0.07681600  0.30818700  1
  O  O50  1  0.70992000  0.42318400  0.80818700  1
  O  O51  1  0.29008000  0.92318400  0.19181300  1
  O  O52  1  0.29008000  0.42318400  0.30818700  1
  O  O53  1  0.70992000  0.92318400  0.69181300  1
  O  O54  1  0.29008000  0.57681600  0.19181300  1
  O  O55  1  0.70992000  0.07681600  0.80818700  1
  O  O56  1  0.67295400  0.62306300  0.51645400  1
  O  O57  1  0.32704600  0.12306300  0.48354600  1
  O  O58  1  0.67295400  0.37693700  0.98354600  1
  O  O59  1  0.32704600  0.87693700  0.01645400  1
  O  O60  1  0.32704600  0.37693700  0.48354600  1
  O  O61  1  0.67295400  0.87693700  0.51645400  1
  O  O62  1  0.32704600  0.62306300  0.01645400  1
  O  O63  1  0.67295400  0.12306300  0.98354600  1
  O  O64  1  0.51503600  0.75000000  0.92620200  1
  O  O65  1  0.48496400  0.25000000  0.07379800  1
  O  O66  1  0.51503600  0.25000000  0.57379800  1
  O  O67  1  0.48496400  0.75000000  0.42620200  1
  O  O68  1  0.49323800  0.58801600  0.85925100  1
  O  O69  1  0.50676200  0.08801600  0.14074900  1
  O  O70  1  0.49323800  0.41198400  0.64074900  1
  O  O71  1  0.50676200  0.91198400  0.35925100  1
  O  O72  1  0.50676200  0.41198400  0.14074900  1
  O  O73  1  0.49323800  0.91198400  0.85925100  1
  O  O74  1  0.50676200  0.58801600  0.35925100  1
  O  O75  1  0.49323800  0.08801600  0.64074900  1
  O  O76  1  0.30664300  0.61396800  0.51057400  1
  O  O77  1  0.69335700  0.11396800  0.48942600  1
  O  O78  1  0.30664300  0.38603200  0.98942600  1
  O  O79  1  0.69335700  0.88603200  0.01057400  1
  O  O80  1  0.69335700  0.38603200  0.48942600  1
  O  O81  1  0.30664300  0.88603200  0.51057400  1
  O  O82  1  0.69335700  0.61396800  0.01057400  1
  O  O83  1  0.30664300  0.11396800  0.98942600  1
  O  O84  1  0.27080900  0.75000000  0.63065100  1
  O  O85  1  0.72919100  0.25000000  0.36934900  1
  O  O86  1  0.27080900  0.25000000  0.86934900  1
  O  O87  1  0.72919100  0.75000000  0.13065100  1
  O  O88  1  0.28326700  0.58053700  0.68981200  1
  O  O89  1  0.71673300  0.08053700  0.31018800  1
  O  O90  1  0.28326700  0.41946300  0.81018800  1
  O  O91  1  0.71673300  0.91946300  0.18981200  1
  O  O92  1  0.71673300  0.41946300  0.31018800  1
  O  O93  1  0.28326700  0.91946300  0.68981200  1
  O  O94  1  0.71673300  0.58053700  0.18981200  1
  O  O95  1  0.28326700  0.08053700  0.81018800  1
  O  O96  1  0.02449600  0.67462900  0.86930900  1
  O  O97  1  0.97550400  0.17462900  0.13069100  1
  O  O98  1  0.02449600  0.32537100  0.63069100  1
  O  O99  1  0.97550400  0.82537100  0.36930900  1
  O  O100  1  0.97550400  0.32537100  0.13069100  1
  O  O101  1  0.02449600  0.82537100  0.86930900  1
  O  O102  1  0.97550400  0.67462900  0.36930900  1
  O  O103  1  0.02449600  0.17462900  0.63069100  1
  O  O104  1  0.09796900  0.75000000  0.84264100  1
  O  O105  1  0.90203100  0.25000000  0.15735900  1
  O  O106  1  0.09796900  0.25000000  0.65735900  1
  O  O107  1  0.90203100  0.75000000  0.34264100  1
