# generated using pymatgen
data_KC2N3
_symmetry_space_group_name_H-M   'P 1'
_cell_length_a   4.03438800
_cell_length_b   8.55393900
_cell_length_c   12.73678200
_cell_angle_alpha   90.00000000
_cell_angle_beta   90.00000000
_cell_angle_gamma   90.00000000
_symmetry_Int_Tables_number   1
_chemical_formula_structural   KC2N3
_chemical_formula_sum   'K4 C8 N12'
_cell_volume   439.54518592
_cell_formula_units_Z   4
loop_
 _symmetry_equiv_pos_site_id
 _symmetry_equiv_pos_as_xyz
  1  'x, y, z'
loop_
 _atom_site_type_symbol
 _atom_site_label
 _atom_site_symmetry_multiplicity
 _atom_site_fract_x
 _atom_site_fract_y
 _atom_site_fract_z
 _atom_site_occupancy
  K  K0  1  0.25000000  0.62446300  0.36947200  1
  K  K1  1  0.75000000  0.37553700  0.63052800  1
  K  K2  1  0.75000000  0.87553700  0.86947200  1
  K  K3  1  0.25000000  0.12446300  0.13052800  1
  C  C4  1  0.75000000  0.26134500  0.37361100  1
  C  C5  1  0.25000000  0.01146100  0.62784900  1
  C  C6  1  0.25000000  0.73865500  0.62638900  1
  C  C7  1  0.75000000  0.76134500  0.12638900  1
  C  C8  1  0.25000000  0.51146100  0.87215100  1
  C  C9  1  0.25000000  0.23865500  0.87361100  1
  C  C10  1  0.75000000  0.48853900  0.12784900  1
  C  C11  1  0.75000000  0.98853900  0.37215100  1
  N  N12  1  0.75000000  0.39244200  0.40402000  1
  N  N13  1  0.25000000  0.64496500  0.89639700  1
  N  N14  1  0.25000000  0.10755800  0.90402000  1
  N  N15  1  0.75000000  0.89244200  0.09598000  1
  N  N16  1  0.75000000  0.12576100  0.32821700  1
  N  N17  1  0.75000000  0.62576100  0.17178300  1
  N  N18  1  0.25000000  0.14496500  0.60360300  1
  N  N19  1  0.25000000  0.87423900  0.67178300  1
  N  N20  1  0.25000000  0.37423900  0.82821700  1
  N  N21  1  0.75000000  0.85503500  0.39639700  1
  N  N22  1  0.75000000  0.35503500  0.10360300  1
  N  N23  1  0.25000000  0.60755800  0.59598000  1
