# generated using pymatgen
data_Na2MoO6
_symmetry_space_group_name_H-M   'P 1'
_cell_length_a   9.42148100
_cell_length_b   10.26281400
_cell_length_c   11.74753400
_cell_angle_alpha   90.00000000
_cell_angle_beta   90.00000000
_cell_angle_gamma   90.00000000
_symmetry_Int_Tables_number   1
_chemical_formula_structural   Na2MoO6
_chemical_formula_sum   'Na16 Mo8 O48'
_cell_volume   1135.87971874
_cell_formula_units_Z   8
loop_
 _symmetry_equiv_pos_site_id
 _symmetry_equiv_pos_as_xyz
  1  'x, y, z'
loop_
 _atom_site_type_symbol
 _atom_site_label
 _atom_site_symmetry_multiplicity
 _atom_site_fract_x
 _atom_site_fract_y
 _atom_site_fract_z
 _atom_site_occupancy
  Na  Na0  1  0.43912200  0.99957200  0.26412000  1
  Na  Na1  1  0.93912200  0.50042800  0.73588000  1
  Na  Na2  1  0.56087800  0.49957200  0.23588000  1
  Na  Na3  1  0.06087800  0.00042800  0.76412000  1
  Na  Na4  1  0.56087800  0.00042800  0.73588000  1
  Na  Na5  1  0.06087800  0.49957200  0.26412000  1
  Na  Na6  1  0.43912200  0.50042800  0.76412000  1
  Na  Na7  1  0.93912200  0.99957200  0.23588000  1
  Na  Na8  1  0.97749000  0.76009600  0.54176000  1
  Na  Na9  1  0.47749000  0.73990400  0.45824000  1
  Na  Na10  1  0.02251000  0.26009600  0.95824000  1
  Na  Na11  1  0.52251000  0.23990400  0.04176000  1
  Na  Na12  1  0.02251000  0.23990400  0.45824000  1
  Na  Na13  1  0.52251000  0.26009600  0.54176000  1
  Na  Na14  1  0.97749000  0.73990400  0.04176000  1
  Na  Na15  1  0.47749000  0.76009600  0.95824000  1
  Mo  Mo16  1  0.74868800  0.03863100  0.48716700  1
  Mo  Mo17  1  0.24868800  0.46136900  0.51283300  1
  Mo  Mo18  1  0.25131200  0.53863100  0.01283300  1
  Mo  Mo19  1  0.75131200  0.96136900  0.98716700  1
  Mo  Mo20  1  0.25131200  0.96136900  0.51283300  1
  Mo  Mo21  1  0.75131200  0.53863100  0.48716700  1
  Mo  Mo22  1  0.74868800  0.46136900  0.98716700  1
  Mo  Mo23  1  0.24868800  0.03863100  0.01283300  1
  O  O24  1  0.69679600  0.04623700  0.33919200  1
  O  O25  1  0.19679600  0.45376300  0.66080800  1
  O  O26  1  0.30320400  0.54623700  0.16080800  1
  O  O27  1  0.80320400  0.95376300  0.83919200  1
  O  O28  1  0.30320400  0.95376300  0.66080800  1
  O  O29  1  0.80320400  0.54623700  0.33919200  1
  O  O30  1  0.69679600  0.45376300  0.83919200  1
  O  O31  1  0.19679600  0.04623700  0.16080800  1
  O  O32  1  0.54206500  0.03989800  0.53713200  1
  O  O33  1  0.04206500  0.46010200  0.46286800  1
  O  O34  1  0.45793500  0.53989800  0.96286800  1
  O  O35  1  0.95793500  0.96010200  0.03713200  1
  O  O36  1  0.45793500  0.96010200  0.46286800  1
  O  O37  1  0.95793500  0.53989800  0.53713200  1
  O  O38  1  0.54206500  0.46010200  0.03713200  1
  O  O39  1  0.04206500  0.03989800  0.96286800  1
  O  O40  1  0.75784800  0.11198700  0.62662200  1
  O  O41  1  0.25784800  0.38801300  0.37337800  1
  O  O42  1  0.24215200  0.61198700  0.87337800  1
  O  O43  1  0.74215200  0.88801300  0.12662200  1
  O  O44  1  0.24215200  0.88801300  0.37337800  1
  O  O45  1  0.74215200  0.61198700  0.62662200  1
  O  O46  1  0.75784800  0.38801300  0.12662200  1
  O  O47  1  0.25784800  0.11198700  0.87337800  1
  O  O48  1  0.96040500  0.02118100  0.44909200  1
  O  O49  1  0.46040500  0.47881900  0.55090800  1
  O  O50  1  0.03959500  0.52118100  0.05090800  1
  O  O51  1  0.53959500  0.97881900  0.94909200  1
  O  O52  1  0.03959500  0.97881900  0.55090800  1
  O  O53  1  0.53959500  0.52118100  0.44909200  1
  O  O54  1  0.96040500  0.47881900  0.94909200  1
  O  O55  1  0.46040500  0.02118100  0.05090800  1
  O  O56  1  0.75221600  0.24852800  0.43621500  1
  O  O57  1  0.25221600  0.25147200  0.56378500  1
  O  O58  1  0.24778400  0.74852800  0.06378500  1
  O  O59  1  0.74778400  0.75147200  0.93621500  1
  O  O60  1  0.24778400  0.75147200  0.56378500  1
  O  O61  1  0.74778400  0.74852800  0.43621500  1
  O  O62  1  0.75221600  0.25147200  0.93621500  1
  O  O63  1  0.25221600  0.24852800  0.06378500  1
  O  O64  1  0.74125600  0.85040700  0.52405000  1
  O  O65  1  0.24125600  0.64959300  0.47595000  1
  O  O66  1  0.25874400  0.35040700  0.97595000  1
  O  O67  1  0.75874400  0.14959300  0.02405000  1
  O  O68  1  0.25874400  0.14959300  0.47595000  1
  O  O69  1  0.75874400  0.35040700  0.52405000  1
  O  O70  1  0.74125600  0.64959300  0.02405000  1
  O  O71  1  0.24125600  0.85040700  0.97595000  1
