# generated using pymatgen
data_BaV13O18
_symmetry_space_group_name_H-M   'P 1'
_cell_length_a   7.30101500
_cell_length_b   7.90108382
_cell_length_c   7.98197979
_cell_angle_alpha   109.98549664
_cell_angle_beta   108.65364743
_cell_angle_gamma   107.00215854
_symmetry_Int_Tables_number   1
_chemical_formula_structural   BaV13O18
_chemical_formula_sum   'Ba1 V13 O18'
_cell_volume   365.88954986
_cell_formula_units_Z   1
loop_
 _symmetry_equiv_pos_site_id
 _symmetry_equiv_pos_as_xyz
  1  'x, y, z'
loop_
 _atom_site_type_symbol
 _atom_site_label
 _atom_site_symmetry_multiplicity
 _atom_site_fract_x
 _atom_site_fract_y
 _atom_site_fract_z
 _atom_site_occupancy
  Ba  Ba0  1  0.00000000  0.00000000  0.00000000  1
  V  V1  1  0.60003400  0.37295900  0.94827100  1
  V  V2  1  0.66404400  0.05957700  0.42206700  1
  V  V3  1  0.24296100  0.59384600  0.63782000  1
  V  V4  1  0.39996600  0.62704100  0.05172900  1
  V  V5  1  0.33595600  0.94042300  0.57793300  1
  V  V6  1  0.75703900  0.40615400  0.36218000  1
  V  V7  1  0.08122000  0.51379600  0.19399400  1
  V  V8  1  0.87859300  0.79668700  0.30752400  1
  V  V9  1  0.57301100  0.69172900  0.48730000  1
  V  V10  1  0.91878000  0.48620400  0.80600600  1
  V  V11  1  0.12140700  0.20331300  0.69247600  1
  V  V12  1  0.42698900  0.30827100  0.51270000  1
  V  V13  1  0.50000000  0.00000000  0.00000000  1
  O  O14  1  0.61135400  0.21907600  0.67690800  1
  O  O15  1  0.95171100  0.33568300  0.55161100  1
  O  O16  1  0.39400600  0.45935000  0.77674800  1
  O  O17  1  0.38864600  0.78092400  0.32309200  1
  O  O18  1  0.04828900  0.66431700  0.44838900  1
  O  O19  1  0.60599400  0.54065000  0.22325200  1
  O  O20  1  0.89558300  0.63302300  0.05912300  1
  O  O21  1  0.84195300  0.92781800  0.55907000  1
  O  O22  1  0.28327800  0.44511400  0.38466600  1
  O  O23  1  0.10441700  0.36697700  0.94087700  1
  O  O24  1  0.15804700  0.07218200  0.44093000  1
  O  O25  1  0.71672200  0.55488600  0.61533400  1
  O  O26  1  0.47985800  0.16993400  0.27033000  1
  O  O27  1  0.21491800  0.72655900  0.89527900  1
  O  O28  1  0.68679500  0.88883200  0.16509800  1
  O  O29  1  0.78508200  0.27344100  0.10472100  1
  O  O30  1  0.52014200  0.83006600  0.72967000  1
  O  O31  1  0.31320500  0.11116800  0.83490200  1
