# generated using pymatgen
data_CeCu
_symmetry_space_group_name_H-M   'P 1'
_cell_length_a   4.19966200
_cell_length_b   6.14862600
_cell_length_c   7.04431700
_cell_angle_alpha   90.00000000
_cell_angle_beta   90.00000000
_cell_angle_gamma   90.00000000
_symmetry_Int_Tables_number   1
_chemical_formula_structural   CeCu
_chemical_formula_sum   'Ce4 Cu4'
_cell_volume   181.89941702
_cell_formula_units_Z   4
loop_
 _symmetry_equiv_pos_site_id
 _symmetry_equiv_pos_as_xyz
  1  'x, y, z'
loop_
 _atom_site_type_symbol
 _atom_site_label
 _atom_site_symmetry_multiplicity
 _atom_site_fract_x
 _atom_site_fract_y
 _atom_site_fract_z
 _atom_site_occupancy
  Ce  Ce0  1  0.75000000  0.35369900  0.33247900  1
  Ce  Ce1  1  0.25000000  0.85369900  0.16752100  1
  Ce  Ce2  1  0.25000000  0.64630100  0.66752100  1
  Ce  Ce3  1  0.75000000  0.14630100  0.83247900  1
  Cu  Cu4  1  0.25000000  0.10505100  0.54065600  1
  Cu  Cu5  1  0.75000000  0.89494900  0.45934400  1
  Cu  Cu6  1  0.25000000  0.39494900  0.04065600  1
  Cu  Cu7  1  0.75000000  0.60505100  0.95934400  1
