# generated using pymatgen
data_YOF
_symmetry_space_group_name_H-M   'P 1'
_cell_length_a   4.10335566
_cell_length_b   4.10335566
_cell_length_c   5.36429005
_cell_angle_alpha   76.45427972
_cell_angle_beta   76.45427972
_cell_angle_gamma   59.52934380
_symmetry_Int_Tables_number   1
_chemical_formula_structural   YOF
_chemical_formula_sum   'Y2 O2 F2'
_cell_volume   74.95976708
_cell_formula_units_Z   2
loop_
 _symmetry_equiv_pos_site_id
 _symmetry_equiv_pos_as_xyz
  1  'x, y, z'
loop_
 _atom_site_type_symbol
 _atom_site_label
 _atom_site_symmetry_multiplicity
 _atom_site_fract_x
 _atom_site_fract_y
 _atom_site_fract_z
 _atom_site_occupancy
  Y  Y0  1  0.21132300  0.21132300  0.76747600  1
  Y  Y1  1  0.78867700  0.78867700  0.23252400  1
  O  O2  1  0.87724400  0.87724400  0.82658600  1
  O  O3  1  0.12275600  0.12275600  0.17341400  1
  F  F4  1  0.59759000  0.59759000  0.64837000  1
  F  F5  1  0.40241000  0.40241000  0.35163000  1
