# generated using pymatgen
data_MnAgO4
_symmetry_space_group_name_H-M   'P 1'
_cell_length_a   6.16609700
_cell_length_b   7.14809300
_cell_length_c   8.22882000
_cell_angle_alpha   90.00000000
_cell_angle_beta   90.00000000
_cell_angle_gamma   90.00000000
_symmetry_Int_Tables_number   1
_chemical_formula_structural   MnAgO4
_chemical_formula_sum   'Mn4 Ag4 O16'
_cell_volume   362.69211094
_cell_formula_units_Z   4
loop_
 _symmetry_equiv_pos_site_id
 _symmetry_equiv_pos_as_xyz
  1  'x, y, z'
loop_
 _atom_site_type_symbol
 _atom_site_label
 _atom_site_symmetry_multiplicity
 _atom_site_fract_x
 _atom_site_fract_y
 _atom_site_fract_z
 _atom_site_occupancy
  Mn  Mn0  1  0.75000000  0.15631600  0.52624000  1
  Mn  Mn1  1  0.25000000  0.65631600  0.97376000  1
  Mn  Mn2  1  0.25000000  0.84368400  0.47376000  1
  Mn  Mn3  1  0.75000000  0.34368400  0.02624000  1
  Ag  Ag4  1  0.75000000  0.82767800  0.19976900  1
  Ag  Ag5  1  0.25000000  0.32767800  0.30023100  1
  Ag  Ag6  1  0.25000000  0.17232200  0.80023100  1
  Ag  Ag7  1  0.75000000  0.67232200  0.69976900  1
  O  O8  1  0.75000000  0.97287400  0.64443600  1
  O  O9  1  0.25000000  0.47287400  0.85556400  1
  O  O10  1  0.25000000  0.02712600  0.35556400  1
  O  O11  1  0.75000000  0.52712600  0.14443600  1
  O  O12  1  0.75000000  0.08642000  0.33699600  1
  O  O13  1  0.25000000  0.58642000  0.16300400  1
  O  O14  1  0.25000000  0.91358000  0.66300400  1
  O  O15  1  0.75000000  0.41358000  0.83699600  1
  O  O16  1  0.53315300  0.28016600  0.55857800  1
  O  O17  1  0.03315300  0.78016600  0.94142200  1
  O  O18  1  0.46684700  0.71983400  0.44142200  1
  O  O19  1  0.96684700  0.21983400  0.05857800  1
  O  O20  1  0.96684700  0.28016600  0.55857800  1
  O  O21  1  0.46684700  0.78016600  0.94142200  1
  O  O22  1  0.03315300  0.71983400  0.44142200  1
  O  O23  1  0.53315300  0.21983400  0.05857800  1
