# generated using pymatgen
data_MoH4O5
_symmetry_space_group_name_H-M   'P 1'
_cell_length_a   4.13545300
_cell_length_b   6.77993132
_cell_length_c   7.56570945
_cell_angle_alpha   90.69929795
_cell_angle_beta   90.45372356
_cell_angle_gamma   106.72303284
_symmetry_Int_Tables_number   1
_chemical_formula_structural   MoH4O5
_chemical_formula_sum   'Mo2 H8 O10'
_cell_volume   203.12686703
_cell_formula_units_Z   2
loop_
 _symmetry_equiv_pos_site_id
 _symmetry_equiv_pos_as_xyz
  1  'x, y, z'
loop_
 _atom_site_type_symbol
 _atom_site_label
 _atom_site_symmetry_multiplicity
 _atom_site_fract_x
 _atom_site_fract_y
 _atom_site_fract_z
 _atom_site_occupancy
  Mo  Mo0  1  0.91974600  0.00203400  0.74985800  1
  Mo  Mo1  1  0.08025400  0.99796600  0.25014200  1
  H  H2  1  0.65804200  0.58624100  0.09717000  1
  H  H3  1  0.34195800  0.41375900  0.90283000  1
  H  H4  1  0.33844800  0.41411500  0.40279500  1
  H  H5  1  0.66155200  0.58588500  0.59720500  1
  H  H6  1  0.73964400  0.62404800  0.85027100  1
  H  H7  1  0.27289500  0.37260000  0.64731000  1
  H  H8  1  0.26035600  0.37595200  0.14972900  1
  H  H9  1  0.72710500  0.62740000  0.35269000  1
  O  O10  1  0.00000000  0.00000000  0.00000000  1
  O  O11  1  0.00000000  0.00000000  0.50000000  1
  O  O12  1  0.50000000  0.50000000  0.00000000  1
  O  O13  1  0.50000000  0.50000000  0.50000000  1
  O  O14  1  0.50158100  0.00267900  0.75105700  1
  O  O15  1  0.49841900  0.99732100  0.24894300  1
  O  O16  1  0.85655100  0.70454500  0.74269900  1
  O  O17  1  0.14785600  0.29619500  0.75503700  1
  O  O18  1  0.14344900  0.29545500  0.25730100  1
  O  O19  1  0.85214400  0.70380500  0.24496300  1
