# generated using pymatgen
data_BaBe2Si2O7
_symmetry_space_group_name_H-M   'P 1'
_cell_length_a   4.73654100
_cell_length_b   9.91903600
_cell_length_c   11.85051800
_cell_angle_alpha   90.00000000
_cell_angle_beta   90.00000000
_cell_angle_gamma   90.00000000
_symmetry_Int_Tables_number   1
_chemical_formula_structural   BaBe2Si2O7
_chemical_formula_sum   'Ba4 Be8 Si8 O28'
_cell_volume   556.76009686
_cell_formula_units_Z   4
loop_
 _symmetry_equiv_pos_site_id
 _symmetry_equiv_pos_as_xyz
  1  'x, y, z'
loop_
 _atom_site_type_symbol
 _atom_site_label
 _atom_site_symmetry_multiplicity
 _atom_site_fract_x
 _atom_site_fract_y
 _atom_site_fract_z
 _atom_site_occupancy
  Ba  Ba0  1  0.74913200  0.15108800  0.75000000  1
  Ba  Ba1  1  0.25086800  0.84891200  0.25000000  1
  Ba  Ba2  1  0.75086800  0.65108800  0.75000000  1
  Ba  Ba3  1  0.24913200  0.34891200  0.25000000  1
  Be  Be4  1  0.20706500  0.66310200  0.50027700  1
  Be  Be5  1  0.70706500  0.83689800  0.00027700  1
  Be  Be6  1  0.79293500  0.33689800  0.00027700  1
  Be  Be7  1  0.70706500  0.83689800  0.49972300  1
  Be  Be8  1  0.29293500  0.16310200  0.99972300  1
  Be  Be9  1  0.20706500  0.66310200  0.99972300  1
  Be  Be10  1  0.79293500  0.33689800  0.49972300  1
  Be  Be11  1  0.29293500  0.16310200  0.50027700  1
  Si  Si12  1  0.70438500  0.58911300  0.12162100  1
  Si  Si13  1  0.29561500  0.41088700  0.87837900  1
  Si  Si14  1  0.20438500  0.91088700  0.62162100  1
  Si  Si15  1  0.79561500  0.08911300  0.37837900  1
  Si  Si16  1  0.29561500  0.41088700  0.62162100  1
  Si  Si17  1  0.20438500  0.91088700  0.87837900  1
  Si  Si18  1  0.79561500  0.08911300  0.12162100  1
  Si  Si19  1  0.70438500  0.58911300  0.37837900  1
  O  O20  1  0.63429800  0.18928800  0.46849800  1
  O  O21  1  0.28475700  0.06955500  0.61260000  1
  O  O22  1  0.36570200  0.81071200  0.96849800  1
  O  O23  1  0.86570200  0.68928800  0.46849800  1
  O  O24  1  0.63429800  0.18928800  0.03150200  1
  O  O25  1  0.21524300  0.56955500  0.61260000  1
  O  O26  1  0.13567100  0.11101000  0.11231500  1
  O  O27  1  0.71524300  0.93044500  0.38740000  1
  O  O28  1  0.69949700  0.14324100  0.25000000  1
  O  O29  1  0.28475700  0.06955500  0.88740000  1
  O  O30  1  0.78475700  0.43044500  0.11260000  1
  O  O31  1  0.36432900  0.61101000  0.38768500  1
  O  O32  1  0.30050300  0.85675900  0.75000000  1
  O  O33  1  0.13429800  0.31071200  0.96849800  1
  O  O34  1  0.63567100  0.38899000  0.61231500  1
  O  O35  1  0.78475700  0.43044500  0.38740000  1
  O  O36  1  0.13567100  0.11101000  0.38768500  1
  O  O37  1  0.21524300  0.56955500  0.88740000  1
  O  O38  1  0.80050300  0.64324100  0.25000000  1
  O  O39  1  0.71524300  0.93044500  0.11260000  1
  O  O40  1  0.36432900  0.61101000  0.11231500  1
  O  O41  1  0.86570200  0.68928800  0.03150200  1
  O  O42  1  0.19949700  0.35675900  0.75000000  1
  O  O43  1  0.86432900  0.88899000  0.61231500  1
  O  O44  1  0.63567100  0.38899000  0.88768500  1
  O  O45  1  0.36570200  0.81071200  0.53150200  1
  O  O46  1  0.86432900  0.88899000  0.88768500  1
  O  O47  1  0.13429800  0.31071200  0.53150200  1
