# generated using pymatgen
data_Ca2Ta2O7
_symmetry_space_group_name_H-M   'P 1'
_cell_length_a   7.42489403
_cell_length_b   7.42489403
_cell_length_c   48.80940400
_cell_angle_alpha   90.00000000
_cell_angle_beta   90.00000000
_cell_angle_gamma   119.86112613
_symmetry_Int_Tables_number   1
_chemical_formula_structural   Ca2Ta2O7
_chemical_formula_sum   'Ca32 Ta32 O112'
_cell_volume   2333.56929177
_cell_formula_units_Z   16
loop_
 _symmetry_equiv_pos_site_id
 _symmetry_equiv_pos_as_xyz
  1  'x, y, z'
loop_
 _atom_site_type_symbol
 _atom_site_label
 _atom_site_symmetry_multiplicity
 _atom_site_fract_x
 _atom_site_fract_y
 _atom_site_fract_z
 _atom_site_occupancy
  Ca  Ca0  1  0.74706600  0.74409100  0.06217400  1
  Ca  Ca1  1  0.42025300  0.58487800  0.87574000  1
  Ca  Ca2  1  0.76155900  0.24699000  0.56468200  1
  Ca  Ca3  1  0.75301000  0.23844100  0.43531800  1
  Ca  Ca4  1  0.41135700  0.56765300  0.68732400  1
  Ca  Ca5  1  0.94249800  0.09952200  0.31074000  1
  Ca  Ca6  1  0.56765300  0.41135700  0.81267600  1
  Ca  Ca7  1  0.74409100  0.74706600  0.43782600  1
  Ca  Ca8  1  0.25293400  0.25590900  0.56217400  1
  Ca  Ca9  1  0.57974700  0.41512200  0.37574000  1
  Ca  Ca10  1  0.74926900  0.24206700  0.06415300  1
  Ca  Ca11  1  0.43212100  0.07973600  0.31366300  1
  Ca  Ca12  1  0.24206700  0.74926900  0.43584700  1
  Ca  Ca13  1  0.43234700  0.58864300  0.31267600  1
  Ca  Ca14  1  0.07973600  0.43212100  0.18633700  1
  Ca  Ca15  1  0.56787900  0.92026400  0.81366300  1
  Ca  Ca16  1  0.09952200  0.94249800  0.18926000  1
  Ca  Ca17  1  0.24016500  0.24016500  0.75000000  1
  Ca  Ca18  1  0.25073100  0.75793300  0.56415300  1
  Ca  Ca19  1  0.05750200  0.90047800  0.81074000  1
  Ca  Ca20  1  0.23844100  0.75301000  0.06468200  1
  Ca  Ca21  1  0.75983500  0.75983500  0.25000000  1
  Ca  Ca22  1  0.90047800  0.05750200  0.68926000  1
  Ca  Ca23  1  0.75793300  0.25073100  0.93584700  1
  Ca  Ca24  1  0.92026400  0.56787900  0.68633700  1
  Ca  Ca25  1  0.40971700  0.59028300  0.50000000  1
  Ca  Ca26  1  0.58864300  0.43234700  0.18732400  1
  Ca  Ca27  1  0.58487800  0.42025300  0.62426000  1
  Ca  Ca28  1  0.24699000  0.76155900  0.93531800  1
  Ca  Ca29  1  0.41512200  0.57974700  0.12426000  1
  Ca  Ca30  1  0.25590900  0.25293400  0.93782600  1
  Ca  Ca31  1  0.59028300  0.40971700  0.00000000  1
  Ta  Ta32  1  0.91070000  0.59072100  0.49714300  1
  Ta  Ta33  1  0.27357400  0.27159700  0.43877500  1
  Ta  Ta34  1  0.08930000  0.40927900  0.99714300  1
  Ta  Ta35  1  0.91769300  0.59020700  0.12561500  1
  Ta  Ta36  1  0.41336100  0.10343800  0.68726000  1
  Ta  Ta37  1  0.73982200  0.73982200  0.75000000  1
  Ta  Ta38  1  0.07945200  0.91139100  0.62391300  1
  Ta  Ta39  1  0.24176400  0.74283000  0.74842300  1
  Ta  Ta40  1  0.92054800  0.08860900  0.12391300  1
  Ta  Ta41  1  0.89656200  0.58663900  0.31274000  1
  Ta  Ta42  1  0.91084600  0.08915400  0.50000000  1
  Ta  Ta43  1  0.40927900  0.08930000  0.50285700  1
  Ta  Ta44  1  0.58182000  0.91285300  0.62635300  1
  Ta  Ta45  1  0.40979300  0.08230700  0.87438500  1
  Ta  Ta46  1  0.08230700  0.40979300  0.62561500  1
  Ta  Ta47  1  0.26017800  0.26017800  0.25000000  1
  Ta  Ta48  1  0.08714700  0.41818000  0.37364700  1
  Ta  Ta49  1  0.72840300  0.72642600  0.56122500  1
  Ta  Ta50  1  0.75823600  0.25717000  0.24842300  1
  Ta  Ta51  1  0.58663900  0.89656200  0.18726000  1
  Ta  Ta52  1  0.25717000  0.75823600  0.25157700  1
  Ta  Ta53  1  0.08915400  0.91084600  0.00000000  1
  Ta  Ta54  1  0.59020700  0.91769300  0.37438500  1
  Ta  Ta55  1  0.41818000  0.08714700  0.12635300  1
  Ta  Ta56  1  0.59072100  0.91070000  0.00285700  1
  Ta  Ta57  1  0.74283000  0.24176400  0.75157700  1
  Ta  Ta58  1  0.10343800  0.41336100  0.81274000  1
  Ta  Ta59  1  0.08860900  0.92054800  0.37608700  1
  Ta  Ta60  1  0.27159700  0.27357400  0.06122500  1
  Ta  Ta61  1  0.91139100  0.07945200  0.87608700  1
  Ta  Ta62  1  0.91285300  0.58182000  0.87364700  1
  Ta  Ta63  1  0.72642600  0.72840300  0.93877500  1
  O  O64  1  0.80998900  0.78757700  0.11966200  1
  O  O65  1  0.72320600  0.75905200  0.79085400  1
  O  O66  1  0.64129800  0.03929400  0.11257700  1
  O  O67  1  0.99657400  0.12698800  0.08480200  1
  O  O68  1  0.04937600  0.83765200  0.33632000  1
  O  O69  1  0.38400800  0.61599200  0.00000000  1
  O  O70  1  0.18722700  0.20722500  0.99007400  1
  O  O71  1  0.78247400  0.21752600  0.00000000  1
  O  O72  1  0.22189500  0.78930800  0.12003500  1
  O  O73  1  0.21069200  0.77810500  0.87996500  1
  O  O74  1  0.78480700  0.74043600  0.29434100  1
  O  O75  1  0.61599200  0.38400800  0.50000000  1
  O  O76  1  0.02202900  0.62557800  0.00880400  1
  O  O77  1  0.12698800  0.99657400  0.41519800  1
  O  O78  1  0.01702200  0.38755700  0.13003500  1
  O  O79  1  0.56536600  0.92191000  0.04254300  1
  O  O80  1  0.07809000  0.43463400  0.95745700  1
  O  O81  1  0.44757000  0.04310800  0.16591700  1
  O  O82  1  0.81786100  0.27155500  0.79067200  1
  O  O83  1  0.35870200  0.96070600  0.61257700  1
  O  O84  1  0.61682400  0.45773900  0.57942800  1
  O  O85  1  0.14906600  0.19618000  0.36262600  1
  O  O86  1  0.80382000  0.85093400  0.63737400  1
  O  O87  1  0.13193100  0.37362900  0.41284000  1
  O  O88  1  0.85291100  0.01047900  0.53980700  1
  O  O89  1  0.62557800  0.02202900  0.49119600  1
  O  O90  1  0.04252400  0.84233700  0.75573100  1
  O  O91  1  0.98952100  0.14708900  0.46019300  1
  O  O92  1  0.92191000  0.56536600  0.45745700  1
  O  O93  1  0.61531900  0.38919100  0.13175300  1
  O  O94  1  0.36565600  0.56534700  0.83144700  1
  O  O95  1  0.61474100  0.45787300  0.95565800  1
  O  O96  1  0.35074100  0.09910200  0.46159300  1
  O  O97  1  0.43465300  0.63434400  0.16855300  1
  O  O98  1  0.83765200  0.04937600  0.16368000  1
  O  O99  1  0.90089800  0.64925900  0.53840700  1
  O  O100  1  0.01047900  0.85291100  0.96019300  1
  O  O101  1  0.21242300  0.19001100  0.88033800  1
  O  O102  1  0.43463400  0.07809000  0.54254300  1
  O  O103  1  0.01668200  0.46117600  0.73800800  1
  O  O104  1  0.38525900  0.54212700  0.45565800  1
  O  O105  1  0.27155500  0.81786100  0.70932800  1
  O  O106  1  0.85093400  0.80382000  0.86262600  1
  O  O107  1  0.63656000  0.43653700  0.75638000  1
  O  O108  1  0.97797100  0.37442200  0.50880400  1
  O  O109  1  0.64925900  0.90089800  0.96159300  1
  O  O110  1  0.93904400  0.62518500  0.16623500  1
  O  O111  1  0.20722500  0.18722700  0.50992600  1
  O  O112  1  0.04310800  0.44757000  0.33408300  1
  O  O113  1  0.55243000  0.95689200  0.66591700  1
  O  O114  1  0.81277300  0.79277500  0.49007400  1
  O  O115  1  0.38755700  0.01702200  0.36996500  1
  O  O116  1  0.45773900  0.61682400  0.92057200  1
  O  O117  1  0.56534700  0.36565600  0.66855300  1
  O  O118  1  0.95062400  0.16234800  0.83632000  1
  O  O119  1  0.78757700  0.80998900  0.38033800  1
  O  O120  1  0.24094800  0.27679400  0.20914600  1
  O  O121  1  0.75905200  0.72320600  0.70914600  1
  O  O122  1  0.95747600  0.15766300  0.25573100  1
  O  O123  1  0.62518500  0.93904400  0.33376500  1
  O  O124  1  0.06095600  0.37481500  0.66623500  1
  O  O125  1  0.38468100  0.61080900  0.63175300  1
  O  O126  1  0.14708900  0.98952100  0.03980700  1
  O  O127  1  0.37481500  0.06095600  0.83376500  1
  O  O128  1  0.84233700  0.04252400  0.74426900  1
  O  O129  1  0.65908800  0.20288200  0.71163000  1
  O  O130  1  0.90478600  0.56352000  0.08439500  1
  O  O131  1  0.45787300  0.61474100  0.54434200  1
  O  O132  1  0.36344000  0.56346200  0.25638000  1
  O  O133  1  0.72844500  0.18213900  0.20932800  1
  O  O134  1  0.61080900  0.38468100  0.86824700  1
  O  O135  1  0.25956400  0.21519300  0.70565900  1
  O  O136  1  0.21752600  0.78247400  0.50000000  1
  O  O137  1  0.19618000  0.14906600  0.13737400  1
  O  O138  1  0.53882400  0.98331800  0.26199200  1
  O  O139  1  0.98297800  0.61244300  0.63003500  1
  O  O140  1  0.98331800  0.53882400  0.23800800  1
  O  O141  1  0.77810500  0.21069200  0.62003500  1
  O  O142  1  0.96070600  0.35870200  0.88742300  1
  O  O143  1  0.38317600  0.54226100  0.07942800  1
  O  O144  1  0.37362900  0.13193100  0.08716000  1
  O  O145  1  0.20288200  0.65908800  0.78837000  1
  O  O146  1  0.79711800  0.34091200  0.28837000  1
  O  O147  1  0.43653700  0.63656000  0.74362000  1
  O  O148  1  0.37442200  0.97797100  0.99119600  1
  O  O149  1  0.78930800  0.22189500  0.37996500  1
  O  O150  1  0.63434400  0.43465300  0.33144700  1
  O  O151  1  0.79277500  0.81277300  0.00992600  1
  O  O152  1  0.16234800  0.95062400  0.66368000  1
  O  O153  1  0.74043600  0.78480700  0.20565900  1
  O  O154  1  0.18213900  0.72844500  0.29067200  1
  O  O155  1  0.19001100  0.21242300  0.61966200  1
  O  O156  1  0.87301200  0.00342600  0.91519800  1
  O  O157  1  0.15766300  0.95747600  0.24426900  1
  O  O158  1  0.09910200  0.35074100  0.03840700  1
  O  O159  1  0.34091200  0.79711800  0.21163000  1
  O  O160  1  0.09521400  0.43648000  0.58439500  1
  O  O161  1  0.62637100  0.86806900  0.58716000  1
  O  O162  1  0.46117600  0.01668200  0.76199200  1
  O  O163  1  0.56346300  0.36344000  0.24362000  1
  O  O164  1  0.27679400  0.24094800  0.29085400  1
  O  O165  1  0.86806900  0.62637100  0.91284000  1
  O  O166  1  0.43648000  0.09521400  0.91560500  1
  O  O167  1  0.03929400  0.64129800  0.38742300  1
  O  O168  1  0.56352000  0.90478600  0.41560500  1
  O  O169  1  0.54226100  0.38317600  0.42057200  1
  O  O170  1  0.21519300  0.25956400  0.79434100  1
  O  O171  1  0.54212700  0.38525900  0.04434200  1
  O  O172  1  0.38919100  0.61531900  0.36824700  1
  O  O173  1  0.61244300  0.98297800  0.86996500  1
  O  O174  1  0.95689200  0.55243000  0.83408300  1
  O  O175  1  0.00342600  0.87301200  0.58480200  1
