# generated using pymatgen
data_Sr3Nb2CoO9
_symmetry_space_group_name_H-M   'P 1'
_cell_length_a   5.54593400
_cell_length_b   11.52748200
_cell_length_c   16.78986415
_cell_angle_alpha   63.04230095
_cell_angle_beta   90.00000000
_cell_angle_gamma   90.00000000
_symmetry_Int_Tables_number   1
_chemical_formula_structural   Sr3Nb2CoO9
_chemical_formula_sum   'Sr12 Nb8 Co4 O36'
_cell_volume   956.75433566
_cell_formula_units_Z   4
loop_
 _symmetry_equiv_pos_site_id
 _symmetry_equiv_pos_as_xyz
  1  'x, y, z'
loop_
 _atom_site_type_symbol
 _atom_site_label
 _atom_site_symmetry_multiplicity
 _atom_site_fract_x
 _atom_site_fract_y
 _atom_site_fract_z
 _atom_site_occupancy
  Sr  Sr0  1  0.99566000  0.66564100  0.29012200  1
  Sr  Sr1  1  0.49162300  0.32289600  0.56426200  1
  Sr  Sr2  1  0.99072000  0.25620400  0.43871200  1
  Sr  Sr3  1  0.49566000  0.33435900  0.20987800  1
  Sr  Sr4  1  0.00434000  0.33435900  0.70987800  1
  Sr  Sr5  1  0.49072000  0.74379600  0.06128800  1
  Sr  Sr6  1  0.00837700  0.32289600  0.06426200  1
  Sr  Sr7  1  0.50837700  0.67710400  0.43573800  1
  Sr  Sr8  1  0.50928000  0.25620400  0.93871200  1
  Sr  Sr9  1  0.99162300  0.67710400  0.93573800  1
  Sr  Sr10  1  0.00928000  0.74379600  0.56128800  1
  Sr  Sr11  1  0.50434000  0.66564100  0.79012200  1
  Nb  Nb12  1  0.50746500  0.00405400  0.32628800  1
  Nb  Nb13  1  0.00746500  0.99594600  0.17371200  1
  Nb  Nb14  1  0.99253500  0.00405400  0.82628800  1
  Nb  Nb15  1  0.99690400  0.48502300  0.83794600  1
  Nb  Nb16  1  0.49690400  0.51497700  0.66205400  1
  Nb  Nb17  1  0.00309600  0.51497700  0.16205400  1
  Nb  Nb18  1  0.49253500  0.99594600  0.67371200  1
  Nb  Nb19  1  0.50309600  0.48502300  0.33794600  1
  Co  Co20  1  0.00000000  0.00000000  0.00000000  1
  Co  Co21  1  0.50000000  0.00000000  0.50000000  1
  Co  Co22  1  0.00000000  0.50000000  0.50000000  1
  Co  Co23  1  0.50000000  0.50000000  0.00000000  1
  O  O24  1  0.25535700  0.53804200  0.56843700  1
  O  O25  1  0.94944000  0.67777500  0.79006800  1
  O  O26  1  0.73652700  0.05749000  0.73343100  1
  O  O27  1  0.44439700  0.28907500  0.39120400  1
  O  O28  1  0.79236800  0.46989100  0.26900400  1
  O  O29  1  0.55560300  0.71092500  0.60879600  1
  O  O30  1  0.74464300  0.46195800  0.43156300  1
  O  O31  1  0.75434300  0.50491300  0.58421500  1
  O  O32  1  0.70538500  0.05074100  0.56906900  1
  O  O33  1  0.74565700  0.50491300  0.08421500  1
  O  O34  1  0.27155600  0.99334400  0.58462100  1
  O  O35  1  0.76347300  0.05749000  0.23343100  1
  O  O36  1  0.20538500  0.94925900  0.93093100  1
  O  O37  1  0.46088000  0.30798200  0.06926800  1
  O  O38  1  0.23652700  0.94251000  0.76656900  1
  O  O39  1  0.72844400  0.00665600  0.41537900  1
  O  O40  1  0.26347300  0.94251000  0.26656900  1
  O  O41  1  0.24565700  0.49508700  0.41578500  1
  O  O42  1  0.05560300  0.28907500  0.89120400  1
  O  O43  1  0.05056000  0.32222500  0.20993200  1
  O  O44  1  0.75535700  0.46195800  0.93156300  1
  O  O45  1  0.70763200  0.46989100  0.76900400  1
  O  O46  1  0.25434300  0.49508700  0.91578500  1
  O  O47  1  0.77155600  0.00665600  0.91537900  1
  O  O48  1  0.29236800  0.53010900  0.23099600  1
  O  O49  1  0.55056000  0.67777500  0.29006800  1
  O  O50  1  0.22844400  0.99334400  0.08462100  1
  O  O51  1  0.03912000  0.30798200  0.56926800  1
  O  O52  1  0.96088000  0.69201800  0.43073200  1
  O  O53  1  0.24464300  0.53804200  0.06843700  1
  O  O54  1  0.94439700  0.71092500  0.10879600  1
  O  O55  1  0.53912000  0.69201800  0.93073200  1
  O  O56  1  0.29461500  0.94925900  0.43093100  1
  O  O57  1  0.20763200  0.53010900  0.73099600  1
  O  O58  1  0.79461500  0.05074100  0.06906900  1
  O  O59  1  0.44944000  0.32222500  0.70993200  1
