# generated using pymatgen
data_SiO2
_symmetry_space_group_name_H-M   'P 1'
_cell_length_a   9.73601791
_cell_length_b   9.73601791
_cell_length_c   24.18617322
_cell_angle_alpha   74.67580242
_cell_angle_beta   74.67580242
_cell_angle_gamma   30.21133071
_symmetry_Int_Tables_number   1
_chemical_formula_structural   SiO2
_chemical_formula_sum   'Si24 O48'
_cell_volume   1109.55598761
_cell_formula_units_Z   24
loop_
 _symmetry_equiv_pos_site_id
 _symmetry_equiv_pos_as_xyz
  1  'x, y, z'
loop_
 _atom_site_type_symbol
 _atom_site_label
 _atom_site_symmetry_multiplicity
 _atom_site_fract_x
 _atom_site_fract_y
 _atom_site_fract_z
 _atom_site_occupancy
  Si  Si0  1  0.02581900  0.11935300  0.95849400  1
  Si  Si1  1  0.97225100  0.87214100  0.55790500  1
  Si  Si2  1  0.88751000  0.81189500  0.85338500  1
  Si  Si3  1  0.85223300  0.74735100  0.98946100  1
  Si  Si4  1  0.46788300  0.36660900  0.63305200  1
  Si  Si5  1  0.74735100  0.85223300  0.48946100  1
  Si  Si6  1  0.52009200  0.61324900  0.88449600  1
  Si  Si7  1  0.20389900  0.32047700  0.71695700  1
  Si  Si8  1  0.50685200  0.58832000  0.19128400  1
  Si  Si9  1  0.10323700  0.18228000  0.15239000  1
  Si  Si10  1  0.25275600  0.14823000  0.01826800  1
  Si  Si11  1  0.58832000  0.50685200  0.69128400  1
  Si  Si12  1  0.61324900  0.52009200  0.38449600  1
  Si  Si13  1  0.14823000  0.25275600  0.51826800  1
  Si  Si14  1  0.32047700  0.20389900  0.21695700  1
  Si  Si15  1  0.48395300  0.40729100  0.81907000  1
  Si  Si16  1  0.78064400  0.66311500  0.29453000  1
  Si  Si17  1  0.87214100  0.97225100  0.05790500  1
  Si  Si18  1  0.11935300  0.02581900  0.45849400  1
  Si  Si19  1  0.40729100  0.48395300  0.31907000  1
  Si  Si20  1  0.81189500  0.88751000  0.35338500  1
  Si  Si21  1  0.18228000  0.10323700  0.65239000  1
  Si  Si22  1  0.36660900  0.46788300  0.13305200  1
  Si  Si23  1  0.66311500  0.78064400  0.79453000  1
  O  O24  1  0.15370400  0.15096000  0.58409300  1
  O  O25  1  0.88915800  0.60879100  0.74016800  1
  O  O26  1  0.00399200  0.00381000  0.01499100  1
  O  O27  1  0.50542500  0.48575900  0.64795800  1
  O  O28  1  0.07748200  0.75058100  0.31876100  1
  O  O29  1  0.26646400  0.56176800  0.58097800  1
  O  O30  1  0.20707600  0.23619800  0.66608800  1
  O  O31  1  0.41562500  0.12727800  0.49988200  1
  O  O32  1  0.74974000  0.79331500  0.83948100  1
  O  O33  1  0.23948900  0.91932900  0.18901400  1
  O  O34  1  0.87403300  0.58511600  0.51248400  1
  O  O35  1  0.05716800  0.76233300  0.11275600  1
  O  O36  1  0.15602700  0.14246600  0.97501500  1
  O  O37  1  0.14246600  0.15602700  0.47501500  1
  O  O38  1  0.91932900  0.23948900  0.68901400  1
  O  O39  1  0.08939400  0.36923500  0.27070700  1
  O  O40  1  0.85897600  0.86183100  0.52424400  1
  O  O41  1  0.72336900  0.42047700  0.93609400  1
  O  O42  1  0.15096000  0.15370400  0.08409300  1
  O  O43  1  0.77720900  0.45737600  0.17106900  1
  O  O44  1  0.63544500  0.63620900  0.82782800  1
  O  O45  1  0.76233300  0.05716800  0.61275600  1
  O  O46  1  0.36923500  0.08939400  0.77070700  1
  O  O47  1  0.56176800  0.26646400  0.08097800  1
  O  O48  1  0.34184600  0.35896200  0.69055400  1
  O  O49  1  0.23619800  0.20707600  0.16608800  1
  O  O50  1  0.45737600  0.77720900  0.67106900  1
  O  O51  1  0.83698500  0.84037400  0.42175700  1
  O  O52  1  0.58511600  0.87403300  0.01248400  1
  O  O53  1  0.42047700  0.72336900  0.43609400  1
  O  O54  1  0.35896200  0.34184600  0.19055400  1
  O  O55  1  0.86183100  0.85897600  0.02424400  1
  O  O56  1  0.00381000  0.00399200  0.51499100  1
  O  O57  1  0.47361200  0.52807500  0.75647400  1
  O  O58  1  0.48575900  0.50542500  0.14795800  1
  O  O59  1  0.48155500  0.49845500  0.36777300  1
  O  O60  1  0.79331500  0.74974000  0.33948100  1
  O  O61  1  0.53895600  0.21225400  0.33331800  1
  O  O62  1  0.12727800  0.41562500  0.99988200  1
  O  O63  1  0.21839800  0.91564400  0.90691800  1
  O  O64  1  0.91564400  0.21839800  0.40691800  1
  O  O65  1  0.84037400  0.83698500  0.92175700  1
  O  O66  1  0.75058100  0.07748200  0.81876100  1
  O  O67  1  0.21225400  0.53895600  0.83331800  1
  O  O68  1  0.63620900  0.63544500  0.32782800  1
  O  O69  1  0.60879100  0.88915800  0.24016800  1
  O  O70  1  0.49845500  0.48155500  0.86777300  1
  O  O71  1  0.52807500  0.47361200  0.25647400  1
