# generated using pymatgen
data_Mg7Si2(H3O7)2
_symmetry_space_group_name_H-M   'P 1'
_cell_length_a   7.96814526
_cell_length_b   7.96814526
_cell_length_c   9.66595900
_cell_angle_alpha   90.00000000
_cell_angle_beta   90.00000000
_cell_angle_gamma   119.99999384
_symmetry_Int_Tables_number   1
_chemical_formula_structural   Mg7Si2(H3O7)2
_chemical_formula_sum   'Mg14 Si4 H12 O28'
_cell_volume   531.48387472
_cell_formula_units_Z   2
loop_
 _symmetry_equiv_pos_site_id
 _symmetry_equiv_pos_as_xyz
  1  'x, y, z'
loop_
 _atom_site_type_symbol
 _atom_site_label
 _atom_site_symmetry_multiplicity
 _atom_site_fract_x
 _atom_site_fract_y
 _atom_site_fract_z
 _atom_site_occupancy
  Mg  Mg0  1  0.91655500  0.36936700  0.88764200  1
  Mg  Mg1  1  0.45281200  0.08344500  0.88764200  1
  Mg  Mg2  1  0.63063300  0.54718800  0.88764200  1
  Mg  Mg3  1  0.08344500  0.63063300  0.38764200  1
  Mg  Mg4  1  0.54718800  0.91655500  0.38764200  1
  Mg  Mg5  1  0.36936700  0.45281200  0.38764200  1
  Mg  Mg6  1  0.98164800  0.22568000  0.61292600  1
  Mg  Mg7  1  0.24403300  0.01835200  0.61292600  1
  Mg  Mg8  1  0.77432000  0.75596700  0.61292600  1
  Mg  Mg9  1  0.01835200  0.77432000  0.11292600  1
  Mg  Mg10  1  0.75596700  0.98164800  0.11292600  1
  Mg  Mg11  1  0.22568000  0.24403300  0.11292600  1
  Mg  Mg12  1  0.66666700  0.33333300  0.60202100  1
  Mg  Mg13  1  0.33333300  0.66666700  0.10202100  1
  Si  Si14  1  0.33333300  0.66666700  0.67394400  1
  Si  Si15  1  0.66666700  0.33333300  0.17394400  1
  Si  Si16  1  0.00000000  0.00000000  0.90160700  1
  Si  Si17  1  0.00000000  0.00000000  0.40160700  1
  H  H18  1  0.29269100  0.45673400  0.90487100  1
  H  H19  1  0.16404200  0.70730900  0.90487100  1
  H  H20  1  0.54326600  0.83595800  0.90487100  1
  H  H21  1  0.70730900  0.54326600  0.40487100  1
  H  H22  1  0.83595800  0.29269100  0.40487100  1
  H  H23  1  0.45673400  0.16404200  0.40487100  1
  H  H24  1  0.67796800  0.03425400  0.73891400  1
  H  H25  1  0.35628600  0.32203200  0.73891400  1
  H  H26  1  0.96574600  0.64371400  0.73891400  1
  H  H27  1  0.32203200  0.96574600  0.23891400  1
  H  H28  1  0.64371400  0.67796800  0.23891400  1
  H  H29  1  0.03425400  0.35628600  0.23891400  1
  O  O30  1  0.17237500  0.20001500  0.47685000  1
  O  O31  1  0.02764000  0.82762500  0.47685000  1
  O  O32  1  0.79998500  0.97236000  0.47685000  1
  O  O33  1  0.82762500  0.79998500  0.97685000  1
  O  O34  1  0.97236000  0.17237500  0.97685000  1
  O  O35  1  0.20001500  0.02764000  0.97685000  1
  O  O36  1  0.37890300  0.47587500  0.98368800  1
  O  O37  1  0.09697100  0.62109700  0.98368800  1
  O  O38  1  0.52412500  0.90302900  0.98368800  1
  O  O39  1  0.62109700  0.52412500  0.48368800  1
  O  O40  1  0.90302900  0.37890300  0.48368800  1
  O  O41  1  0.47587500  0.09697100  0.48368800  1
  O  O42  1  0.15963300  0.45406700  0.73245700  1
  O  O43  1  0.29443400  0.84036700  0.73245700  1
  O  O44  1  0.54593300  0.70556600  0.73245700  1
  O  O45  1  0.84036700  0.54593300  0.23245700  1
  O  O46  1  0.70556600  0.15963300  0.23245700  1
  O  O47  1  0.45406700  0.29443400  0.23245700  1
  O  O48  1  0.73800600  0.17513000  0.73865200  1
  O  O49  1  0.43712400  0.26199400  0.73865200  1
  O  O50  1  0.82487000  0.56287600  0.73865200  1
  O  O51  1  0.26199400  0.82487000  0.23865200  1
  O  O52  1  0.56287600  0.73800600  0.23865200  1
  O  O53  1  0.17513000  0.43712400  0.23865200  1
  O  O54  1  0.33333300  0.66666700  0.49984800  1
  O  O55  1  0.66666700  0.33333300  0.99984800  1
  O  O56  1  0.00000000  0.00000000  0.73246900  1
  O  O57  1  0.00000000  0.00000000  0.23246900  1
