# generated using pymatgen
data_SiO2
_symmetry_space_group_name_H-M   'P 1'
_cell_length_a   13.45542356
_cell_length_b   13.45542356
_cell_length_c   13.45542356
_cell_angle_alpha   92.22018907
_cell_angle_beta   92.22018907
_cell_angle_gamma   157.29734033
_symmetry_Int_Tables_number   1
_chemical_formula_structural   SiO2
_chemical_formula_sum   'Si16 O32'
_cell_volume   921.81197205
_cell_formula_units_Z   16
loop_
 _symmetry_equiv_pos_site_id
 _symmetry_equiv_pos_as_xyz
  1  'x, y, z'
loop_
 _atom_site_type_symbol
 _atom_site_label
 _atom_site_symmetry_multiplicity
 _atom_site_fract_x
 _atom_site_fract_y
 _atom_site_fract_z
 _atom_site_occupancy
  Si  Si0  1  0.77370600  0.65777300  0.43147900  1
  Si  Si1  1  0.34222700  0.77370600  0.11593300  1
  Si  Si2  1  0.65777300  0.22629400  0.88406700  1
  Si  Si3  1  0.77370600  0.34222700  0.11593300  1
  Si  Si4  1  0.22629400  0.65777300  0.88406700  1
  Si  Si5  1  0.22629400  0.34222700  0.56852100  1
  Si  Si6  1  0.65777300  0.77370600  0.43147900  1
  Si  Si7  1  0.34222700  0.22629400  0.56852100  1
  Si  Si8  1  0.12051700  0.00000000  0.12051700  1
  Si  Si9  1  0.00000000  0.12051700  0.12051700  1
  Si  Si10  1  0.00000000  0.87948300  0.87948300  1
  Si  Si11  1  0.87948300  0.00000000  0.87948300  1
  Si  Si12  1  0.71910300  0.50000000  0.21910300  1
  Si  Si13  1  0.50000000  0.71910300  0.21910300  1
  Si  Si14  1  0.50000000  0.28089700  0.78089700  1
  Si  Si15  1  0.28089700  0.50000000  0.78089700  1
  O  O16  1  0.69297700  0.69297700  0.38595400  1
  O  O17  1  0.30702300  0.69297700  0.00000000  1
  O  O18  1  0.69297700  0.30702300  0.00000000  1
  O  O19  1  0.30702300  0.30702300  0.61404600  1
  O  O20  1  0.06671800  0.93328200  0.50000000  1
  O  O21  1  0.56671800  0.06671800  0.13343500  1
  O  O22  1  0.93328200  0.43328200  0.86656500  1
  O  O23  1  0.43328200  0.56671800  0.50000000  1
  O  O24  1  0.93328200  0.06671800  0.50000000  1
  O  O25  1  0.43328200  0.93328200  0.86656500  1
  O  O26  1  0.06671800  0.56671800  0.13343500  1
  O  O27  1  0.56671800  0.43328200  0.50000000  1
  O  O28  1  0.76942800  0.57097300  0.34040100  1
  O  O29  1  0.42902700  0.76942800  0.19845500  1
  O  O30  1  0.57097300  0.23057200  0.80154500  1
  O  O31  1  0.76942800  0.42902700  0.19845500  1
  O  O32  1  0.23057200  0.57097300  0.80154500  1
  O  O33  1  0.23057200  0.42902700  0.65959900  1
  O  O34  1  0.57097300  0.76942800  0.34040100  1
  O  O35  1  0.42902700  0.23057200  0.65959900  1
  O  O36  1  0.41951200  0.24979200  0.16972100  1
  O  O37  1  0.24979200  0.41951200  0.16972100  1
  O  O38  1  0.24979200  0.08007100  0.83027900  1
  O  O39  1  0.91992900  0.75020800  0.16972100  1
  O  O40  1  0.58048800  0.75020800  0.83027900  1
  O  O41  1  0.08007100  0.24979200  0.83027900  1
  O  O42  1  0.75020800  0.91992900  0.16972100  1
  O  O43  1  0.75020800  0.58048800  0.83027900  1
  O  O44  1  0.07154500  0.07154500  0.14309000  1
  O  O45  1  0.92845500  0.07154500  0.00000000  1
  O  O46  1  0.07154500  0.92845500  0.00000000  1
  O  O47  1  0.92845500  0.92845500  0.85691000  1
