# generated using pymatgen
data_Rb3Yb2(PO4)3
_symmetry_space_group_name_H-M   'P 1'
_cell_length_a   15.11992194
_cell_length_b   15.11992194
_cell_length_c   15.11992194
_cell_angle_alpha   109.47122063
_cell_angle_beta   109.47122063
_cell_angle_gamma   109.47122063
_symmetry_Int_Tables_number   1
_chemical_formula_structural   Rb3Yb2(PO4)3
_chemical_formula_sum   'Rb24 Yb16 P24 O96'
_cell_volume   2660.88898675
_cell_formula_units_Z   8
loop_
 _symmetry_equiv_pos_site_id
 _symmetry_equiv_pos_as_xyz
  1  'x, y, z'
loop_
 _atom_site_type_symbol
 _atom_site_label
 _atom_site_symmetry_multiplicity
 _atom_site_fract_x
 _atom_site_fract_y
 _atom_site_fract_z
 _atom_site_occupancy
  Yb  Yb0  1  0.46516600  0.25000000  0.71516600  1
  Yb  Yb1  1  0.25000000  0.21115000  0.96115000  1
  Yb  Yb2  1  0.50000000  0.00000000  0.00928200  1
  Yb  Yb3  1  0.03483400  0.75000000  0.78483400  1
  Yb  Yb4  1  0.25000000  0.71516600  0.46516600  1
  Yb  Yb5  1  0.75000000  0.28885000  0.53885000  1
  Yb  Yb6  1  0.28885000  0.53885000  0.75000000  1
  Yb  Yb7  1  0.49071800  0.49071800  0.49071800  1
  Yb  Yb8  1  0.71516600  0.46516600  0.25000000  1
  Yb  Yb9  1  0.00000000  0.00928200  0.50000000  1
  Yb  Yb10  1  0.96115000  0.25000000  0.21115000  1
  Yb  Yb11  1  0.21115000  0.96115000  0.25000000  1
  Yb  Yb12  1  0.00928200  0.50000000  0.00000000  1
  Yb  Yb13  1  0.75000000  0.78483400  0.03483400  1
  Yb  Yb14  1  0.53885000  0.75000000  0.28885000  1
  Yb  Yb15  1  0.78483400  0.03483400  0.75000000  1
  Rb  Rb16  1  0.75000000  0.99372300  0.24372300  1
  Rb  Rb17  1  0.25000000  0.50627700  0.25627700  1
  Rb  Rb18  1  0.73775600  0.75000000  0.48775600  1
  Rb  Rb19  1  0.74910300  0.50000000  0.00000000  1
  Rb  Rb20  1  0.50039200  0.50000000  0.00000000  1
  Rb  Rb21  1  0.50627700  0.25627700  0.25000000  1
  Rb  Rb22  1  0.48775600  0.73775600  0.75000000  1
  Rb  Rb23  1  0.25627700  0.25000000  0.50627700  1
  Rb  Rb24  1  0.50000000  0.00000000  0.50039200  1
  Rb  Rb25  1  0.50000000  0.00000000  0.74910300  1
  Rb  Rb26  1  0.50000000  0.00000000  0.26000200  1
  Rb  Rb27  1  0.99960800  0.99960800  0.99960800  1
  Rb  Rb28  1  0.75000000  0.48775600  0.73775600  1
  Rb  Rb29  1  0.01224400  0.76224400  0.25000000  1
  Rb  Rb30  1  0.00000000  0.74910300  0.50000000  1
  Rb  Rb31  1  0.25000000  0.01224400  0.76224400  1
  Rb  Rb32  1  0.00000000  0.26000200  0.50000000  1
  Rb  Rb33  1  0.99372300  0.24372300  0.75000000  1
  Rb  Rb34  1  0.23999800  0.23999800  0.23999800  1
  Rb  Rb35  1  0.75089700  0.75089700  0.75089700  1
  Rb  Rb36  1  0.26000200  0.50000000  0.00000000  1
  Rb  Rb37  1  0.00000000  0.50039200  0.50000000  1
  Rb  Rb38  1  0.76224400  0.25000000  0.01224400  1
  Rb  Rb39  1  0.24372300  0.75000000  0.99372300  1
  P  P40  1  0.03521400  0.49250500  0.76111000  1
  P  P41  1  0.49250500  0.76111000  0.03521400  1
  P  P42  1  0.23139500  0.27410400  0.73889000  1
  P  P43  1  0.26247300  0.77631800  0.73374800  1
  P  P44  1  0.04270900  0.26860500  0.00749500  1
  P  P45  1  0.54257000  0.52872500  0.76625200  1
  P  P46  1  0.97127500  0.51384500  0.23752700  1
  P  P47  1  0.73889000  0.23139500  0.27410400  1
  P  P48  1  0.77631800  0.73374800  0.26247300  1
  P  P49  1  0.52872500  0.76625200  0.54257000  1
  P  P50  1  0.73374800  0.26247300  0.77631800  1
  P  P51  1  0.46478600  0.22589600  0.45729100  1
  P  P52  1  0.27410400  0.73889000  0.23139500  1
  P  P53  1  0.76625200  0.54257000  0.52872500  1
  P  P54  1  0.00749500  0.04270900  0.26860500  1
  P  P55  1  0.72368200  0.98615500  0.95743000  1
  P  P56  1  0.23752700  0.97127500  0.51384500  1
  P  P57  1  0.51384500  0.23752700  0.97127500  1
  P  P58  1  0.22589600  0.45729100  0.46478600  1
  P  P59  1  0.98615500  0.95743000  0.72368200  1
  P  P60  1  0.95743000  0.72368200  0.98615500  1
  P  P61  1  0.76111000  0.03521400  0.49250500  1
  P  P62  1  0.45729100  0.46478600  0.22589600  1
  P  P63  1  0.26860500  0.00749500  0.04270900  1
  O  O64  1  0.60982100  0.95861600  0.94328000  1
  O  O65  1  0.04623600  0.60391800  0.78419600  1
  O  O66  1  0.63962800  0.11674600  0.18968900  1
  O  O67  1  0.85721700  0.49151600  0.22064100  1
  O  O68  1  0.38955400  0.76433500  0.25091100  1
  O  O69  1  0.06463600  0.81098600  0.09336100  1
  O  O70  1  0.65739200  0.92747800  0.39989400  1
  O  O71  1  0.54138400  0.15120500  0.98466400  1
  O  O72  1  0.75365000  0.28237500  0.68901400  1
  O  O73  1  0.47241600  0.57252200  0.22991300  1
  O  O74  1  0.27008700  0.84260800  0.24250200  1
  O  O75  1  0.45376400  0.23796000  0.55768200  1
  O  O76  1  0.13864300  0.24908900  0.01342300  1
  O  O77  1  0.95861600  0.94328000  0.60982100  1
  O  O78  1  0.43536400  0.52872600  0.74635000  1
  O  O79  1  0.54888500  0.44108300  0.79530700  1
  O  O80  1  0.24908900  0.01342300  0.13864300  1
  O  O81  1  0.22064100  0.85721700  0.49151600  1
  O  O82  1  0.02758400  0.25749800  0.10010600  1
  O  O83  1  0.02288200  0.07294300  0.38325400  1
  O  O84  1  0.63657700  0.27935900  0.77087600  1
  O  O85  1  0.94328000  0.60982100  0.95861600  1
  O  O86  1  0.89608200  0.94231800  0.18027800  1
  O  O87  1  0.11044600  0.36135700  0.37478100  1
  O  O88  1  0.60780200  0.35422400  0.05891700  1
  O  O89  1  0.52872600  0.74635000  0.43536400  1
  O  O90  1  0.79530700  0.54888500  0.44108300  1
  O  O91  1  0.31031100  0.42705700  0.44993900  1
  O  O92  1  0.10010600  0.02758400  0.25749800  1
  O  O93  1  0.42705700  0.44993900  0.31031100  1
  O  O94  1  0.74635000  0.43536400  0.52872600  1
  O  O95  1  0.97127400  0.40663900  0.21762400  1
  O  O96  1  0.86342300  0.63429900  0.64278300  1
  O  O97  1  0.74642200  0.89219800  0.95111500  1
  O  O98  1  0.48657700  0.73566500  0.12521900  1
  O  O99  1  0.78419600  0.04623600  0.60391800  1
  O  O100  1  0.75357800  0.70469300  0.14577600  1
  O  O101  1  0.25091100  0.38955400  0.76433500  1
  O  O102  1  0.70469300  0.14577600  0.75357800  1
  O  O103  1  0.21762400  0.97127400  0.40663900  1
  O  O104  1  0.92747800  0.39989400  0.65739200  1
  O  O105  1  0.57252200  0.22991300  0.47241600  1
  O  O106  1  0.68901400  0.75365000  0.28237600  1
  O  O107  1  0.05891700  0.60780200  0.35422400  1
  O  O108  1  0.81098600  0.09336100  0.06463600  1
  O  O109  1  0.84260800  0.24250200  0.27008700  1
  O  O110  1  0.22991300  0.47241600  0.57252200  1
  O  O111  1  0.28237500  0.68901400  0.75365000  1
  O  O112  1  0.64278300  0.86342300  0.63429900  1
  O  O113  1  0.35422400  0.05891700  0.60780200  1
  O  O114  1  0.51533600  0.66654100  0.55672000  1
  O  O115  1  0.44993900  0.31031100  0.42705700  1
  O  O116  1  0.05006100  0.47711800  0.86037200  1
  O  O117  1  0.31972200  0.26204000  0.71580400  1
  O  O118  1  0.83345900  0.34879500  0.89017900  1
  O  O119  1  0.60391800  0.78419600  0.04623600  1
  O  O120  1  0.26204000  0.71580400  0.31972200  1
  O  O121  1  0.00848400  0.86570100  0.72912400  1
  O  O122  1  0.72912400  0.00848400  0.86570100  1
  O  O123  1  0.40663900  0.21762400  0.97127400  1
  O  O124  1  0.44108300  0.79530700  0.54888500  1
  O  O125  1  0.49151600  0.22064100  0.85721700  1
  O  O126  1  0.73566500  0.12521900  0.48657700  1
  O  O127  1  0.86037200  0.05006100  0.47711800  1
  O  O128  1  0.95111500  0.74642200  0.89219800  1
  O  O129  1  0.24250200  0.27008700  0.84260800  1
  O  O130  1  0.36135700  0.37478100  0.11044600  1
  O  O131  1  0.76433500  0.25091100  0.38955400  1
  O  O132  1  0.55768200  0.45376400  0.23796000  1
  O  O133  1  0.09336100  0.06463600  0.81098600  1
  O  O134  1  0.89219800  0.95111500  0.74642200  1
  O  O135  1  0.25749800  0.10010600  0.02758400  1
  O  O136  1  0.89017900  0.83345900  0.34879500  1
  O  O137  1  0.11674600  0.18968900  0.63962800  1
  O  O138  1  0.55672000  0.51533600  0.66654100  1
  O  O139  1  0.63429900  0.64278300  0.86342300  1
  O  O140  1  0.14577600  0.75357800  0.70469300  1
  O  O141  1  0.71580400  0.31972200  0.26204000  1
  O  O142  1  0.01342300  0.13864300  0.24908900  1
  O  O143  1  0.34879500  0.89017900  0.83345900  1
  O  O144  1  0.15120500  0.98466400  0.54138400  1
  O  O145  1  0.39989400  0.65739200  0.92747800  1
  O  O146  1  0.94231800  0.18027800  0.89608200  1
  O  O147  1  0.47711800  0.86037200  0.05006100  1
  O  O148  1  0.86570100  0.72912400  0.00848400  1
  O  O149  1  0.18968900  0.63962800  0.11674600  1
  O  O150  1  0.07294300  0.38325400  0.02288200  1
  O  O151  1  0.38325400  0.02288200  0.07294300  1
  O  O152  1  0.37478100  0.11044600  0.36135700  1
  O  O153  1  0.12521900  0.48657700  0.73566500  1
  O  O154  1  0.27935900  0.77087600  0.63657700  1
  O  O155  1  0.77087600  0.63657700  0.27935900  1
  O  O156  1  0.66654100  0.55672000  0.51533600  1
  O  O157  1  0.23796000  0.55768200  0.45376400  1
  O  O158  1  0.98466400  0.54138400  0.15120500  1
  O  O159  1  0.18027800  0.89608200  0.94231800  1
