# generated using pymatgen
data_Nd6In22Pt13
_symmetry_space_group_name_H-M   'P 1'
_cell_length_a   14.51855920
_cell_length_b   14.51855920
_cell_length_c   15.14148840
_cell_angle_alpha   67.88961902
_cell_angle_beta   67.88961902
_cell_angle_gamma   17.84248726
_symmetry_Int_Tables_number   1
_chemical_formula_structural   Nd6In22Pt13
_chemical_formula_sum   'Nd6 In22 Pt13'
_cell_volume   904.16579101
_cell_formula_units_Z   1
loop_
 _symmetry_equiv_pos_site_id
 _symmetry_equiv_pos_as_xyz
  1  'x, y, z'
loop_
 _atom_site_type_symbol
 _atom_site_label
 _atom_site_symmetry_multiplicity
 _atom_site_fract_x
 _atom_site_fract_y
 _atom_site_fract_z
 _atom_site_occupancy
  Nd  Nd0  1  0.45361200  0.45361200  0.69880900  1
  Nd  Nd1  1  0.83722100  0.83722100  0.53004200  1
  Nd  Nd2  1  0.54638800  0.54638800  0.30119100  1
  Nd  Nd3  1  0.16277900  0.16277900  0.46995800  1
  Nd  Nd4  1  0.82175600  0.82175600  0.08006500  1
  Nd  Nd5  1  0.17824400  0.17824400  0.91993500  1
  In  In6  1  0.32605900  0.32605900  0.71969000  1
  In  In7  1  0.87591300  0.87591300  0.83106300  1
  In  In8  1  0.67394100  0.67394100  0.28031000  1
  In  In9  1  0.43534200  0.43534200  0.50240400  1
  In  In10  1  0.85740400  0.85740400  0.28191900  1
  In  In11  1  0.72797300  0.72797300  0.75172400  1
  In  In12  1  0.23741300  0.23741300  0.08381300  1
  In  In13  1  0.40828300  0.40828300  0.95252400  1
  In  In14  1  0.05552200  0.05552200  0.93624400  1
  In  In15  1  0.95690700  0.95690700  0.33973400  1
  In  In16  1  0.76258700  0.76258700  0.91618700  1
  In  In17  1  0.71280100  0.71280100  0.56529800  1
  In  In18  1  0.56465800  0.56465800  0.49759600  1
  In  In19  1  0.28719900  0.28719900  0.43470200  1
  In  In20  1  0.27202700  0.27202700  0.24827600  1
  In  In21  1  0.94447800  0.94447800  0.06375600  1
  In  In22  1  0.59171700  0.59171700  0.04747600  1
  In  In23  1  0.52948700  0.52948700  0.82098000  1
  In  In24  1  0.12408700  0.12408700  0.16893700  1
  In  In25  1  0.47051300  0.47051300  0.17902000  1
  In  In26  1  0.14259600  0.14259600  0.71808100  1
  In  In27  1  0.04309300  0.04309300  0.66026600  1
  Pt  Pt28  1  0.61930000  0.61930000  0.84851400  1
  Pt  Pt29  1  0.90109800  0.90109800  0.63571300  1
  Pt  Pt30  1  0.03279300  0.03279300  0.13914900  1
  Pt  Pt31  1  0.39271400  0.39271400  0.36295200  1
  Pt  Pt32  1  0.09890200  0.09890200  0.36428700  1
  Pt  Pt33  1  0.25165900  0.25165900  0.63615800  1
  Pt  Pt34  1  0.00000000  0.00000000  0.50000000  1
  Pt  Pt35  1  0.32054900  0.32054900  0.91207300  1
  Pt  Pt36  1  0.67945100  0.67945100  0.08792700  1
  Pt  Pt37  1  0.38070000  0.38070000  0.15148600  1
  Pt  Pt38  1  0.96720700  0.96720700  0.86085100  1
  Pt  Pt39  1  0.74834100  0.74834100  0.36384200  1
  Pt  Pt40  1  0.60728600  0.60728600  0.63704800  1
