# generated using pymatgen
data_Ba2Tl(NO2)5
_symmetry_space_group_name_H-M   'P 1'
_cell_length_a   4.97093900
_cell_length_b   13.42980500
_cell_length_c   19.04292100
_cell_angle_alpha   90.00000000
_cell_angle_beta   90.00000000
_cell_angle_gamma   90.00000000
_symmetry_Int_Tables_number   1
_chemical_formula_structural   Ba2Tl(NO2)5
_chemical_formula_sum   'Ba8 Tl4 N20 O40'
_cell_volume   1271.28143924
_cell_formula_units_Z   4
loop_
 _symmetry_equiv_pos_site_id
 _symmetry_equiv_pos_as_xyz
  1  'x, y, z'
loop_
 _atom_site_type_symbol
 _atom_site_label
 _atom_site_symmetry_multiplicity
 _atom_site_fract_x
 _atom_site_fract_y
 _atom_site_fract_z
 _atom_site_occupancy
  Ba  Ba0  1  0.15701900  0.75196900  0.34640400  1
  Ba  Ba1  1  0.99759200  0.63250100  0.59954000  1
  Ba  Ba2  1  0.84298100  0.25196900  0.65359600  1
  Ba  Ba3  1  0.00240800  0.13250100  0.40046000  1
  Ba  Ba4  1  0.99759200  0.13250100  0.90046000  1
  Ba  Ba5  1  0.00240800  0.63250100  0.09954000  1
  Ba  Ba6  1  0.84298100  0.75196900  0.84640400  1
  Ba  Ba7  1  0.15701900  0.25196900  0.15359600  1
  Tl  Tl8  1  0.46671200  0.89599600  0.11419400  1
  Tl  Tl9  1  0.53328800  0.89599600  0.61419400  1
  Tl  Tl10  1  0.53328800  0.39599600  0.88580600  1
  Tl  Tl11  1  0.46671200  0.39599600  0.38580600  1
  N  N12  1  0.54877200  0.20531900  0.27343700  1
  N  N13  1  0.61518500  0.94801800  0.37673300  1
  N  N14  1  0.01125300  0.49585800  0.96904300  1
  N  N15  1  0.88763000  0.99740400  0.74664100  1
  N  N16  1  0.45122800  0.20531900  0.77343700  1
  N  N17  1  0.88763000  0.49740400  0.75335900  1
  N  N18  1  0.98874700  0.99585800  0.03095700  1
  N  N19  1  0.54877200  0.70531900  0.22656300  1
  N  N20  1  0.11237000  0.49740400  0.25335900  1
  N  N21  1  0.39753200  0.14431700  0.53154600  1
  N  N22  1  0.38481500  0.94801800  0.87673300  1
  N  N23  1  0.39753200  0.64431700  0.96845400  1
  N  N24  1  0.60246800  0.14431700  0.03154600  1
  N  N25  1  0.11237000  0.99740400  0.24664100  1
  N  N26  1  0.01125300  0.99585800  0.53095700  1
  N  N27  1  0.61518500  0.44801800  0.12326700  1
  N  N28  1  0.98874700  0.49585800  0.46904300  1
  N  N29  1  0.38481500  0.44801800  0.62326700  1
  N  N30  1  0.60246800  0.64431700  0.46845400  1
  N  N31  1  0.45122800  0.70531900  0.72656300  1
  O  O32  1  0.02271600  0.91971400  0.00330100  1
  O  O33  1  0.17003700  0.54956800  0.30676100  1
  O  O34  1  0.83137900  0.90546100  0.74096200  1
  O  O35  1  0.97728400  0.91971400  0.50330100  1
  O  O36  1  0.67304200  0.86363100  0.35097100  1
  O  O37  1  0.47866300  0.68598500  0.16315000  1
  O  O38  1  0.67304200  0.36363100  0.14902900  1
  O  O39  1  0.08108600  0.31124800  0.43732000  1
  O  O40  1  0.37031100  0.95742500  0.39498400  1
  O  O41  1  0.35085000  0.15211100  0.01942200  1
  O  O42  1  0.64915000  0.15211100  0.51942200  1
  O  O43  1  0.91891400  0.31124800  0.93732000  1
  O  O44  1  0.79943900  0.70846700  0.23553300  1
  O  O45  1  0.62968900  0.95742500  0.89498400  1
  O  O46  1  0.32695800  0.36363100  0.64902900  1
  O  O47  1  0.02271600  0.41971400  0.49669900  1
  O  O48  1  0.47866300  0.18598500  0.33685000  1
  O  O49  1  0.52133700  0.18598500  0.83685000  1
  O  O50  1  0.37031100  0.45742500  0.10501600  1
  O  O51  1  0.32866900  0.16653700  0.59345000  1
  O  O52  1  0.62968900  0.45742500  0.60501600  1
  O  O53  1  0.16862100  0.90546100  0.24096200  1
  O  O54  1  0.82996300  0.04956800  0.69323900  1
  O  O55  1  0.67133100  0.16653700  0.09345000  1
  O  O56  1  0.64915000  0.65211100  0.98057800  1
  O  O57  1  0.52133700  0.68598500  0.66315000  1
  O  O58  1  0.20056100  0.20846700  0.76446700  1
  O  O59  1  0.83137900  0.40546100  0.75903800  1
  O  O60  1  0.82996300  0.54956800  0.80676100  1
  O  O61  1  0.79943900  0.20846700  0.26446700  1
  O  O62  1  0.32695800  0.86363100  0.85097100  1
  O  O63  1  0.32866900  0.66653700  0.90655000  1
  O  O64  1  0.16862100  0.40546100  0.25903800  1
  O  O65  1  0.17003700  0.04956800  0.19323900  1
  O  O66  1  0.08108600  0.81124800  0.06268000  1
  O  O67  1  0.91891400  0.81124800  0.56268000  1
  O  O68  1  0.20056100  0.70846700  0.73553300  1
  O  O69  1  0.35085000  0.65211100  0.48057800  1
  O  O70  1  0.67133100  0.66653700  0.40655000  1
  O  O71  1  0.97728400  0.41971400  0.99669900  1
