# generated using pymatgen
data_HOF
_symmetry_space_group_name_H-M   'P 1'
_cell_length_a   4.36033800
_cell_length_b   5.15439500
_cell_length_c   5.78167200
_cell_angle_alpha   90.00000000
_cell_angle_beta   90.00000000
_cell_angle_gamma   90.00000000
_symmetry_Int_Tables_number   1
_chemical_formula_structural   HOF
_chemical_formula_sum   'H4 O4 F4'
_cell_volume   129.94252539
_cell_formula_units_Z   4
loop_
 _symmetry_equiv_pos_site_id
 _symmetry_equiv_pos_as_xyz
  1  'x, y, z'
loop_
 _atom_site_type_symbol
 _atom_site_label
 _atom_site_symmetry_multiplicity
 _atom_site_fract_x
 _atom_site_fract_y
 _atom_site_fract_z
 _atom_site_occupancy
  H  H0  1  0.39418600  0.52977800  0.27549400  1
  H  H1  1  0.10581400  0.47022200  0.77549400  1
  H  H2  1  0.89418600  0.97022200  0.72450600  1
  H  H3  1  0.60581400  0.02977800  0.22450600  1
  O  O4  1  0.63632200  0.86995300  0.31804500  1
  O  O5  1  0.86367800  0.13004700  0.81804500  1
  O  O6  1  0.13632200  0.63004700  0.68195500  1
  O  O7  1  0.36367800  0.36995300  0.18195500  1
  F  F8  1  0.88703300  0.75226900  0.18743600  1
  F  F9  1  0.61296700  0.24773100  0.68743600  1
  F  F10  1  0.38703300  0.74773100  0.81256400  1
  F  F11  1  0.11296700  0.25226900  0.31256400  1
