# generated using pymatgen
data_CsHO
_symmetry_space_group_name_H-M   'P 1'
_cell_length_a   4.41278300
_cell_length_b   4.46863600
_cell_length_c   13.18941100
_cell_angle_alpha   90.00000000
_cell_angle_beta   90.00000000
_cell_angle_gamma   90.00000000
_symmetry_Int_Tables_number   1
_chemical_formula_structural   CsHO
_chemical_formula_sum   'Cs4 H4 O4'
_cell_volume   260.08359108
_cell_formula_units_Z   4
loop_
 _symmetry_equiv_pos_site_id
 _symmetry_equiv_pos_as_xyz
  1  'x, y, z'
loop_
 _atom_site_type_symbol
 _atom_site_label
 _atom_site_symmetry_multiplicity
 _atom_site_fract_x
 _atom_site_fract_y
 _atom_site_fract_z
 _atom_site_occupancy
  Cs  Cs0  1  0.25137800  0.99243600  0.65033600  1
  Cs  Cs1  1  0.75137800  0.50756400  0.34966400  1
  Cs  Cs2  1  0.74862200  0.49243600  0.84966400  1
  Cs  Cs3  1  0.24862200  0.00756400  0.15033600  1
  H  H4  1  0.35585600  0.99669400  0.94533000  1
  H  H5  1  0.85585600  0.50330600  0.05467000  1
  H  H6  1  0.64414400  0.49669400  0.55467000  1
  H  H7  1  0.14414400  0.00330600  0.44533000  1
  O  O8  1  0.23431800  0.99884200  0.88399900  1
  O  O9  1  0.73431800  0.50115800  0.11600100  1
  O  O10  1  0.76568200  0.49884200  0.61600100  1
  O  O11  1  0.26568200  0.00115800  0.38399900  1
