# generated using pymatgen
data_SiO2
_symmetry_space_group_name_H-M   'P 1'
_cell_length_a   4.74014166
_cell_length_b   4.74014166
_cell_length_c   6.75948800
_cell_angle_alpha   90.00000000
_cell_angle_beta   90.00000000
_cell_angle_gamma   119.99999529
_symmetry_Int_Tables_number   1
_chemical_formula_structural   SiO2
_chemical_formula_sum   'Si3 O6'
_cell_volume   131.53068923
_cell_formula_units_Z   3
loop_
 _symmetry_equiv_pos_site_id
 _symmetry_equiv_pos_as_xyz
  1  'x, y, z'
loop_
 _atom_site_type_symbol
 _atom_site_label
 _atom_site_symmetry_multiplicity
 _atom_site_fract_x
 _atom_site_fract_y
 _atom_site_fract_z
 _atom_site_occupancy
  Si  Si0  1  0.91839300  0.00000000  0.66666700  1
  Si  Si1  1  0.08160700  0.08160700  0.00000000  1
  Si  Si2  1  0.00000000  0.91839300  0.33333300  1
  O  O3  1  0.10997500  0.44157600  0.92283300  1
  O  O4  1  0.55842400  0.66839900  0.58950000  1
  O  O5  1  0.44157600  0.10997500  0.07716700  1
  O  O6  1  0.33160100  0.89002500  0.25616700  1
  O  O7  1  0.89002500  0.33160100  0.74383300  1
  O  O8  1  0.66839900  0.55842400  0.41050000  1
