# generated using pymatgen
data_SrH2O3
_symmetry_space_group_name_H-M   'P 1'
_cell_length_a   3.79273400
_cell_length_b   5.85127400
_cell_length_c   6.57545400
_cell_angle_alpha   90.00000000
_cell_angle_beta   90.00000000
_cell_angle_gamma   90.00000000
_symmetry_Int_Tables_number   1
_chemical_formula_structural   SrH2O3
_chemical_formula_sum   'Sr2 H4 O6'
_cell_volume   145.92461773
_cell_formula_units_Z   2
loop_
 _symmetry_equiv_pos_site_id
 _symmetry_equiv_pos_as_xyz
  1  'x, y, z'
loop_
 _atom_site_type_symbol
 _atom_site_label
 _atom_site_symmetry_multiplicity
 _atom_site_fract_x
 _atom_site_fract_y
 _atom_site_fract_z
 _atom_site_occupancy
  Sr  Sr0  1  0.50000000  0.64135300  0.74596500  1
  Sr  Sr1  1  0.50000000  0.35864700  0.24596500  1
  H  H2  1  0.71173400  0.11826600  0.82940400  1
  H  H3  1  0.28826600  0.11826600  0.82940400  1
  H  H4  1  0.28826600  0.88173400  0.32940400  1
  H  H5  1  0.71173400  0.88173400  0.32940400  1
  O  O6  1  0.50000000  0.21589900  0.86948600  1
  O  O7  1  0.50000000  0.78410100  0.36948600  1
  O  O8  1  0.00000000  0.93002500  0.76368700  1
  O  O9  1  0.00000000  0.06997500  0.26368700  1
  O  O10  1  0.00000000  0.43625000  0.52570700  1
  O  O11  1  0.00000000  0.56375000  0.02570700  1
