# generated using pymatgen
data_RbP(HO2)2
_symmetry_space_group_name_H-M   'P 1'
_cell_length_a   6.56492894
_cell_length_b   6.56492894
_cell_length_c   6.56492894
_cell_angle_alpha   108.94168475
_cell_angle_beta   108.94168475
_cell_angle_gamma   110.53556388
_symmetry_Int_Tables_number   1
_chemical_formula_structural   RbP(HO2)2
_chemical_formula_sum   'Rb2 P2 H4 O8'
_cell_volume   217.74868703
_cell_formula_units_Z   2
loop_
 _symmetry_equiv_pos_site_id
 _symmetry_equiv_pos_as_xyz
  1  'x, y, z'
loop_
 _atom_site_type_symbol
 _atom_site_label
 _atom_site_symmetry_multiplicity
 _atom_site_fract_x
 _atom_site_fract_y
 _atom_site_fract_z
 _atom_site_occupancy
  Rb  Rb0  1  0.75000000  0.25000000  0.50000000  1
  Rb  Rb1  1  0.50000000  0.50000000  0.00000000  1
  P  P2  1  0.25000000  0.75000000  0.50000000  1
  P  P3  1  0.00000000  0.00000000  0.00000000  1
  H  H4  1  0.12500000  0.74013300  0.11513300  1
  H  H5  1  0.62500000  0.00986700  0.88486700  1
  H  H6  1  0.25986700  0.37500000  0.38486700  1
  H  H7  1  0.99013300  0.87500000  0.61513300  1
  O  O8  1  0.27620900  0.72750300  0.26760300  1
  O  O9  1  0.97379100  0.74139500  0.95129500  1
  O  O10  1  0.45990000  0.00860500  0.73239700  1
  O  O11  1  0.79010000  0.02249700  0.04870500  1
  O  O12  1  0.27249700  0.54010000  0.54870500  1
  O  O13  1  0.97750300  0.02620900  0.76760300  1
  O  O14  1  0.99139500  0.72379100  0.45129500  1
  O  O15  1  0.25860500  0.20990000  0.23239700  1
