# generated using pymatgen
data_CuBi5PbS9
_symmetry_space_group_name_H-M   'P 1'
_cell_length_a   4.03917800
_cell_length_b   11.68887800
_cell_length_c   33.57033500
_cell_angle_alpha   90.00000000
_cell_angle_beta   90.00000000
_cell_angle_gamma   90.00000000
_symmetry_Int_Tables_number   1
_chemical_formula_structural   CuBi5PbS9
_chemical_formula_sum   'Cu4 Bi20 Pb4 S36'
_cell_volume   1584.97163052
_cell_formula_units_Z   4
loop_
 _symmetry_equiv_pos_site_id
 _symmetry_equiv_pos_as_xyz
  1  'x, y, z'
loop_
 _atom_site_type_symbol
 _atom_site_label
 _atom_site_symmetry_multiplicity
 _atom_site_fract_x
 _atom_site_fract_y
 _atom_site_fract_z
 _atom_site_occupancy
  Cu  Cu0  1  0.75000000  0.77884400  0.73797400  1
  Cu  Cu1  1  0.75000000  0.27884400  0.76202600  1
  Cu  Cu2  1  0.25000000  0.22115600  0.26202600  1
  Cu  Cu3  1  0.25000000  0.72115600  0.23797400  1
  Bi  Bi4  1  0.75000000  0.14958600  0.34532100  1
  Bi  Bi5  1  0.25000000  0.84247500  0.98723400  1
  Bi  Bi6  1  0.75000000  0.64958600  0.15467900  1
  Bi  Bi7  1  0.25000000  0.34247500  0.51276600  1
  Bi  Bi8  1  0.25000000  0.50476300  0.39210900  1
  Bi  Bi9  1  0.25000000  0.51981400  0.05627300  1
  Bi  Bi10  1  0.25000000  0.00476300  0.10789100  1
  Bi  Bi11  1  0.75000000  0.98018600  0.55627300  1
  Bi  Bi12  1  0.25000000  0.35041400  0.84532100  1
  Bi  Bi13  1  0.25000000  0.52336200  0.72905300  1
  Bi  Bi14  1  0.75000000  0.48018600  0.94372700  1
  Bi  Bi15  1  0.75000000  0.97663800  0.22905300  1
  Bi  Bi16  1  0.25000000  0.01981400  0.44372700  1
  Bi  Bi17  1  0.25000000  0.02336200  0.77094700  1
  Bi  Bi18  1  0.75000000  0.47663800  0.27094700  1
  Bi  Bi19  1  0.75000000  0.65752500  0.48723400  1
  Bi  Bi20  1  0.75000000  0.49523700  0.60789100  1
  Bi  Bi21  1  0.75000000  0.15752500  0.01276600  1
  Bi  Bi22  1  0.25000000  0.85041400  0.65467900  1
  Bi  Bi23  1  0.75000000  0.99523700  0.89210900  1
  Pb  Pb24  1  0.75000000  0.68323000  0.83459300  1
  Pb  Pb25  1  0.75000000  0.18323000  0.66540700  1
  Pb  Pb26  1  0.25000000  0.31677000  0.16540700  1
  Pb  Pb27  1  0.25000000  0.81677000  0.33459300  1
  S  S28  1  0.25000000  0.55042400  0.88202000  1
  S  S29  1  0.75000000  0.46022700  0.79120600  1
  S  S30  1  0.25000000  0.21277100  0.39703100  1
  S  S31  1  0.75000000  0.27376900  0.23167000  1
  S  S32  1  0.75000000  0.62706800  0.01686100  1
  S  S33  1  0.25000000  0.55180000  0.54234500  1
  S  S34  1  0.75000000  0.94820000  0.04234500  1
  S  S35  1  0.75000000  0.44957600  0.11798000  1
  S  S36  1  0.25000000  0.37293200  0.98313900  1
  S  S37  1  0.75000000  0.44820000  0.45765500  1
  S  S38  1  0.75000000  0.78722900  0.60296900  1
  S  S39  1  0.25000000  0.87092400  0.18733400  1
  S  S40  1  0.75000000  0.12706800  0.48313900  1
  S  S41  1  0.75000000  0.79344100  0.93367200  1
  S  S42  1  0.25000000  0.89386200  0.85114300  1
  S  S43  1  0.25000000  0.72623100  0.76833000  1
  S  S44  1  0.75000000  0.10613800  0.14885700  1
  S  S45  1  0.25000000  0.71277100  0.10296900  1
  S  S46  1  0.75000000  0.96022700  0.70879400  1
  S  S47  1  0.75000000  0.60613800  0.35114300  1
  S  S48  1  0.25000000  0.03977300  0.29120600  1
  S  S49  1  0.75000000  0.77376900  0.26833000  1
  S  S50  1  0.25000000  0.20655900  0.06632800  1
  S  S51  1  0.25000000  0.53977300  0.20879400  1
  S  S52  1  0.25000000  0.05042400  0.61798000  1
  S  S53  1  0.25000000  0.87293200  0.51686100  1
  S  S54  1  0.25000000  0.39386200  0.64885700  1
  S  S55  1  0.25000000  0.22623100  0.73167000  1
  S  S56  1  0.75000000  0.94957600  0.38202000  1
  S  S57  1  0.75000000  0.29344100  0.56632800  1
  S  S58  1  0.75000000  0.12907600  0.81266600  1
  S  S59  1  0.25000000  0.70655900  0.43367200  1
  S  S60  1  0.25000000  0.37092400  0.31266600  1
  S  S61  1  0.75000000  0.62907600  0.68733400  1
  S  S62  1  0.75000000  0.28722900  0.89703100  1
  S  S63  1  0.25000000  0.05180000  0.95765500  1
