# generated using pymatgen
data_MgSiO3
_symmetry_space_group_name_H-M   'P 1'
_cell_length_a   4.87025800
_cell_length_b   10.13271800
_cell_length_c   10.95624600
_cell_angle_alpha   90.00000000
_cell_angle_beta   90.00000000
_cell_angle_gamma   90.00000000
_symmetry_Int_Tables_number   1
_chemical_formula_structural   MgSiO3
_chemical_formula_sum   'Mg8 Si8 O24'
_cell_volume   540.67924592
_cell_formula_units_Z   8
loop_
 _symmetry_equiv_pos_site_id
 _symmetry_equiv_pos_as_xyz
  1  'x, y, z'
loop_
 _atom_site_type_symbol
 _atom_site_label
 _atom_site_symmetry_multiplicity
 _atom_site_fract_x
 _atom_site_fract_y
 _atom_site_fract_z
 _atom_site_occupancy
  Mg  Mg0  1  0.28714500  0.97336300  0.46563400  1
  Mg  Mg1  1  0.65133900  0.25592800  0.02678300  1
  Mg  Mg2  1  0.84866100  0.75592800  0.52678300  1
  Mg  Mg3  1  0.15133900  0.25592800  0.47321700  1
  Mg  Mg4  1  0.71285500  0.47336300  0.53436600  1
  Mg  Mg5  1  0.21285500  0.47336300  0.96563400  1
  Mg  Mg6  1  0.78714500  0.97336300  0.03436600  1
  Mg  Mg7  1  0.34866100  0.75592800  0.97321700  1
  Si  Si8  1  0.57079100  0.25902200  0.32871000  1
  Si  Si9  1  0.07079100  0.25902200  0.17129000  1
  Si  Si10  1  0.89212600  0.17617400  0.66728000  1
  Si  Si11  1  0.39212600  0.17617400  0.83272000  1
  Si  Si12  1  0.60787400  0.67617400  0.16728000  1
  Si  Si13  1  0.42920900  0.75902200  0.67129000  1
  Si  Si14  1  0.92920900  0.75902200  0.82871000  1
  Si  Si15  1  0.10787400  0.67617400  0.33272000  1
  O  O16  1  0.41269900  0.27800100  0.19020300  1
  O  O17  1  0.47016900  0.37107100  0.42435600  1
  O  O18  1  0.92515700  0.32658300  0.61023800  1
  O  O19  1  0.43152000  0.65224800  0.29496400  1
  O  O20  1  0.58730100  0.77800100  0.80979700  1
  O  O21  1  0.93152000  0.65224800  0.20503600  1
  O  O22  1  0.93940900  0.12500200  0.12042700  1
  O  O23  1  0.43940900  0.12500200  0.37957300  1
  O  O24  1  0.97016900  0.37107100  0.07564400  1
  O  O25  1  0.56848000  0.15224800  0.70503600  1
  O  O26  1  0.02983100  0.87107100  0.92435600  1
  O  O27  1  0.08730100  0.77800100  0.69020300  1
  O  O28  1  0.42515700  0.32658300  0.88976200  1
  O  O29  1  0.06059100  0.62500200  0.87957300  1
  O  O30  1  0.98250700  0.58670800  0.44382600  1
  O  O31  1  0.01749300  0.08670800  0.55617400  1
  O  O32  1  0.56059100  0.62500200  0.62042700  1
  O  O33  1  0.57484300  0.82658300  0.11023800  1
  O  O34  1  0.52983100  0.87107100  0.57564400  1
  O  O35  1  0.06848000  0.15224800  0.79496400  1
  O  O36  1  0.51749300  0.08670800  0.94382600  1
  O  O37  1  0.91269900  0.27800100  0.30979700  1
  O  O38  1  0.07484300  0.82658300  0.38976200  1
  O  O39  1  0.48250700  0.58670800  0.05617400  1
