# generated using pymatgen
data_UTl2Cr2O10
_symmetry_space_group_name_H-M   'P 1'
_cell_length_a   10.83731100
_cell_length_b   13.63247300
_cell_length_c   14.07159000
_cell_angle_alpha   90.00000000
_cell_angle_beta   90.00000000
_cell_angle_gamma   90.00000000
_symmetry_Int_Tables_number   1
_chemical_formula_structural   UTl2Cr2O10
_chemical_formula_sum   'U8 Tl16 Cr16 O80'
_cell_volume   2078.92755444
_cell_formula_units_Z   8
loop_
 _symmetry_equiv_pos_site_id
 _symmetry_equiv_pos_as_xyz
  1  'x, y, z'
loop_
 _atom_site_type_symbol
 _atom_site_label
 _atom_site_symmetry_multiplicity
 _atom_site_fract_x
 _atom_site_fract_y
 _atom_site_fract_z
 _atom_site_occupancy
  U  U0  1  0.65573000  0.75996300  0.51759900  1
  U  U1  1  0.34427000  0.24003700  0.01759900  1
  U  U2  1  0.84427000  0.75996300  0.01759900  1
  U  U3  1  0.15573000  0.24003700  0.51759900  1
  U  U4  1  0.83881700  0.26753400  0.86736100  1
  U  U5  1  0.33881700  0.73246600  0.86736100  1
  U  U6  1  0.66118300  0.26753400  0.36736100  1
  U  U7  1  0.16118300  0.73246600  0.36736100  1
  Tl  Tl8  1  0.97386300  0.05430100  0.04704700  1
  Tl  Tl9  1  0.75602800  0.91587600  0.76302200  1
  Tl  Tl10  1  0.28176100  0.55709100  0.58876300  1
  Tl  Tl11  1  0.74397200  0.91587600  0.26302200  1
  Tl  Tl12  1  0.52613700  0.05430100  0.54704700  1
  Tl  Tl13  1  0.02613700  0.94569900  0.54704700  1
  Tl  Tl14  1  0.49405600  0.57224400  0.31664900  1
  Tl  Tl15  1  0.50594400  0.42775600  0.81664900  1
  Tl  Tl16  1  0.00594400  0.57224400  0.81664900  1
  Tl  Tl17  1  0.78176100  0.44290900  0.58876300  1
  Tl  Tl18  1  0.24397200  0.08412400  0.26302200  1
  Tl  Tl19  1  0.21823900  0.55709100  0.08876300  1
  Tl  Tl20  1  0.99405600  0.42775600  0.31664900  1
  Tl  Tl21  1  0.25602800  0.08412400  0.76302200  1
  Tl  Tl22  1  0.47386300  0.94569900  0.04704700  1
  Tl  Tl23  1  0.71823900  0.44290900  0.08876300  1
  Cr  Cr24  1  0.04689100  0.33764100  0.08751300  1
  Cr  Cr25  1  0.15527300  0.81675200  0.11082000  1
  Cr  Cr26  1  0.93821100  0.10941600  0.34262100  1
  Cr  Cr27  1  0.65527300  0.18324800  0.11082000  1
  Cr  Cr28  1  0.56178900  0.10941600  0.84262100  1
  Cr  Cr29  1  0.06178900  0.89058400  0.84262100  1
  Cr  Cr30  1  0.16504500  0.33627800  0.78370700  1
  Cr  Cr31  1  0.45310900  0.33764100  0.58751300  1
  Cr  Cr32  1  0.66504500  0.66372200  0.78370700  1
  Cr  Cr33  1  0.43821100  0.89058400  0.34262100  1
  Cr  Cr34  1  0.34472700  0.81675200  0.61082000  1
  Cr  Cr35  1  0.84472700  0.18324800  0.61082000  1
  Cr  Cr36  1  0.33495500  0.33627800  0.28370700  1
  Cr  Cr37  1  0.54689100  0.66235900  0.08751300  1
  Cr  Cr38  1  0.83495500  0.66372200  0.28370700  1
  Cr  Cr39  1  0.95310900  0.66235900  0.58751300  1
  O  O40  1  0.23287900  0.14223300  0.04112000  1
  O  O41  1  0.23188900  0.44072800  0.75823400  1
  O  O42  1  0.97643000  0.05501600  0.24256600  1
  O  O43  1  0.45509400  0.33890700  0.99750800  1
  O  O44  1  0.48777000  0.55481800  0.11902700  1
  O  O45  1  0.98777000  0.44518200  0.11902700  1
  O  O46  1  0.55694200  0.73023000  0.18236500  1
  O  O47  1  0.15689900  0.26711400  0.68511000  1
  O  O48  1  0.59480700  0.14496700  0.35709400  1
  O  O49  1  0.76712100  0.85776700  0.54112000  1
  O  O50  1  0.40519300  0.85503300  0.85709400  1
  O  O51  1  0.54215400  0.28189000  0.50493300  1
  O  O52  1  0.95509400  0.66109300  0.99750800  1
  O  O53  1  0.07152400  0.13634800  0.40201800  1
  O  O54  1  0.02154800  0.35917400  0.82424300  1
  O  O55  1  0.95784600  0.28189000  0.00493300  1
  O  O56  1  0.84310100  0.73288600  0.18511000  1
  O  O57  1  0.54490600  0.66109300  0.49750800  1
  O  O58  1  0.14675100  0.78771600  0.82281600  1
  O  O59  1  0.94305800  0.73023000  0.68236500  1
  O  O60  1  0.26712100  0.14223300  0.54112000  1
  O  O61  1  0.05694200  0.26977000  0.18236500  1
  O  O62  1  0.73287900  0.85776700  0.04112000  1
  O  O63  1  0.76811100  0.55927200  0.25823400  1
  O  O64  1  0.00758900  0.85120300  0.08803200  1
  O  O65  1  0.71736800  0.23113300  0.01304200  1
  O  O66  1  0.26779200  0.91421200  0.64228100  1
  O  O67  1  0.02357000  0.94498400  0.74256600  1
  O  O68  1  0.57152400  0.86365200  0.40201800  1
  O  O69  1  0.26811100  0.44072800  0.25823400  1
  O  O70  1  0.77176900  0.38997600  0.87996300  1
  O  O71  1  0.34310100  0.26711400  0.18511000  1
  O  O72  1  0.27176900  0.61002400  0.87996300  1
  O  O73  1  0.49241100  0.85120300  0.58803200  1
  O  O74  1  0.52154800  0.64082600  0.82424300  1
  O  O75  1  0.45784600  0.71811000  0.00493300  1
  O  O76  1  0.23220800  0.91421200  0.14228100  1
  O  O77  1  0.04215500  0.71811000  0.50493300  1
  O  O78  1  0.80825400  0.64084200  0.54401600  1
  O  O79  1  0.28263200  0.76886700  0.51304200  1
  O  O80  1  0.35324900  0.78771600  0.32281600  1
  O  O81  1  0.97845200  0.64082600  0.32424300  1
  O  O82  1  0.35680600  0.96758800  0.40615900  1
  O  O83  1  0.64319400  0.03241200  0.90615900  1
  O  O84  1  0.90519300  0.14496700  0.85709400  1
  O  O85  1  0.25341000  0.27524300  0.36631400  1
  O  O86  1  0.65689900  0.73288600  0.68511000  1
  O  O87  1  0.04490600  0.33890700  0.49750800  1
  O  O88  1  0.85680600  0.03241200  0.40615900  1
  O  O89  1  0.14319400  0.96758800  0.90615900  1
  O  O90  1  0.44305800  0.26977000  0.68236500  1
  O  O91  1  0.64675100  0.21228400  0.82281600  1
  O  O92  1  0.69174600  0.64084200  0.04401600  1
  O  O93  1  0.99241100  0.14879700  0.58803200  1
  O  O94  1  0.75341000  0.72475700  0.36631400  1
  O  O95  1  0.72823100  0.38997600  0.37996300  1
  O  O96  1  0.15956800  0.72940200  0.19735500  1
  O  O97  1  0.24659000  0.27524300  0.86631400  1
  O  O98  1  0.01223000  0.55481800  0.61902700  1
  O  O99  1  0.19174600  0.35915800  0.04401600  1
  O  O100  1  0.73220800  0.08578800  0.14228100  1
  O  O101  1  0.74659000  0.72475700  0.86631400  1
  O  O102  1  0.30825400  0.35915800  0.54401600  1
  O  O103  1  0.51223000  0.44518200  0.61902700  1
  O  O104  1  0.47845200  0.35917400  0.32424300  1
  O  O105  1  0.09480700  0.85503300  0.35709400  1
  O  O106  1  0.84043200  0.27059800  0.69735500  1
  O  O107  1  0.73188900  0.55927200  0.75823400  1
  O  O108  1  0.52357000  0.05501600  0.74256600  1
  O  O109  1  0.85324900  0.21228400  0.32281600  1
  O  O110  1  0.47643000  0.94498400  0.24256600  1
  O  O111  1  0.92847600  0.86365200  0.90201800  1
  O  O112  1  0.65956800  0.27059800  0.19735500  1
  O  O113  1  0.78263200  0.23113300  0.51304200  1
  O  O114  1  0.22823100  0.61002400  0.37996300  1
  O  O115  1  0.76779200  0.08578800  0.64228100  1
  O  O116  1  0.21736800  0.76886700  0.01304200  1
  O  O117  1  0.34043200  0.72940200  0.69735500  1
  O  O118  1  0.50758900  0.14879700  0.08803200  1
  O  O119  1  0.42847600  0.13634800  0.90201800  1
