# generated using pymatgen
data_U13O34
_symmetry_space_group_name_H-M   'P 1'
_cell_length_a   25.62343816
_cell_length_b   25.62343816
_cell_length_c   4.16444800
_cell_angle_alpha   90.00000000
_cell_angle_beta   90.00000000
_cell_angle_gamma   164.48017921
_symmetry_Int_Tables_number   1
_chemical_formula_structural   U13O34
_chemical_formula_sum   'U13 O34'
_cell_volume   731.59790736
_cell_formula_units_Z   1
loop_
 _symmetry_equiv_pos_site_id
 _symmetry_equiv_pos_as_xyz
  1  'x, y, z'
loop_
 _atom_site_type_symbol
 _atom_site_label
 _atom_site_symmetry_multiplicity
 _atom_site_fract_x
 _atom_site_fract_y
 _atom_site_fract_z
 _atom_site_occupancy
  U  U0  1  0.83561900  0.13873300  0.00000000  1
  U  U1  1  0.13873300  0.83561900  0.00000000  1
  U  U2  1  0.93152400  0.08242900  0.00000000  1
  U  U3  1  0.43796500  0.51640300  0.00000000  1
  U  U4  1  0.36147200  0.59999400  0.00000000  1
  U  U5  1  0.08242900  0.93152400  0.00000000  1
  U  U6  1  0.29597800  0.68072300  0.00000000  1
  U  U7  1  0.94158700  0.94158700  0.00000000  1
  U  U8  1  0.59999400  0.36147200  0.00000000  1
  U  U9  1  0.51640300  0.43796500  0.00000000  1
  U  U10  1  0.22171300  0.75247200  0.00000000  1
  U  U11  1  0.68072300  0.29597800  0.00000000  1
  U  U12  1  0.75247200  0.22171300  0.00000000  1
  O  O13  1  0.29883000  0.45374800  0.00000000  1
  O  O14  1  0.25419700  0.02548500  0.00000000  1
  O  O15  1  0.07430700  0.52753200  0.00000000  1
  O  O16  1  0.89988700  0.44797700  0.00000000  1
  O  O17  1  0.83717800  0.75033200  0.00000000  1
  O  O18  1  0.67780500  0.29273400  0.50000000  1
  O  O19  1  0.13912700  0.45734800  0.00000000  1
  O  O20  1  0.17400400  0.78961300  0.00000000  1
  O  O21  1  0.35693500  0.59777200  0.50000000  1
  O  O22  1  0.43622900  0.51336700  0.50000000  1
  O  O23  1  0.75245700  0.22317600  0.50000000  1
  O  O24  1  0.52753200  0.07430700  0.00000000  1
  O  O25  1  0.13533100  0.19723600  0.00000000  1
  O  O26  1  0.66116100  0.86681900  0.00000000  1
  O  O27  1  0.51116800  0.82318900  0.00000000  1
  O  O28  1  0.78961300  0.17400400  0.00000000  1
  O  O29  1  0.75033200  0.83717800  0.00000000  1
  O  O30  1  0.12921500  0.82839500  0.50000000  1
  O  O31  1  0.92649900  0.92649900  0.50000000  1
  O  O32  1  0.45374800  0.29883000  0.00000000  1
  O  O33  1  0.29273400  0.67780500  0.50000000  1
  O  O34  1  0.44797700  0.89988700  0.00000000  1
  O  O35  1  0.19723600  0.13533100  0.00000000  1
  O  O36  1  0.45734800  0.13912700  0.00000000  1
  O  O37  1  0.09121000  0.94214100  0.50000000  1
  O  O38  1  0.59777200  0.35693500  0.50000000  1
  O  O39  1  0.82318900  0.51116800  0.00000000  1
  O  O40  1  0.58298400  0.58298400  0.00000000  1
  O  O41  1  0.22317600  0.75245700  0.50000000  1
  O  O42  1  0.82839500  0.12921500  0.50000000  1
  O  O43  1  0.02548500  0.25419700  0.00000000  1
  O  O44  1  0.51336700  0.43622900  0.50000000  1
  O  O45  1  0.94214100  0.09121000  0.50000000  1
  O  O46  1  0.86681900  0.66116100  0.00000000  1
