# generated using pymatgen
data_MgSiO3
_symmetry_space_group_name_H-M   'P 1'
_cell_length_a   4.81638900
_cell_length_b   8.82649400
_cell_length_c   9.59157700
_cell_angle_alpha   90.00000000
_cell_angle_beta   90.00000000
_cell_angle_gamma   90.00000000
_symmetry_Int_Tables_number   1
_chemical_formula_structural   MgSiO3
_chemical_formula_sum   'Mg8 Si8 O24'
_cell_volume   407.75547753
_cell_formula_units_Z   8
loop_
 _symmetry_equiv_pos_site_id
 _symmetry_equiv_pos_as_xyz
  1  'x, y, z'
loop_
 _atom_site_type_symbol
 _atom_site_label
 _atom_site_symmetry_multiplicity
 _atom_site_fract_x
 _atom_site_fract_y
 _atom_site_fract_z
 _atom_site_occupancy
  Mg  Mg0  1  0.72999300  0.66486100  0.75371000  1
  Mg  Mg1  1  0.72593000  0.66417100  0.49822600  1
  Mg  Mg2  1  0.27000700  0.33513900  0.25371000  1
  Mg  Mg3  1  0.77000700  0.16486100  0.25371000  1
  Mg  Mg4  1  0.27407000  0.33582900  0.99822600  1
  Mg  Mg5  1  0.77407000  0.16417100  0.99822600  1
  Mg  Mg6  1  0.22999300  0.83513900  0.75371000  1
  Mg  Mg7  1  0.22593000  0.83582900  0.49822600  1
  Si  Si8  1  0.91100600  0.35904000  0.75835600  1
  Si  Si9  1  0.58899400  0.85904000  0.25835600  1
  Si  Si10  1  0.41100600  0.14096000  0.75835600  1
  Si  Si11  1  0.08899400  0.64096000  0.25835600  1
  Si  Si12  1  0.89165500  0.35630400  0.49263200  1
  Si  Si13  1  0.60834500  0.85630400  0.99263200  1
  Si  Si14  1  0.39165500  0.14369600  0.49263200  1
  Si  Si15  1  0.10834500  0.64369600  0.99263200  1
  O  O16  1  0.46557800  0.20446800  0.12539900  1
  O  O17  1  0.99108100  0.49896100  0.37457900  1
  O  O18  1  0.00891900  0.50103900  0.87457900  1
  O  O19  1  0.03442200  0.70446800  0.62539900  1
  O  O20  1  0.89215700  0.79193500  0.34086100  1
  O  O21  1  0.53442200  0.79553200  0.62539900  1
  O  O22  1  0.49108100  0.00103900  0.37457900  1
  O  O23  1  0.39215700  0.70806500  0.34086100  1
  O  O24  1  0.58564200  0.29519400  0.40813200  1
  O  O25  1  0.86258700  0.65884800  0.12159300  1
  O  O26  1  0.91435800  0.79519400  0.90813200  1
  O  O27  1  0.10784300  0.20806500  0.84086100  1
  O  O28  1  0.08564200  0.20480600  0.40813200  1
  O  O29  1  0.41435800  0.70480600  0.90813200  1
  O  O30  1  0.21404800  0.04173100  0.62651100  1
  O  O31  1  0.36258700  0.84115200  0.12159300  1
  O  O32  1  0.96557800  0.29553200  0.12539900  1
  O  O33  1  0.50891900  0.99896100  0.87457900  1
  O  O34  1  0.78595200  0.95826900  0.12651100  1
  O  O35  1  0.63741300  0.15884800  0.62159300  1
  O  O36  1  0.60784300  0.29193500  0.84086100  1
  O  O37  1  0.28595200  0.54173100  0.12651100  1
  O  O38  1  0.13741300  0.34115200  0.62159300  1
  O  O39  1  0.71404800  0.45826900  0.62651100  1
