data_image0
_chemical_formula_structural       Br4Li2Rb2
_chemical_formula_sum              "Br4 Li2 Rb2"
_cell_length_a       4.36612
_cell_length_b       7.5915
_cell_length_c       7.95307
_cell_angle_alpha    90
_cell_angle_beta     74.0682
_cell_angle_gamma    90

_space_group_name_H-M_alt    "P 1"
_space_group_IT_number       1

loop_
  _space_group_symop_operation_xyz
  'x, y, z'

loop_
  _atom_site_type_symbol
  _atom_site_label
  _atom_site_symmetry_multiplicity
  _atom_site_fract_x
  _atom_site_fract_y
  _atom_site_fract_z
  _atom_site_occupancy
  Br  Br1       1.0  0.00000  0.00000  0.00000  1.0000
  Br  Br2       1.0  0.00000  0.50000  0.00000  1.0000
  Br  Br3       1.0  0.30600  0.25000  0.38800  1.0000
  Br  Br4       1.0  0.69400  0.75000  0.61200  1.0000
  Li  Li1       1.0  0.89100  0.25000  0.21700  1.0000
  Li  Li2       1.0  0.10900  0.75000  0.78300  1.0000
  Rb  Rb1       1.0  0.37200  0.75000  0.25600  1.0000
  Rb  Rb2       1.0  0.62800  0.25000  0.74400  1.0000
