# generated using pymatgen
data_MgPO7
_symmetry_space_group_name_H-M   'P 1'
_cell_length_a   10.00130100
_cell_length_b   10.55279900
_cell_length_c   10.80608800
_cell_angle_alpha   90.00000000
_cell_angle_beta   90.00000000
_cell_angle_gamma   90.00000000
_symmetry_Int_Tables_number   1
_chemical_formula_structural   MgPO7
_chemical_formula_sum   'Mg8 P8 O56'
_cell_volume   1140.49310525
_cell_formula_units_Z   8
loop_
 _symmetry_equiv_pos_site_id
 _symmetry_equiv_pos_as_xyz
  1  'x, y, z'
loop_
 _atom_site_type_symbol
 _atom_site_label
 _atom_site_symmetry_multiplicity
 _atom_site_fract_x
 _atom_site_fract_y
 _atom_site_fract_z
 _atom_site_occupancy
  Mg  Mg0  1  0.80288200  0.27118600  0.38440000  1
  Mg  Mg1  1  0.30288200  0.22881400  0.61560000  1
  Mg  Mg2  1  0.19711800  0.77118600  0.11560000  1
  Mg  Mg3  1  0.69711800  0.72881400  0.88440000  1
  Mg  Mg4  1  0.19711800  0.72881400  0.61560000  1
  Mg  Mg5  1  0.69711800  0.77118600  0.38440000  1
  Mg  Mg6  1  0.80288200  0.22881400  0.88440000  1
  Mg  Mg7  1  0.30288200  0.27118600  0.11560000  1
  P  P8  1  0.48705800  0.14449600  0.35632000  1
  P  P9  1  0.98705800  0.35550400  0.64368000  1
  P  P10  1  0.51294200  0.64449600  0.14368000  1
  P  P11  1  0.01294200  0.85550400  0.85632000  1
  P  P12  1  0.51294200  0.85550400  0.64368000  1
  P  P13  1  0.01294200  0.64449600  0.35632000  1
  P  P14  1  0.48705800  0.35550400  0.85632000  1
  P  P15  1  0.98705800  0.14449600  0.14368000  1
  O  O16  1  0.42061200  0.20150500  0.24098400  1
  O  O17  1  0.92061200  0.29849500  0.75901600  1
  O  O18  1  0.57938800  0.70150500  0.25901600  1
  O  O19  1  0.07938800  0.79849500  0.74098400  1
  O  O20  1  0.57938800  0.79849500  0.75901600  1
  O  O21  1  0.07938800  0.70150500  0.24098400  1
  O  O22  1  0.42061200  0.29849500  0.74098400  1
  O  O23  1  0.92061200  0.20150500  0.25901600  1
  O  O24  1  0.41091000  0.18365500  0.47407400  1
  O  O25  1  0.91091000  0.31634500  0.52592600  1
  O  O26  1  0.58909000  0.68365500  0.02592600  1
  O  O27  1  0.08909000  0.81634500  0.97407400  1
  O  O28  1  0.58909000  0.81634500  0.52592600  1
  O  O29  1  0.08909000  0.68365500  0.47407400  1
  O  O30  1  0.41091000  0.31634500  0.97407400  1
  O  O31  1  0.91091000  0.18365500  0.02592600  1
  O  O32  1  0.63309500  0.18519700  0.36870300  1
  O  O33  1  0.13309500  0.31480300  0.63129700  1
  O  O34  1  0.36690500  0.68519700  0.13129700  1
  O  O35  1  0.86690500  0.81480300  0.86870300  1
  O  O36  1  0.36690500  0.81480300  0.63129700  1
  O  O37  1  0.86690500  0.68519700  0.36870300  1
  O  O38  1  0.63309500  0.31480300  0.86870300  1
  O  O39  1  0.13309500  0.18519700  0.13129700  1
  O  O40  1  0.47767300  0.99896100  0.33233100  1
  O  O41  1  0.97767300  0.50103900  0.66766900  1
  O  O42  1  0.52232700  0.49896100  0.16766900  1
  O  O43  1  0.02232700  0.00103900  0.83233100  1
  O  O44  1  0.52232700  0.00103900  0.66766900  1
  O  O45  1  0.02232700  0.49896100  0.33233100  1
  O  O46  1  0.47767300  0.50103900  0.83233100  1
  O  O47  1  0.97767300  0.99896100  0.16766900  1
  O  O48  1  0.66224900  0.38071700  0.56315800  1
  O  O49  1  0.16224900  0.11928300  0.43684200  1
  O  O50  1  0.33775100  0.88071700  0.93684200  1
  O  O51  1  0.83775100  0.61928300  0.06315800  1
  O  O52  1  0.33775100  0.61928300  0.43684200  1
  O  O53  1  0.83775100  0.88071700  0.56315800  1
  O  O54  1  0.66224900  0.11928300  0.06315800  1
  O  O55  1  0.16224900  0.38071700  0.93684200  1
  O  O56  1  0.70972200  0.45482700  0.37734200  1
  O  O57  1  0.20972200  0.04517300  0.62265800  1
  O  O58  1  0.29027800  0.95482700  0.12265800  1
  O  O59  1  0.79027800  0.54517300  0.87734200  1
  O  O60  1  0.29027800  0.54517300  0.62265800  1
  O  O61  1  0.79027800  0.95482700  0.37734200  1
  O  O62  1  0.70972200  0.04517300  0.87734200  1
  O  O63  1  0.20972200  0.45482700  0.12265800  1
  O  O64  1  0.84149000  0.97478700  0.48895000  1
  O  O65  1  0.34149000  0.52521300  0.51105000  1
  O  O66  1  0.15851000  0.47478700  0.01105000  1
  O  O67  1  0.65851000  0.02521300  0.98895000  1
  O  O68  1  0.15851000  0.02521300  0.51105000  1
  O  O69  1  0.65851000  0.47478700  0.48895000  1
  O  O70  1  0.84149000  0.52521300  0.98895000  1
  O  O71  1  0.34149000  0.97478700  0.01105000  1
