# generated using pymatgen
data_H3CSClO
_symmetry_space_group_name_H-M   'P 1'
_cell_length_a   8.53206900
_cell_length_b   5.41010200
_cell_length_c   10.44190262
_cell_angle_alpha   58.84172369
_cell_angle_beta   90.00000000
_cell_angle_gamma   90.00000000
_symmetry_Int_Tables_number   1
_chemical_formula_structural   H3CSClO
_chemical_formula_sum   'H12 C4 S4 Cl4 O4'
_cell_volume   412.46008578
_cell_formula_units_Z   4
loop_
 _symmetry_equiv_pos_site_id
 _symmetry_equiv_pos_as_xyz
  1  'x, y, z'
loop_
 _atom_site_type_symbol
 _atom_site_label
 _atom_site_symmetry_multiplicity
 _atom_site_fract_x
 _atom_site_fract_y
 _atom_site_fract_z
 _atom_site_occupancy
  H  H0  1  0.22920900  0.99564900  0.57554900  1
  H  H1  1  0.27079100  0.99564900  0.07554900  1
  H  H2  1  0.77079100  0.00435100  0.42445100  1
  H  H3  1  0.72920900  0.00435100  0.92445100  1
  H  H4  1  0.03713400  0.16338800  0.54560200  1
  H  H5  1  0.46286600  0.16338800  0.04560200  1
  H  H6  1  0.96286600  0.83661200  0.45439800  1
  H  H7  1  0.53713400  0.83661200  0.95439800  1
  H  H8  1  0.20346000  0.31816100  0.58563200  1
  H  H9  1  0.29654000  0.31816100  0.08563200  1
  H  H10  1  0.79654000  0.68183900  0.41436800  1
  H  H11  1  0.70346000  0.68183900  0.91436800  1
  C  C12  1  0.14933200  0.11691200  0.60518800  1
  C  C13  1  0.35066800  0.11691200  0.10518800  1
  C  C14  1  0.85066800  0.88308800  0.39481200  1
  C  C15  1  0.64933200  0.88308800  0.89481200  1
  S  S16  1  0.10914100  0.90567600  0.80255800  1
  S  S17  1  0.39085900  0.90567600  0.30255800  1
  S  S18  1  0.89085900  0.09432400  0.19744200  1
  S  S19  1  0.60914100  0.09432400  0.69744200  1
  Cl  Cl20  1  0.01634100  0.53734000  0.79846000  1
  Cl  Cl21  1  0.48365900  0.53734000  0.29846000  1
  Cl  Cl22  1  0.98365900  0.46266000  0.20154000  1
  Cl  Cl23  1  0.51634100  0.46266000  0.70154000  1
  O  O24  1  0.26323900  0.82348200  0.87911500  1
  O  O25  1  0.23676100  0.82348200  0.37911500  1
  O  O26  1  0.73676100  0.17651800  0.12088500  1
  O  O27  1  0.76323900  0.17651800  0.62088500  1
