# generated using pymatgen
data_Na2Hf(HO)6
_symmetry_space_group_name_H-M   'P 1'
_cell_length_a   5.90927970
_cell_length_b   5.90927970
_cell_length_c   5.90927946
_cell_angle_alpha   62.08290533
_cell_angle_beta   62.08290533
_cell_angle_gamma   62.08290818
_symmetry_Int_Tables_number   1
_chemical_formula_structural   Na2Hf(HO)6
_chemical_formula_sum   'Na2 Hf1 H6 O6'
_cell_volume   152.70503891
_cell_formula_units_Z   1
loop_
 _symmetry_equiv_pos_site_id
 _symmetry_equiv_pos_as_xyz
  1  'x, y, z'
loop_
 _atom_site_type_symbol
 _atom_site_label
 _atom_site_symmetry_multiplicity
 _atom_site_fract_x
 _atom_site_fract_y
 _atom_site_fract_z
 _atom_site_occupancy
  Na  Na0  1  0.16482000  0.16482000  0.16482000  1
  Na  Na1  1  0.83518000  0.83518000  0.83518000  1
  Hf  Hf2  1  0.50000000  0.50000000  0.50000000  1
  H  H3  1  0.64331600  0.06241300  0.34771600  1
  H  H4  1  0.34771600  0.64331600  0.06241300  1
  H  H5  1  0.06241300  0.34771600  0.64331600  1
  H  H6  1  0.35668400  0.93758700  0.65228400  1
  H  H7  1  0.65228400  0.35668400  0.93758700  1
  H  H8  1  0.93758700  0.65228400  0.35668400  1
  O  O9  1  0.70634700  0.13148600  0.42079000  1
  O  O10  1  0.42079000  0.70634700  0.13148600  1
  O  O11  1  0.13148600  0.42079000  0.70634700  1
  O  O12  1  0.29365300  0.86851400  0.57921000  1
  O  O13  1  0.57921000  0.29365300  0.86851400  1
  O  O14  1  0.86851400  0.57921000  0.29365300  1
