# generated using pymatgen
data_Cs2Co(PO3)4
_symmetry_space_group_name_H-M   'P 1'
_cell_length_a   12.32115300
_cell_length_b   8.58153900
_cell_length_c   13.01785631
_cell_angle_alpha   69.02735770
_cell_angle_beta   90.00000000
_cell_angle_gamma   90.00000000
_symmetry_Int_Tables_number   1
_chemical_formula_structural   Cs2Co(PO3)4
_chemical_formula_sum   'Cs8 Co4 P16 O48'
_cell_volume   1285.24903509
_cell_formula_units_Z   4
loop_
 _symmetry_equiv_pos_site_id
 _symmetry_equiv_pos_as_xyz
  1  'x, y, z'
loop_
 _atom_site_type_symbol
 _atom_site_label
 _atom_site_symmetry_multiplicity
 _atom_site_fract_x
 _atom_site_fract_y
 _atom_site_fract_z
 _atom_site_occupancy
  Cs  Cs0  1  0.55891800  0.74777800  0.97782300  1
  Cs  Cs1  1  0.89215000  0.58928900  0.16993400  1
  Cs  Cs2  1  0.94108200  0.74777800  0.47782300  1
  Cs  Cs3  1  0.05891800  0.25222200  0.52217700  1
  Cs  Cs4  1  0.60785000  0.58928900  0.66993400  1
  Cs  Cs5  1  0.44108200  0.25222200  0.02217700  1
  Cs  Cs6  1  0.39215000  0.41071100  0.33006600  1
  Cs  Cs7  1  0.10785000  0.41071100  0.83006600  1
  Co  Co8  1  0.26686400  0.95960100  0.31209800  1
  Co  Co9  1  0.73313600  0.04039900  0.68790200  1
  Co  Co10  1  0.23313600  0.95960100  0.81209800  1
  Co  Co11  1  0.76686400  0.04039900  0.18790200  1
  P  P12  1  0.14403500  0.32181000  0.19274800  1
  P  P13  1  0.95770900  0.97614300  0.81583600  1
  P  P14  1  0.72511900  0.07281800  0.42764400  1
  P  P15  1  0.04229100  0.02385700  0.18416400  1
  P  P16  1  0.85596500  0.67819000  0.80725200  1
  P  P17  1  0.64403500  0.67819000  0.30725200  1
  P  P18  1  0.77488100  0.07281800  0.92764400  1
  P  P19  1  0.73305000  0.37554700  0.47238000  1
  P  P20  1  0.54229100  0.97614300  0.31583600  1
  P  P21  1  0.45770900  0.02385700  0.68416400  1
  P  P22  1  0.27488100  0.92718200  0.57235600  1
  P  P23  1  0.22511900  0.92718200  0.07235600  1
  P  P24  1  0.23305000  0.62445300  0.02762000  1
  P  P25  1  0.35596500  0.32181000  0.69274800  1
  P  P26  1  0.76695000  0.37554700  0.97238000  1
  P  P27  1  0.26695000  0.62445300  0.52762000  1
  O  O28  1  0.38623400  0.02416300  0.57878400  1
  O  O29  1  0.82179400  0.25592200  0.91250900  1
  O  O30  1  0.74572400  0.78304100  0.28957000  1
  O  O31  1  0.32179400  0.74407800  0.58749100  1
  O  O32  1  0.09995800  0.92393600  0.28946000  1
  O  O33  1  0.61082200  0.60325500  0.22479000  1
  O  O34  1  0.07150200  0.02542200  0.83103500  1
  O  O35  1  0.38917800  0.39674500  0.77521000  1
  O  O36  1  0.90004200  0.07606400  0.71054000  1
  O  O37  1  0.61376600  0.97583700  0.42121600  1
  O  O38  1  0.77067200  0.99076200  0.54201400  1
  O  O39  1  0.04190600  0.22001900  0.16698500  1
  O  O40  1  0.30034400  0.91659200  0.16596500  1
  O  O41  1  0.27067200  0.00923800  0.95798600  1
  O  O42  1  0.35069100  0.46734000  0.56971800  1
  O  O43  1  0.14930900  0.46734000  0.06971800  1
  O  O44  1  0.95809400  0.77998100  0.83301500  1
  O  O45  1  0.22932800  0.00923800  0.45798600  1
  O  O46  1  0.59995800  0.07606400  0.21054000  1
  O  O47  1  0.65550700  0.42901000  0.92785600  1
  O  O48  1  0.40004200  0.92393600  0.78946000  1
  O  O49  1  0.11376600  0.02416300  0.07878400  1
  O  O50  1  0.88623400  0.97583700  0.92121600  1
  O  O51  1  0.11082200  0.39674500  0.27521000  1
  O  O52  1  0.28603400  0.70284500  0.40525800  1
  O  O53  1  0.42849800  0.02542200  0.33103500  1
  O  O54  1  0.17820600  0.74407800  0.08749100  1
  O  O55  1  0.24572400  0.21695900  0.21043000  1
  O  O56  1  0.67820600  0.25592200  0.41250900  1
  O  O57  1  0.88917800  0.60325500  0.72479000  1
  O  O58  1  0.54190600  0.77998100  0.33301500  1
  O  O59  1  0.71396600  0.29715500  0.59474200  1
  O  O60  1  0.25427600  0.21695900  0.71043000  1
  O  O61  1  0.92849800  0.97457800  0.16896500  1
  O  O62  1  0.19965600  0.91659200  0.66596500  1
  O  O63  1  0.69965600  0.08340800  0.83403500  1
  O  O64  1  0.57150200  0.97457800  0.66896500  1
  O  O65  1  0.34449300  0.57099000  0.07214400  1
  O  O66  1  0.75427600  0.78304100  0.78957000  1
  O  O67  1  0.85069100  0.53266000  0.93028200  1
  O  O68  1  0.45809400  0.22001900  0.66698500  1
  O  O69  1  0.78603400  0.29715500  0.09474200  1
  O  O70  1  0.80034400  0.08340800  0.33403500  1
  O  O71  1  0.64930900  0.53266000  0.43028200  1
  O  O72  1  0.84449300  0.42901000  0.42785600  1
  O  O73  1  0.72932800  0.99076200  0.04201400  1
  O  O74  1  0.21396600  0.70284500  0.90525800  1
  O  O75  1  0.15550700  0.57099000  0.57214400  1
