# generated using pymatgen
data_Rb3ZnH5
_symmetry_space_group_name_H-M   'P 1'
_cell_length_a   8.12206048
_cell_length_b   8.12206048
_cell_length_c   8.12206048
_cell_angle_alpha   121.22804618
_cell_angle_beta   121.22804618
_cell_angle_gamma   87.88580487
_symmetry_Int_Tables_number   1
_chemical_formula_structural   Rb3ZnH5
_chemical_formula_sum   'Rb6 Zn2 H10'
_cell_volume   371.55711513
_cell_formula_units_Z   2
loop_
 _symmetry_equiv_pos_site_id
 _symmetry_equiv_pos_as_xyz
  1  'x, y, z'
loop_
 _atom_site_type_symbol
 _atom_site_label
 _atom_site_symmetry_multiplicity
 _atom_site_fract_x
 _atom_site_fract_y
 _atom_site_fract_z
 _atom_site_occupancy
  Rb  Rb0  1  0.68128000  0.18128000  0.86256100  1
  Rb  Rb1  1  0.31872000  0.81872000  0.13743900  1
  Rb  Rb2  1  0.18128000  0.31872000  0.50000000  1
  Rb  Rb3  1  0.81872000  0.68128000  0.50000000  1
  Rb  Rb4  1  0.75000000  0.75000000  0.00000000  1
  Rb  Rb5  1  0.25000000  0.25000000  0.00000000  1
  Zn  Zn6  1  0.75000000  0.25000000  0.50000000  1
  Zn  Zn7  1  0.25000000  0.75000000  0.50000000  1
  H  H8  1  0.95488900  0.45488900  0.73941100  1
  H  H9  1  0.71547900  0.21547900  0.26058900  1
  H  H10  1  0.45488900  0.71547900  0.50000000  1
  H  H11  1  0.21547900  0.95488900  0.50000000  1
  H  H12  1  0.04511100  0.54511100  0.26058900  1
  H  H13  1  0.28452100  0.78452100  0.73941100  1
  H  H14  1  0.54511100  0.28452100  0.50000000  1
  H  H15  1  0.78452100  0.04511100  0.50000000  1
  H  H16  1  0.00000000  0.00000000  0.00000000  1
  H  H17  1  0.50000000  0.50000000  0.00000000  1
