# generated using pymatgen
data_NaAl(SO10)2
_symmetry_space_group_name_H-M   'P 1'
_cell_length_a   11.36535500
_cell_length_b   11.36535500
_cell_length_c   11.36535500
_cell_angle_alpha   90.00000000
_cell_angle_beta   90.00000000
_cell_angle_gamma   90.00000000
_symmetry_Int_Tables_number   1
_chemical_formula_structural   NaAl(SO10)2
_chemical_formula_sum   'Na4 Al4 S8 O80'
_cell_volume   1468.07761526
_cell_formula_units_Z   4
loop_
 _symmetry_equiv_pos_site_id
 _symmetry_equiv_pos_as_xyz
  1  'x, y, z'
loop_
 _atom_site_type_symbol
 _atom_site_label
 _atom_site_symmetry_multiplicity
 _atom_site_fract_x
 _atom_site_fract_y
 _atom_site_fract_z
 _atom_site_occupancy
  Na  Na0  1  0.00000000  0.00000000  0.50000000  1
  Na  Na1  1  0.00000000  0.50000000  0.00000000  1
  Na  Na2  1  0.50000000  0.00000000  0.00000000  1
  Na  Na3  1  0.50000000  0.50000000  0.50000000  1
  Al  Al4  1  0.50000000  0.50000000  0.00000000  1
  Al  Al5  1  0.50000000  0.00000000  0.50000000  1
  Al  Al6  1  0.00000000  0.50000000  0.50000000  1
  Al  Al7  1  0.00000000  0.00000000  0.00000000  1
  S  S8  1  0.23893900  0.76106100  0.26106100  1
  S  S9  1  0.76106100  0.26106100  0.23893900  1
  S  S10  1  0.26106100  0.23893900  0.76106100  1
  S  S11  1  0.73893900  0.73893900  0.73893900  1
  S  S12  1  0.76106100  0.23893900  0.73893900  1
  S  S13  1  0.23893900  0.73893900  0.76106100  1
  S  S14  1  0.73893900  0.76106100  0.23893900  1
  S  S15  1  0.26106100  0.26106100  0.26106100  1
  O  O16  1  0.16333500  0.83666500  0.33666500  1
  O  O17  1  0.83666500  0.33666500  0.16333500  1
  O  O18  1  0.33666500  0.16333500  0.83666500  1
  O  O19  1  0.66333500  0.66333500  0.66333500  1
  O  O20  1  0.83666500  0.16333500  0.66333500  1
  O  O21  1  0.16333500  0.66333500  0.83666500  1
  O  O22  1  0.66333500  0.83666500  0.16333500  1
  O  O23  1  0.33666500  0.33666500  0.33666500  1
  O  O24  1  0.35925500  0.81381500  0.25637600  1
  O  O25  1  0.64074500  0.31381500  0.24362400  1
  O  O26  1  0.14074500  0.18618500  0.75637600  1
  O  O27  1  0.85925500  0.68618500  0.74362400  1
  O  O28  1  0.25637600  0.35925500  0.81381500  1
  O  O29  1  0.24362400  0.64074500  0.31381500  1
  O  O30  1  0.75637600  0.14074500  0.18618500  1
  O  O31  1  0.74362400  0.85925500  0.68618500  1
  O  O32  1  0.81381500  0.25637600  0.35925500  1
  O  O33  1  0.31381500  0.24362400  0.64074500  1
  O  O34  1  0.18618500  0.75637600  0.14074500  1
  O  O35  1  0.68618500  0.74362400  0.85925500  1
  O  O36  1  0.64074500  0.18618500  0.74362400  1
  O  O37  1  0.35925500  0.68618500  0.75637600  1
  O  O38  1  0.85925500  0.81381500  0.24362400  1
  O  O39  1  0.14074500  0.31381500  0.25637600  1
  O  O40  1  0.74362400  0.64074500  0.18618500  1
  O  O41  1  0.75637600  0.35925500  0.68618500  1
  O  O42  1  0.24362400  0.85925500  0.81381500  1
  O  O43  1  0.25637600  0.14074500  0.31381500  1
  O  O44  1  0.18618500  0.74362400  0.64074500  1
  O  O45  1  0.68618500  0.75637600  0.35925500  1
  O  O46  1  0.81381500  0.24362400  0.85925500  1
  O  O47  1  0.31381500  0.25637600  0.14074500  1
  O  O48  1  0.20526200  0.59154900  0.04462100  1
  O  O49  1  0.79473800  0.09154900  0.45537900  1
  O  O50  1  0.29473800  0.40845100  0.54462100  1
  O  O51  1  0.70526200  0.90845100  0.95537900  1
  O  O52  1  0.04462100  0.20526200  0.59154900  1
  O  O53  1  0.45537900  0.79473800  0.09154900  1
  O  O54  1  0.54462100  0.29473800  0.40845100  1
  O  O55  1  0.95537900  0.70526200  0.90845100  1
  O  O56  1  0.59154900  0.04462100  0.20526200  1
  O  O57  1  0.09154900  0.45537900  0.79473800  1
  O  O58  1  0.40845100  0.54462100  0.29473800  1
  O  O59  1  0.90845100  0.95537900  0.70526200  1
  O  O60  1  0.79473800  0.40845100  0.95537900  1
  O  O61  1  0.20526200  0.90845100  0.54462100  1
  O  O62  1  0.70526200  0.59154900  0.45537900  1
  O  O63  1  0.29473800  0.09154900  0.04462100  1
  O  O64  1  0.95537900  0.79473800  0.40845100  1
  O  O65  1  0.54462100  0.20526200  0.90845100  1
  O  O66  1  0.45537900  0.70526200  0.59154900  1
  O  O67  1  0.04462100  0.29473800  0.09154900  1
  O  O68  1  0.40845100  0.95537900  0.79473800  1
  O  O69  1  0.90845100  0.54462100  0.20526200  1
  O  O70  1  0.59154900  0.45537900  0.70526200  1
  O  O71  1  0.09154900  0.04462100  0.29473800  1
  O  O72  1  0.43546400  0.65120700  0.98196500  1
  O  O73  1  0.56453600  0.15120700  0.51803500  1
  O  O74  1  0.06453600  0.34879300  0.48196500  1
  O  O75  1  0.93546400  0.84879300  0.01803500  1
  O  O76  1  0.98196500  0.43546400  0.65120700  1
  O  O77  1  0.51803500  0.56453600  0.15120700  1
  O  O78  1  0.48196500  0.06453600  0.34879300  1
  O  O79  1  0.01803500  0.93546400  0.84879300  1
  O  O80  1  0.65120700  0.98196500  0.43546400  1
  O  O81  1  0.15120700  0.51803500  0.56453600  1
  O  O82  1  0.34879300  0.48196500  0.06453600  1
  O  O83  1  0.84879300  0.01803500  0.93546400  1
  O  O84  1  0.56453600  0.34879300  0.01803500  1
  O  O85  1  0.43546400  0.84879300  0.48196500  1
  O  O86  1  0.93546400  0.65120700  0.51803500  1
  O  O87  1  0.06453600  0.15120700  0.98196500  1
  O  O88  1  0.01803500  0.56453600  0.34879300  1
  O  O89  1  0.48196500  0.43546400  0.84879300  1
  O  O90  1  0.51803500  0.93546400  0.65120700  1
  O  O91  1  0.98196500  0.06453600  0.15120700  1
  O  O92  1  0.34879300  0.01803500  0.56453600  1
  O  O93  1  0.84879300  0.48196500  0.43546400  1
  O  O94  1  0.65120700  0.51803500  0.93546400  1
  O  O95  1  0.15120700  0.98196500  0.06453600  1
