# generated using pymatgen
data_K3Cr(CN)6
_symmetry_space_group_name_H-M   'P 1'
_cell_length_a   8.54396300
_cell_length_b   10.61866000
_cell_length_c   13.71518200
_cell_angle_alpha   90.00000000
_cell_angle_beta   90.00000000
_cell_angle_gamma   90.00000000
_symmetry_Int_Tables_number   1
_chemical_formula_structural   K3Cr(CN)6
_chemical_formula_sum   'K12 Cr4 C24 N24'
_cell_volume   1244.31589625
_cell_formula_units_Z   4
loop_
 _symmetry_equiv_pos_site_id
 _symmetry_equiv_pos_as_xyz
  1  'x, y, z'
loop_
 _atom_site_type_symbol
 _atom_site_label
 _atom_site_symmetry_multiplicity
 _atom_site_fract_x
 _atom_site_fract_y
 _atom_site_fract_z
 _atom_site_occupancy
  K  K0  1  0.87379800  0.26715000  0.50206400  1
  K  K1  1  0.37030300  0.00000000  0.25000000  1
  K  K2  1  0.87030300  0.50000000  0.25000000  1
  K  K3  1  0.12969700  0.50000000  0.75000000  1
  K  K4  1  0.62620200  0.76715000  0.49793600  1
  K  K5  1  0.62969700  0.00000000  0.75000000  1
  K  K6  1  0.12620200  0.26715000  0.00206400  1
  K  K7  1  0.62620200  0.23285000  0.00206400  1
  K  K8  1  0.37379800  0.76715000  0.99793600  1
  K  K9  1  0.87379800  0.73285000  0.99793600  1
  K  K10  1  0.12620200  0.73285000  0.49793600  1
  K  K11  1  0.37379800  0.23285000  0.50206400  1
  Cr  Cr12  1  0.87539100  0.00000000  0.25000000  1
  Cr  Cr13  1  0.62460900  0.50000000  0.75000000  1
  Cr  Cr14  1  0.37539100  0.50000000  0.25000000  1
  Cr  Cr15  1  0.12460900  0.00000000  0.75000000  1
  C  C16  1  0.95559300  0.94412500  0.65206000  1
  C  C17  1  0.20343400  0.55622600  0.15444400  1
  C  C18  1  0.79656600  0.44377400  0.84555600  1
  C  C19  1  0.54440700  0.44412500  0.34794000  1
  C  C20  1  0.45559300  0.44412500  0.84794000  1
  C  C21  1  0.62477300  0.67544900  0.81398200  1
  C  C22  1  0.87522700  0.82455100  0.31398200  1
  C  C23  1  0.04440700  0.94412500  0.15206000  1
  C  C24  1  0.37522700  0.32455100  0.18601800  1
  C  C25  1  0.04440700  0.05587500  0.34794000  1
  C  C26  1  0.12477300  0.82455100  0.81398200  1
  C  C27  1  0.29656600  0.05622600  0.84555600  1
  C  C28  1  0.62477300  0.32455100  0.68601800  1
  C  C29  1  0.12477300  0.17544900  0.68601800  1
  C  C30  1  0.70343400  0.94377400  0.15444400  1
  C  C31  1  0.95559300  0.05587500  0.84794000  1
  C  C32  1  0.87522700  0.17544900  0.18601800  1
  C  C33  1  0.29656600  0.94377400  0.65444400  1
  C  C34  1  0.45559300  0.55587500  0.65206000  1
  C  C35  1  0.20343400  0.44377400  0.34555600  1
  C  C36  1  0.37522700  0.67544900  0.31398200  1
  C  C37  1  0.79656600  0.55622600  0.65444400  1
  C  C38  1  0.70343400  0.05622600  0.34555600  1
  C  C39  1  0.54440700  0.55587500  0.15206000  1
  N  N40  1  0.10081500  0.58585700  0.10194800  1
  N  N41  1  0.60081500  0.08585700  0.39805200  1
  N  N42  1  0.14070800  0.09016500  0.40358000  1
  N  N43  1  0.35929200  0.59016500  0.59642000  1
  N  N44  1  0.60081500  0.91414300  0.10194800  1
  N  N45  1  0.64070800  0.40983500  0.40358000  1
  N  N46  1  0.39918500  0.08585700  0.89805200  1
  N  N47  1  0.14070800  0.90983500  0.09642000  1
  N  N48  1  0.87460600  0.72607200  0.35306600  1
  N  N49  1  0.39918500  0.91414300  0.60194800  1
  N  N50  1  0.10081500  0.41414300  0.39805200  1
  N  N51  1  0.35929200  0.40983500  0.90358000  1
  N  N52  1  0.85929200  0.09016500  0.90358000  1
  N  N53  1  0.12539400  0.72607200  0.85306600  1
  N  N54  1  0.37460600  0.77392800  0.35306600  1
  N  N55  1  0.37460600  0.22607200  0.14693400  1
  N  N56  1  0.89918500  0.58585700  0.60194800  1
  N  N57  1  0.85929200  0.90983500  0.59642000  1
  N  N58  1  0.64070800  0.59016500  0.09642000  1
  N  N59  1  0.89918500  0.41414300  0.89805200  1
  N  N60  1  0.62539400  0.77392800  0.85306600  1
  N  N61  1  0.12539400  0.27392800  0.64693400  1
  N  N62  1  0.87460600  0.27392800  0.14693400  1
  N  N63  1  0.62539400  0.22607200  0.64693400  1
