# generated using pymatgen
data_Yb23Mg4Cu7
_symmetry_space_group_name_H-M   'P 1'
_cell_length_a   10.08033595
_cell_length_b   10.08033595
_cell_length_c   23.17039400
_cell_angle_alpha   90.00000000
_cell_angle_beta   90.00000000
_cell_angle_gamma   119.99999969
_symmetry_Int_Tables_number   1
_chemical_formula_structural   Yb23Mg4Cu7
_chemical_formula_sum   'Yb46 Mg8 Cu14'
_cell_volume   2038.98515782
_cell_formula_units_Z   2
loop_
 _symmetry_equiv_pos_site_id
 _symmetry_equiv_pos_as_xyz
  1  'x, y, z'
loop_
 _atom_site_type_symbol
 _atom_site_label
 _atom_site_symmetry_multiplicity
 _atom_site_fract_x
 _atom_site_fract_y
 _atom_site_fract_z
 _atom_site_occupancy
  Yb  Yb0  1  0.79061500  0.20938500  0.97033400  1
  Yb  Yb1  1  0.07705400  0.53852700  0.33179400  1
  Yb  Yb2  1  0.87008100  0.12991900  0.38380100  1
  Yb  Yb3  1  0.92294600  0.46147300  0.66820600  1
  Yb  Yb4  1  0.66666700  0.33333300  0.38534800  1
  Yb  Yb5  1  0.46147300  0.53852700  0.33179400  1
  Yb  Yb6  1  0.66666700  0.33333300  0.11465200  1
  Yb  Yb7  1  0.74821900  0.87410900  0.25000000  1
  Yb  Yb8  1  0.12589100  0.25178100  0.25000000  1
  Yb  Yb9  1  0.87008100  0.74016200  0.38380100  1
  Yb  Yb10  1  0.53852700  0.07705400  0.83179400  1
  Yb  Yb11  1  0.12991900  0.25983800  0.61619900  1
  Yb  Yb12  1  0.20938500  0.41877100  0.02966600  1
  Yb  Yb13  1  0.12991900  0.87008100  0.61619900  1
  Yb  Yb14  1  0.87410900  0.12589100  0.75000000  1
  Yb  Yb15  1  0.41877100  0.20938500  0.97033400  1
  Yb  Yb16  1  0.74016200  0.87008100  0.88380100  1
  Yb  Yb17  1  0.87008100  0.74016200  0.11619900  1
  Yb  Yb18  1  0.20938500  0.41877100  0.47033400  1
  Yb  Yb19  1  0.58122900  0.79061500  0.47033400  1
  Yb  Yb20  1  0.25178100  0.12589100  0.75000000  1
  Yb  Yb21  1  0.46147300  0.92294600  0.16820600  1
  Yb  Yb22  1  0.20938500  0.79061500  0.47033400  1
  Yb  Yb23  1  0.12589100  0.87410900  0.25000000  1
  Yb  Yb24  1  0.46147300  0.53852700  0.16820600  1
  Yb  Yb25  1  0.33333300  0.66666700  0.61465200  1
  Yb  Yb26  1  0.74016200  0.87008100  0.61619900  1
  Yb  Yb27  1  0.46147300  0.92294600  0.33179400  1
  Yb  Yb28  1  0.41877100  0.20938500  0.52966600  1
  Yb  Yb29  1  0.20938500  0.79061500  0.02966600  1
  Yb  Yb30  1  0.25983800  0.12991900  0.11619900  1
  Yb  Yb31  1  0.12991900  0.87008100  0.88380100  1
  Yb  Yb32  1  0.58122900  0.79061500  0.02966600  1
  Yb  Yb33  1  0.53852700  0.07705400  0.66820600  1
  Yb  Yb34  1  0.25983800  0.12991900  0.38380100  1
  Yb  Yb35  1  0.92294600  0.46147300  0.83179400  1
  Yb  Yb36  1  0.87410900  0.74821900  0.75000000  1
  Yb  Yb37  1  0.87008100  0.12991900  0.11619900  1
  Yb  Yb38  1  0.07705400  0.53852700  0.16820600  1
  Yb  Yb39  1  0.33333300  0.66666700  0.88534800  1
  Yb  Yb40  1  0.53852700  0.46147300  0.83179400  1
  Yb  Yb41  1  0.12991900  0.25983800  0.88380100  1
  Yb  Yb42  1  0.53852700  0.46147300  0.66820600  1
  Yb  Yb43  1  0.79061500  0.20938500  0.52966600  1
  Yb  Yb44  1  0.79061500  0.58122900  0.97033400  1
  Yb  Yb45  1  0.79061500  0.58122900  0.52966600  1
  Mg  Mg46  1  0.00000000  0.00000000  0.50000000  1
  Mg  Mg47  1  0.77031700  0.22968300  0.25000000  1
  Mg  Mg48  1  0.54063500  0.77031700  0.75000000  1
  Mg  Mg49  1  0.22968300  0.77031700  0.75000000  1
  Mg  Mg50  1  0.77031700  0.54063500  0.25000000  1
  Mg  Mg51  1  0.22968300  0.45936500  0.75000000  1
  Mg  Mg52  1  0.45936500  0.22968300  0.25000000  1
  Mg  Mg53  1  0.00000000  0.00000000  0.00000000  1
  Cu  Cu54  1  0.52465900  0.47534100  0.05077800  1
  Cu  Cu55  1  0.52465900  0.47534100  0.44922200  1
  Cu  Cu56  1  0.52465900  0.04931700  0.44922200  1
  Cu  Cu57  1  0.52465900  0.04931700  0.05077800  1
  Cu  Cu58  1  0.47534100  0.52465900  0.94922200  1
  Cu  Cu59  1  0.47534100  0.95068300  0.55077800  1
  Cu  Cu60  1  0.95068300  0.47534100  0.44922200  1
  Cu  Cu61  1  0.95068300  0.47534100  0.05077800  1
  Cu  Cu62  1  0.66666700  0.33333300  0.75000000  1
  Cu  Cu63  1  0.04931700  0.52465900  0.55077800  1
  Cu  Cu64  1  0.47534100  0.95068300  0.94922200  1
  Cu  Cu65  1  0.47534100  0.52465900  0.55077800  1
  Cu  Cu66  1  0.04931700  0.52465900  0.94922200  1
  Cu  Cu67  1  0.33333300  0.66666700  0.25000000  1
