# generated using pymatgen
data_HCN
_symmetry_space_group_name_H-M   'P 1'
_cell_length_a   3.92344512
_cell_length_b   3.92344512
_cell_length_c   3.92344512
_cell_angle_alpha   107.64165077
_cell_angle_beta   107.64165077
_cell_angle_gamma   113.19580095
_symmetry_Int_Tables_number   1
_chemical_formula_structural   HCN
_chemical_formula_sum   'H1 C1 N1'
_cell_volume   46.34391286
_cell_formula_units_Z   1
loop_
 _symmetry_equiv_pos_site_id
 _symmetry_equiv_pos_as_xyz
  1  'x, y, z'
loop_
 _atom_site_type_symbol
 _atom_site_label
 _atom_site_symmetry_multiplicity
 _atom_site_fract_x
 _atom_site_fract_y
 _atom_site_fract_z
 _atom_site_occupancy
  H  H0  1  0.75209700  0.75209700  0.00000000  1
  C  C1  1  0.00367400  0.00367400  0.00000000  1
  N  N2  1  0.27192900  0.27192900  0.00000000  1
