# generated using pymatgen
data_LaMnO3
_symmetry_space_group_name_H-M   'P 1'
_cell_length_a   10.29785700
_cell_length_b   5.67439300
_cell_length_c   6.04318975
_cell_angle_alpha   70.70900253
_cell_angle_beta   90.00000000
_cell_angle_gamma   90.00000000
_symmetry_Int_Tables_number   1
_chemical_formula_structural   LaMnO3
_chemical_formula_sum   'La4 Mn4 O12'
_cell_volume   333.30114088
_cell_formula_units_Z   4
loop_
 _symmetry_equiv_pos_site_id
 _symmetry_equiv_pos_as_xyz
  1  'x, y, z'
loop_
 _atom_site_type_symbol
 _atom_site_label
 _atom_site_symmetry_multiplicity
 _atom_site_fract_x
 _atom_site_fract_y
 _atom_site_fract_z
 _atom_site_occupancy
  La  La0  1  0.66773300  0.02842100  0.49811000  1
  La  La1  1  0.16773300  0.97157900  0.00189000  1
  La  La2  1  0.83226700  0.02842100  0.99811000  1
  La  La3  1  0.33226700  0.97157900  0.50189000  1
  Mn  Mn4  1  0.50000000  0.00000000  0.00000000  1
  Mn  Mn5  1  0.00000000  0.50000000  0.50000000  1
  Mn  Mn6  1  0.00000000  0.00000000  0.50000000  1
  Mn  Mn7  1  0.50000000  0.50000000  0.00000000  1
  O  O8  1  0.37350500  0.22531300  0.06552400  1
  O  O9  1  0.14144700  0.74110200  0.41998000  1
  O  O10  1  0.00568200  0.16749200  0.14776700  1
  O  O11  1  0.62649500  0.77468700  0.93447600  1
  O  O12  1  0.85855300  0.25889800  0.58002000  1
  O  O13  1  0.50568200  0.83250800  0.35223300  1
  O  O14  1  0.12649500  0.22531300  0.56552400  1
  O  O15  1  0.35855300  0.74110200  0.91998000  1
  O  O16  1  0.99431800  0.83250800  0.85223300  1
  O  O17  1  0.49431800  0.16749200  0.64776700  1
  O  O18  1  0.87350500  0.77468700  0.43447600  1
  O  O19  1  0.64144700  0.25889800  0.08002000  1
