# generated using pymatgen
data_C20Cl3
_symmetry_space_group_name_H-M   'P 1'
_cell_length_a   11.95060627
_cell_length_b   11.95060627
_cell_length_c   21.60137775
_cell_angle_alpha   75.69615411
_cell_angle_beta   75.69615411
_cell_angle_gamma   55.93607912
_symmetry_Int_Tables_number   1
_chemical_formula_structural   C20Cl3
_chemical_formula_sum   'C160 Cl24'
_cell_volume   2453.66120241
_cell_formula_units_Z   8
loop_
 _symmetry_equiv_pos_site_id
 _symmetry_equiv_pos_as_xyz
  1  'x, y, z'
loop_
 _atom_site_type_symbol
 _atom_site_label
 _atom_site_symmetry_multiplicity
 _atom_site_fract_x
 _atom_site_fract_y
 _atom_site_fract_z
 _atom_site_occupancy
  C  C0  1  0.29525300  0.41126700  0.86984400  1
  C  C1  1  0.54501200  0.75554500  0.56267600  1
  C  C2  1  0.56192800  0.80219900  0.66801000  1
  C  C3  1  0.36288400  0.58196200  0.23564200  1
  C  C4  1  0.97918900  0.95650200  0.27401800  1
  C  C5  1  0.94397100  0.87903900  0.75348200  1
  C  C6  1  0.98253200  0.96440200  0.63664400  1
  C  C7  1  0.66514400  0.43739900  0.43531400  1
  C  C8  1  0.44970000  0.25521900  0.15691700  1
  C  C9  1  0.87903900  0.94397100  0.25348200  1
  C  C10  1  0.77554800  0.94046400  0.30109200  1
  C  C11  1  0.46044000  0.95386900  0.65252300  1
  C  C12  1  0.98153400  0.85272500  0.68790100  1
  C  C13  1  0.62841400  0.01883800  0.39495000  1
  C  C14  1  0.38625800  0.95037400  0.77576600  1
  C  C15  1  0.85272500  0.98153400  0.18790100  1
  C  C16  1  0.28258300  0.70275600  0.53862600  1
  C  C17  1  0.82785400  0.03427900  0.43546200  1
  C  C18  1  0.36778300  0.75407000  0.52764600  1
  C  C19  1  0.72215900  0.03316400  0.17318600  1
  C  C20  1  0.70474700  0.58873300  0.13015600  1
  C  C21  1  0.01883800  0.62841400  0.89495000  1
  C  C22  1  0.43739900  0.66514400  0.93531400  1
  C  C23  1  0.41126700  0.29525300  0.36984400  1
  C  C24  1  0.23143500  0.05515700  0.63235400  1
  C  C25  1  0.09087500  0.91161500  0.92156000  1
  C  C26  1  0.94484300  0.76856500  0.86764600  1
  C  C27  1  0.89483100  0.41230500  0.06143900  1
  C  C28  1  0.03427900  0.82785400  0.93546200  1
  C  C29  1  0.37020400  0.38975700  0.17462100  1
  C  C30  1  0.52591900  0.65753600  0.22473900  1
  C  C31  1  0.64515900  0.46774300  0.62370700  1
  C  C32  1  0.31210400  0.90707100  0.89599900  1
  C  C33  1  0.58873300  0.70474700  0.63015600  1
  C  C34  1  0.63711600  0.41803800  0.76435800  1
  C  C35  1  0.75749800  0.59951900  0.22919600  1
  C  C36  1  0.90707100  0.31210400  0.39599900  1
  C  C37  1  0.35484100  0.53225700  0.37629300  1
  C  C38  1  0.50333600  0.67007500  0.54508400  1
  C  C39  1  0.99768100  0.64326100  0.78675800  1
  C  C40  1  0.32992500  0.49666400  0.95491600  1
  C  C41  1  0.54904400  0.22641900  0.10425600  1
  C  C42  1  0.03987700  0.02891800  0.16110700  1
  C  C43  1  0.15259800  0.46453500  0.71645900  1
  C  C44  1  0.37158600  0.98116200  0.60505000  1
  C  C45  1  0.90912500  0.08838500  0.07844000  1
  C  C46  1  0.41803800  0.63711600  0.26435800  1
  C  C47  1  0.44858400  0.46257300  0.42775400  1
  C  C48  1  0.88975300  0.31101200  0.03960900  1
  C  C49  1  0.65181600  0.61978800  0.75643700  1
  C  C50  1  0.50512800  0.61386500  0.36161000  1
  C  C51  1  0.53168000  0.51801600  0.41920400  1
  C  C52  1  0.14089600  0.78142000  0.56437000  1
  C  C53  1  0.22445200  0.05953600  0.69890800  1
  C  C54  1  0.40048100  0.24250200  0.27080400  1
  C  C55  1  0.25521900  0.44970000  0.65691700  1
  C  C56  1  0.45498800  0.24445500  0.43732400  1
  C  C57  1  0.27784100  0.96683600  0.82681400  1
  C  C58  1  0.19780100  0.43807200  0.83199000  1
  C  C59  1  0.95037400  0.38625800  0.27576600  1
  C  C60  1  0.96012300  0.97108200  0.83889300  1
  C  C61  1  0.85910400  0.21858000  0.43563000  1
  C  C62  1  0.77358100  0.45095600  0.39574400  1
  C  C63  1  0.61725600  0.40962600  0.83099700  1
  C  C64  1  0.38613500  0.49487200  0.13839000  1
  C  C65  1  0.03316400  0.72215900  0.67318600  1
  C  C66  1  0.45095600  0.77358100  0.89574400  1
  C  C67  1  0.68789600  0.09292900  0.10400100  1
  C  C68  1  0.14727500  0.01846600  0.81209900  1
  C  C69  1  0.53956000  0.04613100  0.34747700  1
  C  C70  1  0.56260100  0.33485600  0.06468600  1
  C  C71  1  0.97108200  0.96012300  0.33889300  1
  C  C72  1  0.53225700  0.35484100  0.87629300  1
  C  C73  1  0.98116200  0.37158600  0.10505000  1
  C  C74  1  0.13313400  0.04684200  0.61386900  1
  C  C75  1  0.34818400  0.38021200  0.24356300  1
  C  C76  1  0.43807200  0.19780100  0.33199000  1
  C  C77  1  0.34246400  0.47408100  0.27526100  1
  C  C78  1  0.22641900  0.54904400  0.60425600  1
  C  C79  1  0.41230500  0.89483100  0.56143900  1
  C  C80  1  0.55030000  0.74478100  0.84308300  1
  C  C81  1  0.04349800  0.02081100  0.22598200  1
  C  C82  1  0.78142000  0.14089700  0.06437000  1
  C  C83  1  0.49666400  0.32992500  0.45491600  1
  C  C84  1  0.55141600  0.53742700  0.57224600  1
  C  C85  1  0.49487200  0.38613500  0.63839000  1
  C  C86  1  0.05515700  0.23143500  0.13235400  1
  C  C87  1  0.33485600  0.56260100  0.56468600  1
  C  C88  1  0.95650200  0.97918900  0.77401800  1
  C  C89  1  0.91161500  0.09087500  0.42156000  1
  C  C90  1  0.65753600  0.52591900  0.72473900  1
  C  C91  1  0.53742700  0.55141600  0.07224600  1
  C  C92  1  0.63221700  0.24593000  0.47235400  1
  C  C93  1  0.02891800  0.03987700  0.66110700  1
  C  C94  1  0.04684200  0.13313400  0.11386900  1
  C  C95  1  0.46774300  0.64515900  0.12370700  1
  C  C96  1  0.84740200  0.53546500  0.28354100  1
  C  C97  1  0.02081100  0.04349800  0.72598200  1
  C  C98  1  0.08838500  0.90912500  0.57844000  1
  C  C99  1  0.00231900  0.35673900  0.21324200  1
  C  C100  1  0.56871500  0.63543400  0.15850200  1
  C  C101  1  0.04613100  0.53956000  0.84747700  1
  C  C102  1  0.43128500  0.36456600  0.84149800  1
  C  C103  1  0.38975700  0.37020400  0.67462100  1
  C  C104  1  0.24250200  0.40048100  0.77080400  1
  C  C105  1  0.94046400  0.77554800  0.80109200  1
  C  C106  1  0.09292900  0.68789600  0.60400100  1
  C  C107  1  0.21858000  0.85910400  0.93563000  1
  C  C108  1  0.61374200  0.04962600  0.22423400  1
  C  C109  1  0.58196200  0.36288400  0.73564200  1
  C  C110  1  0.38021200  0.34818400  0.74356300  1
  C  C111  1  0.04962600  0.61374200  0.72423400  1
  C  C112  1  0.46832000  0.48198400  0.58079600  1
  C  C113  1  0.64326100  0.99768100  0.28675800  1
  C  C114  1  0.61024300  0.62979600  0.32537900  1
  C  C115  1  0.61978800  0.65181600  0.25643700  1
  C  C116  1  0.38274400  0.59037400  0.16900300  1
  C  C117  1  0.96683600  0.27784100  0.32681400  1
  C  C118  1  0.95386900  0.46044000  0.15252300  1
  C  C119  1  0.74478100  0.55030000  0.34308300  1
  C  C120  1  0.11024700  0.68898800  0.96039100  1
  C  C121  1  0.86686600  0.95315800  0.38613100  1
  C  C122  1  0.71741700  0.29724400  0.46137400  1
  C  C123  1  0.31101200  0.88975300  0.53960900  1
  C  C124  1  0.51801600  0.53168000  0.91920400  1
  C  C125  1  0.46257300  0.44858400  0.92775400  1
  C  C126  1  0.12096100  0.05602900  0.74651800  1
  C  C127  1  0.75554500  0.54501200  0.06267600  1
  C  C128  1  0.01746800  0.03559800  0.36335600  1
  C  C129  1  0.46453500  0.15259800  0.21645900  1
  C  C130  1  0.80219900  0.56192800  0.16801000  1
  C  C131  1  0.62979600  0.61024300  0.82537900  1
  C  C132  1  0.24593000  0.63221700  0.97235400  1
  C  C133  1  0.17214600  0.96572100  0.56453800  1
  C  C134  1  0.47408100  0.34246400  0.77526100  1
  C  C135  1  0.96572100  0.17214600  0.06453800  1
  C  C136  1  0.67007500  0.50333600  0.04508400  1
  C  C137  1  0.01846600  0.14727500  0.31209900  1
  C  C138  1  0.53546500  0.84740200  0.78354100  1
  C  C139  1  0.95315800  0.86686600  0.88613100  1
  C  C140  1  0.24445500  0.45498800  0.93732400  1
  C  C141  1  0.40962600  0.61725600  0.33099700  1
  C  C142  1  0.10516900  0.58769500  0.93856100  1
  C  C143  1  0.58769500  0.10516900  0.43856100  1
  C  C144  1  0.59037400  0.38274400  0.66900300  1
  C  C145  1  0.61386500  0.50512800  0.86161000  1
  C  C146  1  0.68898800  0.11024700  0.46039100  1
  C  C147  1  0.75407000  0.36778300  0.02764600  1
  C  C148  1  0.36456600  0.43128500  0.34149800  1
  C  C149  1  0.96440200  0.98253200  0.13664400  1
  C  C150  1  0.05602900  0.12096100  0.24651800  1
  C  C151  1  0.76856500  0.94484300  0.36764600  1
  C  C152  1  0.59951900  0.75749800  0.72919600  1
  C  C153  1  0.63543400  0.56871500  0.65850200  1
  C  C154  1  0.48198400  0.46832000  0.08079600  1
  C  C155  1  0.70275600  0.28258300  0.03862600  1
  C  C156  1  0.03559800  0.01746800  0.86335600  1
  C  C157  1  0.05953600  0.22445200  0.19890800  1
  C  C158  1  0.29724400  0.71741700  0.96137400  1
  C  C159  1  0.35673900  0.00231900  0.71324200  1
  Cl  Cl160  1  0.37940300  0.06585800  0.21471000  1
  Cl  Cl161  1  0.82484000  0.36605500  0.58788200  1
  Cl  Cl162  1  0.75141000  0.68864200  0.00493100  1
  Cl  Cl163  1  0.24859000  0.31135800  0.99506900  1
  Cl  Cl164  1  0.69705200  0.96291000  0.06838200  1
  Cl  Cl165  1  0.92217800  0.18967800  0.88714000  1
  Cl  Cl166  1  0.06585800  0.37940300  0.71471000  1
  Cl  Cl167  1  0.68864200  0.75141000  0.50493100  1
  Cl  Cl168  1  0.96291000  0.69705200  0.56838200  1
  Cl  Cl169  1  0.30294800  0.03709000  0.93161800  1
  Cl  Cl170  1  0.45322100  0.95318100  0.37660800  1
  Cl  Cl171  1  0.54677900  0.04681900  0.62339200  1
  Cl  Cl172  1  0.63394500  0.17516000  0.91211800  1
  Cl  Cl173  1  0.81032200  0.07782200  0.61286000  1
  Cl  Cl174  1  0.03709000  0.30294800  0.43161800  1
  Cl  Cl175  1  0.93414200  0.62059700  0.28529000  1
  Cl  Cl176  1  0.95318100  0.45322100  0.87660800  1
  Cl  Cl177  1  0.17516000  0.63394500  0.41211800  1
  Cl  Cl178  1  0.18967800  0.92217800  0.38714000  1
  Cl  Cl179  1  0.31135800  0.24859000  0.49506900  1
  Cl  Cl180  1  0.04681900  0.54677900  0.12339200  1
  Cl  Cl181  1  0.36605500  0.82484000  0.08788200  1
  Cl  Cl182  1  0.62059700  0.93414200  0.78529000  1
  Cl  Cl183  1  0.07782200  0.81032200  0.11286000  1
