# generated using pymatgen
data_Yb2Ga10Ru3
_symmetry_space_group_name_H-M   'P 1'
_cell_length_a   8.94103500
_cell_length_b   8.94103500
_cell_length_c   6.37818800
_cell_angle_alpha   90.00000000
_cell_angle_beta   90.00000000
_cell_angle_gamma   90.00000000
_symmetry_Int_Tables_number   1
_chemical_formula_structural   Yb2Ga10Ru3
_chemical_formula_sum   'Yb4 Ga20 Ru6'
_cell_volume   509.88578674
_cell_formula_units_Z   2
loop_
 _symmetry_equiv_pos_site_id
 _symmetry_equiv_pos_as_xyz
  1  'x, y, z'
loop_
 _atom_site_type_symbol
 _atom_site_label
 _atom_site_symmetry_multiplicity
 _atom_site_fract_x
 _atom_site_fract_y
 _atom_site_fract_z
 _atom_site_occupancy
  Yb  Yb0  1  0.18355400  0.68355400  0.00000000  1
  Yb  Yb1  1  0.81644600  0.31644600  0.00000000  1
  Yb  Yb2  1  0.68355400  0.81644600  0.00000000  1
  Yb  Yb3  1  0.31644600  0.18355400  0.00000000  1
  Ga  Ga4  1  0.06072100  0.20652300  0.70808600  1
  Ga  Ga5  1  0.93927900  0.79347700  0.70808600  1
  Ga  Ga6  1  0.56072100  0.29347700  0.70808600  1
  Ga  Ga7  1  0.43927900  0.70652300  0.70808600  1
  Ga  Ga8  1  0.79347700  0.06072100  0.70808600  1
  Ga  Ga9  1  0.20652300  0.93927900  0.70808600  1
  Ga  Ga10  1  0.70652300  0.56072100  0.70808600  1
  Ga  Ga11  1  0.29347700  0.43927900  0.70808600  1
  Ga  Ga12  1  0.93927900  0.79347700  0.29191400  1
  Ga  Ga13  1  0.06072100  0.20652300  0.29191400  1
  Ga  Ga14  1  0.43927900  0.70652300  0.29191400  1
  Ga  Ga15  1  0.56072100  0.29347700  0.29191400  1
  Ga  Ga16  1  0.20652300  0.93927900  0.29191400  1
  Ga  Ga17  1  0.79347700  0.06072100  0.29191400  1
  Ga  Ga18  1  0.29347700  0.43927900  0.29191400  1
  Ga  Ga19  1  0.70652300  0.56072100  0.29191400  1
  Ga  Ga20  1  0.00000000  0.50000000  0.71520800  1
  Ga  Ga21  1  0.50000000  0.00000000  0.71520800  1
  Ga  Ga22  1  0.00000000  0.50000000  0.28479200  1
  Ga  Ga23  1  0.50000000  0.00000000  0.28479200  1
  Ru  Ru24  1  0.17931200  0.67931200  0.50000000  1
  Ru  Ru25  1  0.82068800  0.32068800  0.50000000  1
  Ru  Ru26  1  0.67931200  0.82068800  0.50000000  1
  Ru  Ru27  1  0.32068800  0.17931200  0.50000000  1
  Ru  Ru28  1  0.00000000  0.00000000  0.00000000  1
  Ru  Ru29  1  0.50000000  0.50000000  0.00000000  1
