# generated using pymatgen
data_C13Cl3
_symmetry_space_group_name_H-M   'P 1'
_cell_length_a   13.06092985
_cell_length_b   13.06092985
_cell_length_c   18.77056600
_cell_angle_alpha   90.00000000
_cell_angle_beta   90.00000000
_cell_angle_gamma   119.99999922
_symmetry_Int_Tables_number   1
_chemical_formula_structural   C13Cl3
_chemical_formula_sum   'C156 Cl36'
_cell_volume   2773.04040118
_cell_formula_units_Z   12
loop_
 _symmetry_equiv_pos_site_id
 _symmetry_equiv_pos_as_xyz
  1  'x, y, z'
loop_
 _atom_site_type_symbol
 _atom_site_label
 _atom_site_symmetry_multiplicity
 _atom_site_fract_x
 _atom_site_fract_y
 _atom_site_fract_z
 _atom_site_occupancy
  C  C0  1  0.89796800  0.64262900  0.82572200  1
  C  C1  1  0.67217200  0.84744200  0.21268800  1
  C  C2  1  0.47643500  0.45171400  0.25000000  1
  C  C3  1  0.69992400  0.45514300  0.95944800  1
  C  C4  1  0.63792500  0.63044600  0.75000000  1
  C  C5  1  0.17527000  0.32782800  0.21268800  1
  C  C6  1  0.58032300  0.36931900  0.95940900  1
  C  C7  1  0.24478100  0.69992400  0.45944800  1
  C  C8  1  0.51781500  0.97613400  0.68343500  1
  C  C9  1  0.48677300  0.94799100  0.37608200  1
  C  C10  1  0.95209800  0.28630800  0.81663400  1
  C  C11  1  0.97527900  0.52356500  0.25000000  1
  C  C12  1  0.63044600  0.99252000  0.25000000  1
  C  C13  1  0.53878200  0.48677300  0.87608200  1
  C  C14  1  0.02386600  0.54168100  0.68343500  1
  C  C15  1  0.66579000  0.95209800  0.31663400  1
  C  C16  1  0.61365100  0.64210200  0.28729100  1
  C  C17  1  0.88681400  0.50081100  0.91843300  1
  C  C18  1  0.94799100  0.46121800  0.87608200  1
  C  C19  1  0.26397700  0.87212900  0.40241800  1
  C  C20  1  0.38600400  0.88681400  0.08156700  1
  C  C21  1  0.51322700  0.05200900  0.62391800  1
  C  C22  1  0.02472100  0.47643500  0.75000000  1
  C  C23  1  0.08648700  0.66188100  0.12384000  1
  C  C24  1  0.05200900  0.53878200  0.12391800  1
  C  C25  1  0.61365100  0.64210200  0.21270900  1
  C  C26  1  0.48677300  0.94799100  0.12391800  1
  C  C27  1  0.32782800  0.15255800  0.78731200  1
  C  C28  1  0.74466100  0.10203200  0.82572200  1
  C  C29  1  0.71369200  0.66579000  0.81663400  1
  C  C30  1  0.64210200  0.02845100  0.78729100  1
  C  C31  1  0.17527000  0.32782800  0.28731200  1
  C  C32  1  0.46121800  0.51322700  0.12391800  1
  C  C33  1  0.46121800  0.51322700  0.37608200  1
  C  C34  1  0.75521900  0.30007600  0.54055200  1
  C  C35  1  0.35737100  0.25533900  0.67427800  1
  C  C36  1  0.84744200  0.17527000  0.78731200  1
  C  C37  1  0.38634900  0.35789800  0.71270900  1
  C  C38  1  0.12787100  0.39184800  0.09758200  1
  C  C39  1  0.25533900  0.89796800  0.32572200  1
  C  C40  1  0.26397700  0.87212900  0.09758200  1
  C  C41  1  0.73602300  0.12787100  0.90241800  1
  C  C42  1  0.66188100  0.57539400  0.87616000  1
  C  C43  1  0.12787100  0.39184800  0.40241800  1
  C  C44  1  0.73602300  0.12787100  0.59758200  1
  C  C45  1  0.64262900  0.74466100  0.17427800  1
  C  C46  1  0.08648700  0.66188100  0.37616000  1
  C  C47  1  0.45514300  0.75521900  0.45944800  1
  C  C48  1  0.84744200  0.17527000  0.71268800  1
  C  C49  1  0.35737100  0.25533900  0.82572200  1
  C  C50  1  0.75521900  0.30007600  0.95944800  1
  C  C51  1  0.21100300  0.58032300  0.04059100  1
  C  C52  1  0.36931900  0.78899700  0.04059100  1
  C  C53  1  0.21100300  0.58032300  0.45940900  1
  C  C54  1  0.64210200  0.02845100  0.71270900  1
  C  C55  1  0.74466100  0.10203200  0.67427800  1
  C  C56  1  0.32782800  0.15255800  0.71268800  1
  C  C57  1  0.04790200  0.71369200  0.18336600  1
  C  C58  1  0.99252000  0.36207500  0.75000000  1
  C  C59  1  0.00748000  0.63792500  0.25000000  1
  C  C60  1  0.50081100  0.61399600  0.08156700  1
  C  C61  1  0.55904700  0.81845500  0.08137000  1
  C  C62  1  0.02845100  0.38634900  0.21270900  1
  C  C63  1  0.94799100  0.46121800  0.62391800  1
  C  C64  1  0.15255800  0.82473000  0.28731200  1
  C  C65  1  0.88681400  0.50081100  0.58156700  1
  C  C66  1  0.02386600  0.54168100  0.81656500  1
  C  C67  1  0.53878200  0.48677300  0.62391800  1
  C  C68  1  0.15255800  0.82473000  0.21268800  1
  C  C69  1  0.30007600  0.54485700  0.04055200  1
  C  C70  1  0.91351300  0.33811900  0.62384000  1
  C  C71  1  0.49918900  0.38600400  0.91843300  1
  C  C72  1  0.95209800  0.28630800  0.68336600  1
  C  C73  1  0.38634900  0.35789800  0.78729100  1
  C  C74  1  0.02845100  0.38634900  0.28729100  1
  C  C75  1  0.51781500  0.97613400  0.81656500  1
  C  C76  1  0.28630800  0.33421000  0.31663400  1
  C  C77  1  0.58032300  0.36931900  0.54059100  1
  C  C78  1  0.97154900  0.61365100  0.71270900  1
  C  C79  1  0.04790200  0.71369200  0.31663400  1
  C  C80  1  0.30007600  0.54485700  0.45944800  1
  C  C81  1  0.69992400  0.45514300  0.54055200  1
  C  C82  1  0.28630800  0.33421000  0.18336600  1
  C  C83  1  0.51322700  0.05200900  0.87608200  1
  C  C84  1  0.89796800  0.64262900  0.67427800  1
  C  C85  1  0.52356500  0.54828600  0.75000000  1
  C  C86  1  0.97613400  0.45831900  0.18343500  1
  C  C87  1  0.66188100  0.57539400  0.62384000  1
  C  C88  1  0.39184800  0.26397700  0.59758200  1
  C  C89  1  0.35789800  0.97154900  0.21270900  1
  C  C90  1  0.57539400  0.91351300  0.37616000  1
  C  C91  1  0.36955400  0.00748000  0.75000000  1
  C  C92  1  0.91351300  0.33811900  0.87616000  1
  C  C93  1  0.54168100  0.51781500  0.18343500  1
  C  C94  1  0.45831900  0.48218500  0.81656500  1
  C  C95  1  0.11318600  0.49918900  0.08156700  1
  C  C96  1  0.25533900  0.89796800  0.17427800  1
  C  C97  1  0.67217200  0.84744200  0.28731200  1
  C  C98  1  0.78899700  0.41967700  0.95940900  1
  C  C99  1  0.10203200  0.35737100  0.32572200  1
  C  C100  1  0.44095300  0.18154500  0.58137000  1
  C  C101  1  0.57539400  0.91351300  0.12384000  1
  C  C102  1  0.81845500  0.25940800  0.58137000  1
  C  C103  1  0.48218500  0.02386600  0.31656500  1
  C  C104  1  0.54485700  0.24478100  0.95944800  1
  C  C105  1  0.54828600  0.02472100  0.25000000  1
  C  C106  1  0.64262900  0.74466100  0.32572200  1
  C  C107  1  0.18154500  0.74059200  0.08137000  1
  C  C108  1  0.60815200  0.73602300  0.40241800  1
  C  C109  1  0.54168100  0.51781500  0.31656500  1
  C  C110  1  0.74059200  0.55904700  0.58137000  1
  C  C111  1  0.25940800  0.44095300  0.08137000  1
  C  C112  1  0.82473000  0.67217200  0.71268800  1
  C  C113  1  0.44095300  0.18154500  0.91863000  1
  C  C114  1  0.61399600  0.11318600  0.91843300  1
  C  C115  1  0.42460600  0.08648700  0.62384000  1
  C  C116  1  0.33421000  0.04790200  0.81663400  1
  C  C117  1  0.87212900  0.60815200  0.59758200  1
  C  C118  1  0.87212900  0.60815200  0.90241800  1
  C  C119  1  0.18154500  0.74059200  0.41863000  1
  C  C120  1  0.42460600  0.08648700  0.87616000  1
  C  C121  1  0.97613400  0.45831900  0.31656500  1
  C  C122  1  0.61399600  0.11318600  0.58156700  1
  C  C123  1  0.10203200  0.35737100  0.17427800  1
  C  C124  1  0.97154900  0.61365100  0.78729100  1
  C  C125  1  0.82473000  0.67217200  0.78731200  1
  C  C126  1  0.74059200  0.55904700  0.91863000  1
  C  C127  1  0.71369200  0.66579000  0.68336600  1
  C  C128  1  0.50081100  0.61399600  0.41843300  1
  C  C129  1  0.49918900  0.38600400  0.58156700  1
  C  C130  1  0.41967700  0.63068100  0.45940900  1
  C  C131  1  0.54485700  0.24478100  0.54055200  1
  C  C132  1  0.60815200  0.73602300  0.09758200  1
  C  C133  1  0.41967700  0.63068100  0.04059100  1
  C  C134  1  0.81845500  0.25940800  0.91863000  1
  C  C135  1  0.35789800  0.97154900  0.28729100  1
  C  C136  1  0.55904700  0.81845500  0.41863000  1
  C  C137  1  0.36207500  0.36955400  0.25000000  1
  C  C138  1  0.25940800  0.44095300  0.41863000  1
  C  C139  1  0.78899700  0.41967700  0.54059100  1
  C  C140  1  0.33421000  0.04790200  0.68336600  1
  C  C141  1  0.33811900  0.42460600  0.37616000  1
  C  C142  1  0.11318600  0.49918900  0.41843300  1
  C  C143  1  0.63068100  0.21100300  0.95940900  1
  C  C144  1  0.45831900  0.48218500  0.68343500  1
  C  C145  1  0.38600400  0.88681400  0.41843300  1
  C  C146  1  0.45171400  0.97527900  0.75000000  1
  C  C147  1  0.45514300  0.75521900  0.04055200  1
  C  C148  1  0.24478100  0.69992400  0.04055200  1
  C  C149  1  0.36931900  0.78899700  0.45940900  1
  C  C150  1  0.33811900  0.42460600  0.12384000  1
  C  C151  1  0.39184800  0.26397700  0.90241800  1
  C  C152  1  0.66579000  0.95209800  0.18336600  1
  C  C153  1  0.48218500  0.02386600  0.18343500  1
  C  C154  1  0.05200900  0.53878200  0.37608200  1
  C  C155  1  0.63068100  0.21100300  0.54059100  1
  Cl  Cl156  1  0.73393700  0.76739700  0.04034200  1
  Cl  Cl157  1  0.03346000  0.26606300  0.04034200  1
  Cl  Cl158  1  0.23260300  0.96654000  0.45965800  1
  Cl  Cl159  1  0.74497900  0.81092600  0.65070500  1
  Cl  Cl160  1  0.76739700  0.03346000  0.54034200  1
  Cl  Cl161  1  0.93405200  0.74497900  0.15070500  1
  Cl  Cl162  1  0.35953300  0.53342700  0.84953800  1
  Cl  Cl163  1  0.35953300  0.53342700  0.65046200  1
  Cl  Cl164  1  0.25502100  0.18907400  0.15070500  1
  Cl  Cl165  1  0.64046700  0.46657300  0.34953800  1
  Cl  Cl166  1  0.76739700  0.03346000  0.95965800  1
  Cl  Cl167  1  0.64046700  0.46657300  0.15046200  1
  Cl  Cl168  1  0.82610600  0.35953300  0.34953800  1
  Cl  Cl169  1  0.06594800  0.25502100  0.65070500  1
  Cl  Cl170  1  0.53342700  0.17389400  0.34953800  1
  Cl  Cl171  1  0.46657300  0.82610600  0.84953800  1
  Cl  Cl172  1  0.81092600  0.06594800  0.34929500  1
  Cl  Cl173  1  0.53342700  0.17389400  0.15046200  1
  Cl  Cl174  1  0.96654000  0.73393700  0.95965800  1
  Cl  Cl175  1  0.82610600  0.35953300  0.15046200  1
  Cl  Cl176  1  0.17389400  0.64046700  0.65046200  1
  Cl  Cl177  1  0.26606300  0.23260300  0.95965800  1
  Cl  Cl178  1  0.93405200  0.74497900  0.34929500  1
  Cl  Cl179  1  0.18907400  0.93405200  0.84929500  1
  Cl  Cl180  1  0.18907400  0.93405200  0.65070500  1
  Cl  Cl181  1  0.81092600  0.06594800  0.15070500  1
  Cl  Cl182  1  0.25502100  0.18907400  0.34929500  1
  Cl  Cl183  1  0.26606300  0.23260300  0.54034200  1
  Cl  Cl184  1  0.17389400  0.64046700  0.84953800  1
  Cl  Cl185  1  0.03346000  0.26606300  0.45965800  1
  Cl  Cl186  1  0.23260300  0.96654000  0.04034200  1
  Cl  Cl187  1  0.96654000  0.73393700  0.54034200  1
  Cl  Cl188  1  0.74497900  0.81092600  0.84929500  1
  Cl  Cl189  1  0.46657300  0.82610600  0.65046200  1
  Cl  Cl190  1  0.73393700  0.76739700  0.45965800  1
  Cl  Cl191  1  0.06594800  0.25502100  0.84929500  1
