# generated using pymatgen
data_BaY(CoO2)4
_symmetry_space_group_name_H-M   'P 1'
_cell_length_a   10.21114147
_cell_length_b   10.95294969
_cell_length_c   12.96876387
_cell_angle_alpha   90.00000000
_cell_angle_beta   90.00000000
_cell_angle_gamma   90.00000000
_symmetry_Int_Tables_number   1
_chemical_formula_structural   BaY(CoO2)4
_chemical_formula_sum   'Ba8 Y8 Co32 O64'
_cell_volume   1450.45402942
_cell_formula_units_Z   8
loop_
 _symmetry_equiv_pos_site_id
 _symmetry_equiv_pos_as_xyz
  1  'x, y, z'
loop_
 _atom_site_type_symbol
 _atom_site_label
 _atom_site_symmetry_multiplicity
 _atom_site_fract_x
 _atom_site_fract_y
 _atom_site_fract_z
 _atom_site_occupancy
  Ba  Ba0  1  0.52891287  0.07489342  0.62687324  1
  Ba  Ba1  1  0.99962591  0.42690458  0.10145254  1
  Ba  Ba2  1  0.99962591  0.92690458  0.89854746  1
  Ba  Ba3  1  0.52891287  0.57489342  0.37312676  1
  Ba  Ba4  1  0.49962591  0.07309542  0.10145254  1
  Ba  Ba5  1  0.02891287  0.92510658  0.37312676  1
  Ba  Ba6  1  0.49962591  0.57309542  0.89854746  1
  Ba  Ba7  1  0.02891287  0.42510658  0.62687324  1
  Y  Y8  1  0.42368318  0.43852703  0.62626270  1
  Y  Y9  1  0.42368318  0.93852703  0.37373730  1
  Y  Y10  1  0.38037075  0.90514924  0.85473044  1
  Y  Y11  1  0.92368318  0.56147297  0.37373730  1
  Y  Y12  1  0.92368318  0.06147297  0.62626270  1
  Y  Y13  1  0.88037075  0.09485076  0.14526956  1
  Y  Y14  1  0.88037075  0.59485076  0.85473044  1
  Y  Y15  1  0.38037075  0.40514924  0.14526956  1
  Co  Co16  1  0.21179950  0.66769072  0.25980683  1
  Co  Co17  1  0.71265326  0.84257040  0.77238170  1
  Co  Co18  1  0.73078554  0.32013013  0.51953311  1
  Co  Co19  1  0.70342418  0.58153314  0.11648205  1
  Co  Co20  1  0.19417389  0.15532200  0.98464139  1
  Co  Co21  1  0.23078554  0.67986987  0.48046689  1
  Co  Co22  1  0.19417389  0.65532200  0.01535861  1
  Co  Co23  1  0.21081250  0.40118698  0.37103126  1
  Co  Co24  1  0.46110189  0.74648434  0.62813954  1
  Co  Co25  1  0.71081250  0.09881302  0.37103126  1
  Co  Co26  1  0.73078554  0.82013013  0.48046689  1
  Co  Co27  1  0.20342418  0.91846686  0.11648205  1
  Co  Co28  1  0.71081250  0.59881302  0.62896874  1
  Co  Co29  1  0.21265326  0.65742960  0.77238170  1
  Co  Co30  1  0.96110189  0.75351566  0.62813954  1
  Co  Co31  1  0.46110189  0.24648434  0.37186046  1
  Co  Co32  1  0.96053748  0.75213793  0.12605388  1
  Co  Co33  1  0.71179950  0.33230928  0.74019317  1
  Co  Co34  1  0.70342418  0.08153314  0.88351795  1
  Co  Co35  1  0.96110189  0.25351566  0.37186046  1
  Co  Co36  1  0.46053748  0.24786207  0.87394612  1
  Co  Co37  1  0.21081250  0.90118698  0.62896874  1
  Co  Co38  1  0.69417389  0.34467800  0.98464139  1
  Co  Co39  1  0.21179950  0.16769072  0.74019317  1
  Co  Co40  1  0.71265326  0.34257040  0.22761830  1
  Co  Co41  1  0.96053748  0.25213793  0.87394612  1
  Co  Co42  1  0.46053748  0.74786207  0.12605388  1
  Co  Co43  1  0.21265326  0.15742960  0.22761830  1
  Co  Co44  1  0.23078554  0.17986987  0.51953311  1
  Co  Co45  1  0.20342418  0.41846686  0.88351795  1
  Co  Co46  1  0.69417389  0.84467800  0.01535861  1
  Co  Co47  1  0.71179950  0.83230928  0.25980683  1
  O  O48  1  0.78360829  0.50019569  0.23761046  1
  O  O49  1  0.01121745  0.41952596  0.87776744  1
  O  O50  1  0.04321924  0.89089450  0.70137184  1
  O  O51  1  0.27138505  0.25022186  0.87115886  1
  O  O52  1  0.63482365  0.46263067  0.55261228  1
  O  O53  1  0.78969224  0.48782095  0.72793412  1
  O  O54  1  0.13482365  0.03736933  0.55261228  1
  O  O55  1  0.53997529  0.85414255  0.73070656  1
  O  O56  1  0.61546522  0.71799540  0.54703344  1
  O  O57  1  0.78969224  0.98782095  0.27206588  1
  O  O58  1  0.27138505  0.75022186  0.12884114  1
  O  O59  1  0.54321924  0.60910550  0.70137184  1
  O  O60  1  0.13482365  0.53736933  0.44738772  1
  O  O61  1  0.28360829  0.99980431  0.23761046  1
  O  O62  1  0.00304555  0.67297308  0.00163968  1
  O  O63  1  0.54321924  0.10910550  0.29862816  1
  O  O64  1  0.51121745  0.08047404  0.87776744  1
  O  O65  1  0.51121745  0.58047404  0.12223256  1
  O  O66  1  0.27775888  0.77465881  0.36673579  1
  O  O67  1  0.02119281  0.17852937  0.75295796  1
  O  O68  1  0.30325610  0.27700126  0.29609570  1
  O  O69  1  0.03997529  0.14585745  0.26929344  1
  O  O70  1  0.74969817  0.01316087  0.01937751  1
  O  O71  1  0.77357577  0.27287280  0.10446821  1
  O  O72  1  0.87496293  0.37763346  0.44814519  1
  O  O73  1  0.88374243  0.12102425  0.44818129  1
  O  O74  1  0.53997529  0.35414255  0.26929344  1
  O  O75  1  0.88374243  0.62102425  0.55181871  1
  O  O76  1  0.87496293  0.87763346  0.55185481  1
  O  O77  1  0.37496293  0.62236654  0.55185481  1
  O  O78  1  0.77357577  0.77287280  0.89553179  1
  O  O79  1  0.50304555  0.82702692  0.00163968  1
  O  O80  1  0.63482365  0.96263067  0.44738772  1
  O  O81  1  0.30325610  0.77700126  0.70390430  1
  O  O82  1  0.02119281  0.67852937  0.24704204  1
  O  O83  1  0.78360829  0.00019569  0.76238954  1
  O  O84  1  0.80325610  0.22299874  0.29609570  1
  O  O85  1  0.11546522  0.78200460  0.54703344  1
  O  O86  1  0.28969224  0.01217905  0.72793412  1
  O  O87  1  0.52119281  0.82147063  0.24704204  1
  O  O88  1  0.01121745  0.91952596  0.12223256  1
  O  O89  1  0.04321924  0.39089450  0.29862816  1
  O  O90  1  0.77775888  0.72534119  0.36673579  1
  O  O91  1  0.24969817  0.98683913  0.98062249  1
  O  O92  1  0.74969817  0.51316087  0.98062249  1
  O  O93  1  0.37496293  0.12236654  0.44814519  1
  O  O94  1  0.77138505  0.24977814  0.87115886  1
  O  O95  1  0.28360829  0.49980431  0.76238954  1
  O  O96  1  0.77138505  0.74977814  0.12884114  1
  O  O97  1  0.50304555  0.32702692  0.99836032  1
  O  O98  1  0.38374243  0.37897575  0.44818129  1
  O  O99  1  0.27357577  0.22712720  0.10446821  1
  O  O100  1  0.77775888  0.22534119  0.63326421  1
  O  O101  1  0.00304555  0.17297308  0.99836032  1
  O  O102  1  0.27357577  0.72712720  0.89553179  1
  O  O103  1  0.38374243  0.87897575  0.55181871  1
  O  O104  1  0.52119281  0.32147063  0.75295796  1
  O  O105  1  0.11546522  0.28200460  0.45296656  1
  O  O106  1  0.80325610  0.72299874  0.70390430  1
  O  O107  1  0.28969224  0.51217905  0.27206588  1
  O  O108  1  0.61546522  0.21799540  0.45296656  1
  O  O109  1  0.03997529  0.64585745  0.73070656  1
  O  O110  1  0.27775888  0.27465881  0.63326421  1
  O  O111  1  0.24969817  0.48683913  0.01937751  1
