# generated using pymatgen
data_Na4XeO12
_symmetry_space_group_name_H-M   'P 1'
_cell_length_a   7.00348400
_cell_length_b   10.73210400
_cell_length_c   14.57603300
_cell_angle_alpha   90.00000000
_cell_angle_beta   90.00000000
_cell_angle_gamma   90.00000000
_symmetry_Int_Tables_number   1
_chemical_formula_structural   Na4XeO12
_chemical_formula_sum   'Na16 Xe4 O48'
_cell_volume   1095.56552180
_cell_formula_units_Z   4
loop_
 _symmetry_equiv_pos_site_id
 _symmetry_equiv_pos_as_xyz
  1  'x, y, z'
loop_
 _atom_site_type_symbol
 _atom_site_label
 _atom_site_symmetry_multiplicity
 _atom_site_fract_x
 _atom_site_fract_y
 _atom_site_fract_z
 _atom_site_occupancy
  Na  Na0  1  0.94174100  0.82159200  0.48701300  1
  Na  Na1  1  0.05825900  0.67840800  0.98701300  1
  Na  Na2  1  0.55825900  0.32159200  0.51298700  1
  Na  Na3  1  0.44174100  0.17840800  0.01298700  1
  Na  Na4  1  0.05825900  0.17840800  0.51298700  1
  Na  Na5  1  0.94174100  0.32159200  0.01298700  1
  Na  Na6  1  0.44174100  0.67840800  0.48701300  1
  Na  Na7  1  0.55825900  0.82159200  0.98701300  1
  Na  Na8  1  0.97368600  0.86973100  0.77281500  1
  Na  Na9  1  0.02631400  0.63026900  0.27281500  1
  Na  Na10  1  0.52631400  0.36973100  0.22718500  1
  Na  Na11  1  0.47368600  0.13026900  0.72718500  1
  Na  Na12  1  0.02631400  0.13026900  0.22718500  1
  Na  Na13  1  0.97368600  0.36973100  0.72718500  1
  Na  Na14  1  0.47368600  0.63026900  0.77281500  1
  Na  Na15  1  0.52631400  0.86973100  0.27281500  1
  Xe  Xe16  1  0.50000000  0.00000000  0.50000000  1
  Xe  Xe17  1  0.50000000  0.50000000  0.00000000  1
  Xe  Xe18  1  0.00000000  0.50000000  0.50000000  1
  Xe  Xe19  1  0.00000000  0.00000000  0.00000000  1
  O  O20  1  0.89923600  0.03176900  0.62077400  1
  O  O21  1  0.10076400  0.46823100  0.12077400  1
  O  O22  1  0.60076400  0.53176900  0.37922600  1
  O  O23  1  0.39923600  0.96823100  0.87922600  1
  O  O24  1  0.10076400  0.96823100  0.37922600  1
  O  O25  1  0.89923600  0.53176900  0.87922600  1
  O  O26  1  0.39923600  0.46823100  0.62077400  1
  O  O27  1  0.60076400  0.03176900  0.12077400  1
  O  O28  1  0.24536500  0.79682200  0.61032900  1
  O  O29  1  0.75463500  0.70317800  0.11032900  1
  O  O30  1  0.25463500  0.29682200  0.38967100  1
  O  O31  1  0.74536500  0.20317800  0.88967100  1
  O  O32  1  0.75463500  0.20317800  0.38967100  1
  O  O33  1  0.24536500  0.29682200  0.88967100  1
  O  O34  1  0.74536500  0.70317800  0.61032900  1
  O  O35  1  0.25463500  0.79682200  0.11032900  1
  O  O36  1  0.63523500  0.84650800  0.42899500  1
  O  O37  1  0.36476500  0.65349200  0.92899500  1
  O  O38  1  0.86476500  0.34650800  0.57100500  1
  O  O39  1  0.13523500  0.15349200  0.07100500  1
  O  O40  1  0.36476500  0.15349200  0.57100500  1
  O  O41  1  0.63523500  0.34650800  0.07100500  1
  O  O42  1  0.13523500  0.65349200  0.42899500  1
  O  O43  1  0.86476500  0.84650800  0.92899500  1
  O  O44  1  0.67924400  0.77733400  0.67173800  1
  O  O45  1  0.32075600  0.72266600  0.17173800  1
  O  O46  1  0.82075600  0.27733400  0.32826200  1
  O  O47  1  0.17924400  0.22266600  0.82826200  1
  O  O48  1  0.32075600  0.22266600  0.32826200  1
  O  O49  1  0.67924400  0.27733400  0.82826200  1
  O  O50  1  0.17924400  0.72266600  0.67173800  1
  O  O51  1  0.82075600  0.77733400  0.17173800  1
  O  O52  1  0.31689700  0.87809300  0.83825000  1
  O  O53  1  0.68310300  0.62190700  0.33825000  1
  O  O54  1  0.18310300  0.37809300  0.16175000  1
  O  O55  1  0.81689700  0.12190700  0.66175000  1
  O  O56  1  0.68310300  0.12190700  0.16175000  1
  O  O57  1  0.31689700  0.37809300  0.66175000  1
  O  O58  1  0.81689700  0.62190700  0.83825000  1
  O  O59  1  0.18310300  0.87809300  0.33825000  1
  O  O60  1  0.72073200  0.49356800  0.67088200  1
  O  O61  1  0.27926800  0.00643200  0.17088200  1
  O  O62  1  0.77926800  0.99356800  0.32911800  1
  O  O63  1  0.22073200  0.50643200  0.82911800  1
  O  O64  1  0.27926800  0.50643200  0.32911800  1
  O  O65  1  0.72073200  0.99356800  0.82911800  1
  O  O66  1  0.22073200  0.00643200  0.67088200  1
  O  O67  1  0.77926800  0.49356800  0.17088200  1
