# generated using pymatgen
data_K2Pd(NO2)4
_symmetry_space_group_name_H-M   'P 1'
_cell_length_a   13.43708000
_cell_length_b   8.04412800
_cell_length_c   8.95170984
_cell_angle_alpha   86.43660906
_cell_angle_beta   90.00000000
_cell_angle_gamma   90.00000000
_symmetry_Int_Tables_number   1
_chemical_formula_structural   K2Pd(NO2)4
_chemical_formula_sum   'K8 Pd4 N16 O32'
_cell_volume   965.71597026
_cell_formula_units_Z   4
loop_
 _symmetry_equiv_pos_site_id
 _symmetry_equiv_pos_as_xyz
  1  'x, y, z'
loop_
 _atom_site_type_symbol
 _atom_site_label
 _atom_site_symmetry_multiplicity
 _atom_site_fract_x
 _atom_site_fract_y
 _atom_site_fract_z
 _atom_site_occupancy
  K  K0  1  0.65883900  0.92569400  0.81997300  1
  K  K1  1  0.32414000  0.85404700  0.66574700  1
  K  K2  1  0.15883900  0.57430600  0.18002700  1
  K  K3  1  0.84116100  0.42569400  0.81997300  1
  K  K4  1  0.17586000  0.35404700  0.66574700  1
  K  K5  1  0.82414000  0.64595300  0.33425300  1
  K  K6  1  0.67586000  0.14595300  0.33425300  1
  K  K7  1  0.34116100  0.07430600  0.18002700  1
  Pd  Pd8  1  0.50000000  0.50000000  0.00000000  1
  Pd  Pd9  1  0.00000000  0.00000000  0.00000000  1
  Pd  Pd10  1  0.00000000  0.00000000  0.50000000  1
  Pd  Pd11  1  0.50000000  0.50000000  0.50000000  1
  N  N12  1  0.50833300  0.75876600  0.44513000  1
  N  N13  1  0.42542100  0.72274600  0.00159600  1
  N  N14  1  0.00833300  0.74123400  0.55487000  1
  N  N15  1  0.87336800  0.10195100  0.09467000  1
  N  N16  1  0.63839700  0.50931300  0.59592400  1
  N  N17  1  0.13839700  0.99068700  0.40407600  1
  N  N18  1  0.12663200  0.89804900  0.90533000  1
  N  N19  1  0.99166700  0.25876600  0.44513000  1
  N  N20  1  0.92542100  0.77725400  0.99840400  1
  N  N21  1  0.36160300  0.49068700  0.40407600  1
  N  N22  1  0.62663200  0.60195100  0.09467000  1
  N  N23  1  0.57457900  0.27725400  0.99840400  1
  N  N24  1  0.49166700  0.24123400  0.55487000  1
  N  N25  1  0.37336800  0.39804900  0.90533000  1
  N  N26  1  0.07457900  0.22274600  0.00159600  1
  N  N27  1  0.86160300  0.00931300  0.59592400  1
  O  O28  1  0.64423600  0.25461700  0.90985800  1
  O  O29  1  0.91339800  0.33614200  0.47119500  1
  O  O30  1  0.06401500  0.33270300  0.38309000  1
  O  O31  1  0.86926000  0.25437800  0.11416400  1
  O  O32  1  0.78983800  0.94357700  0.53104000  1
  O  O33  1  0.08660200  0.66385800  0.52880500  1
  O  O34  1  0.84740100  0.07897100  0.71451600  1
  O  O35  1  0.36926000  0.24562200  0.88583600  1
  O  O36  1  0.54965800  0.16337800  0.09394700  1
  O  O37  1  0.69813200  0.50886200  0.13596900  1
  O  O38  1  0.19813200  0.99113800  0.86403100  1
  O  O39  1  0.56401500  0.16729700  0.61691000  1
  O  O40  1  0.35576400  0.74538300  0.09014200  1
  O  O41  1  0.63074000  0.75437800  0.11416400  1
  O  O42  1  0.15259900  0.92102900  0.28548400  1
  O  O43  1  0.93598500  0.66729700  0.61691000  1
  O  O44  1  0.95034200  0.66337800  0.09394700  1
  O  O45  1  0.28983800  0.55642300  0.46896000  1
  O  O46  1  0.71016200  0.44357700  0.53104000  1
  O  O47  1  0.65259900  0.57897100  0.71451600  1
  O  O48  1  0.14423600  0.24538300  0.09014200  1
  O  O49  1  0.58660200  0.83614200  0.47119500  1
  O  O50  1  0.43598500  0.83270300  0.38309000  1
  O  O51  1  0.41339800  0.16385800  0.52880500  1
  O  O52  1  0.45034200  0.83662200  0.90605300  1
  O  O53  1  0.04965800  0.33662200  0.90605300  1
  O  O54  1  0.21016200  0.05642300  0.46896000  1
  O  O55  1  0.13074000  0.74562200  0.88583600  1
  O  O56  1  0.30186800  0.49113800  0.86403100  1
  O  O57  1  0.85576400  0.75461700  0.90985800  1
  O  O58  1  0.34740100  0.42102900  0.28548400  1
  O  O59  1  0.80186800  0.00886200  0.13596900  1
