# generated using pymatgen
data_Sr2CoO3
_symmetry_space_group_name_H-M   'P 1'
_cell_length_a   3.53272538
_cell_length_b   3.53272538
_cell_length_c   10.90510179
_cell_angle_alpha   86.10205690
_cell_angle_beta   86.10205690
_cell_angle_gamma   90.78473370
_symmetry_Int_Tables_number   1
_chemical_formula_structural   Sr2CoO3
_chemical_formula_sum   'Sr2 Co1 O3'
_cell_volume   135.44541812
_cell_formula_units_Z   1
loop_
 _symmetry_equiv_pos_site_id
 _symmetry_equiv_pos_as_xyz
  1  'x, y, z'
loop_
 _atom_site_type_symbol
 _atom_site_label
 _atom_site_symmetry_multiplicity
 _atom_site_fract_x
 _atom_site_fract_y
 _atom_site_fract_z
 _atom_site_occupancy
  Sr  Sr0  1  0.45580200  0.45580200  0.70826900  1
  Sr  Sr1  1  0.54419800  0.54419800  0.29173100  1
  Co  Co2  1  0.00000000  0.00000000  0.50000000  1
  O  O3  1  0.50000000  0.50000000  0.50000000  1
  O  O4  1  0.95970400  0.95970400  0.68992200  1
  O  O5  1  0.04029600  0.04029600  0.31007800  1
