# generated using pymatgen
data_MgTe(BrO)6
_symmetry_space_group_name_H-M   'P 1'
_cell_length_a   10.98346700
_cell_length_b   11.05701564
_cell_length_c   11.14612110
_cell_angle_alpha   90.89244025
_cell_angle_beta   90.20901007
_cell_angle_gamma   91.19743616
_symmetry_Int_Tables_number   1
_chemical_formula_structural   MgTe(BrO)6
_chemical_formula_sum   'Mg4 Te4 Br24 O24'
_cell_volume   1353.16315337
_cell_formula_units_Z   4
loop_
 _symmetry_equiv_pos_site_id
 _symmetry_equiv_pos_as_xyz
  1  'x, y, z'
loop_
 _atom_site_type_symbol
 _atom_site_label
 _atom_site_symmetry_multiplicity
 _atom_site_fract_x
 _atom_site_fract_y
 _atom_site_fract_z
 _atom_site_occupancy
  Mg  Mg0  1  0.00013900  0.00075900  0.50189300  1
  Mg  Mg1  1  0.99522200  0.49760300  0.99943600  1
  Mg  Mg2  1  0.49558900  0.99255100  0.98571100  1
  Mg  Mg3  1  0.50003600  0.49836100  0.49919000  1
  Te  Te4  1  0.49085200  0.50566600  0.98602500  1
  Te  Te5  1  0.50381200  0.99965700  0.50395800  1
  Te  Te6  1  0.99926500  0.49756400  0.49731500  1
  Te  Te7  1  0.99570300  0.00140500  0.99782400  1
  Br  Br8  1  0.52570100  0.73114000  0.14720200  1
  Br  Br9  1  0.47436500  0.21953200  0.35341000  1
  Br  Br10  1  0.97461900  0.27435900  0.65011300  1
  Br  Br11  1  0.02477500  0.77372300  0.85544200  1
  Br  Br12  1  0.14276400  0.53279900  0.72559000  1
  Br  Br13  1  0.35696400  0.46629900  0.22385900  1
  Br  Br14  1  0.66442400  0.94764000  0.30687300  1
  Br  Br15  1  0.84314200  0.02811500  0.77268000  1
  Br  Br16  1  0.72869900  0.15686800  0.53620500  1
  Br  Br17  1  0.22156100  0.35322800  0.46141200  1
  Br  Br18  1  0.26790300  0.65190400  0.97314000  1
  Br  Br19  1  0.77010900  0.85132600  0.03050100  1
  Br  Br20  1  0.41051000  0.34375700  0.84152000  1
  Br  Br21  1  0.52984200  0.77462200  0.64450800  1
  Br  Br22  1  0.02939200  0.72551900  0.35131400  1
  Br  Br23  1  0.96386800  0.22540900  0.14021500  1
  Br  Br24  1  0.84606000  0.46782200  0.26776400  1
  Br  Br25  1  0.65481300  0.53444900  0.77091800  1
  Br  Br26  1  0.35975500  0.04875900  0.72227500  1
  Br  Br27  1  0.14470100  0.97461800  0.22925700  1
  Br  Br28  1  0.27200600  0.85507900  0.47140400  1
  Br  Br29  1  0.77951900  0.64576600  0.53021400  1
  Br  Br30  1  0.71213900  0.33413600  0.01386200  1
  Br  Br31  1  0.22863900  0.14412000  0.97482500  1
  O  O32  1  0.43621500  0.65349800  0.59374400  1
  O  O33  1  0.62533100  0.10941400  0.91847300  1
  O  O34  1  0.05921900  0.34383000  0.09025200  1
  O  O35  1  0.93731000  0.84243800  0.40499700  1
  O  O36  1  0.59410200  0.43966200  0.65721300  1
  O  O37  1  0.89964800  0.56050000  0.15168800  1
  O  O38  1  0.09040500  0.06577400  0.34725800  1
  O  O39  1  0.39666500  0.94371200  0.83369700  1
  O  O40  1  0.65725300  0.59339400  0.44039700  1
  O  O41  1  0.15373000  0.90676400  0.56320800  1
  O  O42  1  0.35519200  0.09608500  0.05732900  1
  O  O43  1  0.83587700  0.39671400  0.93620900  1
  O  O44  1  0.56456400  0.34217600  0.40647500  1
  O  O45  1  0.44250700  0.85573100  0.09573200  1
  O  O46  1  0.93357000  0.65329700  0.90753800  1
  O  O47  1  0.06562000  0.15717800  0.59643700  1
  O  O48  1  0.41058600  0.55982300  0.34272200  1
  O  O49  1  0.08891200  0.44119600  0.84165100  1
  O  O50  1  0.90673400  0.93997000  0.65721000  1
  O  O51  1  0.64849200  0.05384700  0.19515300  1
  O  O52  1  0.34083500  0.40373800  0.55594400  1
  O  O53  1  0.84323900  0.09692500  0.44516300  1
  O  O54  1  0.65508100  0.89717500  0.93182500  1
  O  O55  1  0.15202700  0.59260300  0.06383700  1
