# generated using pymatgen
data_NdSi6(C6N)3
_symmetry_space_group_name_H-M   'P 1'
_cell_length_a   14.30264812
_cell_length_b   11.27728455
_cell_length_c   6.10825038
_cell_angle_alpha   79.83670591
_cell_angle_beta   93.98899915
_cell_angle_gamma   113.21843617
_symmetry_Int_Tables_number   1
_chemical_formula_structural   NdSi6(C6N)3
_chemical_formula_sum   'Nd2 Si12 C36 N6'
_cell_volume   891.22786895
_cell_formula_units_Z   2
loop_
 _symmetry_equiv_pos_site_id
 _symmetry_equiv_pos_as_xyz
  1  'x, y, z'
loop_
 _atom_site_type_symbol
 _atom_site_label
 _atom_site_symmetry_multiplicity
 _atom_site_fract_x
 _atom_site_fract_y
 _atom_site_fract_z
 _atom_site_occupancy
  Nd  Nd0  1  0.30192200  0.65096100  0.75000000  1
  Nd  Nd1  1  0.69807800  0.34903900  0.25000000  1
  Si  Si2  1  0.05771400  0.65718800  0.57189100  1
  Si  Si3  1  0.55151600  0.87244100  0.87071100  1
  Si  Si4  1  0.25940900  0.42277400  0.18966400  1
  Si  Si5  1  0.94228600  0.59947600  0.07189100  1
  Si  Si6  1  0.74059100  0.16336600  0.68966400  1
  Si  Si7  1  0.44848400  0.32092600  0.37071100  1
  Si  Si8  1  0.94228600  0.34281200  0.42810900  1
  Si  Si9  1  0.44848400  0.12755900  0.12928900  1
  Si  Si10  1  0.74059100  0.57722600  0.81033600  1
  Si  Si11  1  0.05771400  0.40052500  0.92810900  1
  Si  Si12  1  0.25940900  0.83663400  0.31033600  1
  Si  Si13  1  0.55151600  0.67907400  0.62928900  1
  C  C14  1  0.14055300  0.72071100  0.96107500  1
  C  C15  1  0.56856200  0.95666000  0.25719700  1
  C  C16  1  0.34130600  0.33335700  0.16993300  1
  C  C17  1  0.85944700  0.58015800  0.46107500  1
  C  C18  1  0.65869400  0.99205000  0.66993300  1
  C  C19  1  0.43143800  0.38809800  0.75719700  1
  C  C20  1  0.85944700  0.27928900  0.03892500  1
  C  C21  1  0.43143800  0.04334000  0.74280300  1
  C  C22  1  0.65869400  0.66664300  0.83006700  1
  C  C23  1  0.14055300  0.41984200  0.53892500  1
  C  C24  1  0.34130600  0.00795000  0.33006700  1
  C  C25  1  0.56856200  0.61190200  0.24280300  1
  C  C26  1  0.04560500  0.65666100  0.87021300  1
  C  C27  1  0.57940300  0.84616200  0.18370000  1
  C  C28  1  0.38897700  0.40381400  0.94979400  1
  C  C29  1  0.95439500  0.61105600  0.37021300  1
  C  C30  1  0.61102300  0.01483600  0.44979400  1
  C  C31  1  0.42059700  0.26675900  0.68370000  1
  C  C32  1  0.95439500  0.34333900  0.12978700  1
  C  C33  1  0.42059700  0.15383800  0.81630000  1
  C  C34  1  0.61102300  0.59618600  0.05020600  1
  C  C35  1  0.04560500  0.38894400  0.62978700  1
  C  C36  1  0.38897700  0.98516400  0.55020600  1
  C  C37  1  0.57940300  0.73324100  0.31630000  1
  C  C38  1  0.22509100  0.77118900  0.05304200  1
  C  C39  1  0.51673700  0.02201400  0.10116400  1
  C  C40  1  0.38606200  0.50606400  0.03659300  1
  C  C41  1  0.77490900  0.54609700  0.55304200  1
  C  C42  1  0.61393800  0.12000200  0.53659300  1
  C  C43  1  0.48326300  0.50527800  0.60116300  1
  C  C44  1  0.77490900  0.22881100  0.94695800  1
  C  C45  1  0.48326300  0.97798600  0.89883700  1
  C  C46  1  0.61393800  0.49393600  0.96340700  1
  C  C47  1  0.22509100  0.45390300  0.44695800  1
  C  C48  1  0.38606200  0.87999800  0.46340700  1
  C  C49  1  0.51673700  0.49472200  0.39883600  1
  N  N50  1  0.17981400  0.72857600  0.51158800  1
  N  N51  1  0.48218500  0.74109300  0.75000000  1
  N  N52  1  0.17981400  0.45123800  0.98841200  1
  N  N53  1  0.82018600  0.54876200  0.01158800  1
  N  N54  1  0.82018600  0.27142400  0.48841200  1
  N  N55  1  0.51781500  0.25890700  0.25000000  1
