# generated using pymatgen
data_Mg(N3O8)2
_symmetry_space_group_name_H-M   'P 1'
_cell_length_a   6.81449600
_cell_length_b   9.55025200
_cell_length_c   12.75818031
_cell_angle_alpha   56.61505829
_cell_angle_beta   90.00000000
_cell_angle_gamma   90.00000000
_symmetry_Int_Tables_number   1
_chemical_formula_structural   Mg(N3O8)2
_chemical_formula_sum   'Mg2 N12 O32'
_cell_volume   693.29790492
_cell_formula_units_Z   2
loop_
 _symmetry_equiv_pos_site_id
 _symmetry_equiv_pos_as_xyz
  1  'x, y, z'
loop_
 _atom_site_type_symbol
 _atom_site_label
 _atom_site_symmetry_multiplicity
 _atom_site_fract_x
 _atom_site_fract_y
 _atom_site_fract_z
 _atom_site_occupancy
  Mg  Mg0  1  0.00000000  0.00000000  0.00000000  1
  Mg  Mg1  1  0.50000000  0.00000000  0.50000000  1
  N  N2  1  0.27344300  0.61302500  0.09096700  1
  N  N3  1  0.22655700  0.61302500  0.59096700  1
  N  N4  1  0.72655700  0.38697500  0.90903300  1
  N  N5  1  0.77344300  0.38697500  0.40903300  1
  N  N6  1  0.47233300  0.62413600  0.08006900  1
  N  N7  1  0.02766700  0.62413600  0.58006900  1
  N  N8  1  0.52766700  0.37586400  0.91993100  1
  N  N9  1  0.97233300  0.37586400  0.41993100  1
  N  N10  1  0.20260800  0.45344800  0.14358200  1
  N  N11  1  0.29739200  0.45344800  0.64358200  1
  N  N12  1  0.79739200  0.54655200  0.85641800  1
  N  N13  1  0.70260800  0.54655200  0.35641800  1
  O  O14  1  0.99731200  0.79771000  0.98771900  1
  O  O15  1  0.50268800  0.79771000  0.48771900  1
  O  O16  1  0.00268800  0.20229000  0.01228100  1
  O  O17  1  0.49731200  0.20229000  0.51228100  1
  O  O18  1  0.19808600  0.89858000  0.19231300  1
  O  O19  1  0.30191400  0.89858000  0.69231300  1
  O  O20  1  0.80191400  0.10142000  0.80768700  1
  O  O21  1  0.69808600  0.10142000  0.30768700  1
  O  O22  1  0.23735900  0.97264900  0.91707900  1
  O  O23  1  0.26264100  0.97264900  0.41707900  1
  O  O24  1  0.76264100  0.02735100  0.08292100  1
  O  O25  1  0.73735900  0.02735100  0.58292100  1
  O  O26  1  0.36628800  0.91059400  0.22005000  1
  O  O27  1  0.13371200  0.91059400  0.72005000  1
  O  O28  1  0.63371200  0.08940600  0.77995000  1
  O  O29  1  0.86628800  0.08940600  0.27995000  1
  O  O30  1  0.54393000  0.76659900  0.02974700  1
  O  O31  1  0.95607000  0.76659900  0.52974700  1
  O  O32  1  0.45607000  0.23340100  0.97025300  1
  O  O33  1  0.04393000  0.23340100  0.47025300  1
  O  O34  1  0.58397600  0.49873500  0.11955100  1
  O  O35  1  0.91602400  0.49873500  0.61955100  1
  O  O36  1  0.41602400  0.50126500  0.88044900  1
  O  O37  1  0.08397600  0.50126500  0.38044900  1
  O  O38  1  0.02247300  0.43867800  0.15234200  1
  O  O39  1  0.47752700  0.43867800  0.65234200  1
  O  O40  1  0.97752700  0.56132200  0.84765800  1
  O  O41  1  0.52247300  0.56132200  0.34765800  1
  O  O42  1  0.31287600  0.32750300  0.18247400  1
  O  O43  1  0.18712400  0.32750300  0.68247400  1
  O  O44  1  0.68712400  0.67249700  0.81752600  1
  O  O45  1  0.81287600  0.67249700  0.31752600  1
