# generated using pymatgen
data_Cu3SbS3
_symmetry_space_group_name_H-M   'P 1'
_cell_length_a   8.73587191
_cell_length_b   8.73587191
_cell_length_c   8.73587191
_cell_angle_alpha   109.47122063
_cell_angle_beta   109.47122063
_cell_angle_gamma   109.47122063
_symmetry_Int_Tables_number   1
_chemical_formula_structural   Cu3SbS3
_chemical_formula_sum   'Cu12 Sb4 S12'
_cell_volume   513.21209411
_cell_formula_units_Z   4
loop_
 _symmetry_equiv_pos_site_id
 _symmetry_equiv_pos_as_xyz
  1  'x, y, z'
loop_
 _atom_site_type_symbol
 _atom_site_label
 _atom_site_symmetry_multiplicity
 _atom_site_fract_x
 _atom_site_fract_y
 _atom_site_fract_z
 _atom_site_occupancy
  Cu  Cu0  1  0.81591100  0.81591100  0.00000000  1
  Cu  Cu1  1  0.75000000  0.25000000  0.50000000  1
  Cu  Cu2  1  0.50000000  0.25000000  0.75000000  1
  Cu  Cu3  1  0.75000000  0.50000000  0.25000000  1
  Cu  Cu4  1  0.00000000  0.18408900  0.18408900  1
  Cu  Cu5  1  0.18408900  0.18408900  0.00000000  1
  Cu  Cu6  1  0.18408900  0.00000000  0.18408900  1
  Cu  Cu7  1  0.25000000  0.75000000  0.50000000  1
  Cu  Cu8  1  0.81591100  0.00000000  0.81591100  1
  Cu  Cu9  1  0.25000000  0.50000000  0.75000000  1
  Cu  Cu10  1  0.50000000  0.75000000  0.25000000  1
  Cu  Cu11  1  0.00000000  0.81591100  0.81591100  1
  Sb  Sb12  1  0.00000000  0.44995300  0.00000000  1
  Sb  Sb13  1  0.44995300  0.00000000  0.00000000  1
  Sb  Sb14  1  0.55004700  0.55004700  0.55004700  1
  Sb  Sb15  1  0.00000000  0.00000000  0.44995300  1
  S  S16  1  0.22568500  0.47091500  0.47091500  1
  S  S17  1  0.00000000  0.75477000  0.52908500  1
  S  S18  1  0.77431500  0.24523000  0.24523000  1
  S  S19  1  0.47091500  0.47091500  0.22568500  1
  S  S20  1  0.24523000  0.77431500  0.24523000  1
  S  S21  1  0.47091500  0.22568500  0.47091500  1
  S  S22  1  0.00000000  0.52908500  0.75477000  1
  S  S23  1  0.75477000  0.52908500  0.00000000  1
  S  S24  1  0.75477000  0.00000000  0.52908500  1
  S  S25  1  0.24523000  0.24523000  0.77431500  1
  S  S26  1  0.52908500  0.75477000  0.00000000  1
  S  S27  1  0.52908500  0.00000000  0.75477000  1
