# generated using pymatgen
data_Ag3SeNO3
_symmetry_space_group_name_H-M   'P 1'
_cell_length_a   6.36342672
_cell_length_b   6.36342672
_cell_length_c   6.36342596
_cell_angle_alpha   85.35028178
_cell_angle_beta   85.35028178
_cell_angle_gamma   85.35028382
_symmetry_Int_Tables_number   1
_chemical_formula_structural   Ag3SeNO3
_chemical_formula_sum   'Ag6 Se2 N2 O6'
_cell_volume   255.26152204
_cell_formula_units_Z   2
loop_
 _symmetry_equiv_pos_site_id
 _symmetry_equiv_pos_as_xyz
  1  'x, y, z'
loop_
 _atom_site_type_symbol
 _atom_site_label
 _atom_site_symmetry_multiplicity
 _atom_site_fract_x
 _atom_site_fract_y
 _atom_site_fract_z
 _atom_site_occupancy
  Ag  Ag0  1  0.19666700  0.74336800  0.07113000  1
  Ag  Ag1  1  0.07113000  0.19666700  0.74336800  1
  Ag  Ag2  1  0.74336800  0.07113000  0.19666700  1
  Ag  Ag3  1  0.69666700  0.57113000  0.24336800  1
  Ag  Ag4  1  0.57113000  0.24336800  0.69666700  1
  Ag  Ag5  1  0.24336800  0.69666700  0.57113000  1
  Se  Se6  1  0.71891400  0.71891400  0.71891400  1
  Se  Se7  1  0.21891400  0.21891400  0.21891400  1
  N  N8  1  0.57011400  0.57011400  0.57011400  1
  N  N9  1  0.07011400  0.07011400  0.07011400  1
  O  O10  1  0.33562600  0.41639200  0.06608900  1
  O  O11  1  0.41639200  0.06608900  0.33562600  1
  O  O12  1  0.06608900  0.33562600  0.41639200  1
  O  O13  1  0.56608900  0.91639200  0.83562600  1
  O  O14  1  0.91639200  0.83562600  0.56608900  1
  O  O15  1  0.83562600  0.56608900  0.91639200  1
