# generated using pymatgen
data_SbC(N3Cl2)3
_symmetry_space_group_name_H-M   'P 1'
_cell_length_a   11.14275700
_cell_length_b   9.43194300
_cell_length_c   15.49753255
_cell_angle_alpha   66.56069849
_cell_angle_beta   90.00000000
_cell_angle_gamma   90.00000000
_symmetry_Int_Tables_number   1
_chemical_formula_structural   SbC(N3Cl2)3
_chemical_formula_sum   'Sb4 C4 N36 Cl24'
_cell_volume   1494.35551965
_cell_formula_units_Z   4
loop_
 _symmetry_equiv_pos_site_id
 _symmetry_equiv_pos_as_xyz
  1  'x, y, z'
loop_
 _atom_site_type_symbol
 _atom_site_label
 _atom_site_symmetry_multiplicity
 _atom_site_fract_x
 _atom_site_fract_y
 _atom_site_fract_z
 _atom_site_occupancy
  Sb  Sb0  1  0.72865100  0.78520100  0.12568400  1
  Sb  Sb1  1  0.77134900  0.78520100  0.62568400  1
  Sb  Sb2  1  0.22865100  0.21479900  0.37431600  1
  Sb  Sb3  1  0.27134900  0.21479900  0.87431600  1
  C  C4  1  0.75122400  0.30136100  0.10084000  1
  C  C5  1  0.24877600  0.69863900  0.89916000  1
  C  C6  1  0.25122400  0.69863900  0.39916000  1
  C  C7  1  0.74877600  0.30136100  0.60084000  1
  N  N8  1  0.88450800  0.44653500  0.39443700  1
  N  N9  1  0.18443200  0.59000300  0.54697400  1
  N  N10  1  0.36300600  0.73247100  0.86738700  1
  N  N11  1  0.27304600  0.61989900  0.49202700  1
  N  N12  1  0.04477700  0.30361300  0.10709100  1
  N  N13  1  0.45522300  0.30361300  0.60709100  1
  N  N14  1  0.65683200  0.25644600  0.66324300  1
  N  N15  1  0.60164400  0.11348200  0.29493300  1
  N  N16  1  0.15683200  0.74355400  0.83675700  1
  N  N17  1  0.34316800  0.74355400  0.33675700  1
  N  N18  1  0.22695400  0.61989900  0.99202700  1
  N  N19  1  0.77304600  0.38010100  0.00797300  1
  N  N20  1  0.95522300  0.69638700  0.89290900  1
  N  N21  1  0.13699400  0.73247100  0.36738700  1
  N  N22  1  0.89835600  0.11348200  0.79493300  1
  N  N23  1  0.05264400  0.71512300  0.87067600  1
  N  N24  1  0.84316800  0.25644600  0.16324300  1
  N  N25  1  0.63699400  0.26752900  0.13261300  1
  N  N26  1  0.12580400  0.81339500  0.28076000  1
  N  N27  1  0.62580400  0.18660500  0.21924000  1
  N  N28  1  0.31556800  0.59000300  0.04697400  1
  N  N29  1  0.37419600  0.81339500  0.78076000  1
  N  N30  1  0.68443200  0.40999700  0.95302600  1
  N  N31  1  0.38450800  0.55346500  0.10556300  1
  N  N32  1  0.10164400  0.88651800  0.20506700  1
  N  N33  1  0.39835600  0.88651800  0.70506700  1
  N  N34  1  0.94735600  0.28487700  0.12932400  1
  N  N35  1  0.87419600  0.18660500  0.71924000  1
  N  N36  1  0.11549200  0.55346500  0.60556300  1
  N  N37  1  0.81556800  0.40999700  0.45302600  1
  N  N38  1  0.61549200  0.44653500  0.89443700  1
  N  N39  1  0.86300600  0.26752900  0.63261300  1
  N  N40  1  0.72695400  0.38010100  0.50797300  1
  N  N41  1  0.55264400  0.28487700  0.62932400  1
  N  N42  1  0.54477700  0.69638700  0.39290900  1
  N  N43  1  0.44735600  0.71512300  0.37067600  1
  Cl  Cl44  1  0.91791600  0.66325500  0.11847600  1
  Cl  Cl45  1  0.84635100  0.53834500  0.73700300  1
  Cl  Cl46  1  0.80588600  0.84163700  0.25493900  1
  Cl  Cl47  1  0.69411400  0.84163700  0.75493900  1
  Cl  Cl48  1  0.58208400  0.66325500  0.61847600  1
  Cl  Cl49  1  0.65364900  0.53834500  0.23700300  1
  Cl  Cl50  1  0.30588600  0.15836300  0.24506100  1
  Cl  Cl51  1  0.45966800  0.09557300  0.86347800  1
  Cl  Cl52  1  0.34900900  0.26893300  0.00335900  1
  Cl  Cl53  1  0.80672400  0.02856900  0.01541300  1
  Cl  Cl54  1  0.84900900  0.73106700  0.49664100  1
  Cl  Cl55  1  0.54033200  0.90442700  0.13652200  1
  Cl  Cl56  1  0.95966800  0.90442700  0.63652200  1
  Cl  Cl57  1  0.34635100  0.46165500  0.76299700  1
  Cl  Cl58  1  0.30672400  0.97143100  0.48458700  1
  Cl  Cl59  1  0.19411400  0.15836300  0.74506100  1
  Cl  Cl60  1  0.04033200  0.09557300  0.36347800  1
  Cl  Cl61  1  0.15099100  0.26893300  0.50335900  1
  Cl  Cl62  1  0.65099100  0.73106700  0.99664100  1
  Cl  Cl63  1  0.19327600  0.97143100  0.98458700  1
  Cl  Cl64  1  0.41791600  0.33674500  0.38152400  1
  Cl  Cl65  1  0.08208400  0.33674500  0.88152400  1
  Cl  Cl66  1  0.15364900  0.46165500  0.26299700  1
  Cl  Cl67  1  0.69327600  0.02856900  0.51541300  1
