# generated using pymatgen
data_Na2Cu3(SiO3)4
_symmetry_space_group_name_H-M   'P 1'
_cell_length_a   7.62885700
_cell_length_b   10.40484900
_cell_length_c   13.72625900
_cell_angle_alpha   90.00000000
_cell_angle_beta   90.00000000
_cell_angle_gamma   90.00000000
_symmetry_Int_Tables_number   1
_chemical_formula_structural   Na2Cu3(SiO3)4
_chemical_formula_sum   'Na8 Cu12 Si16 O48'
_cell_volume   1089.55070365
_cell_formula_units_Z   4
loop_
 _symmetry_equiv_pos_site_id
 _symmetry_equiv_pos_as_xyz
  1  'x, y, z'
loop_
 _atom_site_type_symbol
 _atom_site_label
 _atom_site_symmetry_multiplicity
 _atom_site_fract_x
 _atom_site_fract_y
 _atom_site_fract_z
 _atom_site_occupancy
  Na  Na0  1  0.03935300  0.75000000  0.16808200  1
  Na  Na1  1  0.18800800  0.75000000  0.48362400  1
  Na  Na2  1  0.46064700  0.25000000  0.66808200  1
  Na  Na3  1  0.81199200  0.25000000  0.51637600  1
  Na  Na4  1  0.31199200  0.25000000  0.98362400  1
  Na  Na5  1  0.53935300  0.75000000  0.33191800  1
  Na  Na6  1  0.96064700  0.25000000  0.83191800  1
  Na  Na7  1  0.68800800  0.75000000  0.01637600  1
  Cu  Cu8  1  0.26566800  0.25000000  0.21844700  1
  Cu  Cu9  1  0.25257500  0.75000000  0.94294700  1
  Cu  Cu10  1  0.74742500  0.25000000  0.05705300  1
  Cu  Cu11  1  0.24742500  0.25000000  0.44294700  1
  Cu  Cu12  1  0.00000000  0.50000000  0.00000000  1
  Cu  Cu13  1  0.75257500  0.75000000  0.55705300  1
  Cu  Cu14  1  0.73433200  0.75000000  0.78155300  1
  Cu  Cu15  1  0.50000000  0.50000000  0.50000000  1
  Cu  Cu16  1  0.50000000  0.00000000  0.50000000  1
  Cu  Cu17  1  0.76566800  0.25000000  0.28155300  1
  Cu  Cu18  1  0.00000000  0.00000000  0.00000000  1
  Cu  Cu19  1  0.23433200  0.75000000  0.71844700  1
  Si  Si20  1  0.81974900  0.96905100  0.37617200  1
  Si  Si21  1  0.27933900  0.47518600  0.83756400  1
  Si  Si22  1  0.31974900  0.96905100  0.12382800  1
  Si  Si23  1  0.72066100  0.52481400  0.16243600  1
  Si  Si24  1  0.68025100  0.03094900  0.87617200  1
  Si  Si25  1  0.31974900  0.53094900  0.12382800  1
  Si  Si26  1  0.77933900  0.47518600  0.66243600  1
  Si  Si27  1  0.22066100  0.97518600  0.33756400  1
  Si  Si28  1  0.27933900  0.02481400  0.83756400  1
  Si  Si29  1  0.22066100  0.52481400  0.33756400  1
  Si  Si30  1  0.18025100  0.46905100  0.62382800  1
  Si  Si31  1  0.81974900  0.53094900  0.37617200  1
  Si  Si32  1  0.72066100  0.97518600  0.16243600  1
  Si  Si33  1  0.77933900  0.02481400  0.66243600  1
  Si  Si34  1  0.18025100  0.03094900  0.62382800  1
  Si  Si35  1  0.68025100  0.46905100  0.87617200  1
  O  O36  1  0.79044000  0.37777400  0.38147900  1
  O  O37  1  0.97155200  0.42583000  0.61965000  1
  O  O38  1  0.73540000  0.13207100  0.17033700  1
  O  O39  1  0.73647600  0.91119200  0.27290700  1
  O  O40  1  0.23540000  0.36792900  0.32966300  1
  O  O41  1  0.23647600  0.58880800  0.22709300  1
  O  O42  1  0.70956000  0.87777400  0.88147900  1
  O  O43  1  0.21730700  0.60726400  0.03495900  1
  O  O44  1  0.70956000  0.62222600  0.88147900  1
  O  O45  1  0.86974400  0.90780200  0.09603100  1
  O  O46  1  0.23647600  0.91119200  0.22709300  1
  O  O47  1  0.52844800  0.57417000  0.11965000  1
  O  O48  1  0.73647600  0.58880800  0.27290700  1
  O  O49  1  0.26460000  0.63207100  0.82966300  1
  O  O50  1  0.47155200  0.07417000  0.88035000  1
  O  O51  1  0.86974400  0.59219800  0.09603100  1
  O  O52  1  0.63025600  0.09219800  0.59603100  1
  O  O53  1  0.29044000  0.37777400  0.11852100  1
  O  O54  1  0.76460000  0.63207100  0.67033700  1
  O  O55  1  0.13025600  0.40780200  0.90396900  1
  O  O56  1  0.23540000  0.13207100  0.32966300  1
  O  O57  1  0.76352400  0.08880800  0.77290700  1
  O  O58  1  0.21730700  0.89273600  0.03495900  1
  O  O59  1  0.02844800  0.57417000  0.38035000  1
  O  O60  1  0.71730700  0.60726400  0.46504100  1
  O  O61  1  0.78269300  0.39273600  0.96504100  1
  O  O62  1  0.36974400  0.90780200  0.40396900  1
  O  O63  1  0.76352400  0.41119200  0.77290700  1
  O  O64  1  0.20956000  0.62222600  0.61852100  1
  O  O65  1  0.26352400  0.08880800  0.72709300  1
  O  O66  1  0.97155200  0.07417000  0.61965000  1
  O  O67  1  0.28269300  0.10726400  0.53495900  1
  O  O68  1  0.26460000  0.86792900  0.82966300  1
  O  O69  1  0.36974400  0.59219800  0.40396900  1
  O  O70  1  0.26352400  0.41119200  0.72709300  1
  O  O71  1  0.76460000  0.86792900  0.67033700  1
  O  O72  1  0.13025600  0.09219800  0.90396900  1
  O  O73  1  0.29044000  0.12222600  0.11852100  1
  O  O74  1  0.78269300  0.10726400  0.96504100  1
  O  O75  1  0.63025600  0.40780200  0.59603100  1
  O  O76  1  0.02844800  0.92583000  0.38035000  1
  O  O77  1  0.79044000  0.12222600  0.38147900  1
  O  O78  1  0.28269300  0.39273600  0.53495900  1
  O  O79  1  0.47155200  0.42583000  0.88035000  1
  O  O80  1  0.71730700  0.89273600  0.46504100  1
  O  O81  1  0.73540000  0.36792900  0.17033700  1
  O  O82  1  0.52844800  0.92583000  0.11965000  1
  O  O83  1  0.20956000  0.87777400  0.61852100  1
