# generated using pymatgen
data_NaPO3
_symmetry_space_group_name_H-M   'P 1'
_cell_length_a   9.69306983
_cell_length_b   9.69306983
_cell_length_c   9.69306983
_cell_angle_alpha   98.57500686
_cell_angle_beta   98.57500686
_cell_angle_gamma   134.57095040
_symmetry_Int_Tables_number   1
_chemical_formula_structural   NaPO3
_chemical_formula_sum   'Na8 P8 O24'
_cell_volume   598.46005648
_cell_formula_units_Z   8
loop_
 _symmetry_equiv_pos_site_id
 _symmetry_equiv_pos_as_xyz
  1  'x, y, z'
loop_
 _atom_site_type_symbol
 _atom_site_label
 _atom_site_symmetry_multiplicity
 _atom_site_fract_x
 _atom_site_fract_y
 _atom_site_fract_z
 _atom_site_occupancy
  Na  Na0  1  0.81340800  0.62792800  0.97755000  1
  Na  Na1  1  0.43659200  0.12207200  0.52245000  1
  Na  Na2  1  0.16414200  0.18659200  0.81451900  1
  Na  Na3  1  0.87792800  0.40037800  0.31451900  1
  Na  Na4  1  0.65037800  0.83585800  0.02245000  1
  Na  Na5  1  0.37207200  0.34962200  0.18548100  1
  Na  Na6  1  0.08585800  0.56340800  0.68548100  1
  Na  Na7  1  0.59962200  0.91414200  0.47755000  1
  P  P8  1  0.45428600  0.11427300  0.93922500  1
  P  P9  1  0.88572700  0.82495200  0.34001200  1
  P  P10  1  0.36427300  0.92504800  0.15998800  1
  P  P11  1  0.07495200  0.23494000  0.43922500  1
  P  P12  1  0.79571400  0.63572700  0.56077500  1
  P  P13  1  0.76506000  0.20428600  0.84001200  1
  P  P14  1  0.48494000  0.54571400  0.65998800  1
  P  P15  1  0.17504800  0.51506000  0.06077500  1
  O  O16  1  0.47822700  0.00975700  0.32475500  1
  O  O17  1  0.99024300  0.31499800  0.46847000  1
  O  O18  1  0.68500200  0.15347200  0.67524500  1
  O  O19  1  0.93606000  0.84033700  0.68243600  1
  O  O20  1  0.74637600  0.06394000  0.90427800  1
  O  O21  1  0.01020100  0.43088100  0.89827200  1
  O  O22  1  0.31394000  0.90966300  0.81756400  1
  O  O23  1  0.88807000  0.98979900  0.42067900  1
  O  O24  1  0.09209800  0.49637600  0.18243600  1
  O  O25  1  0.15790200  0.25362400  0.31756400  1
  O  O26  1  0.84652800  0.52177300  0.53153000  1
  O  O27  1  0.23979900  0.31911900  0.60172800  1
  O  O28  1  0.53260900  0.11193000  0.10172800  1
  O  O29  1  0.71739100  0.63807000  0.39827200  1
  O  O30  1  0.09033700  0.90790200  0.40427800  1
  O  O31  1  0.56499800  0.59652800  0.82475500  1
  O  O32  1  0.56911900  0.46739100  0.57932100  1
  O  O33  1  0.68088100  0.28260900  0.92067900  1
  O  O34  1  0.25975700  0.43500200  0.03153000  1
  O  O35  1  0.77177300  0.74024300  0.17524500  1
  O  O36  1  0.50362400  0.68606000  0.59572200  1
  O  O37  1  0.36193000  0.76020100  0.07932100  1
  O  O38  1  0.15966300  0.84209800  0.09572200  1
  O  O39  1  0.40347200  0.22822700  0.96847000  1
