# generated using pymatgen
data_Na4CuP6H22(N3O11)2
_symmetry_space_group_name_H-M   'P 1'
_cell_length_a   9.21765300
_cell_length_b   9.39966099
_cell_length_c   9.76366536
_cell_angle_alpha   67.47974393
_cell_angle_beta   71.73827548
_cell_angle_gamma   60.70050423
_symmetry_Int_Tables_number   1
_chemical_formula_structural   Na4CuP6H22(N3O11)2
_chemical_formula_sum   'Na4 Cu1 P6 H22 N6 O22'
_cell_volume   673.09840046
_cell_formula_units_Z   1
loop_
 _symmetry_equiv_pos_site_id
 _symmetry_equiv_pos_as_xyz
  1  'x, y, z'
loop_
 _atom_site_type_symbol
 _atom_site_label
 _atom_site_symmetry_multiplicity
 _atom_site_fract_x
 _atom_site_fract_y
 _atom_site_fract_z
 _atom_site_occupancy
  Na  Na0  1  0.94452300  0.10690500  0.11276100  1
  Na  Na1  1  0.05547700  0.89309500  0.88723900  1
  Na  Na2  1  0.33714900  0.20376500  0.40099300  1
  Na  Na3  1  0.66285100  0.79623500  0.59900700  1
  Cu  Cu4  1  0.00000000  0.50000000  0.50000000  1
  P  P5  1  0.92494200  0.41446200  0.26229400  1
  P  P6  1  0.07505800  0.58553800  0.73770600  1
  P  P7  1  0.56005700  0.65294800  0.24078000  1
  P  P8  1  0.43994300  0.34705200  0.75922000  1
  P  P9  1  0.18488600  0.22958200  0.78638500  1
  P  P10  1  0.81511400  0.77041800  0.21361500  1
  H  H11  1  0.67975900  0.41988200  0.43210400  1
  H  H12  1  0.32024100  0.58011800  0.56789600  1
  H  H13  1  0.52757100  0.93217200  0.18295400  1
  H  H14  1  0.47242900  0.06782800  0.81704600  1
  H  H15  1  0.96809500  0.61732900  0.03743500  1
  H  H16  1  0.03190500  0.38267100  0.96256500  1
  H  H17  1  0.70149400  0.43057700  0.66722000  1
  H  H18  1  0.29850600  0.56942300  0.33278000  1
  H  H19  1  0.76741600  0.44153300  0.79064000  1
  H  H20  1  0.23258400  0.55846700  0.20936000  1
  H  H21  1  0.23914000  0.17974100  0.17398200  1
  H  H22  1  0.76086000  0.82025900  0.82601800  1
  H  H23  1  0.38964200  0.22458400  0.07549100  1
  H  H24  1  0.61035800  0.77541600  0.92450900  1
  H  H25  1  0.60051400  0.17339800  0.53687900  1
  H  H26  1  0.39948600  0.82660200  0.46312100  1
  H  H27  1  0.72391700  0.08213200  0.41669200  1
  H  H28  1  0.27608300  0.91786800  0.58330800  1
  H  H29  1  0.61842200  0.32281100  0.99596600  1
  H  H30  1  0.38157800  0.67718900  0.00403400  1
  H  H31  1  0.65038900  0.43467500  0.05946000  1
  H  H32  1  0.34961100  0.56532500  0.94054000  1
  N  N33  1  0.71697700  0.47371500  0.32121900  1
  N  N34  1  0.28302300  0.52628500  0.67878100  1
  N  N35  1  0.61919800  0.80842600  0.20758600  1
  N  N36  1  0.38080200  0.19157400  0.79241400  1
  N  N37  1  0.93656200  0.59601300  0.15261400  1
  N  N38  1  0.06343800  0.40398700  0.84738600  1
  O  O39  1  0.00811500  0.34851500  0.40059500  1
  O  O40  1  0.99188500  0.65148500  0.59940500  1
  O  O41  1  0.00306700  0.28847400  0.17014600  1
  O  O42  1  0.99693300  0.71152600  0.82985400  1
  O  O43  1  0.40098700  0.67850600  0.35686100  1
  O  O44  1  0.59901300  0.32149400  0.64313900  1
  O  O45  1  0.55290000  0.64233000  0.09098200  1
  O  O46  1  0.44710000  0.35767000  0.90901800  1
  O  O47  1  0.14192000  0.08430200  0.89066500  1
  O  O48  1  0.85808000  0.91569800  0.10933500  1
  O  O49  1  0.16487400  0.28376000  0.62164000  1
  O  O50  1  0.83512600  0.71624000  0.37836000  1
  O  O51  1  0.74849100  0.49552900  0.68571400  1
  O  O52  1  0.25150900  0.50447100  0.31428600  1
  O  O53  1  0.35759500  0.15128700  0.17347100  1
  O  O54  1  0.64240500  0.84871300  0.82652900  1
  O  O55  1  0.61235400  0.10395000  0.47603000  1
  O  O56  1  0.38764600  0.89605000  0.52397000  1
  O  O57  1  0.70662200  0.32989900  0.02635300  1
  O  O58  1  0.29337800  0.67010100  0.97364700  1
  O  O59  1  0.99279100  0.98498600  0.44702200  1
  O  O60  1  0.00720900  0.01501400  0.55297800  1
