# generated using pymatgen
data_Ga4P4O17
_symmetry_space_group_name_H-M   'P 1'
_cell_length_a   17.28639906
_cell_length_b   17.28639906
_cell_length_c   17.28639906
_cell_angle_alpha   60.00000000
_cell_angle_beta   60.00000000
_cell_angle_gamma   60.00000000
_symmetry_Int_Tables_number   1
_chemical_formula_structural   Ga4P4O17
_chemical_formula_sum   'Ga24 P24 O102'
_cell_volume   3652.57049054
_cell_formula_units_Z   6
loop_
 _symmetry_equiv_pos_site_id
 _symmetry_equiv_pos_as_xyz
  1  'x, y, z'
loop_
 _atom_site_type_symbol
 _atom_site_label
 _atom_site_symmetry_multiplicity
 _atom_site_fract_x
 _atom_site_fract_y
 _atom_site_fract_z
 _atom_site_occupancy
  Ga  Ga0  1  0.89302800  0.10697200  0.27286500  1
  Ga  Ga1  1  0.39302800  0.77286500  0.60697200  1
  Ga  Ga2  1  0.27286500  0.72713500  0.89302800  1
  Ga  Ga3  1  0.39302800  0.22713500  0.77286500  1
  Ga  Ga4  1  0.10697200  0.27286500  0.89302800  1
  Ga  Ga5  1  0.27286500  0.10697200  0.72713500  1
  Ga  Ga6  1  0.72713500  0.27286500  0.10697200  1
  Ga  Ga7  1  0.72713500  0.89302800  0.27286500  1
  Ga  Ga8  1  0.22713500  0.60697200  0.77286500  1
  Ga  Ga9  1  0.60697200  0.22713500  0.39302800  1
  Ga  Ga10  1  0.60697200  0.77286500  0.22713500  1
  Ga  Ga11  1  0.77286500  0.60697200  0.39302800  1
  Ga  Ga12  1  0.72713500  0.10697200  0.89302800  1
  Ga  Ga13  1  0.89302800  0.72713500  0.10697200  1
  Ga  Ga14  1  0.77286500  0.22713500  0.60697200  1
  Ga  Ga15  1  0.22713500  0.39302800  0.60697200  1
  Ga  Ga16  1  0.77286500  0.39302800  0.22713500  1
  Ga  Ga17  1  0.39302800  0.60697200  0.22713500  1
  Ga  Ga18  1  0.22713500  0.77286500  0.39302800  1
  Ga  Ga19  1  0.60697200  0.39302800  0.77286500  1
  Ga  Ga20  1  0.89302800  0.27286500  0.72713500  1
  Ga  Ga21  1  0.10697200  0.72713500  0.27286500  1
  Ga  Ga22  1  0.10697200  0.89302800  0.72713500  1
  Ga  Ga23  1  0.27286500  0.89302800  0.10697200  1
  P  P24  1  0.41747100  0.22238800  0.58252900  1
  P  P25  1  0.91747100  0.72238800  0.27761200  1
  P  P26  1  0.91747100  0.27761200  0.08252900  1
  P  P27  1  0.27761200  0.08252900  0.91747100  1
  P  P28  1  0.72238800  0.08252900  0.27761200  1
  P  P29  1  0.22238800  0.58252900  0.41747100  1
  P  P30  1  0.72238800  0.27761200  0.91747100  1
  P  P31  1  0.08252900  0.91747100  0.27761200  1
  P  P32  1  0.58252900  0.22238800  0.77761200  1
  P  P33  1  0.08252900  0.27761200  0.72238800  1
  P  P34  1  0.91747100  0.08252900  0.72238800  1
  P  P35  1  0.22238800  0.77761200  0.58252900  1
  P  P36  1  0.77761200  0.22238800  0.41747100  1
  P  P37  1  0.27761200  0.91747100  0.72238800  1
  P  P38  1  0.77761200  0.41747100  0.58252900  1
  P  P39  1  0.72238800  0.91747100  0.08252900  1
  P  P40  1  0.22238800  0.41747100  0.77761200  1
  P  P41  1  0.08252900  0.72238800  0.91747100  1
  P  P42  1  0.58252900  0.77761200  0.41747100  1
  P  P43  1  0.41747100  0.58252900  0.77761200  1
  P  P44  1  0.77761200  0.58252900  0.22238800  1
  P  P45  1  0.27761200  0.72238800  0.08252900  1
  P  P46  1  0.41747100  0.77761200  0.22238800  1
  P  P47  1  0.58252900  0.41747100  0.22238800  1
  O  O48  1  0.84669300  0.82191000  0.28234600  1
  O  O49  1  0.54905100  0.32191000  0.78234600  1
  O  O50  1  0.37280200  0.14446100  0.62719800  1
  O  O51  1  0.29866900  0.70133100  0.99709500  1
  O  O52  1  0.87280200  0.35553900  0.12719800  1
  O  O53  1  0.78234600  0.32191000  0.34669300  1
  O  O54  1  0.45094900  0.67809000  0.21765400  1
  O  O55  1  0.50290500  0.20133100  0.49709500  1
  O  O56  1  0.32191000  0.34669300  0.78234600  1
  O  O57  1  0.29866900  0.00290500  0.70133100  1
  O  O58  1  0.49709500  0.79866900  0.50290500  1
  O  O59  1  0.99709500  0.29866900  0.70133100  1
  O  O60  1  0.12719800  0.35553900  0.64446100  1
  O  O61  1  0.65330700  0.45094900  0.21765400  1
  O  O62  1  0.17809000  0.95094900  0.71765400  1
  O  O63  1  0.00290500  0.99709500  0.70133100  1
  O  O64  1  0.04905100  0.82191000  0.84669300  1
  O  O65  1  0.79866900  0.50290500  0.49709500  1
  O  O66  1  0.04905100  0.28234600  0.82191000  1
  O  O67  1  0.65330700  0.67809000  0.45094900  1
  O  O68  1  0.35553900  0.12719800  0.87280200  1
  O  O69  1  0.82191000  0.04905100  0.28234600  1
  O  O70  1  0.32191000  0.78234600  0.54905100  1
  O  O71  1  0.17809000  0.71765400  0.15330700  1
  O  O72  1  0.95094900  0.15330700  0.71765400  1
  O  O73  1  0.37280200  0.85553900  0.14446100  1
  O  O74  1  0.29866900  0.99709500  0.00290500  1
  O  O75  1  0.71765400  0.95094900  0.15330700  1
  O  O76  1  0.54905100  0.78234600  0.34669300  1
  O  O77  1  0.95094900  0.71765400  0.17809000  1
  O  O78  1  0.49709500  0.20133100  0.79866900  1
  O  O79  1  0.12719800  0.87280200  0.35553900  1
  O  O80  1  0.82191000  0.84669300  0.04905100  1
  O  O81  1  0.99709500  0.70133100  0.00290500  1
  O  O82  1  0.62719800  0.85553900  0.37280200  1
  O  O83  1  0.15330700  0.95094900  0.17809000  1
  O  O84  1  0.50290500  0.49709500  0.79866900  1
  O  O85  1  0.45094900  0.21765400  0.65330700  1
  O  O86  1  0.70133100  0.99709500  0.29866900  1
  O  O87  1  0.95094900  0.17809000  0.15330700  1
  O  O88  1  0.15330700  0.71765400  0.95094900  1
  O  O89  1  0.85553900  0.37280200  0.62719800  1
  O  O90  1  0.32191000  0.54905100  0.34669300  1
  O  O91  1  0.15330700  0.17809000  0.71765400  1
  O  O92  1  0.75000000  0.75000000  0.25000000  1
  O  O93  1  0.14446100  0.85553900  0.62719800  1
  O  O94  1  0.79866900  0.20133100  0.50290500  1
  O  O95  1  0.17809000  0.15330700  0.95094900  1
  O  O96  1  0.35553900  0.87280200  0.64446100  1
  O  O97  1  0.49709500  0.50290500  0.20133100  1
  O  O98  1  0.20133100  0.79866900  0.49709500  1
  O  O99  1  0.25000000  0.25000000  0.75000000  1
  O  O100  1  0.00290500  0.70133100  0.29866900  1
  O  O101  1  0.62719800  0.37280200  0.14446100  1
  O  O102  1  0.54905100  0.34669300  0.32191000  1
  O  O103  1  0.28234600  0.04905100  0.84669300  1
  O  O104  1  0.25000000  0.75000000  0.75000000  1
  O  O105  1  0.70133100  0.00290500  0.99709500  1
  O  O106  1  0.78234600  0.54905100  0.32191000  1
  O  O107  1  0.82191000  0.28234600  0.84669300  1
  O  O108  1  0.21765400  0.45094900  0.67809000  1
  O  O109  1  0.67809000  0.65330700  0.21765400  1
  O  O110  1  0.64446100  0.87280200  0.12719800  1
  O  O111  1  0.28234600  0.82191000  0.04905100  1
  O  O112  1  0.28234600  0.84669300  0.82191000  1
  O  O113  1  0.14446100  0.62719800  0.37280200  1
  O  O114  1  0.65330700  0.21765400  0.67809000  1
  O  O115  1  0.64446100  0.35553900  0.87280200  1
  O  O116  1  0.34669300  0.78234600  0.32191000  1
  O  O117  1  0.14446100  0.37280200  0.85553900  1
  O  O118  1  0.35553900  0.64446100  0.12719800  1
  O  O119  1  0.64446100  0.12719800  0.35553900  1
  O  O120  1  0.20133100  0.50290500  0.79866900  1
  O  O121  1  0.25000000  0.75000000  0.25000000  1
  O  O122  1  0.62719800  0.14446100  0.85553900  1
  O  O123  1  0.37280200  0.62719800  0.85553900  1
  O  O124  1  0.75000000  0.25000000  0.25000000  1
  O  O125  1  0.34669300  0.32191000  0.54905100  1
  O  O126  1  0.50290500  0.79866900  0.20133100  1
  O  O127  1  0.79866900  0.49709500  0.20133100  1
  O  O128  1  0.71765400  0.17809000  0.95094900  1
  O  O129  1  0.67809000  0.45094900  0.65330700  1
  O  O130  1  0.21765400  0.65330700  0.45094900  1
  O  O131  1  0.87280200  0.64446100  0.35553900  1
  O  O132  1  0.67809000  0.21765400  0.45094900  1
  O  O133  1  0.84669300  0.04905100  0.82191000  1
  O  O134  1  0.34669300  0.54905100  0.78234600  1
  O  O135  1  0.20133100  0.49709500  0.50290500  1
  O  O136  1  0.00290500  0.29866900  0.99709500  1
  O  O137  1  0.85553900  0.14446100  0.37280200  1
  O  O138  1  0.78234600  0.34669300  0.54905100  1
  O  O139  1  0.75000000  0.25000000  0.75000000  1
  O  O140  1  0.12719800  0.64446100  0.87280200  1
  O  O141  1  0.99709500  0.00290500  0.29866900  1
  O  O142  1  0.45094900  0.65330700  0.67809000  1
  O  O143  1  0.04905100  0.84669300  0.28234600  1
  O  O144  1  0.70133100  0.29866900  0.00290500  1
  O  O145  1  0.87280200  0.12719800  0.64446100  1
  O  O146  1  0.71765400  0.15330700  0.17809000  1
  O  O147  1  0.21765400  0.67809000  0.65330700  1
  O  O148  1  0.84669300  0.28234600  0.04905100  1
  O  O149  1  0.85553900  0.62719800  0.14446100  1
