# generated using pymatgen
data_Na4TeH10(SeO8)2
_symmetry_space_group_name_H-M   'P 1'
_cell_length_a   6.77183505
_cell_length_b   10.93069934
_cell_length_c   12.58262800
_cell_angle_alpha   90.00000000
_cell_angle_beta   90.00000000
_cell_angle_gamma   114.95168006
_symmetry_Int_Tables_number   1
_chemical_formula_structural   Na4TeH10(SeO8)2
_chemical_formula_sum   'Na8 Te2 H20 Se4 O32'
_cell_volume   844.44620725
_cell_formula_units_Z   2
loop_
 _symmetry_equiv_pos_site_id
 _symmetry_equiv_pos_as_xyz
  1  'x, y, z'
loop_
 _atom_site_type_symbol
 _atom_site_label
 _atom_site_symmetry_multiplicity
 _atom_site_fract_x
 _atom_site_fract_y
 _atom_site_fract_z
 _atom_site_occupancy
  Na  Na0  1  0.10360600  0.20805000  0.71850000  1
  Na  Na1  1  0.89639400  0.79195000  0.28150000  1
  Na  Na2  1  0.58165500  0.16719700  0.97639100  1
  Na  Na3  1  0.58165500  0.66719700  0.52360900  1
  Na  Na4  1  0.89639400  0.29195000  0.21850000  1
  Na  Na5  1  0.10360600  0.70805000  0.78150000  1
  Na  Na6  1  0.41834500  0.33280300  0.47639100  1
  Na  Na7  1  0.41834500  0.83280300  0.02360900  1
  Te  Te8  1  0.00000000  0.50000000  0.00000000  1
  Te  Te9  1  0.00000000  0.00000000  0.50000000  1
  H  H10  1  0.97724200  0.98767200  0.12982100  1
  H  H11  1  0.97724200  0.48767200  0.37017900  1
  H  H12  1  0.02275800  0.51232800  0.62982100  1
  H  H13  1  0.04680200  0.83840100  0.61884400  1
  H  H14  1  0.02275800  0.01232800  0.87017900  1
  H  H15  1  0.21141800  0.70529500  0.44670000  1
  H  H16  1  0.21141800  0.20529500  0.05330000  1
  H  H17  1  0.28375000  0.24954600  0.93841800  1
  H  H18  1  0.95319800  0.66159900  0.11884400  1
  H  H19  1  0.04680200  0.33840100  0.88115600  1
  H  H20  1  0.93865400  0.95431500  0.75422400  1
  H  H21  1  0.28375000  0.74954600  0.56158200  1
  H  H22  1  0.95319800  0.16159900  0.38115600  1
  H  H23  1  0.78858200  0.29470500  0.55330000  1
  H  H24  1  0.78858200  0.79470500  0.94670000  1
  H  H25  1  0.71625000  0.25045400  0.43841800  1
  H  H26  1  0.06134600  0.04568500  0.24577600  1
  H  H27  1  0.71625000  0.75045400  0.06158200  1
  H  H28  1  0.93865400  0.45431500  0.74577600  1
  H  H29  1  0.06134600  0.54568500  0.25422400  1
  Se  Se30  1  0.49104400  0.00328800  0.72045100  1
  Se  Se31  1  0.50895600  0.99671200  0.27954900  1
  Se  Se32  1  0.49104400  0.50328800  0.77954900  1
  Se  Se33  1  0.50895600  0.49671200  0.22045100  1
  O  O34  1  0.32641700  0.35534300  0.83678900  1
  O  O35  1  0.10172100  0.39808400  0.08300800  1
  O  O36  1  0.67744700  0.89318700  0.44521000  1
  O  O37  1  0.67358300  0.64465700  0.16321100  1
  O  O38  1  0.23704200  0.16976400  0.98632100  1
  O  O39  1  0.89827900  0.60191600  0.91699200  1
  O  O40  1  0.40370000  0.48821500  0.65220600  1
  O  O41  1  0.23704200  0.66976400  0.51367900  1
  O  O42  1  0.34468100  0.11482500  0.66983900  1
  O  O43  1  0.65531900  0.88517500  0.33016100  1
  O  O44  1  0.59630000  0.51178500  0.34779400  1
  O  O45  1  0.91636000  0.00444800  0.81458500  1
  O  O46  1  0.59630000  0.01178500  0.15220600  1
  O  O47  1  0.08364000  0.99555200  0.18541500  1
  O  O48  1  0.76295800  0.83023600  0.01367900  1
  O  O49  1  0.34468100  0.61482500  0.83016100  1
  O  O50  1  0.67358300  0.14465700  0.33678900  1
  O  O51  1  0.76295800  0.33023600  0.48632100  1
  O  O52  1  0.91351400  0.35488300  0.88334800  1
  O  O53  1  0.10172100  0.89808400  0.41699200  1
  O  O54  1  0.32641700  0.85534300  0.66321100  1
  O  O55  1  0.32255300  0.10681300  0.55479000  1
  O  O56  1  0.08648600  0.64511700  0.11665200  1
  O  O57  1  0.08648600  0.14511700  0.38334800  1
  O  O58  1  0.40370000  0.98821500  0.84779400  1
  O  O59  1  0.08364000  0.49555200  0.31458500  1
  O  O60  1  0.91351400  0.85488300  0.61665200  1
  O  O61  1  0.67744700  0.39318700  0.05479000  1
  O  O62  1  0.65531900  0.38517500  0.16983900  1
  O  O63  1  0.91636000  0.50444800  0.68541500  1
  O  O64  1  0.89827900  0.10191600  0.58300800  1
  O  O65  1  0.32255300  0.60681300  0.94521000  1
