# generated using pymatgen
data_Si2Os3C12(ClO2)6
_symmetry_space_group_name_H-M   'P 1'
_cell_length_a   8.41677900
_cell_length_b   8.54191587
_cell_length_c   11.60459414
_cell_angle_alpha   80.53909881
_cell_angle_beta   69.85543736
_cell_angle_gamma   66.49354135
_symmetry_Int_Tables_number   1
_chemical_formula_structural   Si2Os3C12(ClO2)6
_chemical_formula_sum   'Si2 Os3 C12 Cl6 O12'
_cell_volume   717.92518404
_cell_formula_units_Z   1
loop_
 _symmetry_equiv_pos_site_id
 _symmetry_equiv_pos_as_xyz
  1  'x, y, z'
loop_
 _atom_site_type_symbol
 _atom_site_label
 _atom_site_symmetry_multiplicity
 _atom_site_fract_x
 _atom_site_fract_y
 _atom_site_fract_z
 _atom_site_occupancy
  Si  Si0  1  0.77508100  0.63689300  0.86277100  1
  Si  Si1  1  0.22491900  0.36310700  0.13722900  1
  Os  Os2  1  0.64237000  0.80301400  0.70359800  1
  Os  Os3  1  0.35763000  0.19698600  0.29640200  1
  Os  Os4  1  0.50000000  0.00000000  0.50000000  1
  C  C5  1  0.60269800  0.10141700  0.17809200  1
  C  C6  1  0.41907200  0.38302900  0.32516300  1
  C  C7  1  0.58092800  0.61697100  0.67483700  1
  C  C8  1  0.62445300  0.79460200  0.40294400  1
  C  C9  1  0.11827900  0.28579900  0.41781800  1
  C  C10  1  0.37554700  0.20539800  0.59705600  1
  C  C11  1  0.69904600  0.99646900  0.72328200  1
  C  C12  1  0.71615600  0.05942500  0.43416100  1
  C  C13  1  0.88172100  0.71420100  0.58218200  1
  C  C14  1  0.28384400  0.94057500  0.56583900  1
  C  C15  1  0.30095400  0.00353100  0.27671800  1
  C  C16  1  0.39730200  0.89858300  0.82190800  1
  Cl  Cl17  1  0.13402400  0.62523100  0.15353700  1
  Cl  Cl18  1  0.86597600  0.37476900  0.84646300  1
  Cl  Cl19  1  0.99902200  0.31922900  0.13857500  1
  Cl  Cl20  1  0.60117400  0.68225400  0.04179700  1
  Cl  Cl21  1  0.39882600  0.31774600  0.95820300  1
  Cl  Cl22  1  0.00097800  0.68077100  0.86142500  1
  O  O23  1  0.25395300  0.95277000  0.89208900  1
  O  O24  1  0.02538600  0.66281900  0.51103900  1
  O  O25  1  0.74604700  0.04723000  0.10791100  1
  O  O26  1  0.84489300  0.09481400  0.39722800  1
  O  O27  1  0.15510700  0.90518600  0.60277200  1
  O  O28  1  0.54628000  0.50703100  0.65675400  1
  O  O29  1  0.69778400  0.67178000  0.34663600  1
  O  O30  1  0.26297800  0.89141200  0.26704800  1
  O  O31  1  0.30221600  0.32822000  0.65336400  1
  O  O32  1  0.45372000  0.49296900  0.34324600  1
  O  O33  1  0.73702200  0.10858800  0.73295200  1
  O  O34  1  0.97461400  0.33718100  0.48896100  1
