# generated using pymatgen
data_V2PbO6
_symmetry_space_group_name_H-M   'P 1'
_cell_length_a   8.25758033
_cell_length_b   8.25758033
_cell_length_c   9.08191900
_cell_angle_alpha   90.00000000
_cell_angle_beta   90.00000000
_cell_angle_gamma   118.11731014
_symmetry_Int_Tables_number   1
_chemical_formula_structural   V2PbO6
_chemical_formula_sum   'V6 Pb3 O18'
_cell_volume   546.19057735
_cell_formula_units_Z   3
loop_
 _symmetry_equiv_pos_site_id
 _symmetry_equiv_pos_as_xyz
  1  'x, y, z'
loop_
 _atom_site_type_symbol
 _atom_site_label
 _atom_site_symmetry_multiplicity
 _atom_site_fract_x
 _atom_site_fract_y
 _atom_site_fract_z
 _atom_site_occupancy
  V  V0  1  0.26286800  0.33521900  0.25011400  1
  V  V1  1  0.73713200  0.66478100  0.25011400  1
  V  V2  1  0.33521900  0.26286800  0.74988600  1
  V  V3  1  0.66478100  0.73713200  0.74988600  1
  V  V4  1  0.00000000  0.50000000  0.22345200  1
  V  V5  1  0.50000000  0.00000000  0.77654800  1
  Pb  Pb6  1  0.86378100  0.13621900  0.50000000  1
  Pb  Pb7  1  0.13621900  0.86378100  0.50000000  1
  Pb  Pb8  1  0.00000000  0.00000000  0.00000000  1
  O  O9  1  0.16588400  0.66482700  0.32707700  1
  O  O10  1  0.83411600  0.33517300  0.32707700  1
  O  O11  1  0.66482700  0.16588400  0.67292300  1
  O  O12  1  0.33517300  0.83411600  0.67292300  1
  O  O13  1  0.18943700  0.34265300  0.41960700  1
  O  O14  1  0.81056300  0.65734700  0.41960700  1
  O  O15  1  0.34265300  0.18943700  0.58039300  1
  O  O16  1  0.65734700  0.81056300  0.58039300  1
  O  O17  1  0.89022900  0.61962400  0.12630300  1
  O  O18  1  0.50000000  0.50000000  0.78096400  1
  O  O19  1  0.50000000  0.50000000  0.21903600  1
  O  O20  1  0.21658000  0.11457700  0.21562900  1
  O  O21  1  0.78342000  0.88542300  0.21562900  1
  O  O22  1  0.11457700  0.21658000  0.78437100  1
  O  O23  1  0.88542300  0.78342000  0.78437100  1
  O  O24  1  0.38037600  0.10977100  0.87369700  1
  O  O25  1  0.61962400  0.89022900  0.87369700  1
  O  O26  1  0.10977100  0.38037600  0.12630300  1
