# generated using pymatgen
data_CsEr13(CoI12)2
_symmetry_space_group_name_H-M   'P 1'
_cell_length_a   18.39898325
_cell_length_b   18.39898325
_cell_length_c   18.39898325
_cell_angle_alpha   90.00000000
_cell_angle_beta   90.00000000
_cell_angle_gamma   90.00000000
_symmetry_Int_Tables_number   1
_chemical_formula_structural   CsEr13(CoI12)2
_chemical_formula_sum   'Cs4 Er52 Co8 I96'
_cell_volume   6228.47136442
_cell_formula_units_Z   4
loop_
 _symmetry_equiv_pos_site_id
 _symmetry_equiv_pos_as_xyz
  1  'x, y, z'
loop_
 _atom_site_type_symbol
 _atom_site_label
 _atom_site_symmetry_multiplicity
 _atom_site_fract_x
 _atom_site_fract_y
 _atom_site_fract_z
 _atom_site_occupancy
  Cs  Cs0  1  0.00000000  0.00000000  0.50000000  1
  Cs  Cs1  1  0.50000000  0.00000000  0.00000000  1
  Cs  Cs2  1  0.00000000  0.50000000  0.00000000  1
  Cs  Cs3  1  0.50000000  0.50000000  0.50000000  1
  Er  Er4  1  0.18914752  0.82980848  0.66867125  1
  Er  Er5  1  0.32980848  0.83132875  0.81085248  1
  Er  Er6  1  0.31085248  0.17019152  0.16867125  1
  Er  Er7  1  0.16867125  0.18914752  0.67019152  1
  Er  Er8  1  0.32942603  0.52847759  0.17236277  1
  Er  Er9  1  0.81085248  0.17019152  0.33132875  1
  Er  Er10  1  0.17019152  0.33132875  0.81085248  1
  Er  Er11  1  0.82763723  0.82942603  0.97152241  1
  Er  Er12  1  0.17057397  0.47152241  0.67236277  1
  Er  Er13  1  0.68914752  0.82980848  0.83132875  1
  Er  Er14  1  0.83132875  0.81085248  0.32980848  1
  Er  Er15  1  0.47152241  0.67236277  0.17057397  1
  Er  Er16  1  0.97152241  0.82763723  0.82942603  1
  Er  Er17  1  0.32763723  0.82942603  0.52847759  1
  Er  Er18  1  0.17236277  0.32942603  0.52847759  1
  Er  Er19  1  0.16867125  0.31085248  0.17019152  1
  Er  Er20  1  0.32763723  0.67057397  0.02847759  1
  Er  Er21  1  0.17019152  0.16867125  0.31085248  1
  Er  Er22  1  0.17057397  0.02847759  0.17236277  1
  Er  Er23  1  0.33132875  0.81085248  0.17019152  1
  Er  Er24  1  0.68914752  0.67019152  0.33132875  1
  Er  Er25  1  0.02847759  0.32763723  0.67057397  1
  Er  Er26  1  0.67236277  0.32942603  0.97152241  1
  Er  Er27  1  0.67057397  0.47152241  0.82763723  1
  Er  Er28  1  0.67236277  0.17057397  0.47152241  1
  Er  Er29  1  0.00000000  0.50000000  0.50000000  1
  Er  Er30  1  0.31085248  0.32980848  0.66867125  1
  Er  Er31  1  0.67019152  0.16867125  0.18914752  1
  Er  Er32  1  0.17236277  0.17057397  0.02847759  1
  Er  Er33  1  0.97152241  0.67236277  0.32942603  1
  Er  Er34  1  0.81085248  0.32980848  0.83132875  1
  Er  Er35  1  0.82763723  0.67057397  0.47152241  1
  Er  Er36  1  0.82942603  0.97152241  0.82763723  1
  Er  Er37  1  0.47152241  0.82763723  0.67057397  1
  Er  Er38  1  0.50000000  0.00000000  0.50000000  1
  Er  Er39  1  0.00000000  0.00000000  0.00000000  1
  Er  Er40  1  0.18914752  0.67019152  0.16867125  1
  Er  Er41  1  0.66867125  0.18914752  0.82980848  1
  Er  Er42  1  0.02847759  0.17236277  0.17057397  1
  Er  Er43  1  0.82942603  0.52847759  0.32763723  1
  Er  Er44  1  0.82980848  0.83132875  0.68914752  1
  Er  Er45  1  0.32942603  0.97152241  0.67236277  1
  Er  Er46  1  0.32980848  0.66867125  0.31085248  1
  Er  Er47  1  0.67057397  0.02847759  0.32763723  1
  Er  Er48  1  0.52847759  0.17236277  0.32942603  1
  Er  Er49  1  0.66867125  0.31085248  0.32980848  1
  Er  Er50  1  0.52847759  0.32763723  0.82942603  1
  Er  Er51  1  0.82980848  0.66867125  0.18914752  1
  Er  Er52  1  0.67019152  0.33132875  0.68914752  1
  Er  Er53  1  0.50000000  0.50000000  0.00000000  1
  Er  Er54  1  0.33132875  0.68914752  0.67019152  1
  Er  Er55  1  0.83132875  0.68914752  0.82980848  1
  Co  Co56  1  0.66964515  0.33035485  0.83035485  1
  Co  Co57  1  0.83035485  0.66964515  0.33035485  1
  Co  Co58  1  0.83035485  0.83035485  0.83035485  1
  Co  Co59  1  0.66964515  0.16964515  0.33035485  1
  Co  Co60  1  0.33035485  0.83035485  0.66964515  1
  Co  Co61  1  0.33035485  0.66964515  0.16964515  1
  Co  Co62  1  0.16964515  0.33035485  0.66964515  1
  Co  Co63  1  0.16964515  0.16964515  0.16964515  1
  I  I64  1  0.16656314  0.16612422  0.49679233  1
  I  I65  1  0.16612422  0.00320767  0.66656314  1
  I  I66  1  0.66805143  0.65931654  0.83142295  1
  I  I67  1  0.16404940  0.00485927  0.33496185  1
  I  I68  1  0.83387578  0.50320767  0.83343686  1
  I  I69  1  0.99514073  0.83496185  0.33595060  1
  I  I70  1  0.49810469  0.83648284  0.50055135  1
  I  I71  1  0.00055135  0.00189531  0.16351716  1
  I  I72  1  0.00189531  0.33648284  0.50055135  1
  I  I73  1  0.00485927  0.16503815  0.66404940  1
  I  I74  1  0.99944865  0.99810469  0.83648284  1
  I  I75  1  0.33343686  0.83387578  0.99679233  1
  I  I76  1  0.66351716  0.49944865  0.99810469  1
  I  I77  1  0.16805143  0.65931654  0.66857705  1
  I  I78  1  0.50320767  0.83343686  0.83387578  1
  I  I79  1  0.50320767  0.66656314  0.33387578  1
  I  I80  1  0.99810469  0.83648284  0.99944865  1
  I  I81  1  0.66656314  0.16612422  0.00320767  1
  I  I82  1  0.83142295  0.66805143  0.65931654  1
  I  I83  1  0.66404940  0.00485927  0.16503815  1
  I  I84  1  0.84068346  0.33142295  0.66805143  1
  I  I85  1  0.33595060  0.99514073  0.83496185  1
  I  I86  1  0.00485927  0.33496185  0.16404940  1
  I  I87  1  0.50485927  0.16503815  0.83595060  1
  I  I88  1  0.33194857  0.15931654  0.66857705  1
  I  I89  1  0.66656314  0.33387578  0.50320767  1
  I  I90  1  0.16857705  0.16805143  0.84068346  1
  I  I91  1  0.83648284  0.50055135  0.49810469  1
  I  I92  1  0.49944865  0.99810469  0.66351716  1
  I  I93  1  0.00055135  0.49810469  0.66351716  1
  I  I94  1  0.49944865  0.50189531  0.16351716  1
  I  I95  1  0.15931654  0.66857705  0.33194857  1
  I  I96  1  0.99810469  0.66351716  0.49944865  1
  I  I97  1  0.66857705  0.33194857  0.15931654  1
  I  I98  1  0.99944865  0.50189531  0.33648284  1
  I  I99  1  0.84068346  0.16857705  0.16805143  1
  I  I100  1  0.33387578  0.50320767  0.66656314  1
  I  I101  1  0.66612422  0.49679233  0.33343686  1
  I  I102  1  0.66612422  0.00320767  0.83343686  1
  I  I103  1  0.00320767  0.66656314  0.16612422  1
  I  I104  1  0.66857705  0.16805143  0.65931654  1
  I  I105  1  0.83496185  0.33595060  0.99514073  1
  I  I106  1  0.16404940  0.49514073  0.83496185  1
  I  I107  1  0.33387578  0.99679233  0.16656314  1
  I  I108  1  0.83496185  0.16404940  0.49514073  1
  I  I109  1  0.83194857  0.15931654  0.83142295  1
  I  I110  1  0.00189531  0.16351716  0.00055135  1
  I  I111  1  0.99514073  0.66503815  0.83595060  1
  I  I112  1  0.16503815  0.83595060  0.50485927  1
  I  I113  1  0.49679233  0.16656314  0.16612422  1
  I  I114  1  0.16656314  0.33387578  0.99679233  1
  I  I115  1  0.83595060  0.50485927  0.16503815  1
  I  I116  1  0.83343686  0.83387578  0.50320767  1
  I  I117  1  0.16351716  0.49944865  0.50189531  1
  I  I118  1  0.66805143  0.84068346  0.33142295  1
  I  I119  1  0.50189531  0.16351716  0.49944865  1
  I  I120  1  0.15931654  0.83142295  0.83194857  1
  I  I121  1  0.49514073  0.83496185  0.16404940  1
  I  I122  1  0.33496185  0.16404940  0.00485927  1
  I  I123  1  0.83595060  0.99514073  0.66503815  1
  I  I124  1  0.16503815  0.66404940  0.00485927  1
  I  I125  1  0.66351716  0.00055135  0.49810469  1
  I  I126  1  0.66404940  0.49514073  0.66503815  1
  I  I127  1  0.50485927  0.33496185  0.33595060  1
  I  I128  1  0.00320767  0.83343686  0.66612422  1
  I  I129  1  0.66503815  0.83595060  0.99514073  1
  I  I130  1  0.49810469  0.66351716  0.00055135  1
  I  I131  1  0.33343686  0.66612422  0.49679233  1
  I  I132  1  0.33496185  0.33595060  0.50485927  1
  I  I133  1  0.49514073  0.66503815  0.66404940  1
  I  I134  1  0.83387578  0.99679233  0.33343686  1
  I  I135  1  0.99679233  0.33343686  0.83387578  1
  I  I136  1  0.99679233  0.16656314  0.33387578  1
  I  I137  1  0.16612422  0.49679233  0.16656314  1
  I  I138  1  0.83194857  0.34068346  0.33142295  1
  I  I139  1  0.16805143  0.84068346  0.16857705  1
  I  I140  1  0.83648284  0.99944865  0.99810469  1
  I  I141  1  0.33194857  0.34068346  0.16857705  1
  I  I142  1  0.83142295  0.83194857  0.15931654  1
  I  I143  1  0.16351716  0.00055135  0.00189531  1
  I  I144  1  0.65931654  0.66857705  0.16805143  1
  I  I145  1  0.34068346  0.33142295  0.83194857  1
  I  I146  1  0.50055135  0.49810469  0.83648284  1
  I  I147  1  0.49679233  0.33343686  0.66612422  1
  I  I148  1  0.66503815  0.66404940  0.49514073  1
  I  I149  1  0.33648284  0.50055135  0.00189531  1
  I  I150  1  0.33648284  0.99944865  0.50189531  1
  I  I151  1  0.65931654  0.83142295  0.66805143  1
  I  I152  1  0.50055135  0.00189531  0.33648284  1
  I  I153  1  0.33142295  0.83194857  0.34068346  1
  I  I154  1  0.83343686  0.66612422  0.00320767  1
  I  I155  1  0.50189531  0.33648284  0.99944865  1
  I  I156  1  0.34068346  0.16857705  0.33194857  1
  I  I157  1  0.16857705  0.33194857  0.34068346  1
  I  I158  1  0.33142295  0.66805143  0.84068346  1
  I  I159  1  0.33595060  0.50485927  0.33496185  1
