# generated using pymatgen
data_P6N7Cl9
_symmetry_space_group_name_H-M   'P 1'
_cell_length_a   10.67786887
_cell_length_b   10.67786887
_cell_length_c   30.65109899
_cell_angle_alpha   81.08574614
_cell_angle_beta   81.08574614
_cell_angle_gamma   35.97000913
_symmetry_Int_Tables_number   1
_chemical_formula_structural   P6N7Cl9
_chemical_formula_sum   'P24 N28 Cl36'
_cell_volume   2025.25392983
_cell_formula_units_Z   4
loop_
 _symmetry_equiv_pos_site_id
 _symmetry_equiv_pos_as_xyz
  1  'x, y, z'
loop_
 _atom_site_type_symbol
 _atom_site_label
 _atom_site_symmetry_multiplicity
 _atom_site_fract_x
 _atom_site_fract_y
 _atom_site_fract_z
 _atom_site_occupancy
  P  P0  1  0.32871700  0.48321100  0.88816400  1
  P  P1  1  0.56318700  0.47825300  0.92344700  1
  P  P2  1  0.34695900  0.35619200  0.64166700  1
  P  P3  1  0.45953800  0.26082100  0.05159300  1
  P  P4  1  0.67128300  0.51678900  0.11183600  1
  P  P5  1  0.52960300  0.73918800  0.77157100  1
  P  P6  1  0.65304100  0.64380800  0.35833300  1
  P  P7  1  0.52086200  0.44608200  0.67405800  1
  P  P8  1  0.44608200  0.52086200  0.17405800  1
  P  P9  1  0.47913800  0.55391800  0.32594200  1
  P  P10  1  0.54046200  0.73917900  0.94840700  1
  P  P11  1  0.55391800  0.47913800  0.82594200  1
  P  P12  1  0.43681300  0.52174700  0.07655300  1
  P  P13  1  0.48321100  0.32871700  0.38816400  1
  P  P14  1  0.35619200  0.34695900  0.14166700  1
  P  P15  1  0.26081200  0.47039700  0.72842900  1
  P  P16  1  0.73917900  0.54046200  0.44840700  1
  P  P17  1  0.51678900  0.67128300  0.61183600  1
  P  P18  1  0.73918800  0.52960300  0.27157100  1
  P  P19  1  0.47039700  0.26081200  0.22842900  1
  P  P20  1  0.64380800  0.65304100  0.85833300  1
  P  P21  1  0.26082100  0.45953800  0.55159300  1
  P  P22  1  0.52174700  0.43681300  0.57655300  1
  P  P23  1  0.47825300  0.56318700  0.42344700  1
  N  N24  1  0.21718800  0.43113700  0.60158300  1
  N  N25  1  0.41019500  0.48304500  0.92711800  1
  N  N26  1  0.58980500  0.51695500  0.07288200  1
  N  N27  1  0.51695500  0.58980500  0.57288200  1
  N  N28  1  0.55132100  0.79209300  0.81317000  1
  N  N29  1  0.48304500  0.41019500  0.42711800  1
  N  N30  1  0.56886300  0.78281200  0.89841700  1
  N  N31  1  0.44867900  0.20790700  0.18683000  1
  N  N32  1  0.50170900  0.37483800  0.04345400  1
  N  N33  1  0.48536100  0.62244200  0.66077900  1
  N  N34  1  0.54249300  0.58146700  0.36930100  1
  N  N35  1  0.39919200  0.48432800  0.71838700  1
  N  N36  1  0.51567200  0.60080800  0.78161300  1
  N  N37  1  0.20790700  0.44867900  0.68683000  1
  N  N38  1  0.79209300  0.55132100  0.31317000  1
  N  N39  1  0.37755800  0.51463900  0.83922100  1
  N  N40  1  0.37483800  0.50170900  0.54345400  1
  N  N41  1  0.45750700  0.41853300  0.63069900  1
  N  N42  1  0.51463900  0.37755800  0.33922100  1
  N  N43  1  0.49829100  0.62516200  0.95654600  1
  N  N44  1  0.62244200  0.48536100  0.16077900  1
  N  N45  1  0.62516200  0.49829100  0.45654600  1
  N  N46  1  0.78281200  0.56886300  0.39841700  1
  N  N47  1  0.60080800  0.51567200  0.28161300  1
  N  N48  1  0.58146700  0.54249300  0.86930100  1
  N  N49  1  0.43113700  0.21718800  0.10158300  1
  N  N50  1  0.41853300  0.45750700  0.13069900  1
  N  N51  1  0.48432800  0.39919200  0.21838700  1
  Cl  Cl52  1  0.15853300  0.83841200  0.18144100  1
  Cl  Cl53  1  0.69679400  0.98456700  0.02116100  1
  Cl  Cl54  1  0.13639400  0.82723700  0.06360200  1
  Cl  Cl55  1  0.79252700  0.57972800  0.98214900  1
  Cl  Cl56  1  0.01149900  0.71088500  0.89712200  1
  Cl  Cl57  1  0.78190900  0.56764900  0.60532200  1
  Cl  Cl58  1  0.76710600  0.60150700  0.72571600  1
  Cl  Cl59  1  0.16158800  0.84146700  0.31855900  1
  Cl  Cl60  1  0.60150700  0.76710600  0.22571600  1
  Cl  Cl61  1  0.03070000  0.60766700  0.14768200  1
  Cl  Cl62  1  0.98456700  0.69679400  0.52116100  1
  Cl  Cl63  1  0.56764900  0.78190900  0.10532200  1
  Cl  Cl64  1  0.98556800  0.72565500  0.76085400  1
  Cl  Cl65  1  0.30320600  0.01543300  0.97883900  1
  Cl  Cl66  1  0.23289400  0.39849300  0.27428400  1
  Cl  Cl67  1  0.01443200  0.27434500  0.23914600  1
  Cl  Cl68  1  0.83841200  0.15853300  0.68144100  1
  Cl  Cl69  1  0.42027200  0.20747300  0.51785100  1
  Cl  Cl70  1  0.27434500  0.01443200  0.73914600  1
  Cl  Cl71  1  0.43235100  0.21809100  0.89467800  1
  Cl  Cl72  1  0.39849300  0.23289400  0.77428400  1
  Cl  Cl73  1  0.72565500  0.98556800  0.26085400  1
  Cl  Cl74  1  0.82723700  0.13639400  0.56360200  1
  Cl  Cl75  1  0.98850100  0.28911500  0.10287800  1
  Cl  Cl76  1  0.28911500  0.98850100  0.60287800  1
  Cl  Cl77  1  0.60766700  0.03070000  0.64768200  1
  Cl  Cl78  1  0.20747300  0.42027200  0.01785100  1
  Cl  Cl79  1  0.17276300  0.86360600  0.43639800  1
  Cl  Cl80  1  0.84146700  0.16158800  0.81855900  1
  Cl  Cl81  1  0.39233300  0.96930000  0.35231800  1
  Cl  Cl82  1  0.86360600  0.17276300  0.93639800  1
  Cl  Cl83  1  0.96930000  0.39233300  0.85231800  1
  Cl  Cl84  1  0.21809100  0.43235100  0.39467800  1
  Cl  Cl85  1  0.01543300  0.30320600  0.47883900  1
  Cl  Cl86  1  0.71088500  0.01149900  0.39712200  1
  Cl  Cl87  1  0.57972800  0.79252700  0.48214900  1
