# generated using pymatgen
data_Fe15(Ge2O9)4
_symmetry_space_group_name_H-M   'P 1'
_cell_length_a   7.96003500
_cell_length_b   9.13019974
_cell_length_c   10.61406062
_cell_angle_alpha   65.61020926
_cell_angle_beta   81.30159740
_cell_angle_gamma   79.54103376
_symmetry_Int_Tables_number   1
_chemical_formula_structural   Fe15(Ge2O9)4
_chemical_formula_sum   'Fe15 Ge8 O36'
_cell_volume   688.37101911
_cell_formula_units_Z   1
loop_
 _symmetry_equiv_pos_site_id
 _symmetry_equiv_pos_as_xyz
  1  'x, y, z'
loop_
 _atom_site_type_symbol
 _atom_site_label
 _atom_site_symmetry_multiplicity
 _atom_site_fract_x
 _atom_site_fract_y
 _atom_site_fract_z
 _atom_site_occupancy
  Fe  Fe0  1  0.81006200  0.61126400  0.51029500  1
  Fe  Fe1  1  0.68761800  0.56021600  0.00080200  1
  Fe  Fe2  1  0.18993800  0.38873600  0.48970500  1
  Fe  Fe3  1  0.96272000  0.23952400  0.19285300  1
  Fe  Fe4  1  0.81623400  0.94877300  0.51351200  1
  Fe  Fe5  1  0.66116300  0.22115900  0.99445400  1
  Fe  Fe6  1  0.18376600  0.05122700  0.48648800  1
  Fe  Fe7  1  0.73904000  0.90980800  0.25487900  1
  Fe  Fe8  1  0.03728000  0.76047600  0.80714700  1
  Fe  Fe9  1  0.83419900  0.27365100  0.51303400  1
  Fe  Fe10  1  0.31238200  0.43978400  0.99919800  1
  Fe  Fe11  1  0.00000000  0.00000000  0.00000000  1
  Fe  Fe12  1  0.16580100  0.72634900  0.48696600  1
  Fe  Fe13  1  0.26096000  0.09019200  0.74512100  1
  Fe  Fe14  1  0.33883700  0.77884100  0.00554600  1
  Ge  Ge15  1  0.52001200  0.59018500  0.30891600  1
  Ge  Ge16  1  0.68484200  0.97615300  0.82175400  1
  Ge  Ge17  1  0.47998800  0.40981500  0.69108400  1
  Ge  Ge18  1  0.99244000  0.59214400  0.19152100  1
  Ge  Ge19  1  0.00756000  0.40785600  0.80847900  1
  Ge  Ge20  1  0.31515800  0.02384700  0.17824600  1
  Ge  Ge21  1  0.52457200  0.24985400  0.30808300  1
  Ge  Ge22  1  0.47542800  0.75014600  0.69191700  1
  O  O23  1  0.95664500  0.14125900  0.39097700  1
  O  O24  1  0.10237100  0.20293600  0.86318100  1
  O  O25  1  0.02613500  0.50721800  0.61981800  1
  O  O26  1  0.61605100  0.37787400  0.36657400  1
  O  O27  1  0.53753800  0.02950600  0.13268300  1
  O  O28  1  0.69387800  0.41416600  0.61409500  1
  O  O29  1  0.69152000  0.74539600  0.62200600  1
  O  O30  1  0.54677900  0.34306400  0.12134000  1
  O  O31  1  0.11152000  0.53112500  0.86019400  1
  O  O32  1  0.13613100  0.88732200  0.87990200  1
  O  O33  1  0.45322100  0.65693600  0.87866000  1
  O  O34  1  0.30848000  0.25460400  0.37799400  1
  O  O35  1  0.86386900  0.11267800  0.12009800  1
  O  O36  1  0.47005800  0.32974500  0.87423900  1
  O  O37  1  0.36043800  0.30579100  0.63651400  1
  O  O38  1  0.22061600  0.91791100  0.10559400  1
  O  O39  1  0.35810400  0.94524700  0.62911000  1
  O  O40  1  0.64189600  0.05475300  0.37089000  1
  O  O41  1  0.52994200  0.67025500  0.12576100  1
  O  O42  1  0.91597200  0.81170700  0.40502200  1
  O  O43  1  0.97386500  0.49278200  0.38018200  1
  O  O44  1  0.04335500  0.85874100  0.60902300  1
  O  O45  1  0.88848000  0.46887500  0.13980600  1
  O  O46  1  0.46246200  0.97049400  0.86731700  1
  O  O47  1  0.27625900  0.93650900  0.36186400  1
  O  O48  1  0.72374100  0.06349100  0.63813600  1
  O  O49  1  0.30612200  0.58583400  0.38590500  1
  O  O50  1  0.77938400  0.08208900  0.89440600  1
  O  O51  1  0.19961200  0.22453600  0.12493400  1
  O  O52  1  0.89762900  0.79706400  0.13681900  1
  O  O53  1  0.79663500  0.41458900  0.89225500  1
  O  O54  1  0.20336500  0.58541100  0.10774500  1
  O  O55  1  0.08402800  0.18829300  0.59497800  1
  O  O56  1  0.38394900  0.62212600  0.63342600  1
  O  O57  1  0.63956200  0.69420900  0.36348600  1
  O  O58  1  0.80038800  0.77546400  0.87506600  1
