# generated using pymatgen
data_C28Cl5
_symmetry_space_group_name_H-M   'P 1'
_cell_length_a   11.60310778
_cell_length_b   11.60310778
_cell_length_c   13.94963800
_cell_angle_alpha   90.00000000
_cell_angle_beta   90.00000000
_cell_angle_gamma   108.83995014
_symmetry_Int_Tables_number   1
_chemical_formula_structural   C28Cl5
_chemical_formula_sum   'C112 Cl20'
_cell_volume   1777.45037871
_cell_formula_units_Z   4
loop_
 _symmetry_equiv_pos_site_id
 _symmetry_equiv_pos_as_xyz
  1  'x, y, z'
loop_
 _atom_site_type_symbol
 _atom_site_label
 _atom_site_symmetry_multiplicity
 _atom_site_fract_x
 _atom_site_fract_y
 _atom_site_fract_z
 _atom_site_occupancy
  C  C0  1  0.19018800  0.06297300  0.56791200  1
  C  C1  1  0.06297300  0.19018800  0.93208800  1
  C  C2  1  0.45801900  0.73394700  0.30160900  1
  C  C3  1  0.60593400  0.73183800  0.46369400  1
  C  C4  1  0.26605300  0.54198100  0.69839100  1
  C  C5  1  0.67730600  0.03946200  0.14361400  1
  C  C6  1  0.73183800  0.60593400  0.46369400  1
  C  C7  1  0.53072900  0.37977000  0.83389000  1
  C  C8  1  0.42701200  0.04673700  0.70050700  1
  C  C9  1  0.15792100  0.48072300  0.85088900  1
  C  C10  1  0.80981200  0.93702700  0.06791200  1
  C  C11  1  0.45801900  0.73394700  0.19839100  1
  C  C12  1  0.04673700  0.42701200  0.70050700  1
  C  C13  1  0.95861100  0.95861100  0.19850000  1
  C  C14  1  0.94616300  0.20680400  0.70074100  1
  C  C15  1  0.73183800  0.60593400  0.03630600  1
  C  C16  1  0.12975300  0.00078500  0.65015300  1
  C  C17  1  0.00078500  0.12975300  0.65015300  1
  C  C18  1  0.32269400  0.96053800  0.64361400  1
  C  C19  1  0.54198100  0.26605300  0.69839100  1
  C  C20  1  0.16766500  0.16766500  0.96623000  1
  C  C21  1  0.83957100  0.59036300  0.06542300  1
  C  C22  1  0.96032700  0.68996600  0.05256300  1
  C  C23  1  0.87024700  0.99921500  0.15015300  1
  C  C24  1  0.67730600  0.03946200  0.35638600  1
  C  C25  1  0.39406600  0.26816200  0.96369400  1
  C  C26  1  0.62135000  0.54456000  0.08682400  1
  C  C27  1  0.59036300  0.83957100  0.43457700  1
  C  C28  1  0.20680400  0.94616300  0.79925900  1
  C  C29  1  0.03946200  0.67730600  0.14361400  1
  C  C30  1  0.26816200  0.39406600  0.96369400  1
  C  C31  1  0.16766500  0.16766500  0.53377000  1
  C  C32  1  0.54198100  0.26605300  0.80160900  1
  C  C33  1  0.32269400  0.96053800  0.85638600  1
  C  C34  1  0.00078500  0.12975300  0.84984700  1
  C  C35  1  0.51927700  0.84207900  0.14911100  1
  C  C36  1  0.80981200  0.93702700  0.43208800  1
  C  C37  1  0.45184700  0.52591100  0.75000000  1
  C  C38  1  0.12975300  0.00078500  0.84984700  1
  C  C39  1  0.94616300  0.20680400  0.79925900  1
  C  C40  1  0.60593400  0.73183800  0.03630600  1
  C  C41  1  0.15792100  0.48072300  0.64911100  1
  C  C42  1  0.42701200  0.04673700  0.79949300  1
  C  C43  1  0.79319600  0.05383700  0.20074100  1
  C  C44  1  0.84207900  0.51927700  0.35088900  1
  C  C45  1  0.79319600  0.05383700  0.29925900  1
  C  C46  1  0.26605300  0.54198100  0.80160900  1
  C  C47  1  0.68996600  0.96032700  0.44743700  1
  C  C48  1  0.99921500  0.87024700  0.34984700  1
  C  C49  1  0.06297300  0.19018800  0.56791200  1
  C  C50  1  0.51927700  0.84207900  0.35088900  1
  C  C51  1  0.40963700  0.16042900  0.93457700  1
  C  C52  1  0.96053800  0.32269400  0.64361400  1
  C  C53  1  0.83233500  0.83233500  0.03377000  1
  C  C54  1  0.37865000  0.45544000  0.91317600  1
  C  C55  1  0.93702700  0.80981200  0.06791200  1
  C  C56  1  0.57298800  0.95326300  0.20050700  1
  C  C57  1  0.27394100  0.27394100  0.49381600  1
  C  C58  1  0.40963700  0.16042900  0.56542300  1
  C  C59  1  0.59036300  0.83957100  0.06542300  1
  C  C60  1  0.04138900  0.04138900  0.69850000  1
  C  C61  1  0.95326300  0.57298800  0.29949300  1
  C  C62  1  0.57298800  0.95326300  0.29949300  1
  C  C63  1  0.54456000  0.62135000  0.41317600  1
  C  C64  1  0.54815300  0.47408900  0.25000000  1
  C  C65  1  0.87024700  0.99921500  0.34984700  1
  C  C66  1  0.83957100  0.59036300  0.43457700  1
  C  C67  1  0.53072900  0.37977000  0.66611000  1
  C  C68  1  0.62023000  0.46927100  0.33389000  1
  C  C69  1  0.68996600  0.96032700  0.05256300  1
  C  C70  1  0.62023000  0.46927100  0.16611000  1
  C  C71  1  0.95326300  0.57298800  0.20050700  1
  C  C72  1  0.96032700  0.68996600  0.44743700  1
  C  C73  1  0.47408900  0.54815300  0.25000000  1
  C  C74  1  0.05383700  0.79319600  0.20074100  1
  C  C75  1  0.46927100  0.62023000  0.33389000  1
  C  C76  1  0.48072300  0.15792100  0.85088900  1
  C  C77  1  0.62135000  0.54456000  0.41317600  1
  C  C78  1  0.45544000  0.37865000  0.58682400  1
  C  C79  1  0.05383700  0.79319600  0.29925900  1
  C  C80  1  0.03967300  0.31003400  0.55256300  1
  C  C81  1  0.83233500  0.83233500  0.46623000  1
  C  C82  1  0.54456000  0.62135000  0.08682400  1
  C  C83  1  0.20680400  0.94616300  0.70074100  1
  C  C84  1  0.46927100  0.62023000  0.16611000  1
  C  C85  1  0.72605900  0.72605900  0.99381600  1
  C  C86  1  0.31003400  0.03967300  0.94743700  1
  C  C87  1  0.31003400  0.03967300  0.55256300  1
  C  C88  1  0.72605900  0.72605900  0.50618400  1
  C  C89  1  0.84207900  0.51927700  0.14911100  1
  C  C90  1  0.95861100  0.95861100  0.30150000  1
  C  C91  1  0.16042900  0.40963700  0.93457700  1
  C  C92  1  0.39406600  0.26816200  0.53630600  1
  C  C93  1  0.03967300  0.31003400  0.94743700  1
  C  C94  1  0.45544000  0.37865000  0.91317600  1
  C  C95  1  0.48072300  0.15792100  0.64911100  1
  C  C96  1  0.73394700  0.45801900  0.30160900  1
  C  C97  1  0.19018800  0.06297300  0.93208800  1
  C  C98  1  0.99921500  0.87024700  0.15015300  1
  C  C99  1  0.37977000  0.53072900  0.83389000  1
  C  C100  1  0.37977000  0.53072900  0.66611000  1
  C  C101  1  0.16042900  0.40963700  0.56542300  1
  C  C102  1  0.27394100  0.27394100  0.00618400  1
  C  C103  1  0.52591100  0.45184700  0.75000000  1
  C  C104  1  0.04138900  0.04138900  0.80150000  1
  C  C105  1  0.26816200  0.39406600  0.53630600  1
  C  C106  1  0.04673700  0.42701200  0.79949300  1
  C  C107  1  0.37865000  0.45544000  0.58682400  1
  C  C108  1  0.96053800  0.32269400  0.85638600  1
  C  C109  1  0.73394700  0.45801900  0.19839100  1
  C  C110  1  0.93702700  0.80981200  0.43208800  1
  C  C111  1  0.03946200  0.67730600  0.35638600  1
  Cl  Cl112  1  0.31505200  0.97179100  0.43793000  1
  Cl  Cl113  1  0.81995100  0.34793100  0.88300000  1
  Cl  Cl114  1  0.02820900  0.68494800  0.93793000  1
  Cl  Cl115  1  0.18004900  0.65206900  0.11700000  1
  Cl  Cl116  1  0.34793100  0.81995100  0.88300000  1
  Cl  Cl117  1  0.31505200  0.97179100  0.06207000  1
  Cl  Cl118  1  0.65206900  0.18004900  0.11700000  1
  Cl  Cl119  1  0.27450300  0.27450300  0.36340500  1
  Cl  Cl120  1  0.02820900  0.68494800  0.56207000  1
  Cl  Cl121  1  0.81995100  0.34793100  0.61700000  1
  Cl  Cl122  1  0.34793100  0.81995100  0.61700000  1
  Cl  Cl123  1  0.72549700  0.72549700  0.86340500  1
  Cl  Cl124  1  0.97179100  0.31505200  0.43793000  1
  Cl  Cl125  1  0.68494800  0.02820900  0.93793000  1
  Cl  Cl126  1  0.18004900  0.65206900  0.38300000  1
  Cl  Cl127  1  0.65206900  0.18004900  0.38300000  1
  Cl  Cl128  1  0.68494800  0.02820900  0.56207000  1
  Cl  Cl129  1  0.72549700  0.72549700  0.63659500  1
  Cl  Cl130  1  0.97179100  0.31505200  0.06207000  1
  Cl  Cl131  1  0.27450300  0.27450300  0.13659500  1
