data_image0
_chemical_formula_structural       Nd4Si4
_chemical_formula_sum              "Nd4 Si4"
_cell_length_a       8.25401
_cell_length_b       3.94075
_cell_length_c       5.91897
_cell_angle_alpha    90
_cell_angle_beta     90
_cell_angle_gamma    90

_space_group_name_H-M_alt    "P 1"
_space_group_IT_number       1

loop_
  _space_group_symop_operation_xyz
  'x, y, z'

loop_
  _atom_site_type_symbol
  _atom_site_label
  _atom_site_symmetry_multiplicity
  _atom_site_fract_x
  _atom_site_fract_y
  _atom_site_fract_z
  _atom_site_occupancy
  Nd  Nd1       1.0  0.17900  0.25000  0.11400  1.0000
  Nd  Nd2       1.0  0.67900  0.25000  0.38600  1.0000
  Nd  Nd3       1.0  0.32100  0.75000  0.61400  1.0000
  Nd  Nd4       1.0  0.82100  0.75000  0.88600  1.0000
  Si  Si1       1.0  0.46400  0.75000  0.12200  1.0000
  Si  Si2       1.0  0.96400  0.75000  0.37800  1.0000
  Si  Si3       1.0  0.03580  0.25000  0.62200  1.0000
  Si  Si4       1.0  0.53600  0.25000  0.87800  1.0000
