# generated using pymatgen
data_Cr3B7ClO13
_symmetry_space_group_name_H-M   'P 1'
_cell_length_a   12.29874900
_cell_length_b   12.29874900
_cell_length_c   12.31993400
_cell_angle_alpha   90.00000000
_cell_angle_beta   90.00000000
_cell_angle_gamma   90.00000000
_symmetry_Int_Tables_number   1
_chemical_formula_structural   Cr3B7ClO13
_chemical_formula_sum   'Cr24 B56 Cl8 O104'
_cell_volume   1863.50369310
_cell_formula_units_Z   8
loop_
 _symmetry_equiv_pos_site_id
 _symmetry_equiv_pos_as_xyz
  1  'x, y, z'
loop_
 _atom_site_type_symbol
 _atom_site_label
 _atom_site_symmetry_multiplicity
 _atom_site_fract_x
 _atom_site_fract_y
 _atom_site_fract_z
 _atom_site_occupancy
  Cr  Cr0  1  0.75656000  0.99770800  0.25558600  1
  Cr  Cr1  1  0.50000000  0.00000000  0.97448300  1
  Cr  Cr2  1  0.24382700  0.00440500  0.75654600  1
  Cr  Cr3  1  0.99770800  0.24344000  0.74441400  1
  Cr  Cr4  1  0.25656000  0.50229200  0.24441400  1
  Cr  Cr5  1  0.50229200  0.74344000  0.75558600  1
  Cr  Cr6  1  0.49770800  0.25656000  0.75558600  1
  Cr  Cr7  1  0.00000000  0.50000000  0.52551700  1
  Cr  Cr8  1  0.75617300  0.99559500  0.75654600  1
  Cr  Cr9  1  0.00000000  0.00000000  0.50000000  1
  Cr  Cr10  1  0.74382700  0.49559500  0.74345400  1
  Cr  Cr11  1  0.00229200  0.75656000  0.74441400  1
  Cr  Cr12  1  0.00440500  0.75617300  0.24345400  1
  Cr  Cr13  1  0.49559500  0.25617300  0.25654600  1
  Cr  Cr14  1  0.74344000  0.49770800  0.24441400  1
  Cr  Cr15  1  0.25617300  0.50440500  0.74345400  1
  Cr  Cr16  1  0.99559500  0.24382700  0.24345400  1
  Cr  Cr17  1  0.00000000  0.00000000  0.00000000  1
  Cr  Cr18  1  0.50000000  0.50000000  0.50000000  1
  Cr  Cr19  1  0.24344000  0.00229200  0.25558600  1
  Cr  Cr20  1  0.00000000  0.50000000  0.02551700  1
  Cr  Cr21  1  0.50000000  0.00000000  0.47448300  1
  Cr  Cr22  1  0.50440500  0.74382700  0.25654600  1
  Cr  Cr23  1  0.50000000  0.50000000  0.00000000  1
  B  B24  1  0.74796400  0.24830100  0.24870600  1
  B  B25  1  0.65152800  0.15072100  0.59777400  1
  B  B26  1  0.17156100  0.82468200  0.92104000  1
  B  B27  1  0.75203600  0.74830100  0.25129400  1
  B  B28  1  0.17395600  0.67260200  0.07316400  1
  B  B29  1  0.17467800  0.17168800  0.57898500  1
  B  B30  1  0.74830100  0.24796400  0.74870600  1
  B  B31  1  0.99950200  0.74800600  0.99939800  1
  B  B32  1  0.17531800  0.17156100  0.07896000  1
  B  B33  1  0.82604400  0.32739800  0.07316400  1
  B  B34  1  0.25203600  0.75169900  0.24870600  1
  B  B35  1  0.15152800  0.34927900  0.90222600  1
  B  B36  1  0.34847200  0.84927900  0.59777400  1
  B  B37  1  0.67531800  0.32843900  0.42104000  1
  B  B38  1  0.24796400  0.25169900  0.25129400  1
  B  B39  1  0.49928100  0.74824800  0.00396000  1
  B  B40  1  0.25175200  0.49928100  0.99604000  1
  B  B41  1  0.24830100  0.25203600  0.75129400  1
  B  B42  1  0.32468200  0.67156100  0.42104000  1
  B  B43  1  0.32831200  0.32532200  0.07898500  1
  B  B44  1  0.82739800  0.32604400  0.57316400  1
  B  B45  1  0.84927900  0.65152800  0.40222600  1
  B  B46  1  0.74800600  0.00049800  0.00060200  1
  B  B47  1  0.00071900  0.24824800  0.49604000  1
  B  B48  1  0.15072100  0.34847200  0.40222600  1
  B  B49  1  0.67156100  0.67531800  0.57896000  1
  B  B50  1  0.32604400  0.17260200  0.42683600  1
  B  B51  1  0.25199400  0.99950200  0.00060200  1
  B  B52  1  0.84847200  0.65072100  0.90222600  1
  B  B53  1  0.00049800  0.25199400  0.99939800  1
  B  B54  1  0.74824800  0.50071900  0.99604000  1
  B  B55  1  0.25169900  0.75203600  0.74870600  1
  B  B56  1  0.75199400  0.50049800  0.49939800  1
  B  B57  1  0.82831200  0.17467800  0.42101500  1
  B  B58  1  0.75169900  0.74796400  0.75129400  1
  B  B59  1  0.67467800  0.32831200  0.92101500  1
  B  B60  1  0.67168800  0.67467800  0.07898500  1
  B  B61  1  0.50049800  0.24800600  0.50060200  1
  B  B62  1  0.82843900  0.17531800  0.92104000  1
  B  B63  1  0.17260200  0.67395600  0.57316400  1
  B  B64  1  0.99928100  0.75175200  0.49604000  1
  B  B65  1  0.67395600  0.82739800  0.42683600  1
  B  B66  1  0.24800600  0.49950200  0.49939800  1
  B  B67  1  0.49950200  0.75199400  0.50060200  1
  B  B68  1  0.67260200  0.82604400  0.92683600  1
  B  B69  1  0.32739800  0.17395600  0.92683600  1
  B  B70  1  0.50071900  0.25175200  0.00396000  1
  B  B71  1  0.65072100  0.15152800  0.09777400  1
  B  B72  1  0.82468200  0.82843900  0.07896000  1
  B  B73  1  0.24824800  0.99928100  0.50396000  1
  B  B74  1  0.17168800  0.82532200  0.42101500  1
  B  B75  1  0.32532200  0.67168800  0.92101500  1
  B  B76  1  0.82532200  0.82831200  0.57898500  1
  B  B77  1  0.75175200  0.00071900  0.50396000  1
  B  B78  1  0.32843900  0.32468200  0.57896000  1
  B  B79  1  0.34927900  0.84847200  0.09777400  1
  Cl  Cl80  1  0.00000000  0.50000000  0.74375800  1
  Cl  Cl81  1  0.00000000  0.50000000  0.24375800  1
  Cl  Cl82  1  0.50000000  0.00000000  0.75624200  1
  Cl  Cl83  1  0.00000000  0.00000000  0.75210500  1
  Cl  Cl84  1  0.50000000  0.50000000  0.25210500  1
  Cl  Cl85  1  0.50000000  0.50000000  0.74789500  1
  Cl  Cl86  1  0.50000000  0.00000000  0.25624200  1
  Cl  Cl87  1  0.00000000  0.00000000  0.24789500  1
  O  O88  1  0.77334500  0.93319400  0.60007200  1
  O  O89  1  0.84695000  0.43234400  0.52337500  1
  O  O90  1  0.92677800  0.76896900  0.09164700  1
  O  O91  1  0.22665500  0.06680600  0.60007200  1
  O  O92  1  0.65097800  0.06709800  0.52316600  1
  O  O93  1  0.84555300  0.22656700  0.81479000  1
  O  O94  1  0.27334500  0.56680600  0.89992800  1
  O  O95  1  0.42677800  0.73103100  0.40835300  1
  O  O96  1  0.15097800  0.43290200  0.97683400  1
  O  O97  1  0.74138100  0.75852600  0.01018100  1
  O  O98  1  0.93290200  0.65097800  0.47683400  1
  O  O99  1  0.26962100  0.34544300  0.17982000  1
  O  O100  1  0.43101600  0.34318700  0.52173200  1
  O  O101  1  0.73103100  0.57322200  0.59164700  1
  O  O102  1  0.75861900  0.25852600  0.48981900  1
  O  O103  1  0.73200700  0.92965000  0.40921200  1
  O  O104  1  0.15305000  0.56765600  0.52337500  1
  O  O105  1  0.34555300  0.27343300  0.68521000  1
  O  O106  1  0.84544300  0.76962100  0.67982000  1
  O  O107  1  0.07366000  0.15578900  0.51787500  1
  O  O108  1  0.23037900  0.84544300  0.32018000  1
  O  O109  1  0.66016000  0.76667900  0.32528500  1
  O  O110  1  0.83984000  0.26667900  0.17471500  1
  O  O111  1  0.26799300  0.07035000  0.40921200  1
  O  O112  1  0.65444700  0.72656700  0.68521000  1
  O  O113  1  0.74147400  0.75861900  0.51018100  1
  O  O114  1  0.84318700  0.93101600  0.02173200  1
  O  O115  1  0.77343300  0.84555300  0.18521000  1
  O  O116  1  0.76799300  0.42965000  0.09078800  1
  O  O117  1  0.64750100  0.22479800  0.18356400  1
  O  O118  1  0.34544300  0.73037900  0.82018000  1
  O  O119  1  0.65578900  0.57366000  0.01787500  1
  O  O120  1  0.65681300  0.43101600  0.47826800  1
  O  O121  1  0.23103100  0.92677800  0.90835300  1
  O  O122  1  0.43234400  0.15305000  0.47662500  1
  O  O123  1  0.24147400  0.74138100  0.98981900  1
  O  O124  1  0.22479800  0.35249900  0.81643600  1
  O  O125  1  0.75852600  0.25861900  0.98981900  1
  O  O126  1  0.65455700  0.26962100  0.82018000  1
  O  O127  1  0.56632800  0.22514600  0.60096100  1
  O  O128  1  0.15578900  0.92634000  0.48212500  1
  O  O129  1  0.76896900  0.07322200  0.90835300  1
  O  O130  1  0.34695000  0.06765600  0.97662500  1
  O  O131  1  0.25861900  0.24147400  0.01018100  1
  O  O132  1  0.92634000  0.84421100  0.51787500  1
  O  O133  1  0.84902200  0.56709800  0.97683400  1
  O  O134  1  0.93319400  0.22665500  0.39992800  1
  O  O135  1  0.16016000  0.73332100  0.17471500  1
  O  O136  1  0.06709800  0.34902200  0.47683400  1
  O  O137  1  0.43319400  0.27334500  0.10007200  1
  O  O138  1  0.34318700  0.56898400  0.47826800  1
  O  O139  1  0.23332100  0.66016000  0.67471500  1
  O  O140  1  0.93234400  0.34695000  0.02337500  1
  O  O141  1  0.73332100  0.83984000  0.82528500  1
  O  O142  1  0.57366000  0.34421100  0.98212500  1
  O  O143  1  0.56898400  0.65681300  0.52173200  1
  O  O144  1  0.06765600  0.65305000  0.02337500  1
  O  O145  1  0.35249900  0.77520200  0.18356400  1
  O  O146  1  0.72514600  0.06632800  0.10096100  1
  O  O147  1  0.14750100  0.27520200  0.31643600  1
  O  O148  1  0.76667900  0.33984000  0.67471500  1
  O  O149  1  0.73037900  0.65455700  0.17982000  1
  O  O150  1  0.27485400  0.93367200  0.10096100  1
  O  O151  1  0.92965000  0.26799300  0.59078800  1
  O  O152  1  0.24138100  0.74147400  0.48981900  1
  O  O153  1  0.15444700  0.77343300  0.81479000  1
  O  O154  1  0.56680600  0.72665500  0.10007200  1
  O  O155  1  0.22656700  0.15444700  0.18521000  1
  O  O156  1  0.34421100  0.42634000  0.01787500  1
  O  O157  1  0.85249900  0.72479800  0.31643600  1
  O  O158  1  0.27343300  0.65444700  0.31479000  1
  O  O159  1  0.65305000  0.93234400  0.97662500  1
  O  O160  1  0.23200700  0.57035000  0.09078800  1
  O  O161  1  0.27520200  0.85249900  0.68356400  1
  O  O162  1  0.72479800  0.14750100  0.68356400  1
  O  O163  1  0.07035000  0.73200700  0.59078800  1
  O  O164  1  0.57322200  0.26896900  0.40835300  1
  O  O165  1  0.43367200  0.77485400  0.60096100  1
  O  O166  1  0.15681300  0.06898400  0.02173200  1
  O  O167  1  0.26667900  0.16016000  0.82528500  1
  O  O168  1  0.93367200  0.72514600  0.89903900  1
  O  O169  1  0.43290200  0.84902200  0.02316600  1
  O  O170  1  0.33984000  0.23332100  0.32528500  1
  O  O171  1  0.15455700  0.23037900  0.67982000  1
  O  O172  1  0.56709800  0.15097800  0.02316600  1
  O  O173  1  0.06632800  0.27485400  0.89903900  1
  O  O174  1  0.77520200  0.64750100  0.81643600  1
  O  O175  1  0.06680600  0.77334500  0.39992800  1
  O  O176  1  0.57035000  0.76799300  0.90921200  1
  O  O177  1  0.22514600  0.43367200  0.39903900  1
  O  O178  1  0.56765600  0.84695000  0.47662500  1
  O  O179  1  0.25852600  0.24138100  0.51018100  1
  O  O180  1  0.72656700  0.34555300  0.31479000  1
  O  O181  1  0.93101600  0.15681300  0.97826800  1
  O  O182  1  0.42634000  0.65578900  0.98212500  1
  O  O183  1  0.26896900  0.42677800  0.59164700  1
  O  O184  1  0.72665500  0.43319400  0.89992800  1
  O  O185  1  0.34902200  0.93290200  0.52316600  1
  O  O186  1  0.76962100  0.15455700  0.32018000  1
  O  O187  1  0.84421100  0.07366000  0.48212500  1
  O  O188  1  0.77485400  0.56632800  0.39903900  1
  O  O189  1  0.06898400  0.84318700  0.97826800  1
  O  O190  1  0.07322200  0.23103100  0.09164700  1
  O  O191  1  0.42965000  0.23200700  0.90921200  1
