# generated using pymatgen
data_FeSiO3
_symmetry_space_group_name_H-M   'P 1'
_cell_length_a   6.75377800
_cell_length_b   7.55564072
_cell_length_c   20.89641864
_cell_angle_alpha   84.26484862
_cell_angle_beta   81.20590443
_cell_angle_gamma   84.60398827
_symmetry_Int_Tables_number   1
_chemical_formula_structural   FeSiO3
_chemical_formula_sum   'Fe18 Si18 O54'
_cell_volume   1045.14649622
_cell_formula_units_Z   18
loop_
 _symmetry_equiv_pos_site_id
 _symmetry_equiv_pos_as_xyz
  1  'x, y, z'
loop_
 _atom_site_type_symbol
 _atom_site_label
 _atom_site_symmetry_multiplicity
 _atom_site_fract_x
 _atom_site_fract_y
 _atom_site_fract_z
 _atom_site_occupancy
  Fe  Fe0  1  0.14829100  0.32478600  0.64969200  1
  Fe  Fe1  1  0.78471800  0.69497500  0.51150000  1
  Fe  Fe2  1  0.21528200  0.30502500  0.48850000  1
  Fe  Fe3  1  0.38274800  0.20765000  0.33947300  1
  Fe  Fe4  1  0.21758800  0.60781000  0.88227500  1
  Fe  Fe5  1  0.61725200  0.79235000  0.66052700  1
  Fe  Fe6  1  0.88689700  0.35519000  0.96680100  1
  Fe  Fe7  1  0.02893200  0.34902400  0.80511400  1
  Fe  Fe8  1  0.95149700  0.03726100  0.58080600  1
  Fe  Fe9  1  0.30198400  0.91005500  0.10951900  1
  Fe  Fe10  1  0.80950400  0.05751400  0.73973000  1
  Fe  Fe11  1  0.85170900  0.67521400  0.35030800  1
  Fe  Fe12  1  0.69801600  0.08994500  0.89048100  1
  Fe  Fe13  1  0.97106800  0.65097600  0.19488600  1
  Fe  Fe14  1  0.19049600  0.94248600  0.26027000  1
  Fe  Fe15  1  0.11310300  0.64481000  0.03319900  1
  Fe  Fe16  1  0.04850300  0.96273900  0.41919400  1
  Fe  Fe17  1  0.78241200  0.39219000  0.11772500  1
  Si  Si18  1  0.54461300  0.43419000  0.79528800  1
  Si  Si19  1  0.82291100  0.99359300  0.08941800  1
  Si  Si20  1  0.33388600  0.59638600  0.35301100  1
  Si  Si21  1  0.25808300  0.29549300  0.13444800  1
  Si  Si22  1  0.23020400  0.68944500  0.55072800  1
  Si  Si23  1  0.10367700  0.71837200  0.69279900  1
  Si  Si24  1  0.89632300  0.28162800  0.30720100  1
  Si  Si25  1  0.76979600  0.31055500  0.44927200  1
  Si  Si26  1  0.74191700  0.70450700  0.86555200  1
  Si  Si27  1  0.37265000  0.27048600  0.98393500  1
  Si  Si28  1  0.17708900  0.00640700  0.91058200  1
  Si  Si29  1  0.49129800  0.15069700  0.56929200  1
  Si  Si30  1  0.66611400  0.40361400  0.64698900  1
  Si  Si31  1  0.70419800  0.01739400  0.23851700  1
  Si  Si32  1  0.50870200  0.84930300  0.43070800  1
  Si  Si33  1  0.45538700  0.56581000  0.20471200  1
  Si  Si34  1  0.29580200  0.98260600  0.76148300  1
  Si  Si35  1  0.62735000  0.72951400  0.01606500  1
  O  O36  1  0.95044300  0.48480100  0.28468300  1
  O  O37  1  0.25226200  0.12122300  0.57434300  1
  O  O38  1  0.95231600  0.17963800  0.47736200  1
  O  O39  1  0.74773800  0.87877700  0.42565700  1
  O  O40  1  0.68009100  0.91644800  0.04272800  1
  O  O41  1  0.56859300  0.48881000  0.71582700  1
  O  O42  1  0.21323200  0.78910600  0.74988400  1
  O  O43  1  0.31508300  0.97891800  0.83918300  1
  O  O44  1  0.39808500  0.70613100  0.05109200  1
  O  O45  1  0.07767900  0.45170200  0.12532300  1
  O  O46  1  0.34926200  0.02027700  0.42225000  1
  O  O47  1  0.28340400  0.41368300  0.39694600  1
  O  O48  1  0.08422400  0.14111900  0.32599400  1
  O  O49  1  0.85399300  0.24975400  0.64880300  1
  O  O50  1  0.51618600  0.70065000  0.37530200  1
  O  O51  1  0.04768400  0.82036200  0.52263800  1
  O  O52  1  0.17516800  0.48429300  0.55460200  1
  O  O53  1  0.19952500  0.43084200  0.97021300  1
  O  O54  1  0.04955700  0.51519900  0.71531700  1
  O  O55  1  0.57457900  0.61609300  0.83048300  1
  O  O56  1  0.99084400  0.15590400  0.89927600  1
  O  O57  1  0.68491700  0.02108200  0.16081700  1
  O  O58  1  0.28000200  0.72738500  0.19538200  1
  O  O59  1  0.27229900  0.72670600  0.62464000  1
  O  O60  1  0.72770100  0.27329400  0.37536000  1
  O  O61  1  0.68609300  0.59807100  0.17538300  1
  O  O62  1  0.71999800  0.27261500  0.80461800  1
  O  O63  1  0.92232100  0.54829800  0.87467700  1
  O  O64  1  0.62838500  0.76734800  0.93679200  1
  O  O65  1  0.37161500  0.23265200  0.06320800  1
  O  O66  1  0.44254200  0.73321200  0.50205100  1
  O  O67  1  0.52202900  0.98464400  0.72142000  1
  O  O68  1  0.71659600  0.58631700  0.60305400  1
  O  O69  1  0.60191500  0.29386900  0.94890800  1
  O  O70  1  0.55745800  0.26678800  0.49794900  1
  O  O71  1  0.91577600  0.85888100  0.67400600  1
  O  O72  1  0.47797100  0.01535600  0.27858000  1
  O  O73  1  0.42542100  0.38390700  0.16951700  1
  O  O74  1  0.86979600  0.85816200  0.26040100  1
  O  O75  1  0.48381400  0.29935000  0.62469800  1
  O  O76  1  0.87608900  0.19335200  0.05893100  1
  O  O77  1  0.79646900  0.89656800  0.82786100  1
  O  O78  1  0.31990900  0.08355200  0.95727200  1
  O  O79  1  0.14600700  0.75024600  0.35119700  1
  O  O80  1  0.43140700  0.51119000  0.28417300  1
  O  O81  1  0.12391100  0.80664800  0.94106900  1
  O  O82  1  0.65073800  0.97972300  0.57775000  1
  O  O83  1  0.82483200  0.51570700  0.44539800  1
  O  O84  1  0.20353100  0.10343200  0.17213900  1
  O  O85  1  0.78676800  0.21089400  0.25011600  1
  O  O86  1  0.80047500  0.56915800  0.02978700  1
  O  O87  1  0.31390700  0.40192900  0.82461700  1
  O  O88  1  0.13020400  0.14183800  0.73959900  1
  O  O89  1  0.00915600  0.84409600  0.10072400  1
