# generated using pymatgen
data_GaRe2(CO)9
_symmetry_space_group_name_H-M   'P 1'
_cell_length_a   17.67943571
_cell_length_b   17.67943571
_cell_length_c   17.67943571
_cell_angle_alpha   132.99128895
_cell_angle_beta   132.99128895
_cell_angle_gamma   68.66782831
_symmetry_Int_Tables_number   1
_chemical_formula_structural   GaRe2(CO)9
_chemical_formula_sum   'Ga8 Re16 C72 O72'
_cell_volume   2903.17121188
_cell_formula_units_Z   8
loop_
 _symmetry_equiv_pos_site_id
 _symmetry_equiv_pos_as_xyz
  1  'x, y, z'
loop_
 _atom_site_type_symbol
 _atom_site_label
 _atom_site_symmetry_multiplicity
 _atom_site_fract_x
 _atom_site_fract_y
 _atom_site_fract_z
 _atom_site_occupancy
  Ga  Ga0  1  0.16841200  0.11113300  0.33438700  1
  Ga  Ga1  1  0.61113300  0.77674600  0.94272200  1
  Ga  Ga2  1  0.33402400  0.66841200  0.55727800  1
  Ga  Ga3  1  0.83158900  0.88886700  0.66561300  1
  Ga  Ga4  1  0.66597600  0.33158800  0.44272200  1
  Ga  Ga5  1  0.38886700  0.22325400  0.05727800  1
  Ga  Ga6  1  0.27674600  0.83402400  0.16561300  1
  Ga  Ga7  1  0.72325400  0.16597600  0.83438700  1
  Re  Re8  1  0.20863800  0.17129600  0.82773100  1
  Re  Re9  1  0.88090700  0.70863800  0.53734200  1
  Re  Re10  1  0.83253900  0.08253900  0.75000000  1
  Re  Re11  1  0.16746100  0.91746100  0.25000000  1
  Re  Re12  1  0.79136200  0.82870400  0.17226900  1
  Re  Re13  1  0.84356500  0.38090700  0.67226900  1
  Re  Re14  1  0.72231300  0.97231300  0.75000000  1
  Re  Re15  1  0.67129600  0.34356500  0.96265800  1
  Re  Re16  1  0.11909300  0.29136200  0.46265800  1
  Re  Re17  1  0.32870400  0.65643500  0.03734200  1
  Re  Re18  1  0.58253900  0.33253900  0.25000000  1
  Re  Re19  1  0.47231300  0.22231300  0.25000000  1
  Re  Re20  1  0.15643500  0.61909300  0.32773100  1
  Re  Re21  1  0.41746100  0.66746100  0.75000000  1
  Re  Re22  1  0.27768700  0.02768700  0.25000000  1
  Re  Re23  1  0.52768700  0.77768700  0.75000000  1
  C  C24  1  0.23772600  0.56735900  0.26312000  1
  C  C25  1  0.19576100  0.02539400  0.76312000  1
  C  C26  1  0.90778700  0.33224400  0.58957800  1
  C  C27  1  0.29339800  0.12536900  0.76923800  1
  C  C28  1  0.85068400  0.03369400  0.93853600  1
  C  C29  1  0.47798400  0.77577500  0.61087600  1
  C  C30  1  0.70660200  0.87463100  0.23076200  1
  C  C31  1  0.02416000  0.79339800  0.66802900  1
  C  C32  1  0.63289200  0.02201600  0.79779100  1
  C  C33  1  0.80672600  0.23299800  0.58525800  1
  C  C34  1  0.76227400  0.43264100  0.73688000  1
  C  C35  1  0.37386400  0.80322100  0.84061600  1
  C  C36  1  0.53739500  0.46675200  0.34061600  1
  C  C37  1  0.91198700  0.57176800  0.43406000  1
  C  C38  1  0.08801300  0.42823200  0.56594000  1
  C  C39  1  0.33510100  0.13289200  0.11087600  1
  C  C40  1  0.27516600  0.59243500  0.62024800  1
  C  C41  1  0.62536900  0.35613100  0.83197100  1
  C  C42  1  0.59515800  0.91214700  0.56146400  1
  C  C43  1  0.72146800  0.30672600  0.07372800  1
  C  C44  1  0.07176800  0.13770800  0.65978100  1
  C  C45  1  0.84508100  0.22483400  0.81726900  1
  C  C46  1  0.27577500  0.16489900  0.29779100  1
  C  C47  1  0.37463100  0.64386900  0.16802900  1
  C  C48  1  0.47218700  0.65491900  0.87975200  1
  C  C49  1  0.97792700  0.41198700  0.84021900  1
  C  C50  1  0.96675200  0.12613600  0.92935700  1
  C  C51  1  0.83224400  0.74266600  0.42445700  1
  C  C52  1  0.02207300  0.58801300  0.15978100  1
  C  C53  1  0.52201600  0.22422500  0.38912400  1
  C  C54  1  0.63770800  0.47792700  0.06594000  1
  C  C55  1  0.03324800  0.87386400  0.07064300  1
  C  C56  1  0.75733400  0.68179100  0.08957800  1
  C  C57  1  0.09221300  0.66775600  0.41042200  1
  C  C58  1  0.19327400  0.76700200  0.41474200  1
  C  C59  1  0.90756500  0.02781300  0.68273100  1
  C  C60  1  0.47460600  0.73772600  0.17036700  1
  C  C61  1  0.92823200  0.86229200  0.34021900  1
  C  C62  1  0.72422500  0.83510100  0.70220900  1
  C  C63  1  0.66489900  0.86710800  0.88912400  1
  C  C64  1  0.69677900  0.03739500  0.57064300  1
  C  C65  1  0.46630600  0.90484200  0.81699000  1
  C  C66  1  0.80423900  0.97460600  0.23688000  1
  C  C67  1  0.14774000  0.22146800  0.91474200  1
  C  C68  1  0.52781300  0.34508100  0.12024800  1
  C  C69  1  0.30322100  0.96260500  0.42935700  1
  C  C70  1  0.85613100  0.52416000  0.73076200  1
  C  C71  1  0.62613600  0.19677900  0.15938400  1
  C  C72  1  0.36229200  0.52207300  0.93406000  1
  C  C73  1  0.41214700  0.35068400  0.31699000  1
  C  C74  1  0.46260500  0.53324800  0.65938400  1
  C  C75  1  0.15491900  0.77516600  0.18273100  1
  C  C76  1  0.09243500  0.97218700  0.31726900  1
  C  C77  1  0.73299800  0.64774000  0.42627200  1
  C  C78  1  0.16775600  0.25733400  0.57554300  1
  C  C79  1  0.27853200  0.69327400  0.92627200  1
  C  C80  1  0.36710800  0.97798400  0.20220900  1
  C  C81  1  0.93264100  0.69576100  0.67036700  1
  C  C82  1  0.81820900  0.40778700  0.07554300  1
  C  C83  1  0.40484200  0.08785300  0.43853600  1
  C  C84  1  0.85226000  0.77853200  0.08525800  1
  C  C85  1  0.14386900  0.47584000  0.26923800  1
  C  C86  1  0.18179100  0.59221300  0.92445700  1
  C  C87  1  0.58785300  0.64931600  0.68301000  1
  C  C88  1  0.97584000  0.20660200  0.33197100  1
  C  C89  1  0.26700200  0.35226000  0.57372800  1
  C  C90  1  0.24266600  0.31820900  0.91042200  1
  C  C91  1  0.14931600  0.96630600  0.06146400  1
  C  C92  1  0.72483400  0.40756500  0.37975200  1
  C  C93  1  0.52539400  0.26227400  0.82963300  1
  C  C94  1  0.53369400  0.09515800  0.18301000  1
  C  C95  1  0.06735900  0.30423900  0.32963300  1
  O  O96  1  0.94488300  0.30688500  0.54245900  1
  O  O97  1  0.14274500  0.69061500  0.14341500  1
  O  O98  1  0.48671700  0.45370900  0.60664100  1
  O  O99  1  0.25399700  0.07831800  0.03109800  1
  O  O100  1  0.07607000  0.93080500  0.95063500  1
  O  O101  1  0.61992300  0.01328300  0.46699200  1
  O  O102  1  0.35331300  0.38713200  0.63965600  1
  O  O103  1  0.95370900  0.84706800  0.96699200  1
  O  O104  1  0.81033700  0.05886100  0.27494100  1
  O  O105  1  0.37456500  0.42393000  0.35473400  1
  O  O106  1  0.54722000  0.22289900  0.46890200  1
  O  O107  1  0.14109400  0.39425000  0.23952600  1
  O  O108  1  0.05511700  0.69311500  0.45754100  1
  O  O109  1  0.99093400  0.11940600  0.56148600  1
  O  O110  1  0.43080500  0.98017000  0.85473400  1
  O  O111  1  0.74600300  0.92168200  0.96890200  1
  O  O112  1  0.85890600  0.60575000  0.76047400  1
  O  O113  1  0.09757600  0.55511700  0.86200100  1
  O  O114  1  0.51328300  0.54629100  0.39335900  1
  O  O115  1  0.89425000  0.15472400  0.25315600  1
  O  O116  1  0.64668700  0.61286800  0.36034400  1
  O  O117  1  0.75252400  0.28634300  0.13965600  1
  O  O118  1  0.44113900  0.21608000  0.75147600  1
  O  O119  1  0.19061500  0.54720000  0.54787000  1
  O  O120  1  0.38059400  0.44208100  0.87152800  1
  O  O121  1  0.38007700  0.98671700  0.53300800  1
  O  O122  1  0.72289900  0.75399700  0.67568000  1
  O  O123  1  0.80938500  0.45280000  0.45213000  1
  O  O124  1  0.40156800  0.64109400  0.24684400  1
  O  O125  1  0.90242400  0.44488300  0.13799900  1
  O  O126  1  0.03539600  0.31033700  0.25147600  1
  O  O127  1  0.51983000  0.87456500  0.45063500  1
  O  O128  1  0.92393000  0.06919500  0.04936500  1
  O  O129  1  0.94208100  0.57055200  0.06148600  1
  O  O130  1  0.62543500  0.57607000  0.64526600  1
  O  O131  1  0.50067000  0.35725500  0.04787000  1
  O  O132  1  0.95280000  0.00067000  0.64341500  1
  O  O133  1  0.59843200  0.35890600  0.75315600  1
  O  O134  1  0.19311500  0.23557500  0.63799900  1
  O  O135  1  0.45278000  0.77710100  0.53109800  1
  O  O136  1  0.34527600  0.09843200  0.73952600  1
  O  O137  1  0.49933000  0.64274500  0.95213000  1
  O  O138  1  0.56919500  0.01983000  0.14526500  1
  O  O139  1  0.18966300  0.94113900  0.72505900  1
  O  O140  1  0.85725500  0.30938500  0.85658500  1
  O  O141  1  0.55886100  0.78392000  0.24852400  1
  O  O142  1  0.11286800  0.25252400  0.96618000  1
  O  O143  1  0.07055200  0.50906600  0.62847200  1
  O  O144  1  0.05791900  0.42944800  0.93851400  1
  O  O145  1  0.65293200  0.11992300  0.10664100  1
  O  O146  1  0.92944800  0.49093400  0.37152800  1
  O  O147  1  0.73557500  0.59757600  0.04245900  1
  O  O148  1  0.96460400  0.68966300  0.74852400  1
  O  O149  1  0.57831800  0.04722000  0.82432000  1
  O  O150  1  0.28392000  0.53539600  0.22505900  1
  O  O151  1  0.34706800  0.88007700  0.89335900  1
  O  O152  1  0.26442500  0.40242400  0.95754100  1
  O  O153  1  0.61940600  0.55791900  0.12847200  1
  O  O154  1  0.80688500  0.76442500  0.36200100  1
  O  O155  1  0.48017000  0.12543500  0.54936500  1
  O  O156  1  0.65472400  0.90156800  0.26047400  1
  O  O157  1  0.27710100  0.24600300  0.32432000  1
  O  O158  1  0.78634300  0.14668700  0.53382000  1
  O  O159  1  0.00906600  0.88059400  0.43851400  1
  O  O160  1  0.24747600  0.71365700  0.86034400  1
  O  O161  1  0.04720000  0.99933000  0.35658500  1
  O  O162  1  0.04629100  0.15293200  0.03300800  1
  O  O163  1  0.42168200  0.95278000  0.17568000  1
  O  O164  1  0.21365700  0.85331300  0.46618000  1
  O  O165  1  0.88713200  0.74747600  0.03382000  1
  O  O166  1  0.10575000  0.84527600  0.74684400  1
  O  O167  1  0.71608000  0.46460400  0.77494100  1
