# generated using pymatgen
data_OsC4ClO4
_symmetry_space_group_name_H-M   'P 1'
_cell_length_a   9.48153700
_cell_length_b   9.94221500
_cell_length_c   16.06322700
_cell_angle_alpha   90.00000000
_cell_angle_beta   90.00000000
_cell_angle_gamma   90.00000000
_symmetry_Int_Tables_number   1
_chemical_formula_structural   OsC4ClO4
_chemical_formula_sum   'Os8 C32 Cl8 O32'
_cell_volume   1514.23992007
_cell_formula_units_Z   8
loop_
 _symmetry_equiv_pos_site_id
 _symmetry_equiv_pos_as_xyz
  1  'x, y, z'
loop_
 _atom_site_type_symbol
 _atom_site_label
 _atom_site_symmetry_multiplicity
 _atom_site_fract_x
 _atom_site_fract_y
 _atom_site_fract_z
 _atom_site_occupancy
  Os  Os0  1  0.02742500  0.52501900  0.36241500  1
  Os  Os1  1  0.52742500  0.97498100  0.63758500  1
  Os  Os2  1  0.31515800  0.50358100  0.43636400  1
  Os  Os3  1  0.68484200  0.00358100  0.06363600  1
  Os  Os4  1  0.18484200  0.49641900  0.93636400  1
  Os  Os5  1  0.81515800  0.99641900  0.56363600  1
  Os  Os6  1  0.47257500  0.47498100  0.86241500  1
  Os  Os7  1  0.97257500  0.02501900  0.13758500  1
  C  C8  1  0.44220200  0.28530600  0.85952600  1
  C  C9  1  0.27490800  0.62121300  0.01579400  1
  C  C10  1  0.87171200  0.85625900  0.64368700  1
  C  C11  1  0.03631300  0.02681800  0.02030500  1
  C  C12  1  0.62828800  0.14374100  0.14368700  1
  C  C13  1  0.16247100  0.03493400  0.18177000  1
  C  C14  1  0.46368700  0.97318200  0.52030500  1
  C  C15  1  0.35171600  0.36026800  0.36065100  1
  C  C16  1  0.37508200  0.49304500  0.75504500  1
  C  C17  1  0.66247100  0.46506600  0.81823000  1
  C  C18  1  0.87508200  0.00695500  0.24495500  1
  C  C19  1  0.33752900  0.96506600  0.68177000  1
  C  C20  1  0.94220200  0.21469400  0.14047400  1
  C  C21  1  0.50122000  0.48881800  0.48503700  1
  C  C22  1  0.99878000  0.51118200  0.98503700  1
  C  C23  1  0.55779800  0.78530600  0.64047400  1
  C  C24  1  0.14828400  0.63973200  0.86065100  1
  C  C25  1  0.53631300  0.47318200  0.97969500  1
  C  C26  1  0.05779800  0.71469400  0.35952600  1
  C  C27  1  0.22509200  0.37878700  0.51579400  1
  C  C28  1  0.77490800  0.87878700  0.98420600  1
  C  C29  1  0.72509200  0.12121300  0.48420600  1
  C  C30  1  0.00122000  0.01118200  0.51496300  1
  C  C31  1  0.83752900  0.53493400  0.31823000  1
  C  C32  1  0.12491800  0.50695500  0.25504500  1
  C  C33  1  0.64828400  0.86026800  0.13934900  1
  C  C34  1  0.12828800  0.35625900  0.85631300  1
  C  C35  1  0.49878000  0.98881800  0.01496300  1
  C  C36  1  0.96368700  0.52681800  0.47969500  1
  C  C37  1  0.37171200  0.64374100  0.35631300  1
  C  C38  1  0.85171600  0.13973200  0.63934900  1
  C  C39  1  0.62491800  0.99304500  0.74495500  1
  Cl  Cl40  1  0.99146200  0.77744800  0.13407000  1
  Cl  Cl41  1  0.74733500  0.19176700  0.97058200  1
  Cl  Cl42  1  0.00853800  0.27744800  0.36593000  1
  Cl  Cl43  1  0.75266500  0.80823300  0.47058200  1
  Cl  Cl44  1  0.49146200  0.72255200  0.86593000  1
  Cl  Cl45  1  0.50853800  0.22255200  0.63407000  1
  Cl  Cl46  1  0.24733500  0.30823300  0.02941800  1
  Cl  Cl47  1  0.25266500  0.69176700  0.52941800  1
  O  O48  1  0.07401600  0.02395500  0.95220400  1
  O  O49  1  0.67418800  0.19331700  0.43675400  1
  O  O50  1  0.09698100  0.27092700  0.81137500  1
  O  O51  1  0.57843200  0.67082300  0.64710900  1
  O  O52  1  0.62257100  0.77181200  0.18367800  1
  O  O53  1  0.42598400  0.97604500  0.45220400  1
  O  O54  1  0.31470100  0.50221200  0.69298100  1
  O  O55  1  0.88518800  0.52432500  0.00943000  1
  O  O56  1  0.32581200  0.69331700  0.06324600  1
  O  O57  1  0.61481200  0.47567500  0.50943000  1
  O  O58  1  0.77676600  0.45629500  0.79344300  1
  O  O59  1  0.92598400  0.52395500  0.54779600  1
  O  O60  1  0.42156800  0.17082300  0.85289100  1
  O  O61  1  0.68529900  0.00221200  0.80701900  1
  O  O62  1  0.57401600  0.47604500  0.04779600  1
  O  O63  1  0.59698100  0.22907300  0.18862500  1
  O  O64  1  0.22323400  0.95629500  0.70655700  1
  O  O65  1  0.11481200  0.02432500  0.49057000  1
  O  O66  1  0.82581200  0.80668300  0.93675400  1
  O  O67  1  0.18529900  0.49778800  0.19298100  1
  O  O68  1  0.37742900  0.27181200  0.31632200  1
  O  O69  1  0.27676600  0.04370500  0.20655700  1
  O  O70  1  0.17418800  0.30668300  0.56324600  1
  O  O71  1  0.87742900  0.22818800  0.68367800  1
  O  O72  1  0.38518800  0.97567500  0.99057000  1
  O  O73  1  0.81470100  0.99778800  0.30701900  1
  O  O74  1  0.12257100  0.72818800  0.81632200  1
  O  O75  1  0.72323400  0.54370500  0.29344300  1
  O  O76  1  0.92156800  0.32917700  0.14710900  1
  O  O77  1  0.07843200  0.82917700  0.35289100  1
  O  O78  1  0.90301900  0.77092700  0.68862500  1
  O  O79  1  0.40301900  0.72907300  0.31137500  1
