# generated using pymatgen
data_Ru7C20(SO10)2
_symmetry_space_group_name_H-M   'P 1'
_cell_length_a   11.40738554
_cell_length_b   14.54865165
_cell_length_c   21.50722119
_cell_angle_alpha   90.00000000
_cell_angle_beta   90.00000000
_cell_angle_gamma   90.00000000
_symmetry_Int_Tables_number   1
_chemical_formula_structural   Ru7C20(SO10)2
_chemical_formula_sum   'Ru28 C80 S8 O80'
_cell_volume   3569.38313056
_cell_formula_units_Z   4
loop_
 _symmetry_equiv_pos_site_id
 _symmetry_equiv_pos_as_xyz
  1  'x, y, z'
loop_
 _atom_site_type_symbol
 _atom_site_label
 _atom_site_symmetry_multiplicity
 _atom_site_fract_x
 _atom_site_fract_y
 _atom_site_fract_z
 _atom_site_occupancy
  Ru  Ru0  1  0.96687966  0.64382621  0.29766071  1
  Ru  Ru1  1  0.78270954  0.39356053  0.81454716  1
  Ru  Ru2  1  0.45714551  0.96965797  0.18962989  1
  Ru  Ru3  1  0.11145235  0.88215270  0.01504501  1
  Ru  Ru4  1  0.34962708  0.76954195  0.59853845  1
  Ru  Ru5  1  0.73813437  0.43768049  0.38743744  1
  Ru  Ru6  1  0.03312034  0.14382621  0.20233929  1
  Ru  Ru7  1  0.21729046  0.89356053  0.68545284  1
  Ru  Ru8  1  0.05388345  0.04385530  0.08134605  1
  Ru  Ru9  1  0.44611655  0.95614470  0.58134605  1
  Ru  Ru10  1  0.54285449  0.46965797  0.31037011  1
  Ru  Ru11  1  0.84962708  0.73045805  0.40146155  1
  Ru  Ru12  1  0.88854765  0.38215270  0.48495499  1
  Ru  Ru13  1  0.04285449  0.03034203  0.68962989  1
  Ru  Ru14  1  0.53312034  0.35617379  0.79766071  1
  Ru  Ru15  1  0.38854765  0.11784730  0.51504501  1
  Ru  Ru16  1  0.55388345  0.45614470  0.91865395  1
  Ru  Ru17  1  0.65037292  0.26954195  0.90146155  1
  Ru  Ru18  1  0.61145235  0.61784730  0.98495499  1
  Ru  Ru19  1  0.94611655  0.54385530  0.41865395  1
  Ru  Ru20  1  0.46687966  0.85617379  0.70233929  1
  Ru  Ru21  1  0.71729046  0.60643947  0.31454716  1
  Ru  Ru22  1  0.28270954  0.10643947  0.18545284  1
  Ru  Ru23  1  0.26186563  0.93768049  0.11256256  1
  Ru  Ru24  1  0.76186563  0.56231951  0.88743744  1
  Ru  Ru25  1  0.95714551  0.53034203  0.81037011  1
  Ru  Ru26  1  0.23813437  0.06231951  0.61256256  1
  Ru  Ru27  1  0.15037292  0.23045805  0.09853845  1
  C  C28  1  0.47768799  0.18029558  0.58059942  1
  C  C29  1  0.72865659  0.16927520  0.86457046  1
  C  C30  1  0.00496370  0.10012420  0.00742236  1
  C  C31  1  0.59611867  0.69379304  0.31804838  1
  C  C32  1  0.27774734  0.11629567  0.27226099  1
  C  C33  1  0.40078464  0.49879427  0.90418710  1
  C  C34  1  0.85931181  0.58153227  0.74274158  1
  C  C35  1  0.50442297  0.20769407  0.90454424  1
  C  C36  1  0.27134341  0.66927520  0.63542954  1
  C  C37  1  0.74915349  0.67956803  0.85129513  1
  C  C38  1  0.55899051  0.03179929  0.24534585  1
  C  C39  1  0.70026727  0.23031198  0.98188435  1
  C  C40  1  0.94324946  0.13477367  0.68046884  1
  C  C41  1  0.90078464  0.00120573  0.09581290  1
  C  C42  1  0.94100949  0.96820071  0.74534585  1
  C  C43  1  0.12634392  0.10367246  0.55445314  1
  C  C44  1  0.09921536  0.50120573  0.40418710  1
  C  C45  1  0.05675054  0.63477367  0.81953116  1
  C  C46  1  0.24915349  0.82043197  0.14870487  1
  C  C47  1  0.12536706  0.66553408  0.31813853  1
  C  C48  1  0.00442297  0.29230593  0.09545576  1
  C  C49  1  0.99503630  0.60012420  0.49257764  1
  C  C50  1  0.97768799  0.31970442  0.41940058  1
  C  C51  1  0.81928021  0.27153388  0.51741797  1
  C  C52  1  0.40388133  0.19379304  0.18195162  1
  C  C53  1  0.56399837  0.23654986  0.76714521  1
  C  C54  1  0.97974750  0.96528689  0.61694758  1
  C  C55  1  0.05899051  0.46820071  0.75465415  1
  C  C56  1  0.62536706  0.83446592  0.68186147  1
  C  C57  1  0.87463294  0.16553408  0.18186147  1
  C  C58  1  0.75084651  0.32043197  0.35129513  1
  C  C59  1  0.35931181  0.91846773  0.25725842  1
  C  C60  1  0.22865659  0.33072480  0.13542954  1
  C  C61  1  0.90388133  0.30620696  0.81804838  1
  C  C62  1  0.98715491  0.09396199  0.28070494  1
  C  C63  1  0.87365608  0.60367246  0.94554686  1
  C  C64  1  0.48715491  0.40603801  0.71929506  1
  C  C65  1  0.25084651  0.17956803  0.64870487  1
  C  C66  1  0.59921536  0.99879427  0.59581290  1
  C  C67  1  0.62634392  0.39632754  0.44554686  1
  C  C68  1  0.50496370  0.39987580  0.99257764  1
  C  C69  1  0.37365608  0.89632754  0.05445314  1
  C  C70  1  0.20026727  0.26968802  0.01811565  1
  C  C71  1  0.02231201  0.81970442  0.08059942  1
  C  C72  1  0.77774734  0.38370433  0.72773901  1
  C  C73  1  0.22225266  0.88370433  0.77226099  1
  C  C74  1  0.18071979  0.77153388  0.98258203  1
  C  C75  1  0.68071979  0.72846612  0.01741797  1
  C  C76  1  0.52025250  0.03471311  0.11694758  1
  C  C77  1  0.06399837  0.26345014  0.23285479  1
  C  C78  1  0.19821654  0.96747094  0.96053497  1
  C  C79  1  0.48143499  0.61857332  0.03960962  1
  C  C80  1  0.14068819  0.08153227  0.75725842  1
  C  C81  1  0.49503630  0.89987580  0.50742236  1
  C  C82  1  0.01284509  0.59396199  0.21929506  1
  C  C83  1  0.99557703  0.79230593  0.40454424  1
  C  C84  1  0.51284509  0.90603801  0.78070494  1
  C  C85  1  0.30178346  0.03252906  0.46053497  1
  C  C86  1  0.52231201  0.68029558  0.91940058  1
  C  C87  1  0.98143499  0.88142668  0.96039038  1
  C  C88  1  0.37463294  0.33446592  0.81813853  1
  C  C89  1  0.31928021  0.22846612  0.48258203  1
  C  C90  1  0.47974750  0.53471311  0.38305242  1
  C  C91  1  0.69821654  0.53252906  0.03946503  1
  C  C92  1  0.51856501  0.11857332  0.46039038  1
  C  C93  1  0.79973273  0.76968802  0.48188435  1
  C  C94  1  0.55675054  0.86522633  0.18046884  1
  C  C95  1  0.29973273  0.73031198  0.51811565  1
  C  C96  1  0.77134341  0.83072480  0.36457046  1
  C  C97  1  0.93600163  0.76345014  0.26714521  1
  C  C98  1  0.09611867  0.80620696  0.68195162  1
  C  C99  1  0.64068819  0.41846773  0.24274158  1
  C  C100  1  0.02025250  0.46528689  0.88305242  1
  C  C101  1  0.80178346  0.46747094  0.53946503  1
  C  C102  1  0.44100949  0.53179929  0.25465415  1
  C  C103  1  0.43600163  0.73654986  0.73285479  1
  C  C104  1  0.72225266  0.61629567  0.22773901  1
  C  C105  1  0.44324946  0.36522633  0.31953116  1
  C  C106  1  0.49557703  0.70769407  0.59545576  1
  C  C107  1  0.01856501  0.38142668  0.53960962  1
  S  S108  1  0.38120747  0.00813934  0.68731492  1
  S  S109  1  0.88120747  0.49186066  0.31268508  1
  S  S110  1  0.76272346  0.40641403  0.93020813  1
  S  S111  1  0.23727654  0.90641403  0.56979187  1
  S  S112  1  0.11879253  0.99186066  0.18731492  1
  S  S113  1  0.73727654  0.59358597  0.43020813  1
  S  S114  1  0.61879253  0.50813934  0.81268508  1
  S  S115  1  0.26272346  0.09358597  0.06979187  1
  O  O116  1  0.23937926  0.74793874  0.17120704  1
  O  O117  1  0.73427313  0.20706533  0.03009825  1
  O  O118  1  0.74583454  0.48700774  0.07530444  1
  O  O119  1  0.22394929  0.67859668  0.32831850  1
  O  O120  1  0.46677538  0.72159090  0.88421112  1
  O  O121  1  0.53322462  0.22159090  0.61578888  1
  O  O122  1  0.42047675  0.66454560  0.75480709  1
  O  O123  1  0.24583454  0.01299226  0.92469556  1
  O  O124  1  0.04263267  0.56554867  0.17150442  1
  O  O125  1  0.30536977  0.52475816  0.89573643  1
  O  O126  1  0.77511352  0.37841295  0.67363273  1
  O  O127  1  0.43622947  0.57125756  0.42468554  1
  O  O128  1  0.57996360  0.66382554  0.59008993  1
  O  O129  1  0.19463023  0.47524184  0.39573643  1
  O  O130  1  0.75416546  0.51299226  0.57530444  1
  O  O131  1  0.40020708  0.61861821  0.07199629  1
  O  O132  1  0.72488648  0.62158705  0.17363273  1
  O  O133  1  0.27605071  0.32140332  0.82831850  1
  O  O134  1  0.80536977  0.97524184  0.10426357  1
  O  O135  1  0.42003640  0.16382554  0.90991007  1
  O  O136  1  0.80751324  0.61149038  0.70131784  1
  O  O137  1  0.22576525  0.60552593  0.65720691  1
  O  O138  1  0.72224797  0.79529214  0.03639736  1
  O  O139  1  0.05727120  0.13254032  0.51944917  1
  O  O140  1  0.54263267  0.93445133  0.82849558  1
  O  O141  1  0.47399629  0.36679414  0.03917315  1
  O  O142  1  0.56377053  0.07125756  0.07531446  1
  O  O143  1  0.76062074  0.24793874  0.32879296  1
  O  O144  1  0.44272880  0.86745968  0.01944917  1
  O  O145  1  0.38416813  0.30111973  0.32542967  1
  O  O146  1  0.77423475  0.10552593  0.84279309  1
  O  O147  1  0.07952325  0.33545440  0.25480709  1
  O  O148  1  0.77775203  0.20470786  0.53639736  1
  O  O149  1  0.73937926  0.75206126  0.82879296  1
  O  O150  1  0.61859081  0.07222166  0.27918094  1
  O  O151  1  0.27511352  0.12158705  0.32636727  1
  O  O152  1  0.11859081  0.42777834  0.72081906  1
  O  O153  1  0.23427313  0.29293467  0.96990175  1
  O  O154  1  0.77605071  0.17859668  0.17168150  1
  O  O155  1  0.88416813  0.19888027  0.67457033  1
  O  O156  1  0.01994081  0.75266241  0.68104610  1
  O  O157  1  0.97399629  0.13320586  0.96082685  1
  O  O158  1  0.88140919  0.92777834  0.77918094  1
  O  O159  1  0.30751324  0.88850962  0.29868216  1
  O  O160  1  0.27775203  0.29529214  0.46360264  1
  O  O161  1  0.61583187  0.80111973  0.17457033  1
  O  O162  1  0.90020708  0.88138179  0.92800371  1
  O  O163  1  0.51994081  0.74733759  0.31895390  1
  O  O164  1  0.07996360  0.83617446  0.40991007  1
  O  O165  1  0.11583187  0.69888027  0.82542967  1
  O  O166  1  0.57952325  0.16454560  0.74519291  1
  O  O167  1  0.06377053  0.42874244  0.92468554  1
  O  O168  1  0.19248676  0.11149038  0.79868216  1
  O  O169  1  0.26062074  0.25206126  0.67120704  1
  O  O170  1  0.38140919  0.57222166  0.22081906  1
  O  O171  1  0.55727120  0.36745968  0.48055083  1
  O  O172  1  0.27423475  0.39447407  0.15720691  1
  O  O173  1  0.96677538  0.77840910  0.11578888  1
  O  O174  1  0.25416546  0.98700774  0.42469556  1
  O  O175  1  0.94272880  0.63254032  0.98055083  1
  O  O176  1  0.98005919  0.25266241  0.81895390  1
  O  O177  1  0.26572687  0.70706533  0.46990175  1
  O  O178  1  0.72394929  0.82140332  0.67168150  1
  O  O179  1  0.93622947  0.92874244  0.57531446  1
  O  O180  1  0.92047675  0.83545440  0.24519291  1
  O  O181  1  0.09979292  0.38138179  0.57199629  1
  O  O182  1  0.76572687  0.79293467  0.53009825  1
  O  O183  1  0.69463023  0.02475816  0.60426357  1
  O  O184  1  0.02600371  0.63320586  0.53917315  1
  O  O185  1  0.45736733  0.43445133  0.67150442  1
  O  O186  1  0.92003640  0.33617446  0.09008993  1
  O  O187  1  0.22488648  0.87841295  0.82636727  1
  O  O188  1  0.69248676  0.38850962  0.20131784  1
  O  O189  1  0.59979292  0.11861821  0.42800371  1
  O  O190  1  0.03322462  0.27840910  0.38421112  1
  O  O191  1  0.95736733  0.06554867  0.32849558  1
  O  O192  1  0.52600371  0.86679414  0.46082685  1
  O  O193  1  0.48005919  0.24733759  0.18104610  1
  O  O194  1  0.72576525  0.89447407  0.34279309  1
  O  O195  1  0.22224797  0.70470786  0.96360264  1
