# generated using pymatgen
data_Ru4C14O13
_symmetry_space_group_name_H-M   'P 1'
_cell_length_a   9.35000900
_cell_length_b   9.46037078
_cell_length_c   14.06102578
_cell_angle_alpha   78.03365414
_cell_angle_beta   74.63971482
_cell_angle_gamma   64.30824493
_symmetry_Int_Tables_number   1
_chemical_formula_structural   Ru4C14O13
_chemical_formula_sum   'Ru8 C28 O26'
_cell_volume   1074.62584930
_cell_formula_units_Z   2
loop_
 _symmetry_equiv_pos_site_id
 _symmetry_equiv_pos_as_xyz
  1  'x, y, z'
loop_
 _atom_site_type_symbol
 _atom_site_label
 _atom_site_symmetry_multiplicity
 _atom_site_fract_x
 _atom_site_fract_y
 _atom_site_fract_z
 _atom_site_occupancy
  Ru  Ru0  1  0.73806800  0.89767200  0.78415600  1
  Ru  Ru1  1  0.99001700  0.59762300  0.73916200  1
  Ru  Ru2  1  0.05415900  0.80888900  0.81963700  1
  Ru  Ru3  1  0.00998300  0.40237700  0.26083800  1
  Ru  Ru4  1  0.26193200  0.10232800  0.21584400  1
  Ru  Ru5  1  0.17003100  0.76950100  0.61399800  1
  Ru  Ru6  1  0.82996900  0.23049900  0.38600200  1
  Ru  Ru7  1  0.94584100  0.19111100  0.18036300  1
  C  C8  1  0.15289800  0.48949800  0.16679100  1
  C  C9  1  0.10595000  0.39364300  0.36869300  1
  C  C10  1  0.39817700  0.62319700  0.60807900  1
  C  C11  1  0.84838000  0.25201200  0.51231300  1
  C  C12  1  0.72124200  0.26820500  0.16987200  1
  C  C13  1  0.03912000  0.02059400  0.78787500  1
  C  C14  1  0.07005800  0.15083900  0.04752300  1
  C  C15  1  0.60182300  0.37680300  0.39192100  1
  C  C16  1  0.90021200  0.44133900  0.13763100  1
  C  C17  1  0.89405000  0.60635700  0.63130700  1
  C  C18  1  0.05221800  0.15431400  0.30835300  1
  C  C19  1  0.18412700  0.41929400  0.69078900  1
  C  C20  1  0.21345600  0.95157000  0.56474300  1
  C  C21  1  0.65216800  0.11905400  0.78779900  1
  C  C22  1  0.92994200  0.84916100  0.95247700  1
  C  C23  1  0.34783200  0.88094600  0.21220100  1
  C  C24  1  0.61127600  0.84759400  0.91195800  1
  C  C25  1  0.38872400  0.15240600  0.08804200  1
  C  C26  1  0.84710200  0.51050200  0.83320900  1
  C  C27  1  0.94778200  0.84568600  0.69164700  1
  C  C28  1  0.59115600  0.91481400  0.70808700  1
  C  C29  1  0.81587300  0.58070600  0.30921100  1
  C  C30  1  0.96088000  0.97940600  0.21212500  1
  C  C31  1  0.78654400  0.04843000  0.43525700  1
  C  C32  1  0.09978800  0.55866100  0.86236900  1
  C  C33  1  0.40884400  0.08518600  0.29191300  1
  C  C34  1  0.15162000  0.74798800  0.48768700  1
  C  C35  1  0.27875800  0.73179500  0.83012800  1
  O  O36  1  0.54012000  0.81176700  0.98725100  1
  O  O37  1  0.29635300  0.30898200  0.66308300  1
  O  O38  1  0.53160600  0.53704500  0.60883700  1
  O  O39  1  0.76617400  0.45182700  0.88765000  1
  O  O40  1  0.49792000  0.07456400  0.33965100  1
  O  O41  1  0.23876400  0.06390300  0.53313000  1
  O  O42  1  0.70364700  0.69101800  0.33691700  1
  O  O43  1  0.40007800  0.74479500  0.21275800  1
  O  O44  1  0.58857200  0.31486000  0.15996700  1
  O  O45  1  0.86428100  0.26162500  0.58969800  1
  O  O46  1  0.83809100  0.60924000  0.56661100  1
  O  O47  1  0.23382600  0.54817300  0.11235000  1
  O  O48  1  0.84112400  0.54063100  0.07756200  1
  O  O49  1  0.41142800  0.68514000  0.84003300  1
  O  O50  1  0.96755900  0.85171700  0.23108600  1
  O  O51  1  0.50208000  0.92543600  0.66034900  1
  O  O52  1  0.13841100  0.12065300  0.96747200  1
  O  O53  1  0.03244100  0.14828300  0.76891400  1
  O  O54  1  0.86158900  0.87934700  0.03252800  1
  O  O55  1  0.46839400  0.46295500  0.39116300  1
  O  O56  1  0.76123600  0.93609700  0.46687000  1
  O  O57  1  0.15887600  0.45936900  0.92243800  1
  O  O58  1  0.45988000  0.18823300  0.01274900  1
  O  O59  1  0.13571900  0.73837500  0.41030200  1
  O  O60  1  0.16190900  0.39076000  0.43338900  1
  O  O61  1  0.59992200  0.25520500  0.78724200  1
