# generated using pymatgen
data_Cu2Bi4Pb2S9
_symmetry_space_group_name_H-M   'P 1'
_cell_length_a   4.04120900
_cell_length_b   11.84662800
_cell_length_c   33.61324600
_cell_angle_alpha   90.00000000
_cell_angle_beta   90.00000000
_cell_angle_gamma   90.00000000
_symmetry_Int_Tables_number   1
_chemical_formula_structural   Cu2Bi4Pb2S9
_chemical_formula_sum   'Cu8 Bi16 Pb8 S36'
_cell_volume   1609.22405797
_cell_formula_units_Z   4
loop_
 _symmetry_equiv_pos_site_id
 _symmetry_equiv_pos_as_xyz
  1  'x, y, z'
loop_
 _atom_site_type_symbol
 _atom_site_label
 _atom_site_symmetry_multiplicity
 _atom_site_fract_x
 _atom_site_fract_y
 _atom_site_fract_z
 _atom_site_occupancy
  Cu  Cu0  1  0.75000000  0.76759500  0.56806000  1
  Cu  Cu1  1  0.25000000  0.73026000  0.40308200  1
  Cu  Cu2  1  0.75000000  0.26759500  0.93194000  1
  Cu  Cu3  1  0.25000000  0.73240500  0.06806000  1
  Cu  Cu4  1  0.25000000  0.23026000  0.09691800  1
  Cu  Cu5  1  0.25000000  0.23240500  0.43194000  1
  Cu  Cu6  1  0.75000000  0.26974000  0.59691800  1
  Cu  Cu7  1  0.75000000  0.76974000  0.90308200  1
  Bi  Bi8  1  0.75000000  0.97965100  0.39251300  1
  Bi  Bi9  1  0.25000000  0.51454100  0.56345100  1
  Bi  Bi10  1  0.25000000  0.01454100  0.93654900  1
  Bi  Bi11  1  0.75000000  0.98545900  0.06345100  1
  Bi  Bi12  1  0.25000000  0.02034900  0.60748700  1
  Bi  Bi13  1  0.25000000  0.52034900  0.89251300  1
  Bi  Bi14  1  0.25000000  0.01631400  0.27561900  1
  Bi  Bi15  1  0.25000000  0.84663200  0.82068500  1
  Bi  Bi16  1  0.25000000  0.51631400  0.22438100  1
  Bi  Bi17  1  0.25000000  0.34663200  0.67931500  1
  Bi  Bi18  1  0.75000000  0.48368600  0.77561900  1
  Bi  Bi19  1  0.75000000  0.98368600  0.72438100  1
  Bi  Bi20  1  0.75000000  0.47965100  0.10748700  1
  Bi  Bi21  1  0.75000000  0.48545900  0.43654900  1
  Bi  Bi22  1  0.75000000  0.65336800  0.32068500  1
  Bi  Bi23  1  0.75000000  0.15336800  0.17931500  1
  Pb  Pb24  1  0.75000000  0.67395100  0.66562800  1
  Pb  Pb25  1  0.75000000  0.66956500  0.99753000  1
  Pb  Pb26  1  0.25000000  0.83043500  0.49753000  1
  Pb  Pb27  1  0.25000000  0.32604900  0.33437200  1
  Pb  Pb28  1  0.25000000  0.33043500  0.00247000  1
  Pb  Pb29  1  0.25000000  0.82604900  0.16562800  1
  Pb  Pb30  1  0.75000000  0.17395100  0.83437200  1
  Pb  Pb31  1  0.75000000  0.16956500  0.50247000  1
  S  S32  1  0.75000000  0.27948300  0.06653300  1
  S  S33  1  0.25000000  0.04780000  0.12408400  1
  S  S34  1  0.75000000  0.78563700  0.10050100  1
  S  S35  1  0.25000000  0.21436300  0.89949900  1
  S  S36  1  0.25000000  0.21117200  0.23138700  1
  S  S37  1  0.25000000  0.37199400  0.14924400  1
  S  S38  1  0.25000000  0.54533000  0.04885700  1
  S  S39  1  0.75000000  0.61809500  0.52057600  1
  S  S40  1  0.75000000  0.95220000  0.87591600  1
  S  S41  1  0.75000000  0.45220000  0.62408400  1
  S  S42  1  0.75000000  0.95467000  0.54885700  1
  S  S43  1  0.25000000  0.54780000  0.37591600  1
  S  S44  1  0.75000000  0.62800600  0.85075600  1
  S  S45  1  0.25000000  0.22051700  0.56653300  1
  S  S46  1  0.75000000  0.11809500  0.97942400  1
  S  S47  1  0.75000000  0.12800600  0.64924400  1
  S  S48  1  0.25000000  0.38113400  0.81701400  1
  S  S49  1  0.25000000  0.04533000  0.45114300  1
  S  S50  1  0.75000000  0.45467000  0.95114300  1
  S  S51  1  0.25000000  0.04594200  0.78641800  1
  S  S52  1  0.75000000  0.11886600  0.31701400  1
  S  S53  1  0.25000000  0.54594200  0.71358200  1
  S  S54  1  0.75000000  0.77948300  0.43346700  1
  S  S55  1  0.75000000  0.61886600  0.18298600  1
  S  S56  1  0.25000000  0.87199400  0.35075600  1
  S  S57  1  0.25000000  0.38190500  0.47942400  1
  S  S58  1  0.75000000  0.78882800  0.76861300  1
  S  S59  1  0.25000000  0.88190500  0.02057600  1
  S  S60  1  0.25000000  0.71436300  0.60050100  1
  S  S61  1  0.75000000  0.45405800  0.28641800  1
  S  S62  1  0.75000000  0.28563700  0.39949900  1
  S  S63  1  0.25000000  0.71117200  0.26861300  1
  S  S64  1  0.75000000  0.28882800  0.73138700  1
  S  S65  1  0.75000000  0.95405800  0.21358200  1
  S  S66  1  0.25000000  0.72051700  0.93346700  1
  S  S67  1  0.25000000  0.88113400  0.68298600  1
