# generated using pymatgen
data_Si4Ag10O13
_symmetry_space_group_name_H-M   'P 1'
_cell_length_a   8.11205487
_cell_length_b   9.38491730
_cell_length_c   11.60167684
_cell_angle_alpha   113.40783942
_cell_angle_beta   98.37313993
_cell_angle_gamma   100.57526233
_symmetry_Int_Tables_number   1
_chemical_formula_structural   Si4Ag10O13
_chemical_formula_sum   'Si8 Ag20 O26'
_cell_volume   773.05666440
_cell_formula_units_Z   2
loop_
 _symmetry_equiv_pos_site_id
 _symmetry_equiv_pos_as_xyz
  1  'x, y, z'
loop_
 _atom_site_type_symbol
 _atom_site_label
 _atom_site_symmetry_multiplicity
 _atom_site_fract_x
 _atom_site_fract_y
 _atom_site_fract_z
 _atom_site_occupancy
  Si  Si0  1  0.77886200  0.42073300  0.75542700  1
  Si  Si1  1  0.22113800  0.57926700  0.24457300  1
  Si  Si2  1  0.26795700  0.91941600  0.24502300  1
  Si  Si3  1  0.55730000  0.48444400  0.25032400  1
  Si  Si4  1  0.91665800  0.02361400  0.25132200  1
  Si  Si5  1  0.73204300  0.08058400  0.75497700  1
  Si  Si6  1  0.44270000  0.51555600  0.74967600  1
  Si  Si7  1  0.08334200  0.97638600  0.74867800  1
  Ag  Ag8  1  0.11075400  0.59376400  0.64163900  1
  Ag  Ag9  1  0.15912800  0.40923400  0.91663600  1
  Ag  Ag10  1  0.57663000  0.12407000  0.16101100  1
  Ag  Ag11  1  0.33406600  0.37151900  0.43272800  1
  Ag  Ag12  1  0.21382200  0.17127200  0.07014600  1
  Ag  Ag13  1  0.15082700  0.73145100  0.92860300  1
  Ag  Ag14  1  0.32020000  0.07898400  0.56951300  1
  Ag  Ag15  1  0.84917300  0.26854900  0.07139700  1
  Ag  Ag16  1  0.84087200  0.59076600  0.08336400  1
  Ag  Ag17  1  0.67980000  0.92101600  0.43048700  1
  Ag  Ag18  1  0.78617800  0.82872800  0.92985400  1
  Ag  Ag19  1  0.98599400  0.81836100  0.42905000  1
  Ag  Ag20  1  0.56093200  0.73177600  0.08398800  1
  Ag  Ag21  1  0.43906800  0.26822400  0.91601200  1
  Ag  Ag22  1  0.63293400  0.23719500  0.44799100  1
  Ag  Ag23  1  0.42337000  0.87593000  0.83898900  1
  Ag  Ag24  1  0.66593400  0.62848100  0.56727200  1
  Ag  Ag25  1  0.88924600  0.40623600  0.35836100  1
  Ag  Ag26  1  0.01400600  0.18163900  0.57095000  1
  Ag  Ag27  1  0.36706600  0.76280500  0.55200900  1
  O  O28  1  0.59473500  0.97652000  0.61322500  1
  O  O29  1  0.62005000  0.43217600  0.11444900  1
  O  O30  1  0.72455000  0.58195700  0.37707400  1
  O  O31  1  0.35635300  0.89357400  0.12341400  1
  O  O32  1  0.83066900  0.25935500  0.76345400  1
  O  O33  1  0.88385800  0.57923600  0.89020300  1
  O  O34  1  0.18583300  0.96867500  0.87932100  1
  O  O35  1  0.27545000  0.41804300  0.62292600  1
  O  O36  1  0.64364700  0.10642600  0.87658600  1
  O  O37  1  0.40526500  0.02348000  0.38677500  1
  O  O38  1  0.43332600  0.61108600  0.25489700  1
  O  O39  1  0.16933100  0.74064500  0.23654600  1
  O  O40  1  0.11614200  0.42076400  0.10979700  1
  O  O41  1  0.81416700  0.03132500  0.12067900  1
  O  O42  1  0.17464100  0.56663700  0.37313700  1
  O  O43  1  0.82535900  0.43336300  0.62686300  1
  O  O44  1  0.18342100  0.13834000  0.73465200  1
  O  O45  1  0.56173800  0.67638100  0.74388400  1
  O  O46  1  0.93356100  0.19001400  0.38038700  1
  O  O47  1  0.11286800  0.00867800  0.23175800  1
  O  O48  1  0.88713200  0.99132200  0.76824200  1
  O  O49  1  0.37995000  0.56782400  0.88555100  1
  O  O50  1  0.06643900  0.80998600  0.61961300  1
  O  O51  1  0.81657900  0.86166000  0.26534800  1
  O  O52  1  0.43826200  0.32361900  0.25611600  1
  O  O53  1  0.56667400  0.38891400  0.74510300  1
