# generated using pymatgen
data_Bi2Ru3(CO)9
_symmetry_space_group_name_H-M   'P 1'
_cell_length_a   9.22833700
_cell_length_b   9.46700706
_cell_length_c   23.45033051
_cell_angle_alpha   86.24968085
_cell_angle_beta   88.37143807
_cell_angle_gamma   64.27316837
_symmetry_Int_Tables_number   1
_chemical_formula_structural   Bi2Ru3(CO)9
_chemical_formula_sum   'Bi8 Ru12 C36 O36'
_cell_volume   1841.69656037
_cell_formula_units_Z   4
loop_
 _symmetry_equiv_pos_site_id
 _symmetry_equiv_pos_as_xyz
  1  'x, y, z'
loop_
 _atom_site_type_symbol
 _atom_site_label
 _atom_site_symmetry_multiplicity
 _atom_site_fract_x
 _atom_site_fract_y
 _atom_site_fract_z
 _atom_site_occupancy
  Bi  Bi0  1  0.89161200  0.36419200  0.53366900  1
  Bi  Bi1  1  0.92682200  0.33681500  0.03756400  1
  Bi  Bi2  1  0.10892700  0.80999200  0.28723900  1
  Bi  Bi3  1  0.07317800  0.66318500  0.96243600  1
  Bi  Bi4  1  0.89107300  0.19000800  0.71276100  1
  Bi  Bi5  1  0.10838800  0.63580800  0.46633100  1
  Bi  Bi6  1  0.20421000  0.71144200  0.78258400  1
  Bi  Bi7  1  0.79579000  0.28855800  0.21741600  1
  Ru  Ru8  1  0.74387900  0.46134000  0.63924100  1
  Ru  Ru9  1  0.04332800  0.30191600  0.14941600  1
  Ru  Ru10  1  0.17365700  0.85722800  0.39880700  1
  Ru  Ru11  1  0.69474800  0.49078100  0.11978900  1
  Ru  Ru12  1  0.15187200  0.86030500  0.88544400  1
  Ru  Ru13  1  0.25612100  0.53866000  0.36075900  1
  Ru  Ru14  1  0.95667200  0.69808400  0.85058400  1
  Ru  Ru15  1  0.09276300  0.22928100  0.62769800  1
  Ru  Ru16  1  0.30525200  0.50921900  0.88021100  1
  Ru  Ru17  1  0.90723700  0.77071900  0.37230200  1
  Ru  Ru18  1  0.84812800  0.13969500  0.11455600  1
  Ru  Ru19  1  0.82634300  0.14277200  0.60119300  1
  C  C20  1  0.74416600  0.03830300  0.16190700  1
  C  C21  1  0.68117400  0.53098100  0.71469200  1
  C  C22  1  0.86139500  0.77726500  0.77704800  1
  C  C23  1  0.48394100  0.51972100  0.91246000  1
  C  C24  1  0.96613500  0.49649800  0.84810900  1
  C  C25  1  0.24087400  0.88652200  0.95471100  1
  C  C26  1  0.64889900  0.12803800  0.64007600  1
  C  C27  1  0.75453700  0.97196600  0.34367100  1
  C  C28  1  0.26231000  0.34348000  0.39022500  1
  C  C29  1  0.14067800  0.35079100  0.67780800  1
  C  C30  1  0.75662800  0.80108300  0.89058200  1
  C  C31  1  0.02729600  0.07083200  0.38909200  1
  C  C32  1  0.46331500  0.49561500  0.38604400  1
  C  C33  1  0.51605900  0.48027900  0.08754000  1
  C  C34  1  0.75213700  0.13384200  0.52650400  1
  C  C35  1  0.95010400  0.03505800  0.88631900  1
  C  C36  1  0.24337200  0.19891700  0.10941800  1
  C  C37  1  0.69335700  0.66308900  0.07165200  1
  C  C38  1  0.42437100  0.37662600  0.82090700  1
  C  C39  1  0.75912600  0.11347800  0.04528900  1
  C  C40  1  0.53668500  0.50438500  0.61395600  1
  C  C41  1  0.23562900  0.23707800  0.56814300  1
  C  C42  1  0.76437100  0.76292200  0.43185700  1
  C  C43  1  0.04989600  0.96494200  0.11368100  1
  C  C44  1  0.35110100  0.87196200  0.35992400  1
  C  C45  1  0.57562900  0.62337400  0.17909300  1
  C  C46  1  0.24786300  0.86615800  0.47349600  1
  C  C47  1  0.03386500  0.50350200  0.15189100  1
  C  C48  1  0.25583400  0.96169700  0.83809300  1
  C  C49  1  0.31882600  0.46901900  0.28530800  1
  C  C50  1  0.73769000  0.65652000  0.60977500  1
  C  C51  1  0.24546300  0.02803400  0.65632900  1
  C  C52  1  0.30664300  0.33691100  0.92834800  1
  C  C53  1  0.13860500  0.22273500  0.22295200  1
  C  C54  1  0.85932200  0.64920900  0.32219200  1
  C  C55  1  0.97270400  0.92916800  0.61090800  1
  O  O56  1  0.68362100  0.77540700  0.04536300  1
  O  O57  1  0.93975600  0.20374900  0.38316400  1
  O  O58  1  0.29974500  0.90731700  0.99452200  1
  O  O59  1  0.37077100  0.40945000  0.24256700  1
  O  O60  1  0.40679300  0.53519900  0.59883000  1
  O  O61  1  0.20814300  0.17547200  0.26605900  1
  O  O62  1  0.79185700  0.82452800  0.73394100  1
  O  O63  1  0.17343400  0.42570900  0.70790900  1
  O  O64  1  0.59762700  0.52102900  0.93234600  1
  O  O65  1  0.65310100  0.09377800  0.32915400  1
  O  O66  1  0.66205700  0.76543100  0.46274500  1
  O  O67  1  0.06024400  0.79625100  0.61683600  1
  O  O68  1  0.31637900  0.22459300  0.95463700  1
  O  O69  1  0.82656600  0.57429100  0.29209100  1
  O  O70  1  0.37075700  0.13249300  0.09005200  1
  O  O71  1  0.62924300  0.86750700  0.90994800  1
  O  O72  1  0.82736000  0.14623600  0.88603200  1
  O  O73  1  0.70115600  0.11736100  0.48382800  1
  O  O74  1  0.50785100  0.28396700  0.78990400  1
  O  O75  1  0.49214900  0.71603300  0.21009600  1
  O  O76  1  0.97335600  0.37121800  0.84484600  1
  O  O77  1  0.40237300  0.47897100  0.06765400  1
  O  O78  1  0.62922900  0.59055000  0.75743300  1
  O  O79  1  0.59320700  0.46480100  0.40117000  1
  O  O80  1  0.33794300  0.23456900  0.53725500  1
  O  O81  1  0.72246200  0.78166300  0.59473000  1
  O  O82  1  0.68392500  0.96631500  0.18625700  1
  O  O83  1  0.53616500  0.12370900  0.66181600  1
  O  O84  1  0.34689900  0.90622200  0.67084600  1
  O  O85  1  0.31607500  0.03368500  0.81374300  1
  O  O86  1  0.17264000  0.85376400  0.11396800  1
  O  O87  1  0.70025500  0.09268300  0.00547800  1
  O  O88  1  0.46383500  0.87629100  0.33818400  1
  O  O89  1  0.29884400  0.88263900  0.51617200  1
  O  O90  1  0.02664400  0.62878200  0.15515400  1
  O  O91  1  0.27753800  0.21833700  0.40527000  1
