# generated using pymatgen
data_Os2C6SeO6
_symmetry_space_group_name_H-M   'P 1'
_cell_length_a   9.64502100
_cell_length_b   14.18969077
_cell_length_c   16.60150171
_cell_angle_alpha   98.30651873
_cell_angle_beta   106.01516239
_cell_angle_gamma   89.64998526
_symmetry_Int_Tables_number   1
_chemical_formula_structural   Os2C6SeO6
_chemical_formula_sum   'Os16 C48 Se8 O48'
_cell_volume   2159.62562340
_cell_formula_units_Z   8
loop_
 _symmetry_equiv_pos_site_id
 _symmetry_equiv_pos_as_xyz
  1  'x, y, z'
loop_
 _atom_site_type_symbol
 _atom_site_label
 _atom_site_symmetry_multiplicity
 _atom_site_fract_x
 _atom_site_fract_y
 _atom_site_fract_z
 _atom_site_occupancy
  Os  Os0  1  0.96643500  0.65830800  0.14402900  1
  Os  Os1  1  0.03356500  0.34169200  0.85597100  1
  Os  Os2  1  0.54303200  0.13371400  0.30003700  1
  Os  Os3  1  0.14690500  0.56029100  0.29330200  1
  Os  Os4  1  0.84407300  0.49066500  0.19368200  1
  Os  Os5  1  0.89572600  0.64592400  0.34982700  1
  Os  Os6  1  0.15592700  0.50933500  0.80631800  1
  Os  Os7  1  0.45696800  0.86628600  0.69996300  1
  Os  Os8  1  0.25889700  0.07998500  0.33203400  1
  Os  Os9  1  0.71738400  0.92367500  0.84672300  1
  Os  Os10  1  0.85309500  0.43970900  0.70669800  1
  Os  Os11  1  0.74110300  0.92001500  0.66796600  1
  Os  Os12  1  0.49560500  0.92459800  0.23497300  1
  Os  Os13  1  0.50439500  0.07540200  0.76502700  1
  Os  Os14  1  0.10427400  0.35407600  0.65017300  1
  Os  Os15  1  0.28261600  0.07632500  0.15327700  1
  C  C16  1  0.29215900  0.60132600  0.39493700  1
  C  C17  1  0.50751300  0.19299900  0.72389200  1
  C  C18  1  0.49883800  0.26269700  0.32608500  1
  C  C19  1  0.87572400  0.57945100  0.03927600  1
  C  C20  1  0.68909200  0.81154400  0.58181200  1
  C  C21  1  0.09327300  0.22565200  0.89616800  1
  C  C22  1  0.70784100  0.39867400  0.60506300  1
  C  C23  1  0.82888500  0.98961200  0.60411600  1
  C  C24  1  0.29177800  0.52987000  0.23729300  1
  C  C25  1  0.14840900  0.23186400  0.60228300  1
  C  C26  1  0.68011900  0.96906000  0.95137600  1
  C  C27  1  0.74117000  0.57834700  0.37104900  1
  C  C28  1  0.80006900  0.40645300  0.26177600  1
  C  C29  1  0.08441300  0.13794600  0.27983000  1
  C  C30  1  0.32931900  0.54876000  0.89243400  1
  C  C31  1  0.52459800  0.13165200  0.87990000  1
  C  C32  1  0.73012800  0.15038500  0.37699100  1
  C  C33  1  0.91475900  0.91430500  0.90227100  1
  C  C34  1  0.85334800  0.33575800  0.88242800  1
  C  C35  1  0.60797200  0.15881600  0.20702100  1
  C  C36  1  0.69900000  0.93988300  0.25259400  1
  C  C37  1  0.49248700  0.80700100  0.27610800  1
  C  C38  1  0.86113200  0.56558900  0.68145800  1
  C  C39  1  0.67665700  0.79532800  0.85734800  1
  C  C40  1  0.90672700  0.77434800  0.10383200  1
  C  C41  1  0.14665200  0.66424200  0.11757200  1
  C  C42  1  0.50116200  0.73730300  0.67391500  1
  C  C43  1  0.30100000  0.06011700  0.74740600  1
  C  C44  1  0.19993100  0.59354700  0.73822400  1
  C  C45  1  0.97613400  0.38354600  0.54736600  1
  C  C46  1  0.95687200  0.39876600  0.14831300  1
  C  C47  1  0.25883000  0.42165300  0.62895100  1
  C  C48  1  0.67068100  0.45124000  0.10756600  1
  C  C49  1  0.17111500  0.01038800  0.39588400  1
  C  C50  1  0.85159100  0.76813600  0.39771700  1
  C  C51  1  0.12427600  0.42054900  0.96072400  1
  C  C52  1  0.02386600  0.61645400  0.45263400  1
  C  C53  1  0.26987200  0.84961500  0.62300900  1
  C  C54  1  0.32334300  0.20467200  0.14265200  1
  C  C55  1  0.47540200  0.86834800  0.12010000  1
  C  C56  1  0.31090800  0.18845600  0.41818800  1
  C  C57  1  0.70822200  0.47013000  0.76270700  1
  C  C58  1  0.39202800  0.84118400  0.79297900  1
  C  C59  1  0.08524100  0.08569500  0.09772900  1
  C  C60  1  0.04312800  0.60123400  0.85168700  1
  C  C61  1  0.13886800  0.43441100  0.31854200  1
  C  C62  1  0.91558700  0.86205400  0.72017000  1
  C  C63  1  0.31988100  0.03094000  0.04862400  1
  Se  Se64  1  0.91360200  0.26423500  0.70060800  1
  Se  Se65  1  0.78174500  0.06730900  0.78713900  1
  Se  Se66  1  0.50824100  0.00711100  0.38815100  1
  Se  Se67  1  0.26346800  0.34476900  0.80285200  1
  Se  Se68  1  0.73653200  0.65523100  0.19714800  1
  Se  Se69  1  0.49175900  0.99288900  0.61184900  1
  Se  Se70  1  0.08639800  0.73576500  0.29939200  1
  Se  Se71  1  0.21825500  0.93269100  0.21286100  1
  O  O72  1  0.48822800  0.73667700  0.30373100  1
  O  O73  1  0.46795000  0.82761700  0.05304200  1
  O  O74  1  0.25340300  0.67486600  0.09985800  1
  O  O75  1  0.09553500  0.59878500  0.51709400  1
  O  O76  1  0.34442500  0.82503600  0.84692800  1
  O  O77  1  0.82296500  0.94504900  0.26161900  1
  O  O78  1  0.96486600  0.09261700  0.06134800  1
  O  O79  1  0.17061200  0.15586800  0.57314000  1
  O  O80  1  0.98453300  0.65997300  0.88535600  1
  O  O81  1  0.35298900  0.45920000  0.61397100  1
  O  O82  1  0.47243100  0.34227400  0.34065000  1
  O  O83  1  0.13381800  0.15578400  0.92211300  1
  O  O84  1  0.11571400  0.96876500  0.43432900  1
  O  O85  1  0.52756900  0.65772600  0.65935000  1
  O  O86  1  0.84561600  0.16168500  0.42341900  1
  O  O87  1  0.14158500  0.36076600  0.34194100  1
  O  O88  1  0.22471300  0.64882900  0.69828200  1
  O  O89  1  0.65557500  0.17496400  0.15307200  1
  O  O90  1  0.61866400  0.37431700  0.54251800  1
  O  O91  1  0.34338100  0.00585600  0.98409000  1
  O  O92  1  0.85841500  0.63923400  0.65805900  1
  O  O93  1  0.43477400  0.57739200  0.94344900  1
  O  O94  1  0.56522600  0.42260800  0.05655100  1
  O  O95  1  0.17703500  0.05495100  0.73838100  1
  O  O96  1  0.53205000  0.17238300  0.94695800  1
  O  O97  1  0.17790600  0.46371900  0.02706200  1
  O  O98  1  0.86618200  0.84421600  0.07788700  1
  O  O99  1  0.01546700  0.34002700  0.11464400  1
  O  O100  1  0.82938800  0.84413200  0.42686000  1
  O  O101  1  0.90446500  0.40121500  0.48290600  1
  O  O102  1  0.65661900  0.99414400  0.01591000  1
  O  O103  1  0.82209400  0.53628100  0.97293800  1
  O  O104  1  0.33815800  0.25320600  0.47207400  1
  O  O105  1  0.64701100  0.54080000  0.38602900  1
  O  O106  1  0.66213800  0.71725700  0.86831400  1
  O  O107  1  0.38386100  0.50985900  0.20597100  1
  O  O108  1  0.61613900  0.49014100  0.79402900  1
  O  O109  1  0.51177200  0.26332300  0.69626900  1
  O  O110  1  0.74659700  0.32513400  0.90014200  1
  O  O111  1  0.15438400  0.83831500  0.57658100  1
  O  O112  1  0.66184200  0.74679400  0.52792600  1
  O  O113  1  0.03513400  0.90738300  0.93865200  1
  O  O114  1  0.38133600  0.62568300  0.45748200  1
  O  O115  1  0.02572400  0.82791000  0.74635000  1
  O  O116  1  0.33786200  0.28274300  0.13168600  1
  O  O117  1  0.77528700  0.35117100  0.30171800  1
  O  O118  1  0.97427600  0.17209000  0.25365000  1
  O  O119  1  0.88428600  0.03123500  0.56567100  1
