# generated using pymatgen
data_Fe4As5O13
_symmetry_space_group_name_H-M   'P 1'
_cell_length_a   9.07158700
_cell_length_b   9.22726152
_cell_length_c   9.29287555
_cell_angle_alpha   94.27196612
_cell_angle_beta   116.37721549
_cell_angle_gamma   111.76157021
_symmetry_Int_Tables_number   1
_chemical_formula_structural   Fe4As5O13
_chemical_formula_sum   'Fe8 As10 O26'
_cell_volume   619.89638459
_cell_formula_units_Z   2
loop_
 _symmetry_equiv_pos_site_id
 _symmetry_equiv_pos_as_xyz
  1  'x, y, z'
loop_
 _atom_site_type_symbol
 _atom_site_label
 _atom_site_symmetry_multiplicity
 _atom_site_fract_x
 _atom_site_fract_y
 _atom_site_fract_z
 _atom_site_occupancy
  Fe  Fe0  1  0.99741700  0.49967100  0.00065900  1
  Fe  Fe1  1  0.00008700  0.49985000  0.50018000  1
  Fe  Fe2  1  0.73971300  0.30615900  0.61810800  1
  Fe  Fe3  1  0.25717600  0.69320800  0.38149800  1
  Fe  Fe4  1  0.34961900  0.88189900  0.79957600  1
  Fe  Fe5  1  0.65115900  0.12079400  0.19681700  1
  Fe  Fe6  1  0.46870700  0.72347900  0.10813400  1
  Fe  Fe7  1  0.53095100  0.27799700  0.89381900  1
  As  As8  1  0.10016300  0.29281600  0.30403800  1
  As  As9  1  0.90126600  0.70636100  0.69574400  1
  As  As10  1  0.16203500  0.33760900  0.83510900  1
  As  As11  1  0.84292200  0.66794600  0.16633000  1
  As  As12  1  0.21077800  0.93161200  0.09584900  1
  As  As13  1  0.79018400  0.06805100  0.90511400  1
  As  As14  1  0.52560500  0.40776400  0.26031700  1
  As  As15  1  0.47270100  0.59205300  0.74318900  1
  As  As16  1  0.69662800  0.94583500  0.45572700  1
  As  As17  1  0.30191500  0.05232600  0.53965800  1
  O  O18  1  0.09799400  0.70987700  0.68926500  1
  O  O19  1  0.90384300  0.28898400  0.31205800  1
  O  O20  1  0.62504700  0.08629200  0.96095300  1
  O  O21  1  0.37549800  0.90325900  0.04154900  1
  O  O22  1  0.00854100  0.65722000  0.35600300  1
  O  O23  1  0.99241000  0.34551600  0.64743900  1
  O  O24  1  0.47754800  0.76060800  0.34446600  1
  O  O25  1  0.51570700  0.23571700  0.63659100  1
  O  O26  1  0.27379000  0.56696900  0.55363700  1
  O  O27  1  0.72843300  0.43784700  0.44913700  1
  O  O28  1  0.86646800  0.26200000  0.85773000  1
  O  O29  1  0.13278800  0.73941400  0.14490000  1
  O  O30  1  0.28525600  0.06216300  0.72852500  1
  O  O31  1  0.71053300  0.93200400  0.26439100  1
  O  O32  1  0.14031200  0.46665900  0.22171600  1
  O  O33  1  0.86099900  0.53396800  0.77932400  1
  O  O34  1  0.78093300  0.48057600  0.02904100  1
  O  O35  1  0.22817300  0.52877300  0.97913700  1
  O  O36  1  0.62135800  0.10375900  0.41537800  1
  O  O37  1  0.38222500  0.89426000  0.58360300  1
  O  O38  1  0.36557100  0.41167600  0.79965600  1
  O  O39  1  0.62494300  0.58958500  0.19213000  1
  O  O40  1  0.48018600  0.74073200  0.89068600  1
  O  O41  1  0.51891900  0.25633900  0.12199600  1
  O  O42  1  0.01865600  0.87557400  0.88816600  1
  O  O43  1  0.98484600  0.12479600  0.11265800  1
