# generated using pymatgen
data_FePH5CO8
_symmetry_space_group_name_H-M   'P 1'
_cell_length_a   7.74143030
_cell_length_b   10.62090600
_cell_length_c   10.08079115
_cell_angle_alpha   90.00000000
_cell_angle_beta   103.34910399
_cell_angle_gamma   90.00000000
_symmetry_Int_Tables_number   1
_chemical_formula_structural   FePH5CO8
_chemical_formula_sum   'Fe4 P4 H20 C4 O32'
_cell_volume   806.45828794
_cell_formula_units_Z   4
loop_
 _symmetry_equiv_pos_site_id
 _symmetry_equiv_pos_as_xyz
  1  'x, y, z'
loop_
 _atom_site_type_symbol
 _atom_site_label
 _atom_site_symmetry_multiplicity
 _atom_site_fract_x
 _atom_site_fract_y
 _atom_site_fract_z
 _atom_site_occupancy
  Fe  Fe0  1  0.38296600  0.87364600  0.12646400  1
  Fe  Fe1  1  0.61703400  0.37364600  0.37353600  1
  Fe  Fe2  1  0.38296600  0.62635400  0.62646400  1
  Fe  Fe3  1  0.61703400  0.12635400  0.87353600  1
  P  P4  1  0.50220000  0.81053500  0.85000900  1
  P  P5  1  0.49780000  0.18946500  0.14999100  1
  P  P6  1  0.50220000  0.68946500  0.35000900  1
  P  P7  1  0.49780000  0.31053500  0.64999100  1
  H  H8  1  0.95360500  0.31343400  0.34336400  1
  H  H9  1  0.53699600  0.09080200  0.35622400  1
  H  H10  1  0.04639500  0.81343400  0.15663600  1
  H  H11  1  0.32725100  0.11337500  0.63834600  1
  H  H12  1  0.81417700  0.07037300  0.11967400  1
  H  H13  1  0.32725100  0.38662500  0.13834600  1
  H  H14  1  0.16137400  0.48129300  0.90503500  1
  H  H15  1  0.46300400  0.90919800  0.64377600  1
  H  H16  1  0.18582300  0.57037300  0.38032600  1
  H  H17  1  0.16137400  0.01870700  0.40503500  1
  H  H18  1  0.46300400  0.59080200  0.14377600  1
  H  H19  1  0.83862600  0.51870700  0.09496500  1
  H  H20  1  0.18582300  0.92962700  0.88032600  1
  H  H21  1  0.67274900  0.88662500  0.36165400  1
  H  H22  1  0.95360500  0.18656600  0.84336400  1
  H  H23  1  0.53699600  0.40919800  0.85622400  1
  H  H24  1  0.67274900  0.61337500  0.86165400  1
  H  H25  1  0.81417700  0.42962700  0.61967400  1
  H  H26  1  0.04639500  0.68656600  0.65663600  1
  H  H27  1  0.83862600  0.98129300  0.59496500  1
  C  C28  1  0.00377500  0.02895600  0.94016800  1
  C  C29  1  0.99622500  0.97104400  0.05983200  1
  C  C30  1  0.00377500  0.47104400  0.44016800  1
  C  C31  1  0.99622500  0.52895600  0.55983200  1
  O  O32  1  0.78773900  0.65472600  0.90848700  1
  O  O33  1  0.90173600  0.13549700  0.90551600  1
  O  O34  1  0.64668400  0.32630100  0.56584800  1
  O  O35  1  0.28470500  0.21903600  0.07302700  1
  O  O36  1  0.43011200  0.04203200  0.12911900  1
  O  O37  1  0.43011200  0.45796800  0.62911900  1
  O  O38  1  0.46108700  0.84128500  0.31599600  1
  O  O39  1  0.71529500  0.71903600  0.42697300  1
  O  O40  1  0.28470500  0.28096400  0.57302700  1
  O  O41  1  0.71529500  0.78096400  0.92697300  1
  O  O42  1  0.53891300  0.34128500  0.18400400  1
  O  O43  1  0.08946300  0.99318000  0.84660200  1
  O  O44  1  0.64668400  0.17369900  0.06584800  1
  O  O45  1  0.57285100  0.16895600  0.31919900  1
  O  O46  1  0.57285100  0.33104400  0.81919900  1
  O  O47  1  0.42714900  0.66895600  0.18080100  1
  O  O48  1  0.42714900  0.83104400  0.68080100  1
  O  O49  1  0.08946300  0.50682000  0.34660200  1
  O  O50  1  0.21226100  0.34527400  0.09151300  1
  O  O51  1  0.09826400  0.86450300  0.09448400  1
  O  O52  1  0.91053700  0.49318000  0.65339800  1
  O  O53  1  0.53891300  0.15871500  0.68400400  1
  O  O54  1  0.35331600  0.67369900  0.43415200  1
  O  O55  1  0.90173600  0.36450300  0.40551600  1
  O  O56  1  0.46108700  0.65871500  0.81599600  1
  O  O57  1  0.09826400  0.63549700  0.59448400  1
  O  O58  1  0.21226100  0.15472600  0.59151300  1
  O  O59  1  0.35331600  0.82630100  0.93415200  1
  O  O60  1  0.56988800  0.54203200  0.37088100  1
  O  O61  1  0.91053700  0.00682000  0.15339800  1
  O  O62  1  0.56988800  0.95796800  0.87088100  1
  O  O63  1  0.78773900  0.84527400  0.40848700  1
