# generated using pymatgen
data_CaMgB2O5
_symmetry_space_group_name_H-M   'P 1'
_cell_length_a   11.21884300
_cell_length_b   5.57114000
_cell_length_c   12.40379816
_cell_angle_alpha   78.26349421
_cell_angle_beta   90.00000000
_cell_angle_gamma   90.00000000
_symmetry_Int_Tables_number   1
_chemical_formula_structural   CaMgB2O5
_chemical_formula_sum   'Ca8 Mg8 B16 O40'
_cell_volume   759.05100450
_cell_formula_units_Z   8
loop_
 _symmetry_equiv_pos_site_id
 _symmetry_equiv_pos_as_xyz
  1  'x, y, z'
loop_
 _atom_site_type_symbol
 _atom_site_label
 _atom_site_symmetry_multiplicity
 _atom_site_fract_x
 _atom_site_fract_y
 _atom_site_fract_z
 _atom_site_occupancy
  Ca  Ca0  1  0.61942100  0.37050000  0.59205700  1
  Ca  Ca1  1  0.11942100  0.12950000  0.40794300  1
  Ca  Ca2  1  0.38057900  0.62950000  0.40794300  1
  Ca  Ca3  1  0.88057900  0.87050000  0.59205700  1
  Ca  Ca4  1  0.37230600  0.65160800  0.91099400  1
  Ca  Ca5  1  0.87230600  0.84839200  0.08900600  1
  Ca  Ca6  1  0.62769400  0.34839200  0.08900600  1
  Ca  Ca7  1  0.12769400  0.15160800  0.91099400  1
  Mg  Mg8  1  0.37296900  0.25527000  0.73648500  1
  Mg  Mg9  1  0.87296900  0.24473000  0.26351500  1
  Mg  Mg10  1  0.62703100  0.74473000  0.26351500  1
  Mg  Mg11  1  0.12703100  0.75527000  0.73648500  1
  Mg  Mg12  1  0.62729800  0.74814600  0.76221300  1
  Mg  Mg13  1  0.12729800  0.75185400  0.23778700  1
  Mg  Mg14  1  0.37270200  0.25185400  0.23778700  1
  Mg  Mg15  1  0.87270200  0.24814600  0.76221300  1
  B  B16  1  0.61944500  0.85265900  0.98857100  1
  B  B17  1  0.37585700  0.12854900  0.50941300  1
  B  B18  1  0.87585700  0.37145100  0.49058700  1
  B  B19  1  0.62414300  0.87145100  0.49058700  1
  B  B20  1  0.12414300  0.62854900  0.50941300  1
  B  B21  1  0.11944500  0.64734100  0.01142900  1
  B  B22  1  0.38055500  0.14734100  0.01142900  1
  B  B23  1  0.88055500  0.35265900  0.98857100  1
  B  B24  1  0.38237800  0.79188900  0.67355100  1
  B  B25  1  0.88237800  0.70811100  0.32644900  1
  B  B26  1  0.61762200  0.20811100  0.32644900  1
  B  B27  1  0.11762200  0.29188900  0.67355100  1
  B  B28  1  0.62537400  0.20168000  0.82564600  1
  B  B29  1  0.12537400  0.29832000  0.17435400  1
  B  B30  1  0.37462600  0.79832000  0.17435400  1
  B  B31  1  0.87462600  0.70168000  0.82564600  1
  O  O32  1  0.66881100  0.81242900  0.59511700  1
  O  O33  1  0.41909300  0.31372700  0.07033100  1
  O  O34  1  0.08090700  0.81372700  0.07033100  1
  O  O35  1  0.58090700  0.68627300  0.92966900  1
  O  O36  1  0.09275300  0.80326000  0.56716300  1
  O  O37  1  0.59275300  0.69674000  0.43283700  1
  O  O38  1  0.90724700  0.19674000  0.43283700  1
  O  O39  1  0.40724700  0.30326000  0.56716300  1
  O  O40  1  0.15793300  0.71645400  0.90493900  1
  O  O41  1  0.65793300  0.78354600  0.09506100  1
  O  O42  1  0.84206700  0.28354600  0.09506100  1
  O  O43  1  0.91909300  0.18627300  0.92966900  1
  O  O44  1  0.34206700  0.21645400  0.90493900  1
  O  O45  1  0.83118900  0.31242900  0.59511700  1
  O  O46  1  0.33118900  0.18757100  0.40488300  1
  O  O47  1  0.16881100  0.68757100  0.40488300  1
  O  O48  1  0.80204100  0.89407900  0.78158600  1
  O  O49  1  0.30204100  0.60592100  0.21841400  1
  O  O50  1  0.19795900  0.10592100  0.21841400  1
  O  O51  1  0.69795900  0.39407900  0.78158600  1
  O  O52  1  0.19580200  0.40501100  0.73236200  1
  O  O53  1  0.69580200  0.09498900  0.26763800  1
  O  O54  1  0.80419800  0.59498900  0.26763800  1
  O  O55  1  0.30419800  0.90501100  0.73236200  1
  O  O56  1  0.94913800  0.59905500  0.75952700  1
  O  O57  1  0.44913800  0.90094500  0.24047300  1
  O  O58  1  0.05086200  0.40094500  0.24047300  1
  O  O59  1  0.55086200  0.09905500  0.75952700  1
  O  O60  1  0.04564000  0.10403600  0.72595900  1
  O  O61  1  0.54564000  0.39596400  0.27404100  1
  O  O62  1  0.95436000  0.89596400  0.27404100  1
  O  O63  1  0.45436000  0.60403600  0.72595900  1
  O  O64  1  0.87039000  0.60794900  0.94152200  1
  O  O65  1  0.37039000  0.89205100  0.05847800  1
  O  O66  1  0.12961000  0.39205100  0.05847800  1
  O  O67  1  0.62961000  0.10794900  0.94152200  1
  O  O68  1  0.11180400  0.37356500  0.55762600  1
  O  O69  1  0.61180400  0.12643500  0.44237400  1
  O  O70  1  0.38819600  0.87356500  0.55762600  1
  O  O71  1  0.88819600  0.62643500  0.44237400  1
