# generated using pymatgen
data_MgSiO3
_symmetry_space_group_name_H-M   'P 1'
_cell_length_a   5.09514300
_cell_length_b   8.53416400
_cell_length_c   9.56205200
_cell_angle_alpha   90.00000000
_cell_angle_beta   90.00000000
_cell_angle_gamma   90.00000000
_symmetry_Int_Tables_number   1
_chemical_formula_structural   MgSiO3
_chemical_formula_sum   'Mg8 Si8 O24'
_cell_volume   415.78466051
_cell_formula_units_Z   8
loop_
 _symmetry_equiv_pos_site_id
 _symmetry_equiv_pos_as_xyz
  1  'x, y, z'
loop_
 _atom_site_type_symbol
 _atom_site_label
 _atom_site_symmetry_multiplicity
 _atom_site_fract_x
 _atom_site_fract_y
 _atom_site_fract_z
 _atom_site_occupancy
  Mg  Mg0  1  0.92944200  0.88194400  0.71115900  1
  Mg  Mg1  1  0.83656200  0.64360700  0.51641900  1
  Mg  Mg2  1  0.07055800  0.11805600  0.21115900  1
  Mg  Mg3  1  0.57055800  0.38194400  0.21115900  1
  Mg  Mg4  1  0.16343800  0.35639300  0.01641900  1
  Mg  Mg5  1  0.66343800  0.14360700  0.01641900  1
  Mg  Mg6  1  0.42944200  0.61805600  0.71115900  1
  Mg  Mg7  1  0.33656200  0.85639300  0.51641900  1
  Si  Si8  1  0.80996900  0.34070500  0.75308300  1
  Si  Si9  1  0.69003100  0.84070500  0.25308300  1
  Si  Si10  1  0.30996900  0.15929500  0.75308300  1
  Si  Si11  1  0.19003100  0.65929500  0.25308300  1
  Si  Si12  1  0.65554400  0.15254200  0.46889900  1
  Si  Si13  1  0.84445600  0.65254200  0.96889900  1
  Si  Si14  1  0.15554400  0.34745800  0.46889900  1
  Si  Si15  1  0.34445600  0.84745800  0.96889900  1
  O  O16  1  0.36953500  0.20702900  0.12772200  1
  O  O17  1  0.07400000  0.50709000  0.38589700  1
  O  O18  1  0.92600000  0.49291000  0.88589700  1
  O  O19  1  0.13046500  0.70702900  0.62772200  1
  O  O20  1  0.98771300  0.79376600  0.34401700  1
  O  O21  1  0.63046500  0.79297100  0.62772200  1
  O  O22  1  0.57400000  0.99291000  0.38589700  1
  O  O23  1  0.48771300  0.70623400  0.34401700  1
  O  O24  1  0.45286200  0.29555400  0.41229300  1
  O  O25  1  0.84846700  0.65765300  0.14068200  1
  O  O26  1  0.04713800  0.79555400  0.91229300  1
  O  O27  1  0.01228700  0.20623400  0.84401700  1
  O  O28  1  0.95286200  0.20444600  0.41229300  1
  O  O29  1  0.54713800  0.70444600  0.91229300  1
  O  O30  1  0.19149100  0.03255900  0.63982900  1
  O  O31  1  0.34846700  0.84234700  0.14068200  1
  O  O32  1  0.86953500  0.29297100  0.12772200  1
  O  O33  1  0.42600000  0.00709000  0.88589700  1
  O  O34  1  0.80850900  0.96744100  0.13982900  1
  O  O35  1  0.65153300  0.15765300  0.64068200  1
  O  O36  1  0.51228700  0.29376600  0.84401700  1
  O  O37  1  0.30850900  0.53255900  0.13982900  1
  O  O38  1  0.15153300  0.34234700  0.64068200  1
  O  O39  1  0.69149100  0.46744100  0.63982900  1
