# generated using pymatgen
data_CuH2(CO2)2
_symmetry_space_group_name_H-M   'P 1'
_cell_length_a   6.39311600
_cell_length_b   9.63702100
_cell_length_c   14.00743300
_cell_angle_alpha   90.00000000
_cell_angle_beta   90.00000000
_cell_angle_gamma   90.00000000
_symmetry_Int_Tables_number   1
_chemical_formula_structural   CuH2(CO2)2
_chemical_formula_sum   'Cu8 H16 C16 O32'
_cell_volume   863.00625560
_cell_formula_units_Z   8
loop_
 _symmetry_equiv_pos_site_id
 _symmetry_equiv_pos_as_xyz
  1  'x, y, z'
loop_
 _atom_site_type_symbol
 _atom_site_label
 _atom_site_symmetry_multiplicity
 _atom_site_fract_x
 _atom_site_fract_y
 _atom_site_fract_z
 _atom_site_occupancy
  Cu  Cu0  1  0.80138100  0.85649100  0.60334900  1
  Cu  Cu1  1  0.80138100  0.35649100  0.89665100  1
  Cu  Cu2  1  0.69861900  0.85649100  0.10334900  1
  Cu  Cu3  1  0.30138100  0.14350900  0.89665100  1
  Cu  Cu4  1  0.30138100  0.64350900  0.60334900  1
  Cu  Cu5  1  0.69861900  0.35649100  0.39665100  1
  Cu  Cu6  1  0.19861900  0.14350900  0.39665100  1
  Cu  Cu7  1  0.19861900  0.64350900  0.10334900  1
  H  H8  1  0.36584300  0.81885100  0.24772700  1
  H  H9  1  0.36584300  0.31885100  0.25227300  1
  H  H10  1  0.86584300  0.68114900  0.24772700  1
  H  H11  1  0.63415700  0.68114900  0.74772700  1
  H  H12  1  0.13415700  0.81885100  0.74772700  1
  H  H13  1  0.63415700  0.18114900  0.75227300  1
  H  H14  1  0.71016200  0.69520300  0.41868500  1
  H  H15  1  0.78983800  0.69520300  0.91868500  1
  H  H16  1  0.71016200  0.19520300  0.08131500  1
  H  H17  1  0.86584300  0.18114900  0.25227300  1
  H  H18  1  0.28983800  0.80479700  0.91868500  1
  H  H19  1  0.21016200  0.30479700  0.08131500  1
  H  H20  1  0.28983800  0.30479700  0.58131500  1
  H  H21  1  0.21016200  0.80479700  0.41868500  1
  H  H22  1  0.13415700  0.31885100  0.75227300  1
  H  H23  1  0.78983800  0.19520300  0.58131500  1
  C  C24  1  0.30458300  0.62118600  0.23025200  1
  C  C25  1  0.80458300  0.87881400  0.23025200  1
  C  C26  1  0.18571400  0.86430700  0.48550900  1
  C  C27  1  0.19541700  0.62118600  0.73025200  1
  C  C28  1  0.80458300  0.37881400  0.26974800  1
  C  C29  1  0.69541700  0.87881400  0.73025200  1
  C  C30  1  0.30458300  0.12118600  0.26974800  1
  C  C31  1  0.18571400  0.36430700  0.01449100  1
  C  C32  1  0.68571400  0.13569300  0.01449100  1
  C  C33  1  0.68571400  0.63569300  0.48550900  1
  C  C34  1  0.81428600  0.63569300  0.98550900  1
  C  C35  1  0.81428600  0.13569300  0.51449100  1
  C  C36  1  0.31428600  0.36430700  0.51449100  1
  C  C37  1  0.69541700  0.37881400  0.76974800  1
  C  C38  1  0.31428600  0.86430700  0.98550900  1
  C  C39  1  0.19541700  0.12118600  0.76974800  1
  O  O40  1  0.39349300  0.22691700  0.22247000  1
  O  O41  1  0.39349300  0.72691700  0.27753000  1
  O  O42  1  0.75980700  0.01131100  0.51005700  1
  O  O43  1  0.75980700  0.51131100  0.98994300  1
  O  O44  1  0.90144400  0.70296400  0.05603400  1
  O  O45  1  0.80190200  0.49484300  0.23397100  1
  O  O46  1  0.25980700  0.98868900  0.98994300  1
  O  O47  1  0.09855600  0.79703600  0.55603400  1
  O  O48  1  0.19809800  0.00515700  0.73397100  1
  O  O49  1  0.40144400  0.29703600  0.44396600  1
  O  O50  1  0.59855600  0.20296400  0.94396600  1
  O  O51  1  0.60650700  0.27308300  0.72247000  1
  O  O52  1  0.24019300  0.48868900  0.01005700  1
  O  O53  1  0.60650700  0.77308300  0.77753000  1
  O  O54  1  0.69809800  0.99484300  0.76602900  1
  O  O55  1  0.80190200  0.99484300  0.26602900  1
  O  O56  1  0.09855600  0.29703600  0.94396600  1
  O  O57  1  0.10650700  0.72691700  0.77753000  1
  O  O58  1  0.19809800  0.50515700  0.76602900  1
  O  O59  1  0.24019300  0.98868900  0.48994300  1
  O  O60  1  0.59855600  0.70296400  0.55603400  1
  O  O61  1  0.74019300  0.51131100  0.48994300  1
  O  O62  1  0.30190200  0.50515700  0.26602900  1
  O  O63  1  0.40144400  0.79703600  0.05603400  1
  O  O64  1  0.25980700  0.48868900  0.51005700  1
  O  O65  1  0.74019300  0.01131100  0.01005700  1
  O  O66  1  0.69809800  0.49484300  0.73397100  1
  O  O67  1  0.89349300  0.77308300  0.27753000  1
  O  O68  1  0.89349300  0.27308300  0.22247000  1
  O  O69  1  0.30190200  0.00515700  0.23397100  1
  O  O70  1  0.90144400  0.20296400  0.44396600  1
  O  O71  1  0.10650700  0.22691700  0.72247000  1
