# generated using pymatgen
data_CuS4(N2Cl)2
_symmetry_space_group_name_H-M   'P 1'
_cell_length_a   6.73238600
_cell_length_b   6.82820400
_cell_length_c   19.39860100
_cell_angle_alpha   90.00000000
_cell_angle_beta   90.00000000
_cell_angle_gamma   90.00000000
_symmetry_Int_Tables_number   1
_chemical_formula_structural   CuS4(N2Cl)2
_chemical_formula_sum   'Cu4 S16 N16 Cl8'
_cell_volume   891.75572511
_cell_formula_units_Z   4
loop_
 _symmetry_equiv_pos_site_id
 _symmetry_equiv_pos_as_xyz
  1  'x, y, z'
loop_
 _atom_site_type_symbol
 _atom_site_label
 _atom_site_symmetry_multiplicity
 _atom_site_fract_x
 _atom_site_fract_y
 _atom_site_fract_z
 _atom_site_occupancy
  Cu  Cu0  1  0.50000000  0.50000000  0.50000000  1
  Cu  Cu1  1  0.50000000  0.00000000  0.00000000  1
  Cu  Cu2  1  0.00000000  0.50000000  0.50000000  1
  Cu  Cu3  1  0.00000000  0.00000000  0.00000000  1
  S  S4  1  0.04881800  0.38264500  0.87052700  1
  S  S5  1  0.04881800  0.11735500  0.37052700  1
  S  S6  1  0.54881800  0.61735500  0.12947300  1
  S  S7  1  0.45118200  0.11735500  0.37052700  1
  S  S8  1  0.25000000  0.44474700  0.32987300  1
  S  S9  1  0.54881800  0.88264500  0.62947300  1
  S  S10  1  0.25000000  0.36797900  0.74836600  1
  S  S11  1  0.75000000  0.63202100  0.25163400  1
  S  S12  1  0.75000000  0.94474700  0.17012700  1
  S  S13  1  0.95118200  0.88264500  0.62947300  1
  S  S14  1  0.95118200  0.61735500  0.12947300  1
  S  S15  1  0.25000000  0.05525300  0.82987300  1
  S  S16  1  0.75000000  0.86797900  0.75163400  1
  S  S17  1  0.75000000  0.55525300  0.67012700  1
  S  S18  1  0.25000000  0.13202100  0.24836600  1
  S  S19  1  0.45118200  0.38264500  0.87052700  1
  N  N20  1  0.05693500  0.05235400  0.29030000  1
  N  N21  1  0.44306500  0.44764600  0.79030000  1
  N  N22  1  0.55693500  0.55235400  0.20970000  1
  N  N23  1  0.05803200  0.14509900  0.87100900  1
  N  N24  1  0.55803200  0.64509900  0.62899100  1
  N  N25  1  0.55693500  0.94764600  0.70970000  1
  N  N26  1  0.05693500  0.44764600  0.79030000  1
  N  N27  1  0.44306500  0.05235400  0.29030000  1
  N  N28  1  0.94196800  0.64509900  0.62899100  1
  N  N29  1  0.05803200  0.35490100  0.37100900  1
  N  N30  1  0.94196800  0.85490100  0.12899100  1
  N  N31  1  0.55803200  0.85490100  0.12899100  1
  N  N32  1  0.94306500  0.55235400  0.20970000  1
  N  N33  1  0.44196800  0.14509900  0.87100900  1
  N  N34  1  0.94306500  0.94764600  0.70970000  1
  N  N35  1  0.44196800  0.35490100  0.37100900  1
  Cl  Cl36  1  0.25000000  0.72514800  0.48181100  1
  Cl  Cl37  1  0.75000000  0.27485200  0.51818900  1
  Cl  Cl38  1  0.75000000  0.79595000  0.96056400  1
  Cl  Cl39  1  0.25000000  0.29595000  0.53943600  1
  Cl  Cl40  1  0.25000000  0.77485200  0.98181100  1
  Cl  Cl41  1  0.25000000  0.20405000  0.03943600  1
  Cl  Cl42  1  0.75000000  0.22514800  0.01818900  1
  Cl  Cl43  1  0.75000000  0.70405000  0.46056400  1
