# generated using pymatgen
data_OsC8I4N3OF
_symmetry_space_group_name_H-M   'P 1'
_cell_length_a   8.97580600
_cell_length_b   14.65768900
_cell_length_c   14.71404500
_cell_angle_alpha   90.00000000
_cell_angle_beta   90.00000000
_cell_angle_gamma   90.00000000
_symmetry_Int_Tables_number   1
_chemical_formula_structural   OsC8I4N3OF
_chemical_formula_sum   'Os4 C32 I16 N12 O4 F4'
_cell_volume   1935.84704565
_cell_formula_units_Z   4
loop_
 _symmetry_equiv_pos_site_id
 _symmetry_equiv_pos_as_xyz
  1  'x, y, z'
loop_
 _atom_site_type_symbol
 _atom_site_label
 _atom_site_symmetry_multiplicity
 _atom_site_fract_x
 _atom_site_fract_y
 _atom_site_fract_z
 _atom_site_occupancy
  Os  Os0  1  0.24173900  0.39657200  0.26146800  1
  Os  Os1  1  0.75826100  0.60342800  0.76146800  1
  Os  Os2  1  0.24173900  0.10342800  0.76146800  1
  Os  Os3  1  0.75826100  0.89657200  0.26146800  1
  C  C4  1  0.25377100  0.68933000  0.37095800  1
  C  C5  1  0.74622900  0.31067000  0.87095800  1
  C  C6  1  0.25377100  0.81067000  0.87095800  1
  C  C7  1  0.74622900  0.18933000  0.37095800  1
  C  C8  1  0.24510000  0.83141400  0.43658800  1
  C  C9  1  0.75490000  0.16858600  0.93658800  1
  C  C10  1  0.24510000  0.66858600  0.93658800  1
  C  C11  1  0.75490000  0.33141400  0.43658800  1
  C  C12  1  0.19377700  0.78149100  0.35376800  1
  C  C13  1  0.80622300  0.21850900  0.85376800  1
  C  C14  1  0.19377700  0.71850900  0.85376800  1
  C  C15  1  0.80622300  0.28149100  0.35376800  1
  C  C16  1  0.24166900  0.73305700  0.46171300  1
  C  C17  1  0.75833100  0.26694300  0.96171300  1
  C  C18  1  0.24166900  0.76694300  0.96171300  1
  C  C19  1  0.75833100  0.23305700  0.46171300  1
  C  C20  1  0.18894200  0.46562700  0.50136800  1
  C  C21  1  0.81105800  0.53437300  0.00136800  1
  C  C22  1  0.18894200  0.03437300  0.00136800  1
  C  C23  1  0.81105800  0.96562700  0.50136800  1
  C  C24  1  0.26592500  0.39944600  0.73357400  1
  C  C25  1  0.73407500  0.60055400  0.23357400  1
  C  C26  1  0.26592500  0.10055400  0.23357400  1
  C  C27  1  0.73407500  0.89944600  0.73357400  1
  C  C28  1  0.25863300  0.36793300  0.81366100  1
  C  C29  1  0.74136700  0.63206700  0.31366100  1
  C  C30  1  0.25863300  0.13206700  0.31366100  1
  C  C31  1  0.74136700  0.86793300  0.81366100  1
  C  C32  1  0.22751600  0.45710400  0.58208900  1
  C  C33  1  0.77248400  0.54289600  0.08208900  1
  C  C34  1  0.22751600  0.04289600  0.08208900  1
  C  C35  1  0.77248400  0.95710400  0.58208900  1
  I  I36  1  0.24875200  0.24887700  0.38193200  1
  I  I37  1  0.75124800  0.75112300  0.88193200  1
  I  I38  1  0.24875200  0.25112300  0.88193200  1
  I  I39  1  0.75124800  0.74887700  0.38193200  1
  I  I40  1  0.07840600  0.49523900  0.39014900  1
  I  I41  1  0.92159400  0.50476100  0.89014900  1
  I  I42  1  0.07840600  0.00476100  0.89014900  1
  I  I43  1  0.92159400  0.99523900  0.39014900  1
  I  I44  1  0.43510900  0.31714800  0.14686400  1
  I  I45  1  0.56489100  0.68285200  0.64686400  1
  I  I46  1  0.43510900  0.18285200  0.64686400  1
  I  I47  1  0.56489100  0.81714800  0.14686400  1
  I  I48  1  0.25904400  0.55671000  0.17293600  1
  I  I49  1  0.74095600  0.44329000  0.67293600  1
  I  I50  1  0.25904400  0.94329000  0.67293600  1
  I  I51  1  0.74095600  0.05671000  0.17293600  1
  N  N52  1  0.09002800  0.35775100  0.19662900  1
  N  N53  1  0.90997200  0.64224900  0.69662900  1
  N  N54  1  0.09002800  0.14224900  0.69662900  1
  N  N55  1  0.90997200  0.85775100  0.19662900  1
  N  N56  1  0.36627800  0.77042200  0.38837400  1
  N  N57  1  0.63372200  0.22957800  0.88837400  1
  N  N58  1  0.36627800  0.72957800  0.88837400  1
  N  N59  1  0.63372200  0.27042200  0.38837400  1
  N  N60  1  0.26238500  0.44977400  0.66477800  1
  N  N61  1  0.73761500  0.55022600  0.16477800  1
  N  N62  1  0.26238500  0.05022600  0.16477800  1
  N  N63  1  0.73761500  0.94977400  0.66477800  1
  O  O64  1  0.99385000  0.33028100  0.14969100  1
  O  O65  1  0.00615000  0.66971900  0.64969100  1
  O  O66  1  0.99385000  0.16971900  0.64969100  1
  O  O67  1  0.00615000  0.83028100  0.14969100  1
  F  F68  1  0.40839000  0.43441400  0.33725800  1
  F  F69  1  0.59161000  0.56558600  0.83725800  1
  F  F70  1  0.40839000  0.06558600  0.83725800  1
  F  F71  1  0.59161000  0.93441400  0.33725800  1
