# generated using pymatgen
data_Ba2Fe2O5
_symmetry_space_group_name_H-M   'P 1'
_cell_length_a   11.66751500
_cell_length_b   7.18771200
_cell_length_c   23.63633474
_cell_angle_alpha   83.18396533
_cell_angle_beta   90.00000000
_cell_angle_gamma   90.00000000
_symmetry_Int_Tables_number   1
_chemical_formula_structural   Ba2Fe2O5
_chemical_formula_sum   'Ba28 Fe28 O70'
_cell_volume   1968.19815359
_cell_formula_units_Z   14
loop_
 _symmetry_equiv_pos_site_id
 _symmetry_equiv_pos_as_xyz
  1  'x, y, z'
loop_
 _atom_site_type_symbol
 _atom_site_label
 _atom_site_symmetry_multiplicity
 _atom_site_fract_x
 _atom_site_fract_y
 _atom_site_fract_z
 _atom_site_occupancy
  Ba  Ba0  1  0.11671500  0.32207700  0.03422600  1
  Ba  Ba1  1  0.63542000  0.31542700  0.03731000  1
  Ba  Ba2  1  0.38328500  0.82207700  0.53422600  1
  Ba  Ba3  1  0.13164100  0.76339900  0.75574300  1
  Ba  Ba4  1  0.88328500  0.67792300  0.96577400  1
  Ba  Ba5  1  0.36587500  0.38819100  0.81746000  1
  Ba  Ba6  1  0.64020900  0.02768600  0.89387300  1
  Ba  Ba7  1  0.63412500  0.61180900  0.18254000  1
  Ba  Ba8  1  0.85979100  0.52768600  0.39387300  1
  Ba  Ba9  1  0.11458600  0.03737100  0.89645800  1
  Ba  Ba10  1  0.38541400  0.53737100  0.39645800  1
  Ba  Ba11  1  0.63164100  0.73660100  0.74425700  1
  Ba  Ba12  1  0.13542000  0.18457300  0.46269000  1
  Ba  Ba13  1  0.86458000  0.81542700  0.53731000  1
  Ba  Ba14  1  0.61458600  0.46262900  0.60354200  1
  Ba  Ba15  1  0.86835900  0.23660100  0.24425700  1
  Ba  Ba16  1  0.88541400  0.96262900  0.10354200  1
  Ba  Ba17  1  0.86587500  0.11180900  0.68254000  1
  Ba  Ba18  1  0.36835900  0.26339900  0.25574300  1
  Ba  Ba19  1  0.36458000  0.68457300  0.96269000  1
  Ba  Ba20  1  0.13412500  0.88819100  0.31746000  1
  Ba  Ba21  1  0.35979100  0.97231400  0.10612700  1
  Ba  Ba22  1  0.62398400  0.89630300  0.32898800  1
  Ba  Ba23  1  0.87601600  0.39630300  0.82898800  1
  Ba  Ba24  1  0.12398400  0.60369700  0.17101200  1
  Ba  Ba25  1  0.14020900  0.47231400  0.60612700  1
  Ba  Ba26  1  0.61671500  0.17792300  0.46577400  1
  Ba  Ba27  1  0.37601600  0.10369700  0.67101200  1
  Fe  Fe28  1  0.62135000  0.68610900  0.46470900  1
  Fe  Fe29  1  0.63051200  0.53929700  0.90028000  1
  Fe  Fe30  1  0.86298800  0.27293700  0.53628600  1
  Fe  Fe31  1  0.09793800  0.29972200  0.75358100  1
  Fe  Fe32  1  0.61542400  0.96306700  0.60349700  1
  Fe  Fe33  1  0.59793800  0.20027800  0.74641900  1
  Fe  Fe34  1  0.13701200  0.72706300  0.46371400  1
  Fe  Fe35  1  0.10154800  0.33738700  0.31482900  1
  Fe  Fe36  1  0.13051200  0.96070300  0.59972000  1
  Fe  Fe37  1  0.11542400  0.53693300  0.89650300  1
  Fe  Fe38  1  0.39845200  0.83738700  0.81482900  1
  Fe  Fe39  1  0.88457600  0.46306700  0.10349700  1
  Fe  Fe40  1  0.38457600  0.03693300  0.39650300  1
  Fe  Fe41  1  0.36298800  0.22706300  0.96371400  1
  Fe  Fe42  1  0.87883800  0.87664800  0.82830400  1
  Fe  Fe43  1  0.62116200  0.37664800  0.32830400  1
  Fe  Fe44  1  0.89845200  0.66261300  0.68517100  1
  Fe  Fe45  1  0.12135000  0.81389100  0.03529100  1
  Fe  Fe46  1  0.87865000  0.18610900  0.96470900  1
  Fe  Fe47  1  0.40206200  0.79972200  0.25358100  1
  Fe  Fe48  1  0.36948800  0.46070300  0.09972000  1
  Fe  Fe49  1  0.60154800  0.16261300  0.18517100  1
  Fe  Fe50  1  0.12116200  0.12335200  0.17169600  1
  Fe  Fe51  1  0.86948800  0.03929700  0.40028000  1
  Fe  Fe52  1  0.37865000  0.31389100  0.53529100  1
  Fe  Fe53  1  0.90206200  0.70027800  0.24641900  1
  Fe  Fe54  1  0.37883800  0.62335200  0.67169600  1
  Fe  Fe55  1  0.63701200  0.77293700  0.03628600  1
  O  O56  1  0.23562800  0.34580600  0.71372700  1
  O  O57  1  0.62369700  0.08190700  0.67998800  1
  O  O58  1  0.63222500  0.26846300  0.25361400  1
  O  O59  1  0.50156500  0.70878800  0.07855100  1
  O  O60  1  0.25709600  0.65101000  0.07465100  1
  O  O61  1  0.73562800  0.15419400  0.78627300  1
  O  O62  1  0.52417900  0.42955400  0.72196700  1
  O  O63  1  0.75052900  0.12062200  0.57773200  1
  O  O64  1  0.12832800  0.68161000  0.96538000  1
  O  O65  1  0.24290400  0.15101000  0.57465100  1
  O  O66  1  0.49626500  0.13899500  0.57086200  1
  O  O67  1  0.24947100  0.87937800  0.42226800  1
  O  O68  1  0.49843500  0.29121200  0.92144900  1
  O  O69  1  0.13222500  0.23153700  0.24638600  1
  O  O70  1  0.39037900  0.33103400  0.03422200  1
  O  O71  1  0.23717900  0.30511600  0.35444000  1
  O  O72  1  0.75709600  0.84899000  0.42534900  1
  O  O73  1  0.50373500  0.86100500  0.42913800  1
  O  O74  1  0.02417900  0.07044600  0.77803300  1
  O  O75  1  0.25367800  0.29486300  0.14455100  1
  O  O76  1  0.76437200  0.65419400  0.28627300  1
  O  O77  1  0.75367800  0.20513700  0.35544900  1
  O  O78  1  0.12810200  0.96881000  0.10709900  1
  O  O79  1  0.99423700  0.16419900  0.35326600  1
  O  O80  1  0.52393600  0.92786600  0.20509200  1
  O  O81  1  0.47582100  0.57044600  0.27803300  1
  O  O82  1  0.62832800  0.81839000  0.53462000  1
  O  O83  1  0.10962100  0.83103400  0.53422200  1
  O  O84  1  0.87189800  0.03119000  0.89290100  1
  O  O85  1  0.00156500  0.79121200  0.42144900  1
  O  O86  1  0.60962100  0.66896600  0.96577800  1
  O  O87  1  0.00373500  0.63899500  0.07086200  1
  O  O88  1  0.37630300  0.91809300  0.32001200  1
  O  O89  1  0.12369700  0.41809300  0.82001200  1
  O  O90  1  0.00000000  0.00000000  0.00000000  1
  O  O91  1  0.76282100  0.69488400  0.64556000  1
  O  O92  1  0.24632200  0.79486300  0.64455100  1
  O  O93  1  0.71542100  0.99610800  0.01069300  1
  O  O94  1  0.26437200  0.84580600  0.21372700  1
  O  O95  1  0.86777500  0.76846300  0.75361400  1
  O  O96  1  0.37167200  0.18161000  0.46538000  1
  O  O97  1  0.99843500  0.20878800  0.57855100  1
  O  O98  1  0.99625700  0.27822200  0.14111400  1
  O  O99  1  0.74632200  0.70513700  0.85544900  1
  O  O100  1  0.37189800  0.46881000  0.60709900  1
  O  O101  1  0.28457900  0.00389200  0.98930700  1
  O  O102  1  0.99626500  0.36100500  0.92913800  1
  O  O103  1  0.50576300  0.66419900  0.85326600  1
  O  O104  1  0.21542100  0.50389200  0.48930700  1
  O  O105  1  0.49625700  0.22177800  0.35888600  1
  O  O106  1  0.62810200  0.53119000  0.39290100  1
  O  O107  1  0.50000000  0.50000000  0.50000000  1
  O  O108  1  0.00576300  0.83580100  0.64673400  1
  O  O109  1  0.50374300  0.77822200  0.64111400  1
  O  O110  1  0.97582100  0.92955400  0.22196700  1
  O  O111  1  0.25052900  0.37937800  0.92226800  1
  O  O112  1  0.73717900  0.19488400  0.14556000  1
  O  O113  1  0.97606400  0.42786600  0.70509200  1
  O  O114  1  0.87630300  0.58190700  0.17998800  1
  O  O115  1  0.49423700  0.33580100  0.14673400  1
  O  O116  1  0.02393600  0.57213400  0.29490800  1
  O  O117  1  0.00374300  0.72177800  0.85888600  1
  O  O118  1  0.74947100  0.62062200  0.07773200  1
  O  O119  1  0.26282100  0.80511600  0.85444000  1
  O  O120  1  0.47606400  0.07213400  0.79490800  1
  O  O121  1  0.78457900  0.49610800  0.51069300  1
  O  O122  1  0.74290400  0.34899000  0.92534900  1
  O  O123  1  0.89037900  0.16896600  0.46577800  1
  O  O124  1  0.87167200  0.31839000  0.03462000  1
  O  O125  1  0.36777500  0.73153700  0.74638600  1
