# generated using pymatgen
data_Ag(CO)2
_symmetry_space_group_name_H-M   'P 1'
_cell_length_a   11.11834460
_cell_length_b   11.11834460
_cell_length_c   7.54242312
_cell_angle_alpha   73.35933026
_cell_angle_beta   73.35933026
_cell_angle_gamma   39.02830097
_symmetry_Int_Tables_number   1
_chemical_formula_structural   Ag(CO)2
_chemical_formula_sum   'Ag8 C16 O16'
_cell_volume   559.36756703
_cell_formula_units_Z   8
loop_
 _symmetry_equiv_pos_site_id
 _symmetry_equiv_pos_as_xyz
  1  'x, y, z'
loop_
 _atom_site_type_symbol
 _atom_site_label
 _atom_site_symmetry_multiplicity
 _atom_site_fract_x
 _atom_site_fract_y
 _atom_site_fract_z
 _atom_site_occupancy
  Ag  Ag0  1  0.89652000  0.93146900  0.18316900  1
  Ag  Ag1  1  0.10348000  0.06853100  0.81683100  1
  Ag  Ag2  1  0.06853100  0.10348000  0.31683100  1
  Ag  Ag3  1  0.93146900  0.89652000  0.68316900  1
  Ag  Ag4  1  0.85784300  0.45734500  0.07666400  1
  Ag  Ag5  1  0.45734500  0.85784300  0.57666400  1
  Ag  Ag6  1  0.54265500  0.14215700  0.42333600  1
  Ag  Ag7  1  0.14215700  0.54265500  0.92333600  1
  C  C8  1  0.98727500  0.60643900  0.47511300  1
  C  C9  1  0.55054900  0.54678600  0.40865900  1
  C  C10  1  0.01272500  0.39356100  0.52488700  1
  C  C11  1  0.54678600  0.55054900  0.90865900  1
  C  C12  1  0.60643900  0.98727500  0.97511300  1
  C  C13  1  0.99975300  0.48973500  0.64175900  1
  C  C14  1  0.64178800  0.36428500  0.01354900  1
  C  C15  1  0.36428500  0.64178800  0.51354900  1
  C  C16  1  0.39356100  0.01272500  0.02488700  1
  C  C17  1  0.63571500  0.35821200  0.48645100  1
  C  C18  1  0.48973500  0.99975300  0.14175900  1
  C  C19  1  0.44945100  0.45321400  0.59134100  1
  C  C20  1  0.45321400  0.44945100  0.09134100  1
  C  C21  1  0.00024700  0.51026500  0.35824100  1
  C  C22  1  0.51026500  0.00024700  0.85824100  1
  C  C23  1  0.35821200  0.63571500  0.98645100  1
  O  O24  1  0.97002800  0.73668200  0.44833400  1
  O  O25  1  0.80123800  0.18629900  0.46960600  1
  O  O26  1  0.47903000  0.00089300  0.31223400  1
  O  O27  1  0.00089300  0.47903000  0.81223400  1
  O  O28  1  0.60980100  0.60539300  0.29937300  1
  O  O29  1  0.19876200  0.81370100  0.53039400  1
  O  O30  1  0.99910700  0.52097000  0.18776600  1
  O  O31  1  0.81370100  0.19876200  0.03039400  1
  O  O32  1  0.52097000  0.99910700  0.68776600  1
  O  O33  1  0.26331800  0.02997200  0.05166600  1
  O  O34  1  0.39019900  0.39460700  0.70062700  1
  O  O35  1  0.73668200  0.97002800  0.94833400  1
  O  O36  1  0.18629900  0.80123800  0.96960600  1
  O  O37  1  0.60539300  0.60980100  0.79937300  1
  O  O38  1  0.02997200  0.26331800  0.55166600  1
  O  O39  1  0.39460700  0.39019900  0.20062700  1
