# generated using pymatgen
data_Tl4Mo(CN)8
_symmetry_space_group_name_H-M   'P 1'
_cell_length_a   15.92875973
_cell_length_b   15.92875973
_cell_length_c   16.23209891
_cell_angle_alpha   60.15048961
_cell_angle_beta   60.15048961
_cell_angle_gamma   26.91613802
_symmetry_Int_Tables_number   1
_chemical_formula_structural   Tl4Mo(CN)8
_chemical_formula_sum   'Tl16 Mo4 C32 N32'
_cell_volume   1601.72739879
_cell_formula_units_Z   4
loop_
 _symmetry_equiv_pos_site_id
 _symmetry_equiv_pos_as_xyz
  1  'x, y, z'
loop_
 _atom_site_type_symbol
 _atom_site_label
 _atom_site_symmetry_multiplicity
 _atom_site_fract_x
 _atom_site_fract_y
 _atom_site_fract_z
 _atom_site_occupancy
  Tl  Tl0  1  0.67297100  0.20174600  0.36128400  1
  Tl  Tl1  1  0.97678700  0.64989200  0.58437800  1
  Tl  Tl2  1  0.20174600  0.67297100  0.86128400  1
  Tl  Tl3  1  0.03514400  0.46276000  0.11531000  1
  Tl  Tl4  1  0.19203900  0.73217700  0.51775200  1
  Tl  Tl5  1  0.79825400  0.32702900  0.13871600  1
  Tl  Tl6  1  0.02321300  0.35010800  0.41562200  1
  Tl  Tl7  1  0.26782300  0.80796100  0.98224800  1
  Tl  Tl8  1  0.73217700  0.19203900  0.01775200  1
  Tl  Tl9  1  0.96485600  0.53724000  0.88469000  1
  Tl  Tl10  1  0.32702900  0.79825400  0.63871600  1
  Tl  Tl11  1  0.35010800  0.02321300  0.91562200  1
  Tl  Tl12  1  0.64989200  0.97678700  0.08437800  1
  Tl  Tl13  1  0.46276000  0.03514400  0.61531000  1
  Tl  Tl14  1  0.53724000  0.96485600  0.38469000  1
  Tl  Tl15  1  0.80796100  0.26782300  0.48224800  1
  Mo  Mo16  1  0.61632000  0.13893100  0.76089800  1
  Mo  Mo17  1  0.13893100  0.61632000  0.26089800  1
  Mo  Mo18  1  0.38368000  0.86106900  0.23910200  1
  Mo  Mo19  1  0.86106900  0.38368000  0.73910200  1
  C  C20  1  0.39581300  0.80004700  0.13766600  1
  C  C21  1  0.57093600  0.79194600  0.11174200  1
  C  C22  1  0.98742200  0.13337600  0.79030000  1
  C  C23  1  0.98495900  0.63670200  0.26309100  1
  C  C24  1  0.62639200  0.48664000  0.81524500  1
  C  C25  1  0.28061500  0.92333300  0.38127300  1
  C  C26  1  0.36135100  0.35423800  0.21158500  1
  C  C27  1  0.36329800  0.01504100  0.23690900  1
  C  C28  1  0.17718400  0.12491500  0.14917200  1
  C  C29  1  0.19995300  0.60418700  0.36233400  1
  C  C30  1  0.51336000  0.37360800  0.68475500  1
  C  C31  1  0.37360800  0.51336000  0.18475500  1
  C  C32  1  0.01504100  0.36329800  0.73690900  1
  C  C33  1  0.01257800  0.86662400  0.20970000  1
  C  C34  1  0.13337600  0.98742200  0.29030000  1
  C  C35  1  0.48664000  0.62639200  0.31524500  1
  C  C36  1  0.20805400  0.42906400  0.38825800  1
  C  C37  1  0.71938500  0.07666700  0.61872700  1
  C  C38  1  0.79194600  0.57093600  0.61174200  1
  C  C39  1  0.86662400  0.01257800  0.70970000  1
  C  C40  1  0.92333300  0.28061500  0.88127300  1
  C  C41  1  0.64576200  0.63864900  0.28841500  1
  C  C42  1  0.12491500  0.17718400  0.64917200  1
  C  C43  1  0.87508500  0.82281600  0.35082800  1
  C  C44  1  0.63670200  0.98495900  0.76309100  1
  C  C45  1  0.42906400  0.20805400  0.88825800  1
  C  C46  1  0.35423800  0.36135100  0.71158500  1
  C  C47  1  0.07666700  0.71938500  0.11872700  1
  C  C48  1  0.60418700  0.19995300  0.86233400  1
  C  C49  1  0.80004700  0.39581300  0.63766600  1
  C  C50  1  0.82281600  0.87508500  0.85082800  1
  C  C51  1  0.63864900  0.64576200  0.78841500  1
  N  N52  1  0.67079600  0.75861500  0.04263000  1
  N  N53  1  0.59882500  0.22326000  0.92418300  1
  N  N54  1  0.51618300  0.78687500  0.81664500  1
  N  N55  1  0.99916600  0.05276200  0.32269600  1
  N  N56  1  0.96252300  0.22130500  0.95820300  1
  N  N57  1  0.06873300  0.26352400  0.09592900  1
  N  N58  1  0.89301500  0.65584900  0.26570600  1
  N  N59  1  0.46320400  0.49703300  0.63905300  1
  N  N60  1  0.93126700  0.73647600  0.90407100  1
  N  N61  1  0.21312500  0.48381700  0.68335500  1
  N  N62  1  0.53679600  0.50296700  0.36094700  1
  N  N63  1  0.78687500  0.51618300  0.31664500  1
  N  N64  1  0.10698500  0.34415100  0.73429400  1
  N  N65  1  0.34415100  0.10698500  0.23429400  1
  N  N66  1  0.75861500  0.67079600  0.54263000  1
  N  N67  1  0.22326000  0.59882500  0.42418300  1
  N  N68  1  0.22130500  0.96252300  0.45820300  1
  N  N69  1  0.00083400  0.94723800  0.67730400  1
  N  N70  1  0.94723800  0.00083400  0.17730400  1
  N  N71  1  0.05276200  0.99916600  0.82269600  1
  N  N72  1  0.77869500  0.03747700  0.54179700  1
  N  N73  1  0.49703300  0.46320400  0.13905300  1
  N  N74  1  0.26352400  0.06873300  0.59592900  1
  N  N75  1  0.32920400  0.24138500  0.95737000  1
  N  N76  1  0.03747700  0.77869500  0.04179700  1
  N  N77  1  0.65584900  0.89301500  0.76570600  1
  N  N78  1  0.24138500  0.32920400  0.45737000  1
  N  N79  1  0.40117500  0.77674000  0.07581700  1
  N  N80  1  0.77674000  0.40117500  0.57581700  1
  N  N81  1  0.50296700  0.53679600  0.86094700  1
  N  N82  1  0.48381700  0.21312500  0.18335500  1
  N  N83  1  0.73647600  0.93126700  0.40407100  1
