# generated using pymatgen
data_Ba11(Cd4Bi7)2
_symmetry_space_group_name_H-M   'P 1'
_cell_length_a   14.60719411
_cell_length_b   14.60719411
_cell_length_c   17.20853014
_cell_angle_alpha   88.61722265
_cell_angle_beta   88.61722265
_cell_angle_gamma   19.80967773
_symmetry_Int_Tables_number   1
_chemical_formula_structural   Ba11(Cd4Bi7)2
_chemical_formula_sum   'Ba11 Cd8 Bi14'
_cell_volume   1243.98329028
_cell_formula_units_Z   1
loop_
 _symmetry_equiv_pos_site_id
 _symmetry_equiv_pos_as_xyz
  1  'x, y, z'
loop_
 _atom_site_type_symbol
 _atom_site_label
 _atom_site_symmetry_multiplicity
 _atom_site_fract_x
 _atom_site_fract_y
 _atom_site_fract_z
 _atom_site_occupancy
  Ba  Ba0  1  0.25289900  0.25289900  0.70181200  1
  Ba  Ba1  1  0.61835900  0.61835900  0.84023400  1
  Ba  Ba2  1  0.85565500  0.85565500  0.53437300  1
  Ba  Ba3  1  0.34513400  0.34513400  0.90062200  1
  Ba  Ba4  1  0.00922200  0.00922200  0.63372000  1
  Ba  Ba5  1  0.50000000  0.50000000  0.00000000  1
  Ba  Ba6  1  0.74710100  0.74710100  0.29818800  1
  Ba  Ba7  1  0.65486600  0.65486600  0.09937800  1
  Ba  Ba8  1  0.14434500  0.14434500  0.46562700  1
  Ba  Ba9  1  0.38164100  0.38164100  0.15976600  1
  Ba  Ba10  1  0.99077800  0.99077800  0.36628000  1
  Cd  Cd11  1  0.20259300  0.20259300  0.95926600  1
  Cd  Cd12  1  0.62815000  0.62815000  0.61173100  1
  Cd  Cd13  1  0.79740700  0.79740700  0.04073400  1
  Cd  Cd14  1  0.40589400  0.40589400  0.68537500  1
  Cd  Cd15  1  0.37185000  0.37185000  0.38826900  1
  Cd  Cd16  1  0.06018200  0.06018200  0.15736600  1
  Cd  Cd17  1  0.93981800  0.93981800  0.84263400  1
  Cd  Cd18  1  0.59410600  0.59410600  0.31462500  1
  Bi  Bi19  1  0.44281500  0.44281500  0.51750800  1
  Bi  Bi20  1  0.09422900  0.09422900  0.98735000  1
  Bi  Bi21  1  0.85079500  0.85079500  0.73872900  1
  Bi  Bi22  1  0.90577100  0.90577100  0.01265000  1
  Bi  Bi23  1  0.14920500  0.14920500  0.26127100  1
  Bi  Bi24  1  0.12996400  0.12996400  0.69943700  1
  Bi  Bi25  1  0.74304000  0.74304000  0.88277600  1
  Bi  Bi26  1  0.55718500  0.55718500  0.48249200  1
  Bi  Bi27  1  0.27116500  0.27116500  0.46046400  1
  Bi  Bi28  1  0.50969800  0.50969800  0.20896600  1
  Bi  Bi29  1  0.72883500  0.72883500  0.53953600  1
  Bi  Bi30  1  0.87003600  0.87003600  0.30056300  1
  Bi  Bi31  1  0.49030200  0.49030200  0.79103400  1
  Bi  Bi32  1  0.25696000  0.25696000  0.11722400  1
