# generated using pymatgen
data_Ca4Al6SO16
_symmetry_space_group_name_H-M   'P 1'
_cell_length_a   9.28350300
_cell_length_b   13.11567100
_cell_length_c   13.13561200
_cell_angle_alpha   90.00000000
_cell_angle_beta   90.00000000
_cell_angle_gamma   90.00000000
_symmetry_Int_Tables_number   1
_chemical_formula_structural   Ca4Al6SO16
_chemical_formula_sum   'Ca16 Al24 S4 O64'
_cell_volume   1599.38385581
_cell_formula_units_Z   4
loop_
 _symmetry_equiv_pos_site_id
 _symmetry_equiv_pos_as_xyz
  1  'x, y, z'
loop_
 _atom_site_type_symbol
 _atom_site_label
 _atom_site_symmetry_multiplicity
 _atom_site_fract_x
 _atom_site_fract_y
 _atom_site_fract_z
 _atom_site_occupancy
  Ca  Ca0  1  0.20073100  0.53727800  0.74395400  1
  Ca  Ca1  1  0.16251100  0.06019500  0.24973100  1
  Ca  Ca2  1  0.23344000  0.74331700  0.48995400  1
  Ca  Ca3  1  0.70073100  0.53727800  0.25604600  1
  Ca  Ca4  1  0.16251100  0.93980500  0.75026900  1
  Ca  Ca5  1  0.66251100  0.06019500  0.75026900  1
  Ca  Ca6  1  0.73344000  0.25668300  0.48995400  1
  Ca  Ca7  1  0.30203400  0.74656900  0.06096400  1
  Ca  Ca8  1  0.30203400  0.25343100  0.93903600  1
  Ca  Ca9  1  0.70073100  0.46272200  0.74395400  1
  Ca  Ca10  1  0.80203400  0.74656900  0.93903600  1
  Ca  Ca11  1  0.80203400  0.25343100  0.06096400  1
  Ca  Ca12  1  0.66251100  0.93980500  0.24973100  1
  Ca  Ca13  1  0.23344000  0.25668300  0.51004600  1
  Ca  Ca14  1  0.20073100  0.46272200  0.25604600  1
  Ca  Ca15  1  0.73344000  0.74331700  0.51004600  1
  Al  Al16  1  0.70061300  0.00000000  0.50000000  1
  Al  Al17  1  0.45559100  0.87946700  0.62834300  1
  Al  Al18  1  0.20061300  0.00000000  0.50000000  1
  Al  Al19  1  0.99440700  0.62683800  0.12169600  1
  Al  Al20  1  0.47881300  0.12358700  0.12119300  1
  Al  Al21  1  0.97881300  0.87641300  0.12119300  1
  Al  Al22  1  0.45559100  0.12053300  0.37165700  1
  Al  Al23  1  0.22871400  0.00000000  0.00000000  1
  Al  Al24  1  0.72757900  0.50000000  0.50000000  1
  Al  Al25  1  0.47881300  0.87641300  0.87880700  1
  Al  Al26  1  0.97881300  0.12358700  0.87880700  1
  Al  Al27  1  0.47804800  0.36992300  0.37097000  1
  Al  Al28  1  0.95559100  0.87946700  0.37165700  1
  Al  Al29  1  0.95559100  0.12053300  0.62834300  1
  Al  Al30  1  0.99440700  0.37316200  0.87830400  1
  Al  Al31  1  0.72871400  0.00000000  0.00000000  1
  Al  Al32  1  0.97804800  0.36992300  0.62903000  1
  Al  Al33  1  0.47804800  0.63007700  0.62903000  1
  Al  Al34  1  0.22757900  0.50000000  0.50000000  1
  Al  Al35  1  0.49440700  0.37316200  0.12169600  1
  Al  Al36  1  0.74441100  0.50000000  0.00000000  1
  Al  Al37  1  0.24441100  0.50000000  0.00000000  1
  Al  Al38  1  0.97804800  0.63007700  0.37097000  1
  Al  Al39  1  0.49440700  0.62683800  0.87830400  1
  S  S40  1  0.46793700  0.26462100  0.73404300  1
  S  S41  1  0.96793700  0.73537900  0.73404300  1
  S  S42  1  0.96793700  0.26462100  0.26595700  1
  S  S43  1  0.46793700  0.73537900  0.26595700  1
  O  O44  1  0.84214000  0.39269300  0.95604700  1
  O  O45  1  0.62462900  0.96305200  0.89214400  1
  O  O46  1  0.01185800  0.24371900  0.59185700  1
  O  O47  1  0.05395900  0.24663700  0.90267100  1
  O  O48  1  0.51185800  0.24371900  0.40814300  1
  O  O49  1  0.83138700  0.89134100  0.03640400  1
  O  O50  1  0.13516900  0.43720100  0.59804100  1
  O  O51  1  0.43631000  0.59790600  0.75435700  1
  O  O52  1  0.43631000  0.40209400  0.24564300  1
  O  O53  1  0.12462900  0.03694800  0.89214400  1
  O  O54  1  0.37038600  0.76313900  0.34964500  1
  O  O55  1  0.79713900  0.89789000  0.44481800  1
  O  O56  1  0.13516900  0.56279900  0.40195900  1
  O  O57  1  0.40212600  0.89588500  0.75638400  1
  O  O58  1  0.33138700  0.10865900  0.03640400  1
  O  O59  1  0.29713900  0.10211000  0.44481800  1
  O  O60  1  0.59921000  0.03672000  0.39224500  1
  O  O61  1  0.55395900  0.75336300  0.90267100  1
  O  O62  1  0.79713900  0.10211000  0.55518200  1
  O  O63  1  0.55395900  0.24663700  0.09732900  1
  O  O64  1  0.90212600  0.10411500  0.75638400  1
  O  O65  1  0.31967800  0.40441000  0.43506900  1
  O  O66  1  0.09921000  0.96328000  0.39224500  1
  O  O67  1  0.31967800  0.59559000  0.56493100  1
  O  O68  1  0.47403900  0.82337300  0.19153900  1
  O  O69  1  0.40212600  0.10411500  0.24361600  1
  O  O70  1  0.34214000  0.39269300  0.04395300  1
  O  O71  1  0.81967800  0.59559000  0.43506900  1
  O  O72  1  0.14582100  0.54704900  0.10485600  1
  O  O73  1  0.01185800  0.75628100  0.40814300  1
  O  O74  1  0.11686800  0.71548000  0.69472800  1
  O  O75  1  0.09921000  0.03672000  0.60775500  1
  O  O76  1  0.41478900  0.35548300  0.79096900  1
  O  O77  1  0.97403900  0.17662700  0.19153900  1
  O  O78  1  0.61686800  0.28452000  0.69472800  1
  O  O79  1  0.14582100  0.45295100  0.89514400  1
  O  O80  1  0.63516900  0.43720100  0.40195900  1
  O  O81  1  0.12462900  0.96305200  0.10785600  1
  O  O82  1  0.91478900  0.35548300  0.20903100  1
  O  O83  1  0.41478900  0.64451700  0.20903100  1
  O  O84  1  0.87038600  0.23686100  0.34964500  1
  O  O85  1  0.33138700  0.89134100  0.96359600  1
  O  O86  1  0.90212600  0.89588500  0.24361600  1
  O  O87  1  0.29713900  0.89789000  0.55518200  1
  O  O88  1  0.93631000  0.40209400  0.75435700  1
  O  O89  1  0.11686800  0.28452000  0.30527200  1
  O  O90  1  0.05395900  0.75336300  0.09732900  1
  O  O91  1  0.93631000  0.59790600  0.24564300  1
  O  O92  1  0.91478900  0.64451700  0.79096900  1
  O  O93  1  0.62462900  0.03694800  0.10785600  1
  O  O94  1  0.64582100  0.45295100  0.10485600  1
  O  O95  1  0.51185800  0.75628100  0.59185700  1
  O  O96  1  0.64582100  0.54704900  0.89514400  1
  O  O97  1  0.97403900  0.82337300  0.80846100  1
  O  O98  1  0.47403900  0.17662700  0.80846100  1
  O  O99  1  0.34214000  0.60730700  0.95604700  1
  O  O100  1  0.84214000  0.60730700  0.04395300  1
  O  O101  1  0.61686800  0.71548000  0.30527200  1
  O  O102  1  0.63516900  0.56279900  0.59804100  1
  O  O103  1  0.87038600  0.76313900  0.65035500  1
  O  O104  1  0.83138700  0.10865900  0.96359600  1
  O  O105  1  0.81967800  0.40441000  0.56493100  1
  O  O106  1  0.59921000  0.96328000  0.60775500  1
  O  O107  1  0.37038600  0.23686100  0.65035500  1
