# generated using pymatgen
data_Cs2Re2S5
_symmetry_space_group_name_H-M   'P 1'
_cell_length_a   12.54692259
_cell_length_b   12.54692259
_cell_length_c   12.54692328
_cell_angle_alpha   69.08961174
_cell_angle_beta   69.08961174
_cell_angle_gamma   69.08960940
_symmetry_Int_Tables_number   1
_chemical_formula_structural   Cs2Re2S5
_chemical_formula_sum   'Cs12 Re12 S30'
_cell_volume   1662.90386196
_cell_formula_units_Z   6
loop_
 _symmetry_equiv_pos_site_id
 _symmetry_equiv_pos_as_xyz
  1  'x, y, z'
loop_
 _atom_site_type_symbol
 _atom_site_label
 _atom_site_symmetry_multiplicity
 _atom_site_fract_x
 _atom_site_fract_y
 _atom_site_fract_z
 _atom_site_occupancy
  Cs  Cs0  1  0.47075900  0.87179200  0.68121600  1
  Cs  Cs1  1  0.12820800  0.31878400  0.52924100  1
  Cs  Cs2  1  0.87179200  0.68121600  0.47075900  1
  Cs  Cs3  1  0.37179200  0.97075900  0.18121600  1
  Cs  Cs4  1  0.02924100  0.81878400  0.62820800  1
  Cs  Cs5  1  0.97075900  0.18121600  0.37179200  1
  Cs  Cs6  1  0.18121600  0.37179200  0.97075900  1
  Cs  Cs7  1  0.31878400  0.52924100  0.12820800  1
  Cs  Cs8  1  0.62820800  0.02924100  0.81878400  1
  Cs  Cs9  1  0.81878400  0.62820800  0.02924100  1
  Cs  Cs10  1  0.52924100  0.12820800  0.31878400  1
  Cs  Cs11  1  0.68121600  0.47075900  0.87179200  1
  Re  Re12  1  0.94336900  0.07778900  0.86506000  1
  Re  Re13  1  0.36506000  0.57778900  0.44336900  1
  Re  Re14  1  0.92221100  0.13494000  0.05663100  1
  Re  Re15  1  0.44336900  0.36506000  0.57778900  1
  Re  Re16  1  0.07778900  0.86506000  0.94336900  1
  Re  Re17  1  0.86506000  0.94336900  0.07778900  1
  Re  Re18  1  0.63494000  0.42221100  0.55663100  1
  Re  Re19  1  0.42221100  0.55663100  0.63494000  1
  Re  Re20  1  0.57778900  0.44336900  0.36506000  1
  Re  Re21  1  0.55663100  0.63494000  0.42221100  1
  Re  Re22  1  0.05663100  0.92221100  0.13494000  1
  Re  Re23  1  0.13494000  0.05663100  0.92221100  1
  S  S24  1  0.60437100  0.60437100  0.60437100  1
  S  S25  1  0.25283100  0.49981900  0.64376900  1
  S  S26  1  0.18537600  0.65688100  0.37006300  1
  S  S27  1  0.74716900  0.50018100  0.35623100  1
  S  S28  1  0.65688100  0.37006300  0.18537600  1
  S  S29  1  0.99981900  0.75283100  0.14376900  1
  S  S30  1  0.24716900  0.85623100  0.00018100  1
  S  S31  1  0.49981900  0.64376900  0.25283100  1
  S  S32  1  0.37006300  0.18537600  0.65688100  1
  S  S33  1  0.15688100  0.68537600  0.87006300  1
  S  S34  1  0.68537600  0.87006300  0.15688100  1
  S  S35  1  0.50018100  0.35623100  0.74716900  1
  S  S36  1  0.87006300  0.15688100  0.68537600  1
  S  S37  1  0.81462400  0.34311900  0.62993700  1
  S  S38  1  0.14376900  0.99981900  0.75283100  1
  S  S39  1  0.00018100  0.24716900  0.85623100  1
  S  S40  1  0.35623100  0.74716900  0.50018100  1
  S  S41  1  0.31462400  0.12993700  0.84311900  1
  S  S42  1  0.12993700  0.84311900  0.31462400  1
  S  S43  1  0.89562900  0.89562900  0.89562900  1
  S  S44  1  0.64376900  0.25283100  0.49981900  1
  S  S45  1  0.10437100  0.10437100  0.10437100  1
  S  S46  1  0.34311900  0.62993700  0.81462400  1
  S  S47  1  0.85623100  0.00018100  0.24716900  1
  S  S48  1  0.62993700  0.81462400  0.34311900  1
  S  S49  1  0.84311900  0.31462400  0.12993700  1
  S  S50  1  0.39562900  0.39562900  0.39562900  1
  S  S51  1  0.25000000  0.25000000  0.25000000  1
  S  S52  1  0.75000000  0.75000000  0.75000000  1
  S  S53  1  0.75283100  0.14376900  0.99981900  1
