# generated using pymatgen
data_Na12B26O45
_symmetry_space_group_name_H-M   'P 1'
_cell_length_a   9.64026900
_cell_length_b   10.74742536
_cell_length_c   18.32855244
_cell_angle_alpha   106.97953659
_cell_angle_beta   105.24304547
_cell_angle_gamma   89.94278111
_symmetry_Int_Tables_number   1
_chemical_formula_structural   Na12B26O45
_chemical_formula_sum   'Na24 B52 O90'
_cell_volume   1746.39295285
_cell_formula_units_Z   2
loop_
 _symmetry_equiv_pos_site_id
 _symmetry_equiv_pos_as_xyz
  1  'x, y, z'
loop_
 _atom_site_type_symbol
 _atom_site_label
 _atom_site_symmetry_multiplicity
 _atom_site_fract_x
 _atom_site_fract_y
 _atom_site_fract_z
 _atom_site_occupancy
  Na  Na0  1  0.47857100  0.68675800  0.08935900  1
  Na  Na1  1  0.96504300  0.67641200  0.24878700  1
  Na  Na2  1  0.18120100  0.16476100  0.59290300  1
  Na  Na3  1  0.90549000  0.80390100  0.60139900  1
  Na  Na4  1  0.28256100  0.17386600  0.24811900  1
  Na  Na5  1  0.41270600  0.66461500  0.59469700  1
  Na  Na6  1  0.09809500  0.20125500  0.39984500  1
  Na  Na7  1  0.12530400  0.77490300  0.08923600  1
  Na  Na8  1  0.24731500  0.69815600  0.74472700  1
  Na  Na9  1  0.87434700  0.69066400  0.91164400  1
  Na  Na10  1  0.75284100  0.95583700  0.25440000  1
  Na  Na11  1  0.38924300  0.09756000  0.91082900  1
  Na  Na12  1  0.03110200  0.42611100  0.75241500  1
  Na  Na13  1  0.69334900  0.30223900  0.59902900  1
  Na  Na14  1  0.61187600  0.19084300  0.08915000  1
  Na  Na15  1  0.49355500  0.20018200  0.74449800  1
  Na  Na16  1  0.96192700  0.27597600  0.08895100  1
  Na  Na17  1  0.30697600  0.70220900  0.39998900  1
  Na  Na18  1  0.50228400  0.45407900  0.25322600  1
  Na  Na19  1  0.71564200  0.92877800  0.75250300  1
  Na  Na20  1  0.81419200  0.57439800  0.40611500  1
  Na  Na21  1  0.59022400  0.07310600  0.40772200  1
  Na  Na22  1  0.51728500  0.59838300  0.90915500  1
  Na  Na23  1  0.03663100  0.18535800  0.91099900  1
  B  B24  1  0.87335800  0.98541000  0.95281400  1
  B  B25  1  0.06431500  0.77097100  0.45982800  1
  B  B26  1  0.70248400  0.14468100  0.91157900  1
  B  B27  1  0.25855900  0.96244300  0.69111700  1
  B  B28  1  0.82534900  0.83890800  0.39478000  1
  B  B29  1  0.57167800  0.56602400  0.46572500  1
  B  B30  1  0.81571900  0.41346900  0.23488700  1
  B  B31  1  0.42805500  0.10170600  0.53528500  1
  B  B32  1  0.91868100  0.20640900  0.22875700  1
  B  B33  1  0.60203800  0.80959300  0.54068000  1
  B  B34  1  0.58141900  0.67835300  0.76505900  1
  B  B35  1  0.89413800  0.06701300  0.46552200  1
  B  B36  1  0.18247000  0.17902500  0.76490500  1
  B  B37  1  0.41919000  0.91195800  0.23396800  1
  B  B38  1  0.04914100  0.92842200  0.38818300  1
  B  B39  1  0.95057600  0.53963900  0.61101200  1
  B  B40  1  0.14045300  0.84775200  0.87063100  1
  B  B41  1  0.43224700  0.46198600  0.69113400  1
  B  B42  1  0.22261000  0.91107700  0.30216300  1
  B  B43  1  0.07983200  0.41216500  0.30363300  1
  B  B44  1  0.77660000  0.60850900  0.69615000  1
  B  B45  1  0.65348900  0.88186600  0.01379800  1
  B  B46  1  0.25701300  0.40060500  0.87668400  1
  B  B47  1  0.92000000  0.53188700  0.04794600  1
  B  B48  1  0.74083700  0.26965300  0.30834700  1
  B  B49  1  0.38261600  0.02389800  0.12320700  1
  B  B50  1  0.74045100  0.52402300  0.12324500  1
  B  B51  1  0.57037200  0.33881800  0.39477600  1
  B  B52  1  0.79214800  0.73334800  0.08798300  1
  B  B53  1  0.33978700  0.42817800  0.38851600  1
  B  B54  1  0.17462700  0.44385200  0.60544900  1
  B  B55  1  0.20787900  0.64514200  0.91236600  1
  B  B56  1  0.56756000  0.77048600  0.30874400  1
  B  B57  1  0.36080400  0.38014200  0.01316500  1
  B  B58  1  0.34728700  0.86757800  0.98634300  1
  B  B59  1  0.86095600  0.97754600  0.12903500  1
  B  B60  1  0.69083700  0.47803100  0.77116500  1
  B  B61  1  0.12733200  0.03110200  0.04763700  1
  B  B62  1  0.61897300  0.90062000  0.87663100  1
  B  B63  1  0.93747900  0.31096300  0.54000900  1
  B  B64  1  0.31047900  0.70538400  0.22843000  1
  B  B65  1  0.10744000  0.60223100  0.53510800  1
  B  B66  1  0.91870100  0.10955400  0.69643000  1
  B  B67  1  0.26915400  0.47568900  0.12883000  1
  B  B68  1  0.43076200  0.94352300  0.60574800  1
  B  B69  1  0.39845800  0.27185800  0.46090100  1
  B  B70  1  0.72879600  0.34728000  0.87035800  1
  B  B71  1  0.08055000  0.97775300  0.77045000  1
  B  B72  1  0.63681900  0.36643700  0.98584100  1
  B  B73  1  0.29542200  0.23146900  0.08698500  1
  B  B74  1  0.65994100  0.03917900  0.61133500  1
  B  B75  1  0.07892500  0.48448600  0.95288100  1
  O  O76  1  0.83823300  0.28654400  0.18283400  1
  O  O77  1  0.03582400  0.19626400  0.71184300  1
  O  O78  1  0.77155700  0.40422200  0.82160700  1
  O  O79  1  0.46290000  0.82489700  0.54497500  1
  O  O80  1  0.73567200  0.21538000  0.85819400  1
  O  O81  1  0.84737700  0.11260200  0.95655100  1
  O  O82  1  0.34361200  0.89224700  0.64694000  1
  O  O83  1  0.46054700  0.99760700  0.19497900  1
  O  O84  1  0.26470000  0.09734800  0.70953100  1
  O  O85  1  0.12932700  0.97595500  0.34266400  1
  O  O86  1  0.73912000  0.66685000  0.13463600  1
  O  O87  1  0.21395600  0.47627700  0.34325900  1
  O  O88  1  0.67280800  0.69420300  0.71068900  1
  O  O89  1  0.54171900  0.80283300  0.80468800  1
  O  O90  1  0.86010400  0.18880800  0.50648600  1
  O  O91  1  0.64617200  0.68797700  0.50724700  1
  O  O92  1  0.35647100  0.25969400  0.02571600  1
  O  O93  1  0.86460300  0.41198900  0.57152100  1
  O  O94  1  0.99942500  0.95400700  0.00053400  1
  O  O95  1  0.70608500  0.91072100  0.57230500  1
  O  O96  1  0.10831700  0.61172600  0.95689300  1
  O  O97  1  0.61715200  0.44639200  0.05560800  1
  O  O98  1  0.78500100  0.13294000  0.65565500  1
  O  O99  1  0.06212400  0.27622800  0.27995600  1
  O  O100  1  0.53742600  0.28164700  0.45603100  1
  O  O101  1  0.56356000  0.89236200  0.94434200  1
  O  O102  1  0.13584400  0.83992300  0.42755400  1
  O  O103  1  0.08076200  0.32611100  0.54418900  1
  O  O104  1  0.87998000  0.85755100  0.14089800  1
  O  O105  1  0.73467900  0.49846700  0.19544600  1
  O  O106  1  0.12263600  0.38074200  0.90292200  1
  O  O107  1  0.86953500  0.63308700  0.65568000  1
  O  O108  1  0.74297100  0.99186800  0.06875500  1
  O  O109  1  0.21551400  0.77513500  0.27798700  1
  O  O110  1  0.57408000  0.09614100  0.54805000  1
  O  O111  1  0.16155600  0.10298500  0.81682200  1
  O  O112  1  0.67059700  0.76169900  0.02643800  1
  O  O113  1  0.78020800  0.88200500  0.90186600  1
  O  O114  1  0.93601400  0.99823000  0.72127600  1
  O  O115  1  0.95174700  0.08349600  0.17805500  1
  O  O116  1  0.56663800  0.01727600  0.65941400  1
  O  O117  1  0.43400400  0.35810200  0.34090600  1
  O  O118  1  0.43754000  0.94772700  0.05521900  1
  O  O119  1  0.15200900  0.15372300  0.04256700  1
  O  O120  1  0.44322500  0.59709400  0.71058400  1
  O  O121  1  0.26012000  0.35507300  0.13992900  1
  O  O122  1  0.38135000  0.39122100  0.94378900  1
  O  O123  1  0.65580000  0.60348200  0.81714200  1
  O  O124  1  0.32708100  0.48968300  0.06852900  1
  O  O125  1  0.09153300  0.51630600  0.65916900  1
  O  O126  1  0.97438200  0.59788600  0.54832000  1
  O  O127  1  0.60488300  0.03123400  0.86486100  1
  O  O128  1  0.30415800  0.39149800  0.64580600  1
  O  O129  1  0.22139600  0.97864700  0.09826500  1
  O  O130  1  0.26201800  0.30354800  0.80429600  1
  O  O131  1  0.29395600  0.34038500  0.42854000  1
  O  O132  1  0.14188500  0.68391600  0.49449000  1
  O  O133  1  0.25623700  0.92307500  0.93197000  1
  O  O134  1  0.55234100  0.39665700  0.71600800  1
  O  O135  1  0.32472800  0.98195500  0.28663100  1
  O  O136  1  0.78598300  0.49808500  0.72172700  1
  O  O137  1  0.92008500  0.78066600  0.45470600  1
  O  O138  1  0.05032400  0.90322400  0.82044600  1
  O  O139  1  0.99948400  0.45377700  0.00048900  1
  O  O140  1  0.64020000  0.23338200  0.97263800  1
  O  O141  1  0.34897800  0.02991900  0.56269900  1
  O  O142  1  0.21400800  0.53089500  0.56310600  1
  O  O143  1  0.42548900  0.54862600  0.45176300  1
  O  O144  1  0.02654700  0.04932200  0.45143600  1
  O  O145  1  0.67209700  0.42155500  0.93106200  1
  O  O146  1  0.55639100  0.88599600  0.28947200  1
  O  O147  1  0.78750700  0.96796700  0.43841700  1
  O  O148  1  0.73383300  0.38641000  0.28998200  1
  O  O149  1  0.35461000  0.18446300  0.49537700  1
  O  O150  1  0.25843200  0.53158100  0.86514800  1
  O  O151  1  0.83285000  0.17788800  0.28202700  1
  O  O152  1  0.90692600  0.85919100  0.34073800  1
  O  O153  1  0.87581100  0.47878100  0.09810000  1
  O  O154  1  0.65133900  0.46782800  0.43762300  1
  O  O155  1  0.39484200  0.16636300  0.13455400  1
  O  O156  1  0.33116400  0.73433900  0.97310900  1
  O  O157  1  0.96218700  0.48365100  0.28771600  1
  O  O158  1  0.65870100  0.24559000  0.35464700  1
  O  O159  1  0.16350600  0.89628200  0.71523800  1
  O  O160  1  0.89238200  0.65538200  0.04422600  1
  O  O161  1  0.44929500  0.67876100  0.28323800  1
  O  O162  1  0.69620700  0.74647400  0.35504500  1
  O  O163  1  0.34558200  0.78449600  0.18209600  1
  O  O164  1  0.22892300  0.58137500  0.17837100  1
  O  O165  1  0.12117100  0.71642800  0.85935000  1
