# generated using pymatgen
data_K2Pb(SO4)2
_symmetry_space_group_name_H-M   'P 1'
_cell_length_a   8.12842372
_cell_length_b   8.12842372
_cell_length_c   8.12842421
_cell_angle_alpha   50.08737643
_cell_angle_beta   50.08737643
_cell_angle_gamma   50.08738336
_symmetry_Int_Tables_number   1
_chemical_formula_structural   K2Pb(SO4)2
_chemical_formula_sum   'K2 Pb1 S2 O8'
_cell_volume   290.83053227
_cell_formula_units_Z   1
loop_
 _symmetry_equiv_pos_site_id
 _symmetry_equiv_pos_as_xyz
  1  'x, y, z'
loop_
 _atom_site_type_symbol
 _atom_site_label
 _atom_site_symmetry_multiplicity
 _atom_site_fract_x
 _atom_site_fract_y
 _atom_site_fract_z
 _atom_site_occupancy
  K  K0  1  0.81027600  0.81027600  0.81027600  1
  K  K1  1  0.18972400  0.18972400  0.18972400  1
  Pb  Pb2  1  0.50000000  0.50000000  0.50000000  1
  S  S3  1  0.62689100  0.62689100  0.62689100  1
  S  S4  1  0.37310900  0.37310900  0.37310900  1
  O  O5  1  0.71663000  0.71663000  0.36275800  1
  O  O6  1  0.63724200  0.28337000  0.28337000  1
  O  O7  1  0.36275800  0.71663000  0.71663000  1
  O  O8  1  0.28337000  0.63724200  0.28337000  1
  O  O9  1  0.28337000  0.28337000  0.63724200  1
  O  O10  1  0.30498600  0.30498600  0.30498600  1
  O  O11  1  0.71663000  0.36275800  0.71663000  1
  O  O12  1  0.69501400  0.69501400  0.69501400  1
