# generated using pymatgen
data_Os2C6SO6
_symmetry_space_group_name_H-M   'P 1'
_cell_length_a   8.57184400
_cell_length_b   9.31696525
_cell_length_c   14.50207769
_cell_angle_alpha   80.59605571
_cell_angle_beta   86.02626097
_cell_angle_gamma   68.29985232
_symmetry_Int_Tables_number   1
_chemical_formula_structural   Os2C6SO6
_chemical_formula_sum   'Os8 C24 S4 O24'
_cell_volume   1061.59705920
_cell_formula_units_Z   4
loop_
 _symmetry_equiv_pos_site_id
 _symmetry_equiv_pos_as_xyz
  1  'x, y, z'
loop_
 _atom_site_type_symbol
 _atom_site_label
 _atom_site_symmetry_multiplicity
 _atom_site_fract_x
 _atom_site_fract_y
 _atom_site_fract_z
 _atom_site_occupancy
  Os  Os0  1  0.53409700  0.18982000  0.27871900  1
  Os  Os1  1  0.20882400  0.30571800  0.17715000  1
  Os  Os2  1  0.21528100  0.25804600  0.38919200  1
  Os  Os3  1  0.78471900  0.74195400  0.61080800  1
  Os  Os4  1  0.63917400  0.03522700  0.76212400  1
  Os  Os5  1  0.79117600  0.69428200  0.82285000  1
  Os  Os6  1  0.36082600  0.96477300  0.23787600  1
  Os  Os7  1  0.46590300  0.81018000  0.72128100  1
  C  C8  1  0.53171900  0.38252500  0.20720400  1
  C  C9  1  0.03484900  0.45646700  0.36902100  1
  C  C10  1  0.66202500  0.21253800  0.37233300  1
  C  C11  1  0.15098400  0.52463600  0.16939100  1
  C  C12  1  0.41940900  0.16095100  0.80056800  1
  C  C13  1  0.46828100  0.61747500  0.79279600  1
  C  C14  1  0.58059100  0.83904900  0.19943200  1
  C  C15  1  0.96515100  0.54353300  0.63097900  1
  C  C16  1  0.11775800  0.17777900  0.49797100  1
  C  C17  1  0.84901600  0.47536400  0.83060900  1
  C  C18  1  0.32997500  0.34367600  0.46100000  1
  C  C19  1  0.67002500  0.65632400  0.53900000  1
  C  C20  1  0.97548700  0.66121700  0.89886500  1
  C  C21  1  0.27133100  0.96787800  0.11880900  1
  C  C22  1  0.36245900  0.29471600  0.07550200  1
  C  C23  1  0.02451300  0.33878300  0.10113500  1
  C  C24  1  0.73274300  0.07446900  0.21713000  1
  C  C25  1  0.31385500  0.78852300  0.29896200  1
  C  C26  1  0.68614500  0.21147700  0.70103800  1
  C  C27  1  0.72866900  0.03212200  0.88119100  1
  C  C28  1  0.63754100  0.70528400  0.92449800  1
  C  C29  1  0.26725700  0.92553100  0.78287000  1
  C  C30  1  0.88224200  0.82222100  0.50202900  1
  C  C31  1  0.33797500  0.78746200  0.62766700  1
  S  S32  1  0.91181600  0.85018300  0.71474900  1
  S  S33  1  0.44922200  0.00595700  0.38491000  1
  S  S34  1  0.08818400  0.14981700  0.28525100  1
  S  S35  1  0.55077800  0.99404300  0.61509000  1
  O  O36  1  0.09188400  0.64067900  0.94332000  1
  O  O37  1  0.45048900  0.28775900  0.01014500  1
  O  O38  1  0.90811600  0.35932100  0.05668000  1
  O  O39  1  0.38901200  0.39794100  0.50906700  1
  O  O40  1  0.28980300  0.24218700  0.82569600  1
  O  O41  1  0.28426700  0.68316800  0.33904900  1
  O  O42  1  0.71019700  0.75781300  0.17430400  1
  O  O43  1  0.88329900  0.34114700  0.83660900  1
  O  O44  1  0.53733200  0.50125000  0.17011600  1
  O  O45  1  0.21160700  0.96800000  0.04940500  1
  O  O46  1  0.85508900  0.00463900  0.17967500  1
  O  O47  1  0.78839300  0.03200000  0.95059500  1
  O  O48  1  0.61098800  0.60205900  0.49093300  1
  O  O49  1  0.71573300  0.31683200  0.66095100  1
  O  O50  1  0.14491100  0.99536100  0.82032500  1
  O  O51  1  0.54951100  0.71224100  0.98985500  1
  O  O52  1  0.73866600  0.23061800  0.42961700  1
  O  O53  1  0.46266800  0.49875000  0.82988400  1
  O  O54  1  0.94146100  0.87215800  0.43650700  1
  O  O55  1  0.92139500  0.57479700  0.35977200  1
  O  O56  1  0.26133400  0.76938200  0.57038300  1
  O  O57  1  0.07860500  0.42520300  0.64022800  1
  O  O58  1  0.11670100  0.65885300  0.16339100  1
  O  O59  1  0.05853900  0.12784200  0.56349300  1
