# generated using pymatgen
data_Ca4Zn2Cu3P5
_symmetry_space_group_name_H-M   'P 1'
_cell_length_a   4.04387210
_cell_length_b   4.04387210
_cell_length_c   37.25649600
_cell_angle_alpha   90.00000000
_cell_angle_beta   90.00000000
_cell_angle_gamma   120.00000168
_symmetry_Int_Tables_number   1
_chemical_formula_structural   Ca4Zn2Cu3P5
_chemical_formula_sum   'Ca8 Zn4 Cu6 P10'
_cell_volume   527.62753788
_cell_formula_units_Z   2
loop_
 _symmetry_equiv_pos_site_id
 _symmetry_equiv_pos_as_xyz
  1  'x, y, z'
loop_
 _atom_site_type_symbol
 _atom_site_label
 _atom_site_symmetry_multiplicity
 _atom_site_fract_x
 _atom_site_fract_y
 _atom_site_fract_z
 _atom_site_occupancy
  Ca  Ca0  1  0.00000000  0.00000000  0.80289900  1
  Ca  Ca1  1  0.00000000  0.00000000  0.30289900  1
  Ca  Ca2  1  0.00000000  0.00000000  0.90855500  1
  Ca  Ca3  1  0.00000000  0.00000000  0.09144500  1
  Ca  Ca4  1  0.00000000  0.00000000  0.40855500  1
  Ca  Ca5  1  0.00000000  0.00000000  0.59144500  1
  Ca  Ca6  1  0.00000000  0.00000000  0.69710100  1
  Ca  Ca7  1  0.00000000  0.00000000  0.19710100  1
  Zn  Zn8  1  0.66666700  0.33333300  0.47567400  1
  Zn  Zn9  1  0.33333300  0.66666700  0.97567400  1
  Zn  Zn10  1  0.33333300  0.66666700  0.52432600  1
  Zn  Zn11  1  0.66666700  0.33333300  0.02432600  1
  Cu  Cu12  1  0.33333300  0.66666700  0.75000000  1
  Cu  Cu13  1  0.66666700  0.33333300  0.64385600  1
  Cu  Cu14  1  0.33333300  0.66666700  0.35614400  1
  Cu  Cu15  1  0.66666700  0.33333300  0.25000000  1
  Cu  Cu16  1  0.33333300  0.66666700  0.14385600  1
  Cu  Cu17  1  0.66666700  0.33333300  0.85614400  1
  P  P18  1  0.66666700  0.33333300  0.35559000  1
  P  P19  1  0.66666700  0.33333300  0.54381700  1
  P  P20  1  0.33333300  0.66666700  0.85559000  1
  P  P21  1  0.33333300  0.66666700  0.45618300  1
  P  P22  1  0.66666700  0.33333300  0.95618300  1
  P  P23  1  0.66666700  0.33333300  0.14441000  1
  P  P24  1  0.33333300  0.66666700  0.04381700  1
  P  P25  1  0.66666700  0.33333300  0.75000000  1
  P  P26  1  0.33333300  0.66666700  0.64441000  1
  P  P27  1  0.33333300  0.66666700  0.25000000  1
