# generated using pymatgen
data_HfPbO3
_symmetry_space_group_name_H-M   'P 1'
_cell_length_a   5.93143400
_cell_length_b   8.30396600
_cell_length_c   11.80414700
_cell_angle_alpha   90.00000000
_cell_angle_beta   90.00000000
_cell_angle_gamma   90.00000000
_symmetry_Int_Tables_number   1
_chemical_formula_structural   HfPbO3
_chemical_formula_sum   'Hf8 Pb8 O24'
_cell_volume   581.40648806
_cell_formula_units_Z   8
loop_
 _symmetry_equiv_pos_site_id
 _symmetry_equiv_pos_as_xyz
  1  'x, y, z'
loop_
 _atom_site_type_symbol
 _atom_site_label
 _atom_site_symmetry_multiplicity
 _atom_site_fract_x
 _atom_site_fract_y
 _atom_site_fract_z
 _atom_site_occupancy
  Hf  Hf0  1  0.25686900  0.25318500  0.62067700  1
  Hf  Hf1  1  0.24313100  0.25318500  0.12067700  1
  Hf  Hf2  1  0.74374500  0.75461000  0.37882400  1
  Hf  Hf3  1  0.24374500  0.75461000  0.12117600  1
  Hf  Hf4  1  0.75686900  0.25318500  0.87932300  1
  Hf  Hf5  1  0.25625500  0.75461000  0.62117600  1
  Hf  Hf6  1  0.75625500  0.75461000  0.87882400  1
  Hf  Hf7  1  0.74313100  0.25318500  0.37932300  1
  Pb  Pb8  1  0.20184000  0.99168500  0.36552700  1
  Pb  Pb9  1  0.20204600  0.49211500  0.36063900  1
  Pb  Pb10  1  0.29816000  0.99168500  0.86552700  1
  Pb  Pb11  1  0.79816000  0.99168500  0.63447300  1
  Pb  Pb12  1  0.70184000  0.99168500  0.13447300  1
  Pb  Pb13  1  0.29795400  0.49211500  0.86063900  1
  Pb  Pb14  1  0.70204600  0.49211500  0.13936100  1
  Pb  Pb15  1  0.79795400  0.49211500  0.63936100  1
  O  O16  1  0.00000000  0.77149900  0.00000000  1
  O  O17  1  0.22384300  0.00741500  0.64507800  1
  O  O18  1  0.21707500  0.50786400  0.62134700  1
  O  O19  1  0.96205200  0.75093900  0.73735600  1
  O  O20  1  0.00000000  0.78651800  0.50000000  1
  O  O21  1  0.78292500  0.50786400  0.37865300  1
  O  O22  1  0.53794800  0.75093900  0.23735600  1
  O  O23  1  0.52842200  0.27436600  0.24123800  1
  O  O24  1  0.50000000  0.78651800  0.00000000  1
  O  O25  1  0.72384300  0.00741500  0.85492200  1
  O  O26  1  0.71707500  0.50786400  0.87865300  1
  O  O27  1  0.02842200  0.27436600  0.25876200  1
  O  O28  1  0.50000000  0.77149900  0.50000000  1
  O  O29  1  0.00000000  0.24791100  0.50000000  1
  O  O30  1  0.46205200  0.75093900  0.76264400  1
  O  O31  1  0.50000000  0.24971400  0.50000000  1
  O  O32  1  0.03794800  0.75093900  0.26264400  1
  O  O33  1  0.47157800  0.27436600  0.75876200  1
  O  O34  1  0.77615700  0.00741500  0.35492200  1
  O  O35  1  0.28292500  0.50786400  0.12134700  1
  O  O36  1  0.27615700  0.00741500  0.14507800  1
  O  O37  1  0.00000000  0.24971400  0.00000000  1
  O  O38  1  0.97157800  0.27436600  0.74123800  1
  O  O39  1  0.50000000  0.24791100  0.00000000  1
