# generated using pymatgen
data_CdI2
_symmetry_space_group_name_H-M   'P 1'
_cell_length_a   4.34447773
_cell_length_b   4.34447773
_cell_length_c   110.42495800
_cell_angle_alpha   90.00000000
_cell_angle_beta   90.00000000
_cell_angle_gamma   119.99999586
_symmetry_Int_Tables_number   1
_chemical_formula_structural   CdI2
_chemical_formula_sum   'Cd15 I30'
_cell_volume   1804.98269637
_cell_formula_units_Z   15
loop_
 _symmetry_equiv_pos_site_id
 _symmetry_equiv_pos_as_xyz
  1  'x, y, z'
loop_
 _atom_site_type_symbol
 _atom_site_label
 _atom_site_symmetry_multiplicity
 _atom_site_fract_x
 _atom_site_fract_y
 _atom_site_fract_z
 _atom_site_occupancy
  Cd  Cd0  1  0.33333300  0.66666700  0.21667600  1
  Cd  Cd1  1  0.33333300  0.66666700  0.81666900  1
  Cd  Cd2  1  0.00000000  0.00000000  0.48333900  1
  Cd  Cd3  1  0.33333300  0.66666700  0.01666600  1
  Cd  Cd4  1  0.33333300  0.66666700  0.35000400  1
  Cd  Cd5  1  0.33333300  0.66666700  0.61666500  1
  Cd  Cd6  1  0.33333300  0.66666700  0.88334100  1
  Cd  Cd7  1  0.00000000  0.00000000  0.68331600  1
  Cd  Cd8  1  0.33333300  0.66666700  0.55001200  1
  Cd  Cd9  1  0.33333300  0.66666700  0.41665800  1
  Cd  Cd10  1  0.00000000  0.00000000  0.08332100  1
  Cd  Cd11  1  0.00000000  0.00000000  0.28333200  1
  Cd  Cd12  1  0.33333300  0.66666700  0.14999500  1
  Cd  Cd13  1  0.00000000  0.00000000  0.94999300  1
  Cd  Cd14  1  0.33333300  0.66666700  0.74999200  1
  I  I15  1  0.00000000  0.00000000  0.73432900  1
  I  I16  1  0.66666700  0.33333300  0.43231900  1
  I  I17  1  0.00000000  0.00000000  0.20101500  1
  I  I18  1  0.33333300  0.66666700  0.66764900  1
  I  I19  1  0.33333300  0.66666700  0.26766100  1
  I  I20  1  0.66666700  0.33333300  0.56567600  1
  I  I21  1  0.00000000  0.00000000  0.86768200  1
  I  I22  1  0.66666700  0.33333300  0.23234000  1
  I  I23  1  0.00000000  0.00000000  0.53434900  1
  I  I24  1  0.66666700  0.33333300  0.89900700  1
  I  I25  1  0.00000000  0.00000000  0.60100800  1
  I  I26  1  0.66666700  0.33333300  0.96566000  1
  I  I27  1  0.66666700  0.33333300  0.69898200  1
  I  I28  1  0.00000000  0.00000000  0.40099800  1
  I  I29  1  0.00000000  0.00000000  0.80101300  1
  I  I30  1  0.66666700  0.33333300  0.76565300  1
  I  I31  1  0.33333300  0.66666700  0.06766200  1
  I  I32  1  0.33333300  0.66666700  0.46767400  1
  I  I33  1  0.66666700  0.33333300  0.09899000  1
  I  I34  1  0.66666700  0.33333300  0.63233000  1
  I  I35  1  0.66666700  0.33333300  0.29899600  1
  I  I36  1  0.00000000  0.00000000  0.00101000  1
  I  I37  1  0.00000000  0.00000000  0.13434100  1
  I  I38  1  0.66666700  0.33333300  0.83233700  1
  I  I39  1  0.66666700  0.33333300  0.36566700  1
  I  I40  1  0.66666700  0.33333300  0.03233100  1
  I  I41  1  0.00000000  0.00000000  0.33434300  1
  I  I42  1  0.66666700  0.33333300  0.49900600  1
  I  I43  1  0.33333300  0.66666700  0.93432400  1
  I  I44  1  0.66666700  0.33333300  0.16566500  1
