# generated using pymatgen
data_P2CN3Cl5
_symmetry_space_group_name_H-M   'P 1'
_cell_length_a   7.93950100
_cell_length_b   17.14337700
_cell_length_c   29.86245200
_cell_angle_alpha   90.00000000
_cell_angle_beta   90.00000000
_cell_angle_gamma   90.00000000
_symmetry_Int_Tables_number   1
_chemical_formula_structural   P2CN3Cl5
_chemical_formula_sum   'P32 C16 N48 Cl80'
_cell_volume   4064.57412618
_cell_formula_units_Z   16
loop_
 _symmetry_equiv_pos_site_id
 _symmetry_equiv_pos_as_xyz
  1  'x, y, z'
loop_
 _atom_site_type_symbol
 _atom_site_label
 _atom_site_symmetry_multiplicity
 _atom_site_fract_x
 _atom_site_fract_y
 _atom_site_fract_z
 _atom_site_occupancy
  P  P0  1  0.73436500  0.61329400  0.77350700  1
  P  P1  1  0.25868300  0.33519200  0.53973200  1
  P  P2  1  0.23363700  0.52794400  0.68544600  1
  P  P3  1  0.23436500  0.38670600  0.72649300  1
  P  P4  1  0.76563500  0.61329400  0.27350700  1
  P  P5  1  0.75868300  0.66480800  0.96026800  1
  P  P6  1  0.71987200  0.66646500  0.55084000  1
  P  P7  1  0.24131700  0.33519200  0.03973200  1
  P  P8  1  0.73363700  0.97205600  0.68544600  1
  P  P9  1  0.76636300  0.97205600  0.18544600  1
  P  P10  1  0.78012800  0.66646500  0.05084000  1
  P  P11  1  0.25868300  0.83519200  0.96026800  1
  P  P12  1  0.21987200  0.33353500  0.94916000  1
  P  P13  1  0.26636300  0.02794400  0.31455400  1
  P  P14  1  0.26636300  0.52794400  0.18544600  1
  P  P15  1  0.75868300  0.16480800  0.53973200  1
  P  P16  1  0.26563500  0.38670600  0.22649300  1
  P  P17  1  0.73363700  0.47205600  0.81455400  1
  P  P18  1  0.28012800  0.33353500  0.44916000  1
  P  P19  1  0.71987200  0.16646500  0.94916000  1
  P  P20  1  0.24131700  0.83519200  0.46026800  1
  P  P21  1  0.76563500  0.11329400  0.22649300  1
  P  P22  1  0.78012800  0.16646500  0.44916000  1
  P  P23  1  0.73436500  0.11329400  0.72649300  1
  P  P24  1  0.28012800  0.83353500  0.05084000  1
  P  P25  1  0.74131700  0.66480800  0.46026800  1
  P  P26  1  0.26563500  0.88670600  0.27350700  1
  P  P27  1  0.23363700  0.02794400  0.81455400  1
  P  P28  1  0.74131700  0.16480800  0.03973200  1
  P  P29  1  0.23436500  0.88670600  0.77350700  1
  P  P30  1  0.76636300  0.47205600  0.31455400  1
  P  P31  1  0.21987200  0.83353500  0.55084000  1
  C  C32  1  0.48392100  0.06505400  0.68123800  1
  C  C33  1  0.98473300  0.88626000  0.50169600  1
  C  C34  1  0.98392100  0.93494600  0.81876200  1
  C  C35  1  0.48473300  0.11374000  0.99830400  1
  C  C36  1  0.51526700  0.38626000  0.49830400  1
  C  C37  1  0.98473300  0.38626000  0.99830400  1
  C  C38  1  0.98392100  0.43494600  0.68123800  1
  C  C39  1  0.01607900  0.06505400  0.18123800  1
  C  C40  1  0.01526700  0.61374000  0.00169600  1
  C  C41  1  0.48392100  0.56505400  0.81876200  1
  C  C42  1  0.51607900  0.93494600  0.31876200  1
  C  C43  1  0.51607900  0.43494600  0.18123800  1
  C  C44  1  0.01526700  0.11374000  0.49830400  1
  C  C45  1  0.48473300  0.61374000  0.50169600  1
  C  C46  1  0.51526700  0.88626000  0.00169600  1
  C  C47  1  0.01607900  0.56505400  0.31876200  1
  N  N48  1  0.03668700  0.87290200  0.54307400  1
  N  N49  1  0.55613200  0.62536000  0.46186400  1
  N  N50  1  0.44386800  0.87464000  0.96186400  1
  N  N51  1  0.82879900  0.53205300  0.78201400  1
  N  N52  1  0.53668700  0.12709800  0.95692600  1
  N  N53  1  0.46331300  0.37290200  0.45692600  1
  N  N54  1  0.03668700  0.37290200  0.95692600  1
  N  N55  1  0.05613200  0.87464000  0.46186400  1
  N  N56  1  0.55613200  0.12536000  0.03813600  1
  N  N57  1  0.95435000  0.49622500  0.33070600  1
  N  N58  1  0.45435000  0.00377500  0.33070600  1
  N  N59  1  0.96331300  0.12709800  0.45692600  1
  N  N60  1  0.04565000  0.00377500  0.83070600  1
  N  N61  1  0.95174500  0.62353600  0.29514600  1
  N  N62  1  0.32879900  0.96794700  0.78201400  1
  N  N63  1  0.82879900  0.03205300  0.71798600  1
  N  N64  1  0.45174500  0.87646400  0.29514600  1
  N  N65  1  0.32200000  0.30789000  0.99316400  1
  N  N66  1  0.32879900  0.46794700  0.71798600  1
  N  N67  1  0.67800000  0.69211000  0.00683600  1
  N  N68  1  0.82200000  0.69211000  0.50683600  1
  N  N69  1  0.94386800  0.12536000  0.53813600  1
  N  N70  1  0.96331300  0.62709800  0.04307400  1
  N  N71  1  0.95435000  0.99622500  0.16929400  1
  N  N72  1  0.67800000  0.19211000  0.49316400  1
  N  N73  1  0.54825500  0.12353600  0.70485400  1
  N  N74  1  0.05613200  0.37464000  0.03813600  1
  N  N75  1  0.82200000  0.19211000  0.99316400  1
  N  N76  1  0.94386800  0.62536000  0.96186400  1
  N  N77  1  0.04825500  0.37646400  0.70485400  1
  N  N78  1  0.17120100  0.96794700  0.28201400  1
  N  N79  1  0.45174500  0.37646400  0.20485400  1
  N  N80  1  0.54825500  0.62353600  0.79514600  1
  N  N81  1  0.04565000  0.50377500  0.66929400  1
  N  N82  1  0.46331300  0.87290200  0.04307400  1
  N  N83  1  0.53668700  0.62709800  0.54307400  1
  N  N84  1  0.67120100  0.03205300  0.21798600  1
  N  N85  1  0.04825500  0.87646400  0.79514600  1
  N  N86  1  0.17800000  0.30789000  0.49316400  1
  N  N87  1  0.44386800  0.37464000  0.53813600  1
  N  N88  1  0.95174500  0.12353600  0.20485400  1
  N  N89  1  0.67120100  0.53205300  0.28201400  1
  N  N90  1  0.32200000  0.80789000  0.50683600  1
  N  N91  1  0.17800000  0.80789000  0.00683600  1
  N  N92  1  0.54565000  0.99622500  0.66929400  1
  N  N93  1  0.17120100  0.46794700  0.21798600  1
  N  N94  1  0.54565000  0.49622500  0.83070600  1
  N  N95  1  0.45435000  0.50377500  0.16929400  1
  Cl  Cl96  1  0.28259200  0.57304500  0.49866700  1
  Cl  Cl97  1  0.71916700  0.36659900  0.78557100  1
  Cl  Cl98  1  0.85732700  0.09348300  0.91111300  1
  Cl  Cl99  1  0.72122400  0.91770800  0.33836000  1
  Cl  Cl100  1  0.37551100  0.79635800  0.79420200  1
  Cl  Cl101  1  0.21916700  0.63340100  0.71442900  1
  Cl  Cl102  1  0.21729900  0.86661600  0.70739000  1
  Cl  Cl103  1  0.64267300  0.09348300  0.41111300  1
  Cl  Cl104  1  0.37279500  0.05026200  0.86917900  1
  Cl  Cl105  1  0.87551100  0.70364200  0.79420200  1
  Cl  Cl106  1  0.28270100  0.36661600  0.29261000  1
  Cl  Cl107  1  0.60103600  0.58999500  0.92951700  1
  Cl  Cl108  1  0.72122400  0.41770800  0.16164000  1
  Cl  Cl109  1  0.69310400  0.25857600  0.90834200  1
  Cl  Cl110  1  0.10103600  0.41000500  0.57048300  1
  Cl  Cl111  1  0.78270100  0.13338400  0.29261000  1
  Cl  Cl112  1  0.39896400  0.41000500  0.07048300  1
  Cl  Cl113  1  0.22122400  0.58229200  0.33836000  1
  Cl  Cl114  1  0.28083300  0.63340100  0.21442900  1
  Cl  Cl115  1  0.77877600  0.91770800  0.83836000  1
  Cl  Cl116  1  0.76540000  0.75443600  0.91732500  1
  Cl  Cl117  1  0.71916700  0.86659900  0.71442900  1
  Cl  Cl118  1  0.89896400  0.08999500  0.07048300  1
  Cl  Cl119  1  0.87279500  0.94973800  0.63082100  1
  Cl  Cl120  1  0.71729900  0.63338400  0.70739000  1
  Cl  Cl121  1  0.21916700  0.13340100  0.78557100  1
  Cl  Cl122  1  0.35732700  0.90651700  0.58888700  1
  Cl  Cl123  1  0.78259200  0.92695500  0.49866700  1
  Cl  Cl124  1  0.77877600  0.41770800  0.66164000  1
  Cl  Cl125  1  0.78083300  0.86659900  0.21442900  1
  Cl  Cl126  1  0.60103600  0.08999500  0.57048300  1
  Cl  Cl127  1  0.30689600  0.24142400  0.40834200  1
  Cl  Cl128  1  0.64267300  0.59348300  0.08888700  1
  Cl  Cl129  1  0.37551100  0.29635800  0.70579800  1
  Cl  Cl130  1  0.78259200  0.42695500  0.00133300  1
  Cl  Cl131  1  0.12448900  0.29635800  0.20579800  1
  Cl  Cl132  1  0.37279500  0.55026200  0.63082100  1
  Cl  Cl133  1  0.23460000  0.74556400  0.41732500  1
  Cl  Cl134  1  0.39896400  0.91000500  0.42951700  1
  Cl  Cl135  1  0.73460000  0.75443600  0.41732500  1
  Cl  Cl136  1  0.87551100  0.20364200  0.70579800  1
  Cl  Cl137  1  0.62720500  0.44973800  0.36917900  1
  Cl  Cl138  1  0.23460000  0.24556400  0.08267500  1
  Cl  Cl139  1  0.14267300  0.90651700  0.08888700  1
  Cl  Cl140  1  0.62448900  0.20364200  0.20579800  1
  Cl  Cl141  1  0.21729900  0.36661600  0.79261000  1
  Cl  Cl142  1  0.35732700  0.40651700  0.91111300  1
  Cl  Cl143  1  0.28259200  0.07304500  0.00133300  1
  Cl  Cl144  1  0.73460000  0.25443600  0.08267500  1
  Cl  Cl145  1  0.28270100  0.86661600  0.20739000  1
  Cl  Cl146  1  0.14267300  0.40651700  0.41111300  1
  Cl  Cl147  1  0.80689600  0.75857600  0.09165800  1
  Cl  Cl148  1  0.71729900  0.13338400  0.79261000  1
  Cl  Cl149  1  0.21740800  0.07304500  0.50133300  1
  Cl  Cl150  1  0.19310400  0.74142400  0.59165800  1
  Cl  Cl151  1  0.87279500  0.44973800  0.86917900  1
  Cl  Cl152  1  0.21740800  0.57304500  0.99866700  1
  Cl  Cl153  1  0.12448900  0.79635800  0.29420200  1
  Cl  Cl154  1  0.80689600  0.25857600  0.40834200  1
  Cl  Cl155  1  0.27877600  0.08229200  0.66164000  1
  Cl  Cl156  1  0.22122400  0.08229200  0.16164000  1
  Cl  Cl157  1  0.27877600  0.58229200  0.83836000  1
  Cl  Cl158  1  0.85732700  0.59348300  0.58888700  1
  Cl  Cl159  1  0.76540000  0.25443600  0.58267500  1
  Cl  Cl160  1  0.78083300  0.36659900  0.28557100  1
  Cl  Cl161  1  0.89896400  0.58999500  0.42951700  1
  Cl  Cl162  1  0.69310400  0.75857600  0.59165800  1
  Cl  Cl163  1  0.26540000  0.74556400  0.91732500  1
  Cl  Cl164  1  0.26540000  0.24556400  0.58267500  1
  Cl  Cl165  1  0.30689600  0.74142400  0.09165800  1
  Cl  Cl166  1  0.19310400  0.24142400  0.90834200  1
  Cl  Cl167  1  0.62720500  0.94973800  0.13082100  1
  Cl  Cl168  1  0.12720500  0.05026200  0.36917900  1
  Cl  Cl169  1  0.28083300  0.13340100  0.28557100  1
  Cl  Cl170  1  0.62448900  0.70364200  0.29420200  1
  Cl  Cl171  1  0.78270100  0.63338400  0.20739000  1
  Cl  Cl172  1  0.12720500  0.55026200  0.13082100  1
  Cl  Cl173  1  0.10103600  0.91000500  0.92951700  1
  Cl  Cl174  1  0.71740800  0.42695500  0.50133300  1
  Cl  Cl175  1  0.71740800  0.92695500  0.99866700  1
