# generated using pymatgen
data_Rb3Ce2(NO3)9
_symmetry_space_group_name_H-M   'P 1'
_cell_length_a   13.97611300
_cell_length_b   13.97611300
_cell_length_c   13.97611300
_cell_angle_alpha   90.00000000
_cell_angle_beta   90.00000000
_cell_angle_gamma   90.00000000
_symmetry_Int_Tables_number   1
_chemical_formula_structural   Rb3Ce2(NO3)9
_chemical_formula_sum   'Rb12 Ce8 N36 O108'
_cell_volume   2729.97839510
_cell_formula_units_Z   4
loop_
 _symmetry_equiv_pos_site_id
 _symmetry_equiv_pos_as_xyz
  1  'x, y, z'
loop_
 _atom_site_type_symbol
 _atom_site_label
 _atom_site_symmetry_multiplicity
 _atom_site_fract_x
 _atom_site_fract_y
 _atom_site_fract_z
 _atom_site_occupancy
  Rb  Rb0  1  0.30450400  0.44549600  0.87500000  1
  Rb  Rb1  1  0.12500000  0.80450400  0.05450400  1
  Rb  Rb2  1  0.37500000  0.19549600  0.55450400  1
  Rb  Rb3  1  0.55450400  0.37500000  0.19549600  1
  Rb  Rb4  1  0.19549600  0.55450400  0.37500000  1
  Rb  Rb5  1  0.05450400  0.12500000  0.80450400  1
  Rb  Rb6  1  0.62500000  0.69549600  0.94549600  1
  Rb  Rb7  1  0.87500000  0.30450400  0.44549600  1
  Rb  Rb8  1  0.69549600  0.94549600  0.62500000  1
  Rb  Rb9  1  0.44549600  0.87500000  0.30450400  1
  Rb  Rb10  1  0.80450400  0.05450400  0.12500000  1
  Rb  Rb11  1  0.94549600  0.62500000  0.69549600  1
  Ce  Ce12  1  0.69493300  0.30506700  0.80506700  1
  Ce  Ce13  1  0.19493300  0.19493300  0.19493300  1
  Ce  Ce14  1  0.30506700  0.80506700  0.69493300  1
  Ce  Ce15  1  0.80506700  0.69493300  0.30506700  1
  Ce  Ce16  1  0.94493300  0.44493300  0.05506700  1
  Ce  Ce17  1  0.44493300  0.05506700  0.94493300  1
  Ce  Ce18  1  0.05506700  0.94493300  0.44493300  1
  Ce  Ce19  1  0.55506700  0.55506700  0.55506700  1
  N  N20  1  0.76616400  0.62500000  0.51616400  1
  N  N21  1  0.84631000  0.38832200  0.67292200  1
  N  N22  1  0.07707800  0.36167800  0.90369000  1
  N  N23  1  0.23383600  0.12500000  0.98383600  1
  N  N24  1  0.32707800  0.34631000  0.11167800  1
  N  N25  1  0.42292200  0.63832200  0.40369000  1
  N  N26  1  0.98383600  0.23383600  0.12500000  1
  N  N27  1  0.34631000  0.11167800  0.32707800  1
  N  N28  1  0.63832200  0.40369000  0.42292200  1
  N  N29  1  0.37500000  0.01616400  0.73383600  1
  N  N30  1  0.86167800  0.59631000  0.92292200  1
  N  N31  1  0.38832200  0.67292200  0.84631000  1
  N  N32  1  0.36167800  0.90369000  0.07707800  1
  N  N33  1  0.51616400  0.76616400  0.62500000  1
  N  N34  1  0.12500000  0.98383600  0.23383600  1
  N  N35  1  0.15369000  0.88832200  0.82707800  1
  N  N36  1  0.26616400  0.87500000  0.48383600  1
  N  N37  1  0.17292200  0.65369000  0.61167800  1
  N  N38  1  0.40369000  0.42292200  0.63832200  1
  N  N39  1  0.59631000  0.92292200  0.86167800  1
  N  N40  1  0.09631000  0.57707800  0.13832200  1
  N  N41  1  0.73383600  0.37500000  0.01616400  1
  N  N42  1  0.90369000  0.07707800  0.36167800  1
  N  N43  1  0.82707800  0.15369000  0.88832200  1
  N  N44  1  0.65369000  0.61167800  0.17292200  1
  N  N45  1  0.13832200  0.09631000  0.57707800  1
  N  N46  1  0.48383600  0.26616400  0.87500000  1
  N  N47  1  0.61167800  0.17292200  0.65369000  1
  N  N48  1  0.88832200  0.82707800  0.15369000  1
  N  N49  1  0.92292200  0.86167800  0.59631000  1
  N  N50  1  0.87500000  0.48383600  0.26616400  1
  N  N51  1  0.62500000  0.51616400  0.76616400  1
  N  N52  1  0.67292200  0.84631000  0.38832200  1
  N  N53  1  0.11167800  0.32707800  0.34631000  1
  N  N54  1  0.57707800  0.13832200  0.09631000  1
  N  N55  1  0.01616400  0.73383600  0.37500000  1
  O  O56  1  0.00545500  0.15158700  0.15436000  1
  O  O57  1  0.32657300  0.07489100  0.24552400  1
  O  O58  1  0.44858800  0.40023200  0.56170000  1
  O  O59  1  0.07657300  0.49552400  0.17510900  1
  O  O60  1  0.69858800  0.68830000  0.15023200  1
  O  O61  1  0.81170000  0.84976800  0.19858800  1
  O  O62  1  0.40436000  0.09841300  0.75545500  1
  O  O63  1  0.05141200  0.59976800  0.06170000  1
  O  O64  1  0.07451500  0.38177000  0.40631700  1
  O  O65  1  0.17342700  0.92510900  0.74552400  1
  O  O66  1  0.90023200  0.93830000  0.55141200  1
  O  O67  1  0.65023200  0.80141200  0.31170000  1
  O  O68  1  0.59564000  0.59841300  0.74454500  1
  O  O69  1  0.42548500  0.61823000  0.90631700  1
  O  O70  1  0.99552400  0.32489100  0.92342700  1
  O  O71  1  0.18830000  0.34976800  0.30141200  1
  O  O72  1  0.54919100  0.20080900  0.87500000  1
  O  O73  1  0.09841300  0.75545500  0.40436000  1
  O  O74  1  0.36823000  0.67548500  0.34368300  1
  O  O75  1  0.67510900  0.42342700  0.50447600  1
  O  O76  1  0.00447600  0.82489100  0.57657300  1
  O  O77  1  0.87500000  0.54919100  0.20080900  1
  O  O78  1  0.45080900  0.70080900  0.62500000  1
  O  O79  1  0.65631700  0.86823000  0.82451500  1
  O  O80  1  0.40158700  0.24454500  0.90436000  1
  O  O81  1  0.11823000  0.59368300  0.57451500  1
  O  O82  1  0.68830000  0.15023200  0.69858800  1
  O  O83  1  0.70080900  0.62500000  0.45080900  1
  O  O84  1  0.57489100  0.25447600  0.67342700  1
  O  O85  1  0.30141200  0.18830000  0.34976800  1
  O  O86  1  0.61823000  0.90631700  0.42548500  1
  O  O87  1  0.17548500  0.15631700  0.63177000  1
  O  O88  1  0.75447600  0.82657300  0.42510900  1
  O  O89  1  0.63177000  0.17548500  0.15631700  1
  O  O90  1  0.67342700  0.57489100  0.25447600  1
  O  O91  1  0.15436000  0.00545500  0.15158700  1
  O  O92  1  0.06170000  0.05141200  0.59976800  1
  O  O93  1  0.84841300  0.65436000  0.49454500  1
  O  O94  1  0.12500000  0.04919100  0.29919100  1
  O  O95  1  0.09564000  0.90158700  0.25545500  1
  O  O96  1  0.24552400  0.32657300  0.07489100  1
  O  O97  1  0.74552400  0.17342700  0.92510900  1
  O  O98  1  0.99454500  0.65158700  0.34564000  1
  O  O99  1  0.90158700  0.25545500  0.09564000  1
  O  O100  1  0.86823000  0.82451500  0.65631700  1
  O  O101  1  0.94858800  0.09976800  0.43830000  1
  O  O102  1  0.42510900  0.75447600  0.82657300  1
  O  O103  1  0.50545500  0.34841300  0.84564000  1
  O  O104  1  0.80141200  0.31170000  0.65023200  1
  O  O105  1  0.62500000  0.45080900  0.70080900  1
  O  O106  1  0.38177000  0.40631700  0.07451500  1
  O  O107  1  0.34564000  0.99454500  0.65158700  1
  O  O108  1  0.40631700  0.07451500  0.38177000  1
  O  O109  1  0.17510900  0.07657300  0.49552400  1
  O  O110  1  0.32489100  0.92342700  0.99552400  1
  O  O111  1  0.59841300  0.74454500  0.59564000  1
  O  O112  1  0.31170000  0.65023200  0.80141200  1
  O  O113  1  0.34976800  0.30141200  0.18830000  1
  O  O114  1  0.65436000  0.49454500  0.84841300  1
  O  O115  1  0.50447600  0.67510900  0.42342700  1
  O  O116  1  0.20080900  0.87500000  0.54919100  1
  O  O117  1  0.90631700  0.42548500  0.61823000  1
  O  O118  1  0.40023200  0.56170000  0.44858800  1
  O  O119  1  0.29919100  0.12500000  0.04919100  1
  O  O120  1  0.92342700  0.99552400  0.32489100  1
  O  O121  1  0.82489100  0.57657300  0.00447600  1
  O  O122  1  0.57657300  0.00447600  0.82489100  1
  O  O123  1  0.15158700  0.15436000  0.00545500  1
  O  O124  1  0.32451500  0.84368300  0.13177000  1
  O  O125  1  0.49552400  0.17510900  0.07657300  1
  O  O126  1  0.93830000  0.55141200  0.90023200  1
  O  O127  1  0.84564000  0.50545500  0.34841300  1
  O  O128  1  0.75545500  0.40436000  0.09841300  1
  O  O129  1  0.19858800  0.81170000  0.84976800  1
  O  O130  1  0.09368300  0.92548500  0.88177000  1
  O  O131  1  0.37500000  0.95080900  0.79919100  1
  O  O132  1  0.55141200  0.90023200  0.93830000  1
  O  O133  1  0.24454500  0.90436000  0.40158700  1
  O  O134  1  0.15023200  0.69858800  0.68830000  1
  O  O135  1  0.42342700  0.50447600  0.67510900  1
  O  O136  1  0.59368300  0.57451500  0.11823000  1
  O  O137  1  0.25447600  0.67342700  0.57489100  1
  O  O138  1  0.43830000  0.94858800  0.09976800  1
  O  O139  1  0.07489100  0.24552400  0.32657300  1
  O  O140  1  0.82657300  0.42510900  0.75447600  1
  O  O141  1  0.67548500  0.34368300  0.36823000  1
  O  O142  1  0.13177000  0.32451500  0.84368300  1
  O  O143  1  0.57451500  0.11823000  0.59368300  1
  O  O144  1  0.84368300  0.13177000  0.32451500  1
  O  O145  1  0.49454500  0.84841300  0.65436000  1
  O  O146  1  0.15631700  0.63177000  0.17548500  1
  O  O147  1  0.79919100  0.37500000  0.95080900  1
  O  O148  1  0.95080900  0.79919100  0.37500000  1
  O  O149  1  0.90436000  0.40158700  0.24454500  1
  O  O150  1  0.74454500  0.59564000  0.59841300  1
  O  O151  1  0.25545500  0.09564000  0.90158700  1
  O  O152  1  0.92548500  0.88177000  0.09368300  1
  O  O153  1  0.88177000  0.09368300  0.92548500  1
  O  O154  1  0.56170000  0.44858800  0.40023200  1
  O  O155  1  0.04919100  0.29919100  0.12500000  1
  O  O156  1  0.65158700  0.34564000  0.99454500  1
  O  O157  1  0.34841300  0.84564000  0.50545500  1
  O  O158  1  0.92510900  0.74552400  0.17342700  1
  O  O159  1  0.34368300  0.36823000  0.67548500  1
  O  O160  1  0.82451500  0.65631700  0.86823000  1
  O  O161  1  0.09976800  0.43830000  0.94858800  1
  O  O162  1  0.84976800  0.19858800  0.81170000  1
  O  O163  1  0.59976800  0.06170000  0.05141200  1
