# generated using pymatgen
data_Ba(C2N3)2
_symmetry_space_group_name_H-M   'P 1'
_cell_length_a   4.33084200
_cell_length_b   11.59074200
_cell_length_c   16.09384500
_cell_angle_alpha   90.00000000
_cell_angle_beta   90.00000000
_cell_angle_gamma   90.00000000
_symmetry_Int_Tables_number   1
_chemical_formula_structural   Ba(C2N3)2
_chemical_formula_sum   'Ba4 C16 N24'
_cell_volume   807.87355679
_cell_formula_units_Z   4
loop_
 _symmetry_equiv_pos_site_id
 _symmetry_equiv_pos_as_xyz
  1  'x, y, z'
loop_
 _atom_site_type_symbol
 _atom_site_label
 _atom_site_symmetry_multiplicity
 _atom_site_fract_x
 _atom_site_fract_y
 _atom_site_fract_z
 _atom_site_occupancy
  Ba  Ba0  1  0.25000000  0.36878800  0.21412700  1
  Ba  Ba1  1  0.25000000  0.13121200  0.71412700  1
  Ba  Ba2  1  0.75000000  0.86878800  0.28587300  1
  Ba  Ba3  1  0.75000000  0.63121200  0.78587300  1
  C  C4  1  0.25000000  0.86867900  0.54423900  1
  C  C5  1  0.25000000  0.37398000  0.56497000  1
  C  C6  1  0.25000000  0.25060800  0.43776200  1
  C  C7  1  0.75000000  0.74939200  0.56223800  1
  C  C8  1  0.25000000  0.12602000  0.06497000  1
  C  C9  1  0.75000000  0.62602000  0.43503000  1
  C  C10  1  0.25000000  0.83819000  0.67840100  1
  C  C11  1  0.75000000  0.87398000  0.93503000  1
  C  C12  1  0.75000000  0.36867900  0.95576100  1
  C  C13  1  0.75000000  0.16181000  0.32159900  1
  C  C14  1  0.75000000  0.75060800  0.06223800  1
  C  C15  1  0.75000000  0.33819000  0.82159900  1
  C  C16  1  0.75000000  0.13132100  0.45576100  1
  C  C17  1  0.25000000  0.24939200  0.93776200  1
  C  C18  1  0.25000000  0.63132100  0.04423900  1
  C  C19  1  0.25000000  0.66181000  0.17840100  1
  N  N20  1  0.25000000  0.58333000  0.12202400  1
  N  N21  1  0.75000000  0.38874500  0.03054800  1
  N  N22  1  0.75000000  0.93136300  0.87442300  1
  N  N23  1  0.25000000  0.43136300  0.62557700  1
  N  N24  1  0.75000000  0.81569100  0.00291300  1
  N  N25  1  0.25000000  0.31569100  0.49708700  1
  N  N26  1  0.75000000  0.68430900  0.50291300  1
  N  N27  1  0.25000000  0.87622700  0.39382500  1
  N  N28  1  0.75000000  0.41667000  0.87797600  1
  N  N29  1  0.25000000  0.18430900  0.99708700  1
  N  N30  1  0.75000000  0.12377300  0.60617500  1
  N  N31  1  0.75000000  0.23152300  0.26679000  1
  N  N32  1  0.25000000  0.88874500  0.46945200  1
  N  N33  1  0.75000000  0.08333000  0.37797600  1
  N  N34  1  0.25000000  0.91667000  0.62202400  1
  N  N35  1  0.25000000  0.73152300  0.23321000  1
  N  N36  1  0.25000000  0.76847700  0.73321000  1
  N  N37  1  0.75000000  0.37622700  0.10617500  1
  N  N38  1  0.25000000  0.61125500  0.96945200  1
  N  N39  1  0.75000000  0.26847700  0.76679000  1
  N  N40  1  0.25000000  0.62377300  0.89382500  1
  N  N41  1  0.75000000  0.56863700  0.37442300  1
  N  N42  1  0.75000000  0.11125500  0.53054800  1
  N  N43  1  0.25000000  0.06863700  0.12557700  1
