# generated using pymatgen
data_Ce3(Si3Pd10)2
_symmetry_space_group_name_H-M   'P 1'
_cell_length_a   8.86282124
_cell_length_b   8.86282124
_cell_length_c   8.86282124
_cell_angle_alpha   60.00000000
_cell_angle_beta   60.00000000
_cell_angle_gamma   60.00000000
_symmetry_Int_Tables_number   1
_chemical_formula_structural   Ce3(Si3Pd10)2
_chemical_formula_sum   'Ce3 Si6 Pd20'
_cell_volume   492.26728197
_cell_formula_units_Z   1
loop_
 _symmetry_equiv_pos_site_id
 _symmetry_equiv_pos_as_xyz
  1  'x, y, z'
loop_
 _atom_site_type_symbol
 _atom_site_label
 _atom_site_symmetry_multiplicity
 _atom_site_fract_x
 _atom_site_fract_y
 _atom_site_fract_z
 _atom_site_occupancy
  Ce  Ce0  1  0.75000000  0.75000000  0.75000000  1
  Ce  Ce1  1  0.25000000  0.25000000  0.25000000  1
  Ce  Ce2  1  0.00000000  0.00000000  0.00000000  1
  Si  Si3  1  0.25238800  0.25238800  0.74761200  1
  Si  Si4  1  0.74761200  0.25238800  0.25238800  1
  Si  Si5  1  0.74761200  0.25238800  0.74761200  1
  Si  Si6  1  0.25238800  0.74761200  0.25238800  1
  Si  Si7  1  0.25238800  0.74761200  0.74761200  1
  Si  Si8  1  0.74761200  0.74761200  0.25238800  1
  Pd  Pd9  1  0.84871500  0.50000000  0.50000000  1
  Pd  Pd10  1  0.87615600  0.87615600  0.87615600  1
  Pd  Pd11  1  0.12384400  0.12384400  0.12384400  1
  Pd  Pd12  1  0.62846800  0.12384400  0.12384400  1
  Pd  Pd13  1  0.15128500  0.50000000  0.50000000  1
  Pd  Pd14  1  0.50000000  0.15128500  0.84871500  1
  Pd  Pd15  1  0.37153200  0.87615600  0.87615600  1
  Pd  Pd16  1  0.50000000  0.84871500  0.50000000  1
  Pd  Pd17  1  0.50000000  0.15128500  0.50000000  1
  Pd  Pd18  1  0.12384400  0.62846800  0.12384400  1
  Pd  Pd19  1  0.15128500  0.84871500  0.50000000  1
  Pd  Pd20  1  0.12384400  0.12384400  0.62846800  1
  Pd  Pd21  1  0.15128500  0.50000000  0.84871500  1
  Pd  Pd22  1  0.50000000  0.84871500  0.15128500  1
  Pd  Pd23  1  0.50000000  0.50000000  0.15128500  1
  Pd  Pd24  1  0.50000000  0.50000000  0.84871500  1
  Pd  Pd25  1  0.87615600  0.37153200  0.87615600  1
  Pd  Pd26  1  0.84871500  0.15128500  0.50000000  1
  Pd  Pd27  1  0.87615600  0.87615600  0.37153200  1
  Pd  Pd28  1  0.84871500  0.50000000  0.15128500  1
