data_image0
_chemical_formula_structural       Na2Nb2Se4
_chemical_formula_sum              "Na2 Nb2 Se4"
_cell_length_a       3.55842
_cell_length_b       3.55829
_cell_length_c       14.9714
_cell_angle_alpha    90
_cell_angle_beta     90
_cell_angle_gamma    120.001

_space_group_name_H-M_alt    "P 1"
_space_group_IT_number       1

loop_
  _space_group_symop_operation_xyz
  'x, y, z'

loop_
  _atom_site_type_symbol
  _atom_site_label
  _atom_site_symmetry_multiplicity
  _atom_site_fract_x
  _atom_site_fract_y
  _atom_site_fract_z
  _atom_site_occupancy
  Na  Na1       1.0  0.00000  0.00000  0.00000  1.0000
  Na  Na2       1.0  0.00000  0.00000  0.50000  1.0000
  Nb  Nb1       1.0  0.00000  0.00000  0.25000  1.0000
  Nb  Nb2       1.0  0.00001  0.00001  0.75000  1.0000
  Se  Se1       1.0  0.33300  0.66700  0.13900  1.0000
  Se  Se2       1.0  0.33300  0.66700  0.36100  1.0000
  Se  Se3       1.0  0.66700  0.33300  0.63900  1.0000
  Se  Se4       1.0  0.66700  0.33300  0.86100  1.0000
