# generated using pymatgen
data_Cr2Fe3(SiO4)3
_symmetry_space_group_name_H-M   'P 1'
_cell_length_a   10.25938380
_cell_length_b   10.25938380
_cell_length_c   10.25938380
_cell_angle_alpha   109.47122063
_cell_angle_beta   109.47122063
_cell_angle_gamma   109.47122063
_symmetry_Int_Tables_number   1
_chemical_formula_structural   Cr2Fe3(SiO4)3
_chemical_formula_sum   'Cr8 Fe12 Si12 O48'
_cell_volume   831.26968025
_cell_formula_units_Z   4
loop_
 _symmetry_equiv_pos_site_id
 _symmetry_equiv_pos_as_xyz
  1  'x, y, z'
loop_
 _atom_site_type_symbol
 _atom_site_label
 _atom_site_symmetry_multiplicity
 _atom_site_fract_x
 _atom_site_fract_y
 _atom_site_fract_z
 _atom_site_occupancy
  Cr  Cr0  1  0.50000000  0.50000000  0.50000000  1
  Cr  Cr1  1  0.50000000  0.00000000  0.50000000  1
  Cr  Cr2  1  0.00000000  0.50000000  0.50000000  1
  Cr  Cr3  1  0.50000000  0.50000000  0.00000000  1
  Cr  Cr4  1  0.00000000  0.00000000  0.50000000  1
  Cr  Cr5  1  0.00000000  0.50000000  0.00000000  1
  Cr  Cr6  1  0.50000000  0.00000000  0.00000000  1
  Cr  Cr7  1  0.00000000  0.00000000  0.00000000  1
  Fe  Fe8  1  0.87500000  0.62500000  0.25000000  1
  Fe  Fe9  1  0.62500000  0.25000000  0.87500000  1
  Fe  Fe10  1  0.87500000  0.75000000  0.62500000  1
  Fe  Fe11  1  0.75000000  0.62500000  0.87500000  1
  Fe  Fe12  1  0.25000000  0.87500000  0.62500000  1
  Fe  Fe13  1  0.62500000  0.87500000  0.75000000  1
  Fe  Fe14  1  0.12500000  0.37500000  0.75000000  1
  Fe  Fe15  1  0.37500000  0.75000000  0.12500000  1
  Fe  Fe16  1  0.12500000  0.25000000  0.37500000  1
  Fe  Fe17  1  0.25000000  0.37500000  0.12500000  1
  Fe  Fe18  1  0.75000000  0.12500000  0.37500000  1
  Fe  Fe19  1  0.37500000  0.12500000  0.25000000  1
  Si  Si20  1  0.12500000  0.87500000  0.25000000  1
  Si  Si21  1  0.87500000  0.12500000  0.75000000  1
  Si  Si22  1  0.25000000  0.62500000  0.37500000  1
  Si  Si23  1  0.37500000  0.25000000  0.62500000  1
  Si  Si24  1  0.75000000  0.87500000  0.12500000  1
  Si  Si25  1  0.12500000  0.75000000  0.87500000  1
  Si  Si26  1  0.37500000  0.62500000  0.75000000  1
  Si  Si27  1  0.62500000  0.75000000  0.37500000  1
  Si  Si28  1  0.87500000  0.25000000  0.12500000  1
  Si  Si29  1  0.25000000  0.12500000  0.87500000  1
  Si  Si30  1  0.75000000  0.37500000  0.62500000  1
  Si  Si31  1  0.62500000  0.37500000  0.25000000  1
  O  O32  1  0.69180000  0.08726400  0.70921600  1
  O  O33  1  0.10453500  0.98258300  0.69180000  1
  O  O34  1  0.70921600  0.51741700  0.62195200  1
  O  O35  1  0.62195200  0.70921600  0.51741700  1
  O  O36  1  0.87804800  0.39546500  0.08726400  1
  O  O37  1  0.08726400  0.87804800  0.39546500  1
  O  O38  1  0.98258300  0.69180000  0.10453500  1
  O  O39  1  0.41273600  0.10453500  0.62195200  1
  O  O40  1  0.39546500  0.80820000  0.51741700  1
  O  O41  1  0.98258300  0.79078400  0.87804800  1
  O  O42  1  0.10453500  0.62195200  0.41273600  1
  O  O43  1  0.51741700  0.39546500  0.80820000  1
  O  O44  1  0.79078400  0.87804800  0.98258300  1
  O  O45  1  0.70921600  0.69180000  0.08726400  1
  O  O46  1  0.08726400  0.70921600  0.69180000  1
  O  O47  1  0.62195200  0.41273600  0.10453500  1
  O  O48  1  0.79078400  0.41273600  0.80820000  1
  O  O49  1  0.80820000  0.51741700  0.39546500  1
  O  O50  1  0.80820000  0.79078400  0.41273600  1
  O  O51  1  0.87804800  0.98258300  0.79078400  1
  O  O52  1  0.41273600  0.80820000  0.79078400  1
  O  O53  1  0.39546500  0.08726400  0.87804800  1
  O  O54  1  0.69180000  0.10453500  0.98258300  1
  O  O55  1  0.51741700  0.62195200  0.70921600  1
  O  O56  1  0.30820000  0.91273600  0.29078400  1
  O  O57  1  0.89546500  0.01741700  0.30820000  1
  O  O58  1  0.29078400  0.48258300  0.37804800  1
  O  O59  1  0.37804800  0.29078400  0.48258300  1
  O  O60  1  0.12195200  0.60453500  0.91273600  1
  O  O61  1  0.91273600  0.12195200  0.60453500  1
  O  O62  1  0.01741700  0.30820000  0.89546500  1
  O  O63  1  0.58726400  0.89546500  0.37804800  1
  O  O64  1  0.60453500  0.19180000  0.48258300  1
  O  O65  1  0.01741700  0.20921600  0.12195200  1
  O  O66  1  0.89546500  0.37804800  0.58726400  1
  O  O67  1  0.48258300  0.60453500  0.19180000  1
  O  O68  1  0.20921600  0.12195200  0.01741700  1
  O  O69  1  0.29078400  0.30820000  0.91273600  1
  O  O70  1  0.91273600  0.29078400  0.30820000  1
  O  O71  1  0.37804800  0.58726400  0.89546500  1
  O  O72  1  0.20921600  0.58726400  0.19180000  1
  O  O73  1  0.19180000  0.48258300  0.60453500  1
  O  O74  1  0.19180000  0.20921600  0.58726400  1
  O  O75  1  0.12195200  0.01741700  0.20921600  1
  O  O76  1  0.58726400  0.19180000  0.20921600  1
  O  O77  1  0.60453500  0.91273600  0.12195200  1
  O  O78  1  0.30820000  0.89546500  0.01741700  1
  O  O79  1  0.48258300  0.37804800  0.29078400  1
