# generated using pymatgen
data_Ir3(CO)8
_symmetry_space_group_name_H-M   'P 1'
_cell_length_a   9.83526283
_cell_length_b   9.87164265
_cell_length_c   15.91069078
_cell_angle_alpha   97.87649577
_cell_angle_beta   100.43889361
_cell_angle_gamma   119.19315298
_symmetry_Int_Tables_number   1
_chemical_formula_structural   Ir3(CO)8
_chemical_formula_sum   'Ir12 C32 O32'
_cell_volume   1279.70659375
_cell_formula_units_Z   4
loop_
 _symmetry_equiv_pos_site_id
 _symmetry_equiv_pos_as_xyz
  1  'x, y, z'
loop_
 _atom_site_type_symbol
 _atom_site_label
 _atom_site_symmetry_multiplicity
 _atom_site_fract_x
 _atom_site_fract_y
 _atom_site_fract_z
 _atom_site_occupancy
  Ir  Ir0  1  0.58530700  0.83278900  0.74925600  1
  Ir  Ir1  1  0.48299000  0.46156900  0.21405200  1
  Ir  Ir2  1  0.74845900  0.26855200  0.28559900  1
  Ir  Ir3  1  0.58215100  0.27524000  0.12177300  1
  Ir  Ir4  1  0.41518000  0.16455200  0.24973800  1
  Ir  Ir5  1  0.65150600  0.45729500  0.37836800  1
  Ir  Ir6  1  0.34515200  0.54118300  0.62173400  1
  Ir  Ir7  1  0.25156800  0.73166800  0.71519300  1
  Ir  Ir8  1  0.42139700  0.72558400  0.87825000  1
  Ir  Ir9  1  0.81789800  0.56687000  0.25098500  1
  Ir  Ir10  1  0.51581700  0.53547600  0.78489500  1
  Ir  Ir11  1  0.18100100  0.43314800  0.74987700  1
  C  C12  1  0.49996200  0.33893900  0.73976400  1
  C  C13  1  0.71359000  0.61186800  0.87314100  1
  C  C14  1  0.63127700  0.36593300  0.47639300  1
  C  C15  1  0.00337600  0.39640100  0.79469000  1
  C  C16  1  0.46605000  0.92861600  0.82265300  1
  C  C17  1  0.09865600  0.75768000  0.76083700  1
  C  C18  1  0.36910700  0.63256900  0.52380700  1
  C  C19  1  0.60634300  0.64014800  0.67737300  1
  C  C20  1  0.76191700  0.15863600  0.37300200  1
  C  C21  1  0.89994300  0.50987000  0.37158300  1
  C  C22  1  0.20233100  0.03578100  0.17034600  1
  C  C23  1  0.49949200  0.65846300  0.25897300  1
  C  C24  1  0.39364100  0.35798800  0.32324700  1
  C  C25  1  0.23767100  0.84149600  0.62779200  1
  C  C26  1  0.90199800  0.24299500  0.24042800  1
  C  C27  1  0.89696100  0.78843300  0.29350600  1
  C  C28  1  0.36653500  0.03157300  0.32894100  1
  C  C29  1  0.72984900  0.66784100  0.44692500  1
  C  C30  1  0.63350600  0.96439400  0.66930400  1
  C  C31  1  0.09920800  0.48920300  0.62778700  1
  C  C32  1  0.72442900  0.28135700  0.05367800  1
  C  C33  1  0.28492400  0.38482300  0.12582200  1
  C  C34  1  0.79733300  0.96228600  0.82952700  1
  C  C35  1  0.53629500  0.07104400  0.17612000  1
  C  C36  1  0.27192600  0.33253800  0.55295900  1
  C  C37  1  0.99605800  0.60468500  0.20672000  1
  C  C38  1  0.61088000  0.84415400  0.97682000  1
  C  C39  1  0.09968800  0.21129600  0.70655300  1
  C  C40  1  0.39246300  0.15592000  0.02357700  1
  C  C41  1  0.35842300  0.47237600  0.87112500  1
  C  C42  1  0.28070100  0.71882300  0.94735500  1
  C  C43  1  0.63857400  0.52698500  0.12845800  1
  O  O44  1  0.70658900  0.64193200  0.64420000  1
  O  O45  1  0.94182400  0.92372600  0.31723600  1
  O  O46  1  0.05314400  0.07569300  0.68202100  1
  O  O47  1  0.97016400  0.42055300  0.57310900  1
  O  O48  1  0.81403300  0.29100400  0.01312700  1
  O  O49  1  0.61015100  0.30288300  0.53307500  1
  O  O50  1  0.29107900  0.35439800  0.35476200  1
  O  O51  1  0.22632500  0.90565900  0.57378100  1
  O  O52  1  0.50416600  0.06314400  0.85488000  1
  O  O53  1  0.92575700  0.04214500  0.87947100  1
  O  O54  1  0.10592400  0.62681500  0.18043400  1
  O  O55  1  0.49512200  0.22250900  0.70947100  1
  O  O56  1  0.39351800  0.69444000  0.46687700  1
  O  O57  1  0.16672800  0.34035300  0.07103900  1
  O  O58  1  0.78470100  0.79910600  0.48691900  1
  O  O59  1  0.66239000  0.04383200  0.62004300  1
  O  O60  1  0.89372100  0.37498800  0.82093700  1
  O  O61  1  0.77411400  0.09501800  0.42714300  1
  O  O62  1  0.22300600  0.20353200  0.51192500  1
  O  O63  1  0.50050200  0.93756700  0.14328000  1
  O  O64  1  0.33673800  0.95151100  0.37783600  1
  O  O65  1  0.34245700  0.39889200  0.92602100  1
  O  O66  1  0.72922500  0.92270200  0.03464600  1
  O  O67  1  0.27231800  0.07653100  0.96691700  1
  O  O68  1  0.65394300  0.60156600  0.07410500  1
  O  O69  1  0.02820200  0.57846000  0.42694100  1
  O  O70  1  0.83278000  0.65755700  0.92748200  1
  O  O71  1  0.19112100  0.70646200  0.98844800  1
  O  O72  1  0.99006300  0.22163500  0.20969400  1
  O  O73  1  0.07294800  0.95640000  0.12131000  1
  O  O74  1  0.50687500  0.77624200  0.28912500  1
  O  O75  1  0.00964200  0.77804100  0.79118800  1
