# generated using pymatgen
data_Na5Lu(SiO3)4
_symmetry_space_group_name_H-M   'P 1'
_cell_length_a   13.48506371
_cell_length_b   13.48506371
_cell_length_c   13.48506441
_cell_angle_alpha   110.61858794
_cell_angle_beta   110.61858794
_cell_angle_gamma   110.61858971
_symmetry_Int_Tables_number   1
_chemical_formula_structural   Na5Lu(SiO3)4
_chemical_formula_sum   'Na30 Lu6 Si24 O72'
_cell_volume   1803.07976418
_cell_formula_units_Z   6
loop_
 _symmetry_equiv_pos_site_id
 _symmetry_equiv_pos_as_xyz
  1  'x, y, z'
loop_
 _atom_site_type_symbol
 _atom_site_label
 _atom_site_symmetry_multiplicity
 _atom_site_fract_x
 _atom_site_fract_y
 _atom_site_fract_z
 _atom_site_occupancy
  Na  Na0  1  0.65796500  0.60656900  0.12762900  1
  Na  Na1  1  0.35074700  0.82971500  0.85942900  1
  Na  Na2  1  0.85942900  0.35074700  0.82971500  1
  Na  Na3  1  0.25938100  0.25938100  0.25938100  1
  Na  Na4  1  0.66669800  0.66852300  0.47118800  1
  Na  Na5  1  0.39343100  0.34203500  0.87237100  1
  Na  Na6  1  0.72045500  0.00000000  0.27954500  1
  Na  Na7  1  0.64925300  0.14057100  0.17028500  1
  Na  Na8  1  0.82003500  0.81462800  0.02839300  1
  Na  Na9  1  0.66852300  0.47118800  0.66669800  1
  Na  Na10  1  0.18537200  0.17996500  0.97160700  1
  Na  Na11  1  0.17028500  0.64925300  0.14057100  1
  Na  Na12  1  0.97160700  0.18537200  0.17996500  1
  Na  Na13  1  0.17996500  0.97160700  0.18537200  1
  Na  Na14  1  0.52881200  0.33147700  0.33330200  1
  Na  Na15  1  0.47118800  0.66669800  0.66852300  1
  Na  Na16  1  0.14057100  0.17028500  0.64925300  1
  Na  Na17  1  0.02839300  0.82003500  0.81462800  1
  Na  Na18  1  0.33330200  0.52881200  0.33147700  1
  Na  Na19  1  0.12762900  0.65796500  0.60656900  1
  Na  Na20  1  0.60656900  0.12762900  0.65796500  1
  Na  Na21  1  0.34203500  0.87237100  0.39343100  1
  Na  Na22  1  0.00000000  0.27954500  0.72045500  1
  Na  Na23  1  0.27954500  0.72045500  0.00000000  1
  Na  Na24  1  0.87237100  0.39343100  0.34203500  1
  Na  Na25  1  0.82971500  0.85942900  0.35074700  1
  Na  Na26  1  0.33147700  0.33330200  0.52881200  1
  Na  Na27  1  0.00000000  0.00000000  0.00000000  1
  Na  Na28  1  0.74061900  0.74061900  0.74061900  1
  Na  Na29  1  0.81462900  0.02839300  0.82003500  1
  Lu  Lu30  1  0.25162600  0.00000000  0.74837400  1
  Lu  Lu31  1  0.74796200  0.25203800  0.50000000  1
  Lu  Lu32  1  0.50000000  0.74796200  0.25203800  1
  Lu  Lu33  1  0.25203800  0.50000000  0.74796200  1
  Lu  Lu34  1  0.00000000  0.74837400  0.25162600  1
  Lu  Lu35  1  0.74837400  0.25162600  0.00000000  1
  Si  Si36  1  0.53079500  0.81153100  0.53710500  1
  Si  Si37  1  0.05796400  0.51198600  0.25514600  1
  Si  Si38  1  0.94203600  0.74485400  0.48801400  1
  Si  Si39  1  0.31045000  0.03705600  0.04093300  1
  Si  Si40  1  0.81153100  0.53710500  0.53079500  1
  Si  Si41  1  0.48801400  0.94203600  0.74485400  1
  Si  Si42  1  0.53710500  0.53079500  0.81153100  1
  Si  Si43  1  0.55362400  0.75450100  0.00901300  1
  Si  Si44  1  0.51198600  0.25514600  0.05796400  1
  Si  Si45  1  0.68955000  0.95906700  0.96294400  1
  Si  Si46  1  0.04093300  0.31045000  0.03705600  1
  Si  Si47  1  0.96294400  0.68955000  0.95906700  1
  Si  Si48  1  0.25514600  0.05796400  0.51198600  1
  Si  Si49  1  0.24549900  0.44637600  0.99098700  1
  Si  Si50  1  0.00901300  0.55362400  0.75450100  1
  Si  Si51  1  0.95906700  0.96294400  0.68955000  1
  Si  Si52  1  0.03705600  0.04093300  0.31045000  1
  Si  Si53  1  0.75450100  0.00901300  0.55362400  1
  Si  Si54  1  0.99098700  0.24549900  0.44637600  1
  Si  Si55  1  0.44637600  0.99098700  0.24549900  1
  Si  Si56  1  0.46289500  0.18846900  0.46920500  1
  Si  Si57  1  0.18846900  0.46920500  0.46289500  1
  Si  Si58  1  0.46920500  0.46289500  0.18846900  1
  Si  Si59  1  0.74485400  0.48801400  0.94203600  1
  O  O60  1  0.92906000  0.77943300  0.92169700  1
  O  O61  1  0.24689600  0.94688400  0.88991600  1
  O  O62  1  0.04759100  0.33754300  0.39814100  1
  O  O63  1  0.69763300  0.90937500  0.40714500  1
  O  O64  1  0.95730300  0.10212100  0.35220100  1
  O  O65  1  0.07830300  0.22056700  0.07094000  1
  O  O66  1  0.77943300  0.92169700  0.92906000  1
  O  O67  1  0.16972300  0.11112300  0.45038200  1
  O  O68  1  0.08890600  0.64241300  0.26269200  1
  O  O69  1  0.26269200  0.08890600  0.64241300  1
  O  O70  1  0.64241300  0.26269200  0.08890600  1
  O  O71  1  0.75191000  0.38604200  0.44213000  1
  O  O72  1  0.08670600  0.80491600  0.59338400  1
  O  O73  1  0.35220100  0.95730300  0.10212100  1
  O  O74  1  0.83027700  0.54961800  0.88887700  1
  O  O75  1  0.22444700  0.41192500  0.85436400  1
  O  O76  1  0.72297200  0.57079900  0.56878500  1
  O  O77  1  0.95240900  0.60185900  0.66245700  1
  O  O78  1  0.55787000  0.61395800  0.24809000  1
  O  O79  1  0.24809000  0.55787000  0.61395800  1
  O  O80  1  0.88991600  0.24689600  0.94688400  1
  O  O81  1  0.14787200  0.54642600  0.40040300  1
  O  O82  1  0.04269700  0.64779900  0.89787900  1
  O  O83  1  0.10212100  0.35220100  0.95730300  1
  O  O84  1  0.41192500  0.85436400  0.22444700  1
  O  O85  1  0.14563600  0.58807500  0.77555300  1
  O  O86  1  0.54642600  0.40040300  0.14787200  1
  O  O87  1  0.56878500  0.72297200  0.57079900  1
  O  O88  1  0.38604200  0.44213000  0.75191000  1
  O  O89  1  0.89787900  0.04269700  0.64779900  1
  O  O90  1  0.77555300  0.14563600  0.58807500  1
  O  O91  1  0.88887700  0.83027700  0.54961800  1
  O  O92  1  0.91109400  0.73730800  0.35758700  1
  O  O93  1  0.73730800  0.35758700  0.91109400  1
  O  O94  1  0.42920100  0.27702800  0.43121500  1
  O  O95  1  0.44213000  0.75191000  0.38604200  1
  O  O96  1  0.35758700  0.91109400  0.73730800  1
  O  O97  1  0.30236700  0.59285500  0.09062500  1
  O  O98  1  0.91329400  0.40661600  0.19508400  1
  O  O99  1  0.90937500  0.40714500  0.69763300  1
  O  O100  1  0.85436400  0.22444700  0.41192500  1
  O  O101  1  0.05311600  0.75310400  0.11008400  1
  O  O102  1  0.58807500  0.77555300  0.14563600  1
  O  O103  1  0.43121500  0.42920100  0.27702800  1
  O  O104  1  0.66245700  0.95240900  0.60185900  1
  O  O105  1  0.54961800  0.88887700  0.83027700  1
  O  O106  1  0.07094000  0.07830300  0.22056700  1
  O  O107  1  0.09062500  0.30236700  0.59285500  1
  O  O108  1  0.80491600  0.59338400  0.08670600  1
  O  O109  1  0.60185900  0.66245700  0.95240900  1
  O  O110  1  0.40714500  0.69763300  0.90937500  1
  O  O111  1  0.75310400  0.11008400  0.05311600  1
  O  O112  1  0.11112300  0.45038200  0.16972300  1
  O  O113  1  0.59285500  0.09062500  0.30236700  1
  O  O114  1  0.45038200  0.16972300  0.11112300  1
  O  O115  1  0.57079900  0.56878500  0.72297200  1
  O  O116  1  0.64779900  0.89787900  0.04269700  1
  O  O117  1  0.27702800  0.43121500  0.42920100  1
  O  O118  1  0.39814100  0.04759100  0.33754300  1
  O  O119  1  0.59338400  0.08670600  0.80491600  1
  O  O120  1  0.11008400  0.05311600  0.75310400  1
  O  O121  1  0.61395800  0.24809000  0.55787000  1
  O  O122  1  0.22056700  0.07094000  0.07830300  1
  O  O123  1  0.40661600  0.19508400  0.91329400  1
  O  O124  1  0.33754300  0.39814100  0.04759100  1
  O  O125  1  0.85212800  0.59959700  0.45357400  1
  O  O126  1  0.40040300  0.14787200  0.54642600  1
  O  O127  1  0.19508400  0.91329400  0.40661600  1
  O  O128  1  0.59959700  0.45357400  0.85212800  1
  O  O129  1  0.45357400  0.85212800  0.59959700  1
  O  O130  1  0.94688400  0.88991600  0.24689600  1
  O  O131  1  0.92169700  0.92906000  0.77943300  1
