# generated using pymatgen
data_La2Ta2O9
_symmetry_space_group_name_H-M   'P 1'
_cell_length_a   3.92810600
_cell_length_b   6.80879700
_cell_length_c   15.74008978
_cell_angle_alpha   67.39164034
_cell_angle_beta   90.00000000
_cell_angle_gamma   90.00000000
_symmetry_Int_Tables_number   1
_chemical_formula_structural   La2Ta2O9
_chemical_formula_sum   'La4 Ta4 O18'
_cell_volume   388.62882581
_cell_formula_units_Z   2
loop_
 _symmetry_equiv_pos_site_id
 _symmetry_equiv_pos_as_xyz
  1  'x, y, z'
loop_
 _atom_site_type_symbol
 _atom_site_label
 _atom_site_symmetry_multiplicity
 _atom_site_fract_x
 _atom_site_fract_y
 _atom_site_fract_z
 _atom_site_occupancy
  La  La0  1  0.49407400  0.18681200  0.80447300  1
  La  La1  1  0.00592600  0.18681200  0.30447300  1
  La  La2  1  0.50592600  0.81318800  0.19552700  1
  La  La3  1  0.99407400  0.81318800  0.69552700  1
  Ta  Ta4  1  0.00415200  0.19560100  0.03789900  1
  Ta  Ta5  1  0.49584800  0.19560100  0.53789900  1
  Ta  Ta6  1  0.99584800  0.80439900  0.96210100  1
  Ta  Ta7  1  0.50415200  0.80439900  0.46210100  1
  O  O8  1  0.99887300  0.84433700  0.07962700  1
  O  O9  1  0.50112700  0.84433700  0.57962700  1
  O  O10  1  0.00112700  0.15566300  0.92037300  1
  O  O11  1  0.49887300  0.15566300  0.42037300  1
  O  O12  1  0.50178500  0.16197700  0.04683100  1
  O  O13  1  0.99821500  0.16197700  0.54683100  1
  O  O14  1  0.49821500  0.83802300  0.95316900  1
  O  O15  1  0.00178500  0.83802300  0.45316900  1
  O  O16  1  0.00000000  0.50000000  0.00000000  1
  O  O17  1  0.50000000  0.50000000  0.50000000  1
  O  O18  1  0.49796500  0.08056500  0.67430000  1
  O  O19  1  0.00203500  0.08056500  0.17430000  1
  O  O20  1  0.50203500  0.91943500  0.32570000  1
  O  O21  1  0.99796500  0.91943500  0.82570000  1
  O  O22  1  0.99219100  0.43757200  0.72099700  1
  O  O23  1  0.50780900  0.43757200  0.22099700  1
  O  O24  1  0.00780900  0.56242800  0.27900300  1
  O  O25  1  0.49219100  0.56242800  0.77900300  1
