# generated using pymatgen
data_Dy5Cl11
_symmetry_space_group_name_H-M   'P 1'
_cell_length_a   33.41589900
_cell_length_b   6.66827600
_cell_length_c   6.82072976
_cell_angle_alpha   89.14649546
_cell_angle_beta   90.00000000
_cell_angle_gamma   90.00000000
_symmetry_Int_Tables_number   1
_chemical_formula_structural   Dy5Cl11
_chemical_formula_sum   'Dy20 Cl44'
_cell_volume   1519.67028621
_cell_formula_units_Z   4
loop_
 _symmetry_equiv_pos_site_id
 _symmetry_equiv_pos_as_xyz
  1  'x, y, z'
loop_
 _atom_site_type_symbol
 _atom_site_label
 _atom_site_symmetry_multiplicity
 _atom_site_fract_x
 _atom_site_fract_y
 _atom_site_fract_z
 _atom_site_occupancy
  Dy  Dy0  1  0.93982600  0.44493800  0.12479400  1
  Dy  Dy1  1  0.85635000  0.04758600  0.29903300  1
  Dy  Dy2  1  0.25000000  0.00961400  0.31813200  1
  Dy  Dy3  1  0.64604200  0.45771000  0.80491600  1
  Dy  Dy4  1  0.94136500  0.04563500  0.62081000  1
  Dy  Dy5  1  0.75000000  0.99038600  0.68186800  1
  Dy  Dy6  1  0.75000000  0.51062000  0.17750700  1
  Dy  Dy7  1  0.55863500  0.04563500  0.62081000  1
  Dy  Dy8  1  0.14604200  0.54229000  0.19508400  1
  Dy  Dy9  1  0.85395800  0.45771000  0.80491600  1
  Dy  Dy10  1  0.05863500  0.95436500  0.37919000  1
  Dy  Dy11  1  0.35635000  0.95241400  0.70096700  1
  Dy  Dy12  1  0.14365000  0.95241400  0.70096700  1
  Dy  Dy13  1  0.64365000  0.04758600  0.29903300  1
  Dy  Dy14  1  0.35395800  0.54229000  0.19508400  1
  Dy  Dy15  1  0.44136500  0.95436500  0.37919000  1
  Dy  Dy16  1  0.56017400  0.44493800  0.12479400  1
  Dy  Dy17  1  0.43982600  0.55506200  0.87520600  1
  Dy  Dy18  1  0.06017400  0.55506200  0.87520600  1
  Dy  Dy19  1  0.25000000  0.48938000  0.82249300  1
  Cl  Cl20  1  0.41824200  0.31327400  0.17525000  1
  Cl  Cl21  1  0.50838700  0.27904200  0.86973500  1
  Cl  Cl22  1  0.10275400  0.86486000  0.04382100  1
  Cl  Cl23  1  0.29869300  0.80577400  0.01970600  1
  Cl  Cl24  1  0.82570400  0.67481900  0.11500200  1
  Cl  Cl25  1  0.25000000  0.39648800  0.20017600  1
  Cl  Cl26  1  0.67311900  0.82963800  0.61791900  1
  Cl  Cl27  1  0.75000000  0.60351200  0.79982400  1
  Cl  Cl28  1  0.70130700  0.19422600  0.98029400  1
  Cl  Cl29  1  0.60283100  0.36133400  0.46964100  1
  Cl  Cl30  1  0.58175800  0.68672600  0.82475000  1
  Cl  Cl31  1  0.91824200  0.68672600  0.82475000  1
  Cl  Cl32  1  0.60275400  0.13514000  0.95617900  1
  Cl  Cl33  1  0.70124700  0.30195900  0.47690600  1
  Cl  Cl34  1  0.17429600  0.32518100  0.88499800  1
  Cl  Cl35  1  0.32688100  0.17036200  0.38208100  1
  Cl  Cl36  1  0.82688100  0.82963800  0.61791900  1
  Cl  Cl37  1  0.17311900  0.17036200  0.38208100  1
  Cl  Cl38  1  0.39724600  0.86486000  0.04382100  1
  Cl  Cl39  1  0.50790400  0.22451700  0.36953200  1
  Cl  Cl40  1  0.89724600  0.13514000  0.95617900  1
  Cl  Cl41  1  0.91918400  0.80688700  0.32338500  1
  Cl  Cl42  1  0.29875300  0.69804100  0.52309400  1
  Cl  Cl43  1  0.75000000  0.88805400  0.31125300  1
  Cl  Cl44  1  0.20124700  0.69804100  0.52309400  1
  Cl  Cl45  1  0.49161300  0.72095800  0.13026500  1
  Cl  Cl46  1  0.58081600  0.80688700  0.32338500  1
  Cl  Cl47  1  0.08175800  0.31327400  0.17525000  1
  Cl  Cl48  1  0.25000000  0.11194600  0.68874700  1
  Cl  Cl49  1  0.99209600  0.22451700  0.36953200  1
  Cl  Cl50  1  0.00790400  0.77548300  0.63046800  1
  Cl  Cl51  1  0.39716900  0.63866600  0.53035900  1
  Cl  Cl52  1  0.79875300  0.30195900  0.47690600  1
  Cl  Cl53  1  0.49209600  0.77548300  0.63046800  1
  Cl  Cl54  1  0.00838700  0.72095800  0.13026500  1
  Cl  Cl55  1  0.08081600  0.19311300  0.67661500  1
  Cl  Cl56  1  0.10283100  0.63866600  0.53035900  1
  Cl  Cl57  1  0.41918400  0.19311300  0.67661500  1
  Cl  Cl58  1  0.89716900  0.36133400  0.46964100  1
  Cl  Cl59  1  0.79869300  0.19422600  0.98029400  1
  Cl  Cl60  1  0.32570400  0.32518100  0.88499800  1
  Cl  Cl61  1  0.67429600  0.67481900  0.11500200  1
  Cl  Cl62  1  0.99161300  0.27904200  0.86973500  1
  Cl  Cl63  1  0.20130700  0.80577400  0.01970600  1
