# generated using pymatgen
data_U3Se5
_symmetry_space_group_name_H-M   'P 1'
_cell_length_a   7.69443900
_cell_length_b   8.18898100
_cell_length_c   12.21999700
_cell_angle_alpha   90.00000000
_cell_angle_beta   90.00000000
_cell_angle_gamma   90.00000000
_symmetry_Int_Tables_number   1
_chemical_formula_structural   U3Se5
_chemical_formula_sum   'U12 Se20'
_cell_volume   769.97730354
_cell_formula_units_Z   4
loop_
 _symmetry_equiv_pos_site_id
 _symmetry_equiv_pos_as_xyz
  1  'x, y, z'
loop_
 _atom_site_type_symbol
 _atom_site_label
 _atom_site_symmetry_multiplicity
 _atom_site_fract_x
 _atom_site_fract_y
 _atom_site_fract_z
 _atom_site_occupancy
  U  U0  1  0.52368600  0.50030200  0.31940600  1
  U  U1  1  0.97631400  0.99969800  0.81940600  1
  U  U2  1  0.47631400  0.00030200  0.68059400  1
  U  U3  1  0.02368600  0.49969800  0.18059400  1
  U  U4  1  0.47631400  0.49969800  0.68059400  1
  U  U5  1  0.02368600  0.00030200  0.18059400  1
  U  U6  1  0.52368600  0.99969800  0.31940600  1
  U  U7  1  0.97631400  0.50030200  0.81940600  1
  U  U8  1  0.08010500  0.75000000  0.49350500  1
  U  U9  1  0.41989500  0.75000000  0.99350500  1
  U  U10  1  0.91989500  0.25000000  0.50649500  1
  U  U11  1  0.58010500  0.25000000  0.00649500  1
  Se  Se12  1  0.82930800  0.95110400  0.59795900  1
  Se  Se13  1  0.67069200  0.54889600  0.09795900  1
  Se  Se14  1  0.17069200  0.45110400  0.40204100  1
  Se  Se15  1  0.32930800  0.04889600  0.90204100  1
  Se  Se16  1  0.17069200  0.04889600  0.40204100  1
  Se  Se17  1  0.32930800  0.45110400  0.90204100  1
  Se  Se18  1  0.82930800  0.54889600  0.59795900  1
  Se  Se19  1  0.67069200  0.95110400  0.09795900  1
  Se  Se20  1  0.83073600  0.75000000  0.31477500  1
  Se  Se21  1  0.66926400  0.75000000  0.81477500  1
  Se  Se22  1  0.16926400  0.25000000  0.68522500  1
  Se  Se23  1  0.33073600  0.25000000  0.18522500  1
  Se  Se24  1  0.46412300  0.75000000  0.49962500  1
  Se  Se25  1  0.03587700  0.75000000  0.99962500  1
  Se  Se26  1  0.53587700  0.25000000  0.50037500  1
  Se  Se27  1  0.96412300  0.25000000  0.00037500  1
  Se  Se28  1  0.20004400  0.75000000  0.71802300  1
  Se  Se29  1  0.29995600  0.75000000  0.21802300  1
  Se  Se30  1  0.79995600  0.25000000  0.28197700  1
  Se  Se31  1  0.70004400  0.25000000  0.78197700  1
