# generated using pymatgen
data_CeAl5Pt3
_symmetry_space_group_name_H-M   'P 1'
_cell_length_a   4.15626300
_cell_length_b   7.32978300
_cell_length_c   20.76501900
_cell_angle_alpha   90.00000000
_cell_angle_beta   90.00000000
_cell_angle_gamma   90.00000000
_symmetry_Int_Tables_number   1
_chemical_formula_structural   CeAl5Pt3
_chemical_formula_sum   'Ce4 Al20 Pt12'
_cell_volume   632.59604344
_cell_formula_units_Z   4
loop_
 _symmetry_equiv_pos_site_id
 _symmetry_equiv_pos_as_xyz
  1  'x, y, z'
loop_
 _atom_site_type_symbol
 _atom_site_label
 _atom_site_symmetry_multiplicity
 _atom_site_fract_x
 _atom_site_fract_y
 _atom_site_fract_z
 _atom_site_occupancy
  Ce  Ce0  1  0.25000000  0.11809500  0.64050600  1
  Ce  Ce1  1  0.75000000  0.88190500  0.35949400  1
  Ce  Ce2  1  0.25000000  0.38190500  0.14050600  1
  Ce  Ce3  1  0.75000000  0.61809500  0.85949400  1
  Al  Al4  1  0.75000000  0.35601300  0.38280100  1
  Al  Al5  1  0.75000000  0.88631600  0.98272200  1
  Al  Al6  1  0.75000000  0.68783200  0.20063900  1
  Al  Al7  1  0.25000000  0.86863000  0.49249900  1
  Al  Al8  1  0.25000000  0.63137000  0.99249900  1
  Al  Al9  1  0.25000000  0.31216800  0.79936100  1
  Al  Al10  1  0.75000000  0.07477000  0.20811100  1
  Al  Al11  1  0.25000000  0.64398700  0.61719900  1
  Al  Al12  1  0.25000000  0.57477000  0.29188900  1
  Al  Al13  1  0.25000000  0.18783200  0.29936100  1
  Al  Al14  1  0.75000000  0.14398700  0.88280100  1
  Al  Al15  1  0.25000000  0.92523000  0.79188900  1
  Al  Al16  1  0.75000000  0.36863000  0.00750100  1
  Al  Al17  1  0.75000000  0.61368400  0.48272200  1
  Al  Al18  1  0.75000000  0.13137000  0.50750100  1
  Al  Al19  1  0.25000000  0.11368400  0.01727800  1
  Al  Al20  1  0.25000000  0.85601300  0.11719900  1
  Al  Al21  1  0.25000000  0.38631600  0.51727800  1
  Al  Al22  1  0.75000000  0.42523000  0.70811100  1
  Al  Al23  1  0.75000000  0.81216800  0.70063900  1
  Pt  Pt24  1  0.75000000  0.38292300  0.26173100  1
  Pt  Pt25  1  0.25000000  0.88292300  0.23826900  1
  Pt  Pt26  1  0.25000000  0.61707700  0.73826900  1
  Pt  Pt27  1  0.75000000  0.11707700  0.76173100  1
  Pt  Pt28  1  0.25000000  0.16086500  0.42686600  1
  Pt  Pt29  1  0.75000000  0.41983300  0.58457600  1
  Pt  Pt30  1  0.75000000  0.08016700  0.08457600  1
  Pt  Pt31  1  0.25000000  0.91983300  0.91542400  1
  Pt  Pt32  1  0.75000000  0.83913500  0.57313400  1
  Pt  Pt33  1  0.25000000  0.33913500  0.92686600  1
  Pt  Pt34  1  0.75000000  0.66086500  0.07313400  1
  Pt  Pt35  1  0.25000000  0.58016700  0.41542400  1
