# generated using pymatgen
data_Pu5Pt3
_symmetry_space_group_name_H-M   'P 1'
_cell_length_a   8.51997853
_cell_length_b   8.51997853
_cell_length_c   6.02231100
_cell_angle_alpha   90.00000000
_cell_angle_beta   90.00000000
_cell_angle_gamma   120.00000412
_symmetry_Int_Tables_number   1
_chemical_formula_structural   Pu5Pt3
_chemical_formula_sum   'Pu10 Pt6'
_cell_volume   378.59144299
_cell_formula_units_Z   2
loop_
 _symmetry_equiv_pos_site_id
 _symmetry_equiv_pos_as_xyz
  1  'x, y, z'
loop_
 _atom_site_type_symbol
 _atom_site_label
 _atom_site_symmetry_multiplicity
 _atom_site_fract_x
 _atom_site_fract_y
 _atom_site_fract_z
 _atom_site_occupancy
  Pu  Pu0  1  0.25525800  0.25525800  0.75000000  1
  Pu  Pu1  1  0.74474200  0.00000000  0.75000000  1
  Pu  Pu2  1  0.00000000  0.25525800  0.25000000  1
  Pu  Pu3  1  0.33333300  0.66666700  0.00000000  1
  Pu  Pu4  1  0.00000000  0.74474200  0.75000000  1
  Pu  Pu5  1  0.66666700  0.33333300  0.00000000  1
  Pu  Pu6  1  0.25525800  0.00000000  0.25000000  1
  Pu  Pu7  1  0.74474200  0.74474200  0.25000000  1
  Pu  Pu8  1  0.33333300  0.66666700  0.50000000  1
  Pu  Pu9  1  0.66666700  0.33333300  0.50000000  1
  Pt  Pt10  1  0.00000000  0.39138100  0.75000000  1
  Pt  Pt11  1  0.39138100  0.00000000  0.75000000  1
  Pt  Pt12  1  0.00000000  0.60861900  0.25000000  1
  Pt  Pt13  1  0.60861900  0.60861900  0.75000000  1
  Pt  Pt14  1  0.39138100  0.39138100  0.25000000  1
  Pt  Pt15  1  0.60861900  0.00000000  0.25000000  1
