# generated using pymatgen
data_Si3Ru2
_symmetry_space_group_name_H-M   'P 1'
_cell_length_a   5.76444400
_cell_length_b   8.78325900
_cell_length_c   11.13844700
_cell_angle_alpha   90.00000000
_cell_angle_beta   90.00000000
_cell_angle_gamma   90.00000000
_symmetry_Int_Tables_number   1
_chemical_formula_structural   Si3Ru2
_chemical_formula_sum   'Si24 Ru16'
_cell_volume   563.94630639
_cell_formula_units_Z   8
loop_
 _symmetry_equiv_pos_site_id
 _symmetry_equiv_pos_as_xyz
  1  'x, y, z'
loop_
 _atom_site_type_symbol
 _atom_site_label
 _atom_site_symmetry_multiplicity
 _atom_site_fract_x
 _atom_site_fract_y
 _atom_site_fract_z
 _atom_site_occupancy
  Si  Si0  1  0.99691800  0.87320200  0.46187400  1
  Si  Si1  1  0.49691800  0.62679800  0.03812600  1
  Si  Si2  1  0.49890400  0.50292100  0.37348400  1
  Si  Si3  1  0.99890400  0.49707900  0.37348400  1
  Si  Si4  1  0.00308200  0.62679800  0.96187400  1
  Si  Si5  1  0.50308200  0.87320200  0.53812600  1
  Si  Si6  1  0.77489000  0.80627500  0.72772200  1
  Si  Si7  1  0.50109600  0.99707900  0.87348400  1
  Si  Si8  1  0.00109600  0.50292100  0.62651600  1
  Si  Si9  1  0.50109600  0.49707900  0.62651600  1
  Si  Si10  1  0.72511000  0.30627500  0.22772200  1
  Si  Si11  1  0.99691800  0.37320200  0.03812600  1
  Si  Si12  1  0.27489000  0.19372500  0.72772200  1
  Si  Si13  1  0.00109600  0.00292100  0.87348400  1
  Si  Si14  1  0.77489000  0.30627500  0.77227800  1
  Si  Si15  1  0.00308200  0.12679800  0.53812600  1
  Si  Si16  1  0.27489000  0.69372500  0.77227800  1
  Si  Si17  1  0.22511000  0.19372500  0.27227800  1
  Si  Si18  1  0.22511000  0.69372500  0.22772200  1
  Si  Si19  1  0.72511000  0.80627500  0.27227800  1
  Si  Si20  1  0.49890400  0.00292100  0.12651600  1
  Si  Si21  1  0.99890400  0.99707900  0.12651600  1
  Si  Si22  1  0.49691800  0.12679800  0.46187400  1
  Si  Si23  1  0.50308200  0.37320200  0.96187400  1
  Ru  Ru24  1  0.25000000  0.66937300  0.50000000  1
  Ru  Ru25  1  0.75000000  0.83062700  0.00000000  1
  Ru  Ru26  1  0.25000000  0.34398600  0.50000000  1
  Ru  Ru27  1  0.86387600  0.56935600  0.17808400  1
  Ru  Ru28  1  0.63612400  0.06935600  0.67808400  1
  Ru  Ru29  1  0.75000000  0.65601400  0.50000000  1
  Ru  Ru30  1  0.13612400  0.43064400  0.82191600  1
  Ru  Ru31  1  0.75000000  0.15601400  0.00000000  1
  Ru  Ru32  1  0.86387600  0.06935600  0.32191600  1
  Ru  Ru33  1  0.25000000  0.84398600  0.00000000  1
  Ru  Ru34  1  0.63612400  0.56935600  0.82191600  1
  Ru  Ru35  1  0.25000000  0.16937300  0.00000000  1
  Ru  Ru36  1  0.36387600  0.93064400  0.32191600  1
  Ru  Ru37  1  0.13612400  0.93064400  0.67808400  1
  Ru  Ru38  1  0.75000000  0.33062700  0.50000000  1
  Ru  Ru39  1  0.36387600  0.43064400  0.17808400  1
