# generated using pymatgen
data_ZnAu3
_symmetry_space_group_name_H-M   'P 1'
_cell_length_a   17.43232606
_cell_length_b   17.43232606
_cell_length_c   17.43232606
_cell_angle_alpha   161.15423333
_cell_angle_beta   161.15423333
_cell_angle_gamma   26.77492214
_symmetry_Int_Tables_number   1
_chemical_formula_structural   ZnAu3
_chemical_formula_sum   'Zn8 Au24'
_cell_volume   552.54134512
_cell_formula_units_Z   8
loop_
 _symmetry_equiv_pos_site_id
 _symmetry_equiv_pos_as_xyz
  1  'x, y, z'
loop_
 _atom_site_type_symbol
 _atom_site_label
 _atom_site_symmetry_multiplicity
 _atom_site_fract_x
 _atom_site_fract_y
 _atom_site_fract_z
 _atom_site_occupancy
  Zn  Zn0  1  0.43211000  0.93211000  0.50000000  1
  Zn  Zn1  1  0.06789000  0.56789000  0.50000000  1
  Zn  Zn2  1  0.56789000  0.06789000  0.50000000  1
  Zn  Zn3  1  0.31789000  0.31789000  0.00000000  1
  Zn  Zn4  1  0.93211000  0.43211000  0.50000000  1
  Zn  Zn5  1  0.68211000  0.68211000  0.00000000  1
  Zn  Zn6  1  0.81789000  0.81789000  0.00000000  1
  Zn  Zn7  1  0.18211000  0.18211000  0.00000000  1
  Au  Au8  1  0.31522600  0.18477400  0.50000000  1
  Au  Au9  1  0.55966200  0.55966200  0.00000000  1
  Au  Au10  1  0.87603200  0.87500000  0.50103200  1
  Au  Au11  1  0.18477400  0.68477400  0.86954800  1
  Au  Au12  1  0.93477400  0.93477400  0.36954800  1
  Au  Au13  1  0.19033800  0.69033800  0.50000000  1
  Au  Au14  1  0.37396800  0.37500000  0.49896800  1
  Au  Au15  1  0.44033800  0.44033800  0.00000000  1
  Au  Au16  1  0.06522600  0.43477400  0.00000000  1
  Au  Au17  1  0.30966200  0.80966200  0.50000000  1
  Au  Au18  1  0.56522600  0.56522600  0.63045200  1
  Au  Au19  1  0.69033800  0.19033800  0.50000000  1
  Au  Au20  1  0.62500000  0.12396800  0.99896800  1
  Au  Au21  1  0.94033800  0.94033800  0.00000000  1
  Au  Au22  1  0.80966200  0.30966200  0.50000000  1
  Au  Au23  1  0.68477400  0.81522600  0.50000000  1
  Au  Au24  1  0.62500000  0.62396800  0.49896800  1
  Au  Au25  1  0.12500000  0.12603200  0.50103200  1
  Au  Au26  1  0.81522600  0.31522600  0.13045200  1
  Au  Au27  1  0.37603200  0.87500000  0.00103200  1
  Au  Au28  1  0.05966200  0.05966200  0.00000000  1
  Au  Au29  1  0.12500000  0.62603200  0.00103200  1
  Au  Au30  1  0.43477400  0.06522600  0.00000000  1
  Au  Au31  1  0.87396800  0.37500000  0.99896800  1
