# generated using pymatgen
data_CaIn4Ni
_symmetry_space_group_name_H-M   'P 1'
_cell_length_a   4.51712349
_cell_length_b   7.31233800
_cell_length_c   8.68163714
_cell_angle_alpha   90.00000000
_cell_angle_beta   105.07919626
_cell_angle_gamma   90.00000000
_symmetry_Int_Tables_number   1
_chemical_formula_structural   CaIn4Ni
_chemical_formula_sum   'Ca2 In8 Ni2'
_cell_volume   276.88685321
_cell_formula_units_Z   2
loop_
 _symmetry_equiv_pos_site_id
 _symmetry_equiv_pos_as_xyz
  1  'x, y, z'
loop_
 _atom_site_type_symbol
 _atom_site_label
 _atom_site_symmetry_multiplicity
 _atom_site_fract_x
 _atom_site_fract_y
 _atom_site_fract_z
 _atom_site_occupancy
  Ca  Ca0  1  0.87580400  0.25000000  0.75160700  1
  Ca  Ca1  1  0.12419600  0.75000000  0.24839300  1
  In  In2  1  0.31178600  0.54733200  0.62357100  1
  In  In3  1  0.07342900  0.25000000  0.14685800  1
  In  In4  1  0.68821400  0.04733200  0.37642900  1
  In  In5  1  0.50000000  0.00000000  0.00000000  1
  In  In6  1  0.92657100  0.75000000  0.85314200  1
  In  In7  1  0.68821400  0.45266800  0.37642900  1
  In  In8  1  0.31178600  0.95266800  0.62357100  1
  In  In9  1  0.50000000  0.50000000  0.00000000  1
  Ni  Ni10  1  0.22609400  0.25000000  0.45218800  1
  Ni  Ni11  1  0.77390600  0.75000000  0.54781200  1
