# generated using pymatgen
data_LaTe2
_symmetry_space_group_name_H-M   'P 1'
_cell_length_a   9.14426600
_cell_length_b   9.14426600
_cell_length_c   9.29320500
_cell_angle_alpha   90.00000000
_cell_angle_beta   90.00000000
_cell_angle_gamma   90.00000000
_symmetry_Int_Tables_number   1
_chemical_formula_structural   LaTe2
_chemical_formula_sum   'La8 Te16'
_cell_volume   777.07550472
_cell_formula_units_Z   8
loop_
 _symmetry_equiv_pos_site_id
 _symmetry_equiv_pos_as_xyz
  1  'x, y, z'
loop_
 _atom_site_type_symbol
 _atom_site_label
 _atom_site_symmetry_multiplicity
 _atom_site_fract_x
 _atom_site_fract_y
 _atom_site_fract_z
 _atom_site_occupancy
  La  La0  1  0.25635900  0.75635900  0.27394100  1
  La  La1  1  0.00000000  0.50000000  0.72698600  1
  La  La2  1  0.00000000  0.00000000  0.72594700  1
  La  La3  1  0.50000000  0.00000000  0.72698600  1
  La  La4  1  0.24364100  0.25635900  0.27394100  1
  La  La5  1  0.74364100  0.24364100  0.27394100  1
  La  La6  1  0.50000000  0.50000000  0.72594700  1
  La  La7  1  0.75635900  0.74364100  0.27394100  1
  Te  Te8  1  0.51316300  0.75154000  0.00021600  1
  Te  Te9  1  0.24846000  0.51316300  0.00021600  1
  Te  Te10  1  0.74992800  0.75007200  0.63378000  1
  Te  Te11  1  0.50000000  0.50000000  0.36640200  1
  Te  Te12  1  0.75007200  0.25007200  0.63378000  1
  Te  Te13  1  0.74846000  0.98683700  0.00021600  1
  Te  Te14  1  0.50000000  0.00000000  0.36677200  1
  Te  Te15  1  0.00000000  0.50000000  0.36677200  1
  Te  Te16  1  0.25154000  0.01316300  0.00021600  1
  Te  Te17  1  0.75154000  0.48683700  0.00021600  1
  Te  Te18  1  0.00000000  0.00000000  0.36640200  1
  Te  Te19  1  0.01316300  0.74846000  0.00021600  1
  Te  Te20  1  0.98683700  0.25154000  0.00021600  1
  Te  Te21  1  0.48683700  0.24846000  0.00021600  1
  Te  Te22  1  0.25007200  0.24992800  0.63378000  1
  Te  Te23  1  0.24992800  0.74992800  0.63378000  1
