# generated using pymatgen
data_Y5Ga3
_symmetry_space_group_name_H-M   'P 1'
_cell_length_a   7.65658600
_cell_length_b   7.65658600
_cell_length_c   14.23936300
_cell_angle_alpha   90.00000000
_cell_angle_beta   90.00000000
_cell_angle_gamma   90.00000000
_symmetry_Int_Tables_number   1
_chemical_formula_structural   Y5Ga3
_chemical_formula_sum   'Y20 Ga12'
_cell_volume   834.75857961
_cell_formula_units_Z   4
loop_
 _symmetry_equiv_pos_site_id
 _symmetry_equiv_pos_as_xyz
  1  'x, y, z'
loop_
 _atom_site_type_symbol
 _atom_site_label
 _atom_site_symmetry_multiplicity
 _atom_site_fract_x
 _atom_site_fract_y
 _atom_site_fract_z
 _atom_site_occupancy
  Y  Y0  1  0.83191600  0.82999600  0.89705100  1
  Y  Y1  1  0.17000400  0.16808400  0.60294900  1
  Y  Y2  1  0.83191600  0.17000400  0.39705100  1
  Y  Y3  1  0.16808400  0.82999600  0.39705100  1
  Y  Y4  1  0.32999600  0.33191600  0.39705100  1
  Y  Y5  1  0.82999600  0.16808400  0.10294900  1
  Y  Y6  1  0.32999600  0.66808400  0.89705100  1
  Y  Y7  1  0.17000400  0.83191600  0.10294900  1
  Y  Y8  1  0.50000000  0.00000000  0.75371900  1
  Y  Y9  1  0.00000000  0.50000000  0.24628100  1
  Y  Y10  1  0.33191600  0.67000400  0.60294900  1
  Y  Y11  1  0.66808400  0.67000400  0.10294900  1
  Y  Y12  1  0.66808400  0.32999600  0.60294900  1
  Y  Y13  1  0.00000000  0.50000000  0.74628100  1
  Y  Y14  1  0.82999600  0.83191600  0.60294900  1
  Y  Y15  1  0.67000400  0.33191600  0.89705100  1
  Y  Y16  1  0.16808400  0.17000400  0.89705100  1
  Y  Y17  1  0.50000000  0.00000000  0.25371900  1
  Y  Y18  1  0.67000400  0.66808400  0.39705100  1
  Y  Y19  1  0.33191600  0.32999600  0.10294900  1
  Ga  Ga20  1  0.62305800  0.37694200  0.25000000  1
  Ga  Ga21  1  0.37694200  0.62305800  0.25000000  1
  Ga  Ga22  1  0.00000000  0.50000000  0.00242600  1
  Ga  Ga23  1  0.50000000  0.00000000  0.99757400  1
  Ga  Ga24  1  0.12305800  0.12305800  0.25000000  1
  Ga  Ga25  1  0.37694200  0.37694200  0.75000000  1
  Ga  Ga26  1  0.50000000  0.00000000  0.49757400  1
  Ga  Ga27  1  0.00000000  0.50000000  0.50242600  1
  Ga  Ga28  1  0.12305800  0.87694200  0.75000000  1
  Ga  Ga29  1  0.87694200  0.87694200  0.25000000  1
  Ga  Ga30  1  0.62305800  0.62305800  0.75000000  1
  Ga  Ga31  1  0.87694200  0.12305800  0.75000000  1
