# generated using pymatgen
data_RbVI3
_symmetry_space_group_name_H-M   'P 1'
_cell_length_a   14.03014030
_cell_length_b   14.03014030
_cell_length_c   7.02979200
_cell_angle_alpha   90.00000000
_cell_angle_beta   90.00000000
_cell_angle_gamma   120.00000139
_symmetry_Int_Tables_number   1
_chemical_formula_structural   RbVI3
_chemical_formula_sum   'Rb6 V6 I18'
_cell_volume   1198.38710813
_cell_formula_units_Z   6
loop_
 _symmetry_equiv_pos_site_id
 _symmetry_equiv_pos_as_xyz
  1  'x, y, z'
loop_
 _atom_site_type_symbol
 _atom_site_label
 _atom_site_symmetry_multiplicity
 _atom_site_fract_x
 _atom_site_fract_y
 _atom_site_fract_z
 _atom_site_occupancy
  Rb  Rb0  1  0.66861000  0.66861000  0.79534700  1
  Rb  Rb1  1  0.33139000  0.00000000  0.79534700  1
  Rb  Rb2  1  0.33139000  0.33139000  0.29534700  1
  Rb  Rb3  1  0.00000000  0.66861000  0.29534700  1
  Rb  Rb4  1  0.00000000  0.33139000  0.79534700  1
  Rb  Rb5  1  0.66861000  0.00000000  0.29534700  1
  V  V6  1  0.33333300  0.66666700  0.09538500  1
  V  V7  1  0.00000000  0.00000000  0.99975500  1
  V  V8  1  0.66666700  0.33333300  0.09538500  1
  V  V9  1  0.33333300  0.66666700  0.59538500  1
  V  V10  1  0.66666700  0.33333300  0.59538500  1
  V  V11  1  0.00000000  0.00000000  0.49975500  1
  I  I12  1  0.00000000  0.83989500  0.74794000  1
  I  I13  1  0.50603800  0.33244000  0.84660200  1
  I  I14  1  0.17359800  0.50603800  0.34660200  1
  I  I15  1  0.16010500  0.00000000  0.24794000  1
  I  I16  1  0.82640200  0.49396200  0.84660200  1
  I  I17  1  0.50603800  0.17359800  0.34660200  1
  I  I18  1  0.49396200  0.82640200  0.84660200  1
  I  I19  1  0.49396200  0.66756000  0.34660200  1
  I  I20  1  0.83989500  0.83989500  0.24794000  1
  I  I21  1  0.82640200  0.33244000  0.34660200  1
  I  I22  1  0.17359800  0.66756000  0.84660200  1
  I  I23  1  0.00000000  0.16010500  0.24794000  1
  I  I24  1  0.33244000  0.82640200  0.34660200  1
  I  I25  1  0.66756000  0.49396200  0.34660200  1
  I  I26  1  0.33244000  0.50603800  0.84660200  1
  I  I27  1  0.83989500  0.00000000  0.74794000  1
  I  I28  1  0.66756000  0.17359800  0.84660200  1
  I  I29  1  0.16010500  0.16010500  0.74794000  1
