# generated using pymatgen
data_Ce(SnPt)2
_symmetry_space_group_name_H-M   'P 1'
_cell_length_a   4.63060700
_cell_length_b   4.63060700
_cell_length_c   10.58639200
_cell_angle_alpha   90.00000000
_cell_angle_beta   90.00000000
_cell_angle_gamma   90.00000000
_symmetry_Int_Tables_number   1
_chemical_formula_structural   Ce(SnPt)2
_chemical_formula_sum   'Ce2 Sn4 Pt4'
_cell_volume   226.99893477
_cell_formula_units_Z   2
loop_
 _symmetry_equiv_pos_site_id
 _symmetry_equiv_pos_as_xyz
  1  'x, y, z'
loop_
 _atom_site_type_symbol
 _atom_site_label
 _atom_site_symmetry_multiplicity
 _atom_site_fract_x
 _atom_site_fract_y
 _atom_site_fract_z
 _atom_site_occupancy
  Ce  Ce0  1  0.00000000  0.50000000  0.24372400  1
  Ce  Ce1  1  0.50000000  0.00000000  0.75627600  1
  Sn  Sn2  1  0.50000000  0.50000000  0.50000000  1
  Sn  Sn3  1  0.00000000  0.00000000  0.50000000  1
  Sn  Sn4  1  0.00000000  0.50000000  0.87441700  1
  Sn  Sn5  1  0.50000000  0.00000000  0.12558300  1
  Pt  Pt6  1  0.50000000  0.50000000  0.00000000  1
  Pt  Pt7  1  0.00000000  0.00000000  0.00000000  1
  Pt  Pt8  1  0.00000000  0.50000000  0.63007100  1
  Pt  Pt9  1  0.50000000  0.00000000  0.36992900  1
