# generated using pymatgen
data_RbCS(OF)3
_symmetry_space_group_name_H-M   'P 1'
_cell_length_a   15.79189178
_cell_length_b   15.79189178
_cell_length_c   5.29117460
_cell_angle_alpha   82.10461826
_cell_angle_beta   82.10461826
_cell_angle_gamma   100.14967226
_symmetry_Int_Tables_number   1
_chemical_formula_structural   RbCS(OF)3
_chemical_formula_sum   'Rb8 C8 S8 O24 F24'
_cell_volume   1268.78348477
_cell_formula_units_Z   8
loop_
 _symmetry_equiv_pos_site_id
 _symmetry_equiv_pos_as_xyz
  1  'x, y, z'
loop_
 _atom_site_type_symbol
 _atom_site_label
 _atom_site_symmetry_multiplicity
 _atom_site_fract_x
 _atom_site_fract_y
 _atom_site_fract_z
 _atom_site_occupancy
  Rb  Rb0  1  0.88713800  0.13202200  0.49174600  1
  Rb  Rb1  1  0.08940200  0.59865800  0.51097500  1
  Rb  Rb2  1  0.59865800  0.08940200  0.51097500  1
  Rb  Rb3  1  0.87255700  0.87255700  0.48422800  1
  Rb  Rb4  1  0.59927700  0.34783400  0.50589700  1
  Rb  Rb5  1  0.32121600  0.32121600  0.50935200  1
  Rb  Rb6  1  0.13202200  0.88713800  0.49174600  1
  Rb  Rb7  1  0.34783400  0.59927700  0.50589700  1
  C  C8  1  0.36941800  0.79234400  0.88276100  1
  C  C9  1  0.07445300  0.38031300  0.11050400  1
  C  C10  1  0.79234400  0.36941800  0.88276100  1
  C  C11  1  0.38031300  0.07445300  0.11050400  1
  C  C12  1  0.86440200  0.63853300  0.16181100  1
  C  C13  1  0.12890500  0.12890500  0.83233500  1
  C  C14  1  0.57887500  0.57887500  0.80798800  1
  C  C15  1  0.63853300  0.86440200  0.16181100  1
  S  S16  1  0.03468700  0.03468700  0.88635900  1
  S  S17  1  0.75974000  0.24707000  0.90573600  1
  S  S18  1  0.43631100  0.19157000  0.05286800  1
  S  S19  1  0.19157000  0.43631100  0.05286800  1
  S  S20  1  0.72746000  0.96411600  0.08437300  1
  S  S21  1  0.96411600  0.72746000  0.08437300  1
  S  S22  1  0.24707000  0.75974000  0.90573600  1
  S  S23  1  0.48735300  0.48735300  0.96380800  1
  O  O24  1  0.21366900  0.83105600  0.00763900  1
  O  O25  1  0.74156100  0.98282400  0.34152900  1
  O  O26  1  0.93466800  0.79953200  0.94148700  1
  O  O27  1  0.02240900  0.02240900  0.62260700  1
  O  O28  1  0.19649800  0.49721300  0.81480600  1
  O  O29  1  0.45476800  0.45476800  0.74201600  1
  O  O30  1  0.67559200  0.22684300  0.07606200  1
  O  O31  1  0.23945500  0.36602600  0.02656700  1
  O  O32  1  0.20124600  0.47610800  0.28323500  1
  O  O33  1  0.68965400  0.02843600  0.93618300  1
  O  O34  1  0.79953200  0.93466800  0.94148700  1
  O  O35  1  0.49721300  0.19649800  0.81480600  1
  O  O36  1  0.06678600  0.96462200  0.02926900  1
  O  O37  1  0.83105600  0.21366900  0.00763900  1
  O  O38  1  0.02843600  0.68965400  0.93618300  1
  O  O39  1  0.52965800  0.42794200  0.11457600  1
  O  O40  1  0.98282400  0.74156100  0.34152900  1
  O  O41  1  0.75475900  0.23633500  0.63645500  1
  O  O42  1  0.42794200  0.52965800  0.11457600  1
  O  O43  1  0.96462200  0.06678600  0.02926900  1
  O  O44  1  0.47610800  0.20124600  0.28323500  1
  O  O45  1  0.22684300  0.67559200  0.07606200  1
  O  O46  1  0.23633500  0.75475900  0.63645500  1
  O  O47  1  0.36602600  0.23945500  0.02656700  1
  F  F48  1  0.56165000  0.88418100  0.26235900  1
  F  F49  1  0.04865500  0.36241300  0.88654000  1
  F  F50  1  0.74982100  0.41213500  0.71229600  1
  F  F51  1  0.41213500  0.74982100  0.71229600  1
  F  F52  1  0.77030600  0.39433700  0.11566100  1
  F  F53  1  0.43263100  0.02258900  0.21069400  1
  F  F54  1  0.87874400  0.39955400  0.80180000  1
  F  F55  1  0.05920500  0.30423000  0.27978500  1
  F  F56  1  0.54870900  0.63969600  0.65554100  1
  F  F57  1  0.80265400  0.65789700  0.33825600  1
  F  F58  1  0.11071500  0.20131300  0.69559600  1
  F  F59  1  0.65789700  0.80265400  0.33825600  1
  F  F60  1  0.39433700  0.77030600  0.11566100  1
  F  F61  1  0.20131300  0.11071500  0.69559600  1
  F  F62  1  0.82915300  0.62667400  0.94657000  1
  F  F63  1  0.61857500  0.61857500  0.98325000  1
  F  F64  1  0.62667400  0.82915300  0.94657000  1
  F  F65  1  0.14843000  0.14843000  0.06091300  1
  F  F66  1  0.88418100  0.56165000  0.26235900  1
  F  F67  1  0.02258900  0.43263100  0.21069400  1
  F  F68  1  0.30423000  0.05920500  0.27978500  1
  F  F69  1  0.39955400  0.87874400  0.80180000  1
  F  F70  1  0.63969600  0.54870900  0.65554100  1
  F  F71  1  0.36241300  0.04865500  0.88654000  1
