# generated using pymatgen
data_TiPb9O11
_symmetry_space_group_name_H-M   'P 1'
_cell_length_a   9.17648000
_cell_length_b   9.17648000
_cell_length_c   4.73438900
_cell_angle_alpha   90.00000000
_cell_angle_beta   90.00000000
_cell_angle_gamma   90.00000000
_symmetry_Int_Tables_number   1
_chemical_formula_structural   TiPb9O11
_chemical_formula_sum   'Ti1 Pb9 O11'
_cell_volume   398.67241192
_cell_formula_units_Z   1
loop_
 _symmetry_equiv_pos_site_id
 _symmetry_equiv_pos_as_xyz
  1  'x, y, z'
loop_
 _atom_site_type_symbol
 _atom_site_label
 _atom_site_symmetry_multiplicity
 _atom_site_fract_x
 _atom_site_fract_y
 _atom_site_fract_z
 _atom_site_occupancy
  Ti  Ti0  1  0.50000000  0.50000000  0.00763600  1
  Pb  Pb1  1  0.30204400  0.90149500  0.75846600  1
  Pb  Pb2  1  0.40015500  0.20162200  0.25462300  1
  Pb  Pb3  1  0.09850500  0.30204400  0.75846600  1
  Pb  Pb4  1  0.20162200  0.59984500  0.25462300  1
  Pb  Pb5  1  0.90149500  0.69795600  0.75846600  1
  Pb  Pb6  1  0.00000000  0.00000000  0.24244000  1
  Pb  Pb7  1  0.69795600  0.09850500  0.75846600  1
  Pb  Pb8  1  0.79837800  0.40015500  0.25462300  1
  Pb  Pb9  1  0.59984500  0.79837800  0.25462300  1
  O  O10  1  0.40461600  0.69502700  0.97856000  1
  O  O11  1  0.19766200  0.10675000  0.00285100  1
  O  O12  1  0.30497300  0.40461600  0.97856000  1
  O  O13  1  0.00000000  0.50000000  0.01153200  1
  O  O14  1  0.10675000  0.80233800  0.00285100  1
  O  O15  1  0.80233800  0.89325000  0.00285100  1
  O  O16  1  0.89325000  0.19766200  0.00285100  1
  O  O17  1  0.59538400  0.30497300  0.97856000  1
  O  O18  1  0.50000000  0.50000000  0.37932600  1
  O  O19  1  0.69502700  0.59538400  0.97856000  1
  O  O20  1  0.50000000  0.00000000  0.01153200  1
