# generated using pymatgen
data_Ce9DyO20
_symmetry_space_group_name_H-M   'P 1'
_cell_length_a   6.67128800
_cell_length_b   7.70709186
_cell_length_c   8.62811794
_cell_angle_alpha   102.85031571
_cell_angle_beta   97.54714645
_cell_angle_gamma   106.61246286
_symmetry_Int_Tables_number   1
_chemical_formula_structural   Ce9DyO20
_chemical_formula_sum   'Ce9 Dy1 O20'
_cell_volume   405.33994866
_cell_formula_units_Z   1
loop_
 _symmetry_equiv_pos_site_id
 _symmetry_equiv_pos_as_xyz
  1  'x, y, z'
loop_
 _atom_site_type_symbol
 _atom_site_label
 _atom_site_symmetry_multiplicity
 _atom_site_fract_x
 _atom_site_fract_y
 _atom_site_fract_z
 _atom_site_occupancy
  Ce  Ce0  1  0.80076400  0.60161100  0.60170400  1
  Ce  Ce1  1  0.00000000  0.50000000  0.00000000  1
  Ce  Ce2  1  0.59942300  0.19860700  0.19846800  1
  Ce  Ce3  1  0.80057100  0.09969100  0.60179000  1
  Ce  Ce4  1  0.60185300  0.70110700  0.19914300  1
  Ce  Ce5  1  0.19923600  0.39838900  0.39829600  1
  Ce  Ce6  1  0.39814700  0.29889300  0.80085700  1
  Ce  Ce7  1  0.19942900  0.90030900  0.39821000  1
  Ce  Ce8  1  0.40057700  0.80139300  0.80153200  1
  Dy  Dy9  1  0.00000000  0.00000000  0.00000000  1
  O  O10  1  0.85007100  0.32484400  0.45038300  1
  O  O11  1  0.64801000  0.92435400  0.05057600  1
  O  O12  1  0.94964800  0.77366500  0.15103200  1
  O  O13  1  0.85035300  0.82547200  0.45016300  1
  O  O14  1  0.44976900  0.52458000  0.65007000  1
  O  O15  1  0.64942900  0.42513300  0.04965300  1
  O  O16  1  0.74933500  0.37472400  0.75005800  1
  O  O17  1  0.25134100  0.12575500  0.25157000  1
  O  O18  1  0.44960900  0.02520600  0.64970800  1
  O  O19  1  0.94991000  0.27681400  0.15109100  1
  O  O20  1  0.55039100  0.97479400  0.35029200  1
  O  O21  1  0.05009000  0.72318600  0.84890900  1
  O  O22  1  0.25066500  0.62527600  0.24994200  1
  O  O23  1  0.74865900  0.87424500  0.74843000  1
  O  O24  1  0.35057100  0.57486700  0.95034700  1
  O  O25  1  0.05035200  0.22633500  0.84896800  1
  O  O26  1  0.55023100  0.47542000  0.34993000  1
  O  O27  1  0.14964700  0.17452800  0.54983700  1
  O  O28  1  0.35199000  0.07564600  0.94942400  1
  O  O29  1  0.14992900  0.67515600  0.54961700  1
