# generated using pymatgen
data_Al2CoO4
_symmetry_space_group_name_H-M   'P 1'
_cell_length_a   5.78364792
_cell_length_b   5.78364792
_cell_length_c   14.19663500
_cell_angle_alpha   90.00000000
_cell_angle_beta   90.00000000
_cell_angle_gamma   119.99999906
_symmetry_Int_Tables_number   1
_chemical_formula_structural   Al2CoO4
_chemical_formula_sum   'Al12 Co6 O24'
_cell_volume   411.26310199
_cell_formula_units_Z   6
loop_
 _symmetry_equiv_pos_site_id
 _symmetry_equiv_pos_as_xyz
  1  'x, y, z'
loop_
 _atom_site_type_symbol
 _atom_site_label
 _atom_site_symmetry_multiplicity
 _atom_site_fract_x
 _atom_site_fract_y
 _atom_site_fract_z
 _atom_site_occupancy
  Al  Al0  1  0.66666700  0.33333300  0.91412800  1
  Al  Al1  1  0.16382200  0.32764300  0.79100600  1
  Al  Al2  1  0.16382200  0.83617800  0.79100600  1
  Al  Al3  1  0.67235700  0.83617800  0.79100600  1
  Al  Al4  1  0.83253000  0.66506000  0.45766900  1
  Al  Al5  1  0.00000000  0.00000000  0.62371400  1
  Al  Al6  1  0.83253000  0.16747000  0.45766900  1
  Al  Al7  1  0.33494000  0.16747000  0.45766900  1
  Al  Al8  1  0.49776500  0.99553000  0.12623400  1
  Al  Al9  1  0.66666700  0.33333300  0.29135100  1
  Al  Al10  1  0.49776500  0.50223500  0.12623400  1
  Al  Al11  1  0.00447000  0.50223500  0.12623400  1
  Co  Co12  1  0.00000000  0.00000000  0.00288800  1
  Co  Co13  1  0.66666700  0.33333300  0.66620500  1
  Co  Co14  1  0.33333300  0.66666700  0.96052100  1
  Co  Co15  1  0.33333300  0.66666700  0.58465700  1
  Co  Co16  1  0.33333300  0.66666700  0.33441800  1
  Co  Co17  1  0.00000000  0.00000000  0.24692800  1
  O  O18  1  0.00573800  0.50286900  0.86586500  1
  O  O19  1  0.33333300  0.66666700  0.72750900  1
  O  O20  1  0.49713100  0.50286900  0.86586500  1
  O  O21  1  0.49713100  0.99426200  0.86586500  1
  O  O22  1  0.85262100  0.70524300  0.71170900  1
  O  O23  1  0.70564300  0.85282100  0.53666000  1
  O  O24  1  0.85262100  0.14737900  0.71170900  1
  O  O25  1  0.00000000  0.00000000  0.38846200  1
  O  O26  1  0.14717900  0.85282100  0.53666000  1
  O  O27  1  0.00000000  0.00000000  0.86121800  1
  O  O28  1  0.14717900  0.29435700  0.53666000  1
  O  O29  1  0.29475700  0.14737900  0.71170900  1
  O  O30  1  0.37749800  0.18874900  0.20275800  1
  O  O31  1  0.51893000  0.03786000  0.37991800  1
  O  O32  1  0.51893000  0.48107000  0.37991800  1
  O  O33  1  0.66666700  0.33333300  0.04343000  1
  O  O34  1  0.66666700  0.33333300  0.52724400  1
  O  O35  1  0.81125100  0.18874900  0.20275800  1
  O  O36  1  0.81125100  0.62250200  0.20275800  1
  O  O37  1  0.96214000  0.48107000  0.37991800  1
  O  O38  1  0.17941900  0.35883900  0.05533000  1
  O  O39  1  0.17941900  0.82058100  0.05533000  1
  O  O40  1  0.33333300  0.66666700  0.19674000  1
  O  O41  1  0.64116100  0.82058100  0.05533000  1
