# generated using pymatgen
data_Ca2Fe2O5
_symmetry_space_group_name_H-M   'P 1'
_cell_length_a   6.03122200
_cell_length_b   6.50714129
_cell_length_c   6.53057505
_cell_angle_alpha   109.21267847
_cell_angle_beta   96.86839258
_cell_angle_gamma   103.21635777
_symmetry_Int_Tables_number   1
_chemical_formula_structural   Ca2Fe2O5
_chemical_formula_sum   'Ca4 Fe4 O10'
_cell_volume   230.26178287
_cell_formula_units_Z   2
loop_
 _symmetry_equiv_pos_site_id
 _symmetry_equiv_pos_as_xyz
  1  'x, y, z'
loop_
 _atom_site_type_symbol
 _atom_site_label
 _atom_site_symmetry_multiplicity
 _atom_site_fract_x
 _atom_site_fract_y
 _atom_site_fract_z
 _atom_site_occupancy
  Ca  Ca0  1  0.71597700  0.89079300  0.98246300  1
  Ca  Ca1  1  0.24170100  0.48833500  0.61759400  1
  Ca  Ca2  1  0.75829900  0.51166500  0.38240600  1
  Ca  Ca3  1  0.28402300  0.10920700  0.01753700  1
  Fe  Fe4  1  0.66199200  0.20234800  0.65464400  1
  Fe  Fe5  1  0.00000000  0.00000000  0.50000000  1
  Fe  Fe6  1  0.33800800  0.79765200  0.34535600  1
  Fe  Fe7  1  0.00000000  0.50000000  0.00000000  1
  O  O8  1  0.34311300  0.75209500  0.02191200  1
  O  O9  1  0.78179200  0.53204800  0.75114400  1
  O  O10  1  0.84453700  0.18828900  0.39277900  1
  O  O11  1  0.64120000  0.85506000  0.55017300  1
  O  O12  1  0.05793700  0.23442500  0.79809300  1
  O  O13  1  0.94206300  0.76557500  0.20190700  1
  O  O14  1  0.35880000  0.14494000  0.44982700  1
  O  O15  1  0.15546300  0.81171100  0.60722100  1
  O  O16  1  0.21820800  0.46795200  0.24885600  1
  O  O17  1  0.65688700  0.24790500  0.97808800  1
