# generated using pymatgen
data_SmAlF5
_symmetry_space_group_name_H-M   'P 1'
_cell_length_a   9.18966900
_cell_length_b   9.41983420
_cell_length_c   9.59564419
_cell_angle_alpha   109.27728277
_cell_angle_beta   84.61779407
_cell_angle_gamma   106.90486021
_symmetry_Int_Tables_number   1
_chemical_formula_structural   SmAlF5
_chemical_formula_sum   'Sm8 Al8 F40'
_cell_volume   750.19261858
_cell_formula_units_Z   8
loop_
 _symmetry_equiv_pos_site_id
 _symmetry_equiv_pos_as_xyz
  1  'x, y, z'
loop_
 _atom_site_type_symbol
 _atom_site_label
 _atom_site_symmetry_multiplicity
 _atom_site_fract_x
 _atom_site_fract_y
 _atom_site_fract_z
 _atom_site_occupancy
  Sm  Sm0  1  0.82312100  0.96994800  0.31303300  1
  Sm  Sm1  1  0.76199900  0.40489100  0.67169800  1
  Sm  Sm2  1  0.17597400  0.02977200  0.10599900  1
  Sm  Sm3  1  0.70605800  0.42410900  0.13690900  1
  Sm  Sm4  1  0.23888000  0.62761500  0.85557600  1
  Sm  Sm5  1  0.77280500  0.88072000  0.91258300  1
  Sm  Sm6  1  0.13053800  0.50740000  0.23672500  1
  Sm  Sm7  1  0.14180900  0.93547800  0.64284700  1
  Al  Al8  1  0.32524800  0.31863700  0.93053300  1
  Al  Al9  1  0.51433400  0.03576300  0.52103200  1
  Al  Al10  1  0.46850000  0.07992000  0.84964200  1
  Al  Al11  1  0.09659300  0.28827000  0.52763900  1
  Al  Al12  1  0.99909600  0.71549700  0.09996300  1
  Al  Al13  1  0.45653800  0.52478700  0.49551700  1
  Al  Al14  1  0.82348500  0.70327900  0.47934500  1
  Al  Al15  1  0.48953700  0.84655500  0.14722100  1
  F  F16  1  0.63357500  0.00295200  0.82835700  1
  F  F17  1  0.77241400  0.36858900  0.89283200  1
  F  F18  1  0.40834500  0.93112700  0.65264800  1
  F  F19  1  0.68028000  0.98410300  0.53668900  1
  F  F20  1  0.88771800  0.21609000  0.51793400  1
  F  F21  1  0.64901200  0.01907800  0.15374200  1
  F  F22  1  0.36668300  0.43019500  0.80573800  1
  F  F23  1  0.89672500  0.33453900  0.16523200  1
  F  F24  1  0.56293700  0.19298500  0.71322600  1
  F  F25  1  0.08577000  0.12580800  0.35158900  1
  F  F26  1  0.61675000  0.19394200  0.45901000  1
  F  F27  1  0.11215000  0.17127600  0.63448100  1
  F  F28  1  0.05215300  0.43271100  0.70011400  1
  F  F29  1  0.81115100  0.50342100  0.43592400  1
  F  F30  1  0.76935600  0.63070200  0.86047300  1
  F  F31  1  0.86450500  0.75602300  0.66830100  1
  F  F32  1  0.49032400  0.44749000  0.03892700  1
  F  F33  1  0.29794800  0.35439700  0.50526500  1
  F  F34  1  0.53013600  0.41364000  0.32760100  1
  F  F35  1  0.56988900  0.47102700  0.61090400  1
  F  F36  1  0.62730500  0.69684400  0.52736600  1
  F  F37  1  0.49490000  0.77967100  0.94607700  1
  F  F38  1  0.07262900  0.41218000  0.42937100  1
  F  F39  1  0.38279700  0.64159000  0.65652300  1
  F  F40  1  0.75847800  0.68654400  0.30308400  1
  F  F41  1  0.23631000  0.29457700  0.13229100  1
  F  F42  1  0.35151100  0.58449400  0.38298200  1
  F  F43  1  0.01130600  0.01407800  0.85234500  1
  F  F44  1  0.33174900  0.67568400  0.12926400  1
  F  F45  1  0.12457100  0.73291100  0.72367800  1
  F  F46  1  0.66092800  0.76847300  0.12047200  1
  F  F47  1  0.92134100  0.90553000  0.49756500  1
  F  F48  1  0.32695800  0.92851400  0.90680300  1
  F  F49  1  0.05868200  0.71190000  0.43570600  1
  F  F50  1  0.32809100  0.03908000  0.49207700  1
  F  F51  1  0.50572300  0.87875500  0.34111600  1
  F  F52  1  0.92526600  0.05118700  0.11155300  1
  F  F53  1  0.16248000  0.40730300  0.97217500  1
  F  F54  1  0.36264500  0.96662300  0.18730300  1
  F  F55  1  0.53469100  0.18452700  0.03610000  1
