# generated using pymatgen
data_Mg2SiO4
_symmetry_space_group_name_H-M   'P 1'
_cell_length_a   5.83251709
_cell_length_b   5.83251709
_cell_length_c   5.83251709
_cell_angle_alpha   121.24713881
_cell_angle_beta   119.76497787
_cell_angle_gamma   89.13055985
_symmetry_Int_Tables_number   1
_chemical_formula_structural   Mg2SiO4
_chemical_formula_sum   'Mg4 Si2 O8'
_cell_volume   139.17831379
_cell_formula_units_Z   2
loop_
 _symmetry_equiv_pos_site_id
 _symmetry_equiv_pos_as_xyz
  1  'x, y, z'
loop_
 _atom_site_type_symbol
 _atom_site_label
 _atom_site_symmetry_multiplicity
 _atom_site_fract_x
 _atom_site_fract_y
 _atom_site_fract_z
 _atom_site_occupancy
  Mg  Mg0  1  0.85947800  0.10947800  0.75000000  1
  Mg  Mg1  1  0.50000000  0.50000000  0.00000000  1
  Mg  Mg2  1  0.00000000  0.50000000  0.50000000  1
  Mg  Mg3  1  0.14052200  0.89052200  0.25000000  1
  Si  Si4  1  0.50000000  0.50000000  0.50000000  1
  Si  Si5  1  0.50000000  0.00000000  0.00000000  1
  O  O6  1  0.28483000  0.24897900  0.03585100  1
  O  O7  1  0.71032600  0.22147500  0.01114900  1
  O  O8  1  0.71312800  0.24897900  0.46414900  1
  O  O9  1  0.71032600  0.69917700  0.48885100  1
  O  O10  1  0.28967400  0.30082300  0.51114900  1
  O  O11  1  0.28687200  0.75102100  0.53585100  1
  O  O12  1  0.28967400  0.77852500  0.98885100  1
  O  O13  1  0.71517000  0.75102100  0.96414900  1
