# generated using pymatgen
data_N4O9
_symmetry_space_group_name_H-M   'P 1'
_cell_length_a   4.70080300
_cell_length_b   6.88344700
_cell_length_c   13.55438360
_cell_angle_alpha   89.62740358
_cell_angle_beta   90.00000000
_cell_angle_gamma   90.00000000
_symmetry_Int_Tables_number   1
_chemical_formula_structural   N4O9
_chemical_formula_sum   'N8 O18'
_cell_volume   438.57978819
_cell_formula_units_Z   2
loop_
 _symmetry_equiv_pos_site_id
 _symmetry_equiv_pos_as_xyz
  1  'x, y, z'
loop_
 _atom_site_type_symbol
 _atom_site_label
 _atom_site_symmetry_multiplicity
 _atom_site_fract_x
 _atom_site_fract_y
 _atom_site_fract_z
 _atom_site_occupancy
  N  N0  1  0.49875300  0.12127600  0.24655600  1
  N  N1  1  0.99875300  0.87872400  0.75344400  1
  N  N2  1  0.49919600  0.41050700  0.74967800  1
  N  N3  1  0.99919600  0.58949300  0.25032200  1
  N  N4  1  0.89819500  0.21922900  0.01678500  1
  N  N5  1  0.09867600  0.21971800  0.48353400  1
  N  N6  1  0.39819500  0.78077100  0.98321500  1
  N  N7  1  0.59867600  0.78028200  0.51646600  1
  O  O8  1  0.50510700  0.22847900  0.74889700  1
  O  O9  1  0.00510700  0.77152100  0.25110300  1
  O  O10  1  0.68584000  0.50056900  0.79622700  1
  O  O11  1  0.30554100  0.50057000  0.70440500  1
  O  O12  1  0.18584000  0.49943100  0.20377300  1
  O  O13  1  0.80554100  0.49943000  0.29559500  1
  O  O14  1  0.68530700  0.32192900  0.03620100  1
  O  O15  1  0.31056200  0.32054400  0.46346000  1
  O  O16  1  0.18530700  0.67807100  0.96379900  1
  O  O17  1  0.81056200  0.67945600  0.53654000  1
  O  O18  1  0.00668900  0.10882500  0.08064600  1
  O  O19  1  0.99156100  0.11125000  0.42007700  1
  O  O20  1  0.50668900  0.89117500  0.91935400  1
  O  O21  1  0.49156100  0.88875000  0.57992300  1
  O  O22  1  0.00814800  0.22716400  0.93273100  1
  O  O23  1  0.99016900  0.22723200  0.56774000  1
  O  O24  1  0.50814800  0.77283600  0.06726900  1
  O  O25  1  0.49016900  0.77276800  0.43226000  1
