# generated using pymatgen
data_Tl(WO3)6
_symmetry_space_group_name_H-M   'P 1'
_cell_length_a   7.51158800
_cell_length_b   7.51158884
_cell_length_c   7.63546300
_cell_angle_alpha   90.00000000
_cell_angle_beta   90.00000000
_cell_angle_gamma   119.99999630
_symmetry_Int_Tables_number   1
_chemical_formula_structural   Tl(WO3)6
_chemical_formula_sum   'Tl1 W6 O18'
_cell_volume   373.10373132
_cell_formula_units_Z   1
loop_
 _symmetry_equiv_pos_site_id
 _symmetry_equiv_pos_as_xyz
  1  'x, y, z'
loop_
 _atom_site_type_symbol
 _atom_site_label
 _atom_site_symmetry_multiplicity
 _atom_site_fract_x
 _atom_site_fract_y
 _atom_site_fract_z
 _atom_site_occupancy
  Tl  Tl0  1  0.00000000  0.00000000  0.49994600  1
  W  W1  1  0.00000000  0.52477900  0.74946900  1
  W  W2  1  0.47522100  0.47522100  0.74946900  1
  W  W3  1  0.52435900  0.52435900  0.24768400  1
  W  W4  1  0.47564100  0.00000000  0.24768400  1
  W  W5  1  0.52477900  0.00000000  0.74946900  1
  W  W6  1  0.00000000  0.47564100  0.24768400  1
  O  O7  1  0.20962300  0.78440200  0.25135600  1
  O  O8  1  0.21603500  0.79069000  0.74868700  1
  O  O9  1  0.20931000  0.42534500  0.74868700  1
  O  O10  1  0.21559800  0.42522000  0.25135600  1
  O  O11  1  0.57478000  0.79037700  0.25135600  1
  O  O12  1  0.57465500  0.78396500  0.74868700  1
  O  O13  1  0.49617900  0.49617900  0.49934700  1
  O  O14  1  0.50302200  0.50302200  0.99943200  1
  O  O15  1  0.42522000  0.21559800  0.25135600  1
  O  O16  1  0.42534500  0.20931000  0.74868700  1
  O  O17  1  0.49697800  0.00000000  0.99943200  1
  O  O18  1  0.78396500  0.57465500  0.74868700  1
  O  O19  1  0.79037700  0.57478000  0.25135600  1
  O  O20  1  0.50382100  0.00000000  0.49934700  1
  O  O21  1  0.78440200  0.20962300  0.25135600  1
  O  O22  1  0.79069000  0.21603500  0.74868700  1
  O  O23  1  0.00000000  0.50382100  0.49934700  1
  O  O24  1  0.00000000  0.49697800  0.99943200  1
