# generated using pymatgen
data_Yb4MgGe4
_symmetry_space_group_name_H-M   'P 1'
_cell_length_a   7.28089200
_cell_length_b   7.84637400
_cell_length_c   15.23374700
_cell_angle_alpha   90.00000000
_cell_angle_beta   90.00000000
_cell_angle_gamma   90.00000000
_symmetry_Int_Tables_number   1
_chemical_formula_structural   Yb4MgGe4
_chemical_formula_sum   'Yb16 Mg4 Ge16'
_cell_volume   870.28266454
_cell_formula_units_Z   4
loop_
 _symmetry_equiv_pos_site_id
 _symmetry_equiv_pos_as_xyz
  1  'x, y, z'
loop_
 _atom_site_type_symbol
 _atom_site_label
 _atom_site_symmetry_multiplicity
 _atom_site_fract_x
 _atom_site_fract_y
 _atom_site_fract_z
 _atom_site_occupancy
  Yb  Yb0  1  0.82289200  0.82496000  0.62887700  1
  Yb  Yb1  1  0.97581800  0.32676400  0.59617700  1
  Yb  Yb2  1  0.02418200  0.67323600  0.09617700  1
  Yb  Yb3  1  0.17710800  0.17504000  0.12887700  1
  Yb  Yb4  1  0.32289200  0.67504000  0.87112300  1
  Yb  Yb5  1  0.32289200  0.67504000  0.62887700  1
  Yb  Yb6  1  0.47581800  0.17323600  0.90382300  1
  Yb  Yb7  1  0.47581800  0.17323600  0.59617700  1
  Yb  Yb8  1  0.52418200  0.82676400  0.40382300  1
  Yb  Yb9  1  0.52418200  0.82676400  0.09617700  1
  Yb  Yb10  1  0.67710800  0.32496000  0.37112300  1
  Yb  Yb11  1  0.67710800  0.32496000  0.12887700  1
  Yb  Yb12  1  0.82289200  0.82496000  0.87112300  1
  Yb  Yb13  1  0.97581800  0.32676400  0.90382300  1
  Yb  Yb14  1  0.02418200  0.67323600  0.40382300  1
  Yb  Yb15  1  0.17710800  0.17504000  0.37112300  1
  Mg  Mg16  1  0.64661800  0.47005600  0.75000000  1
  Mg  Mg17  1  0.85338200  0.97005600  0.25000000  1
  Mg  Mg18  1  0.14661800  0.02994400  0.75000000  1
  Mg  Mg19  1  0.35338200  0.52994400  0.25000000  1
  Ge  Ge20  1  0.51289800  0.91210900  0.75000000  1
  Ge  Ge21  1  0.84798300  0.04035700  0.46768700  1
  Ge  Ge22  1  0.01289800  0.58789100  0.75000000  1
  Ge  Ge23  1  0.15201700  0.95964300  0.96768700  1
  Ge  Ge24  1  0.26504400  0.36499100  0.75000000  1
  Ge  Ge25  1  0.34798300  0.45964300  0.46768700  1
  Ge  Ge26  1  0.34798300  0.45964300  0.03231300  1
  Ge  Ge27  1  0.65201700  0.54035700  0.96768700  1
  Ge  Ge28  1  0.65201700  0.54035700  0.53231300  1
  Ge  Ge29  1  0.73495600  0.63500900  0.25000000  1
  Ge  Ge30  1  0.76504400  0.13500900  0.75000000  1
  Ge  Ge31  1  0.84798300  0.04035700  0.03231300  1
  Ge  Ge32  1  0.15201700  0.95964300  0.53231300  1
  Ge  Ge33  1  0.23495600  0.86499100  0.25000000  1
  Ge  Ge34  1  0.48710200  0.08789100  0.25000000  1
  Ge  Ge35  1  0.98710200  0.41210900  0.25000000  1
