# generated using pymatgen
data_La2CdTe4
_symmetry_space_group_name_H-M   'P 1'
_cell_length_a   8.40221564
_cell_length_b   8.40221564
_cell_length_c   8.40221564
_cell_angle_alpha   111.27333268
_cell_angle_beta   111.27333268
_cell_angle_gamma   105.92416973
_symmetry_Int_Tables_number   1
_chemical_formula_structural   La2CdTe4
_chemical_formula_sum   'La4 Cd2 Te8'
_cell_volume   455.32281765
_cell_formula_units_Z   2
loop_
 _symmetry_equiv_pos_site_id
 _symmetry_equiv_pos_as_xyz
  1  'x, y, z'
loop_
 _atom_site_type_symbol
 _atom_site_label
 _atom_site_symmetry_multiplicity
 _atom_site_fract_x
 _atom_site_fract_y
 _atom_site_fract_z
 _atom_site_occupancy
  La  La0  1  0.37500000  0.99367800  0.11867800  1
  La  La1  1  0.74367800  0.62500000  0.61867800  1
  La  La2  1  0.87500000  0.25632200  0.88132200  1
  La  La3  1  0.00632200  0.12500000  0.38132200  1
  Cd  Cd4  1  0.25000000  0.75000000  0.50000000  1
  Cd  Cd5  1  0.50000000  0.50000000  0.00000000  1
  Te  Te6  1  0.13699600  0.51145300  0.76615600  1
  Te  Te7  1  0.00470300  0.73854700  0.12554400  1
  Te  Te8  1  0.62915900  0.86300400  0.37445600  1
  Te  Te9  1  0.26145300  0.38699600  0.26615600  1
  Te  Te10  1  0.61300400  0.87915900  0.87445600  1
  Te  Te11  1  0.48854700  0.25470300  0.62554400  1
  Te  Te12  1  0.74529700  0.37084100  0.23384400  1
  Te  Te13  1  0.12084100  0.99529700  0.73384400  1
