# generated using pymatgen
data_Y5O4F7
_symmetry_space_group_name_H-M   'P 1'
_cell_length_a   8.85616600
_cell_length_b   6.78769700
_cell_length_c   8.22245259
_cell_angle_alpha   71.31372764
_cell_angle_beta   90.00000000
_cell_angle_gamma   90.00000000
_symmetry_Int_Tables_number   1
_chemical_formula_structural   Y5O4F7
_chemical_formula_sum   'Y10 O8 F14'
_cell_volume   468.22131675
_cell_formula_units_Z   2
loop_
 _symmetry_equiv_pos_site_id
 _symmetry_equiv_pos_as_xyz
  1  'x, y, z'
loop_
 _atom_site_type_symbol
 _atom_site_label
 _atom_site_symmetry_multiplicity
 _atom_site_fract_x
 _atom_site_fract_y
 _atom_site_fract_z
 _atom_site_occupancy
  Y  Y0  1  0.78184700  0.24788200  0.62732900  1
  Y  Y1  1  0.78254900  0.86663200  0.42110100  1
  Y  Y2  1  0.14988500  0.54972600  0.66697100  1
  Y  Y3  1  0.51615500  0.62236900  0.73398700  1
  Y  Y4  1  0.57712800  0.13913200  0.05405800  1
  Y  Y5  1  0.48384500  0.62236900  0.23398700  1
  Y  Y6  1  0.42287200  0.13913200  0.55405800  1
  Y  Y7  1  0.85011500  0.54972600  0.16697100  1
  Y  Y8  1  0.21745100  0.86663200  0.92110100  1
  Y  Y9  1  0.21815300  0.24788200  0.12732900  1
  O  O10  1  0.30332600  0.45395500  0.88513600  1
  O  O11  1  0.63955800  0.98215700  0.60372300  1
  O  O12  1  0.57101900  0.27062000  0.76925000  1
  O  O13  1  0.70497400  0.83447400  0.15127800  1
  O  O14  1  0.29502600  0.83447400  0.65127800  1
  O  O15  1  0.42898100  0.27062000  0.26925000  1
  O  O16  1  0.69667400  0.45395500  0.38513600  1
  O  O17  1  0.36044200  0.98215700  0.10372300  1
  F  F18  1  0.96833600  0.32074900  0.78191000  1
  F  F19  1  0.05961600  0.00459800  0.06940000  1
  F  F20  1  0.23598200  0.59469600  0.15969900  1
  F  F21  1  0.22235800  0.18368100  0.71791200  1
  F  F22  1  0.98535800  0.65572800  0.41642700  1
  F  F23  1  0.47175600  0.78046100  0.93029500  1
  F  F24  1  0.34351900  0.49314200  0.50132600  1
  F  F25  1  0.65648100  0.49314200  0.00132600  1
  F  F26  1  0.52824400  0.78046100  0.43029500  1
  F  F27  1  0.77764200  0.18368100  0.21791200  1
  F  F28  1  0.01464200  0.65572800  0.91642700  1
  F  F29  1  0.94038400  0.00459800  0.56940000  1
  F  F30  1  0.76401800  0.59469600  0.65969900  1
  F  F31  1  0.03166400  0.32074900  0.28191000  1
