# generated using pymatgen
data_Rb5(W4O15)2
_symmetry_space_group_name_H-M   'P 1'
_cell_length_a   7.45378000
_cell_length_b   10.58777422
_cell_length_c   19.79678180
_cell_angle_alpha   104.78681328
_cell_angle_beta   100.55260771
_cell_angle_gamma   90.31911261
_symmetry_Int_Tables_number   1
_chemical_formula_structural   Rb5(W4O15)2
_chemical_formula_sum   'Rb10 W16 O60'
_cell_volume   1482.80058535
_cell_formula_units_Z   2
loop_
 _symmetry_equiv_pos_site_id
 _symmetry_equiv_pos_as_xyz
  1  'x, y, z'
loop_
 _atom_site_type_symbol
 _atom_site_label
 _atom_site_symmetry_multiplicity
 _atom_site_fract_x
 _atom_site_fract_y
 _atom_site_fract_z
 _atom_site_occupancy
  Rb  Rb0  1  0.74723500  0.37055100  0.00125100  1
  Rb  Rb1  1  0.25276500  0.62944900  0.99874900  1
  Rb  Rb2  1  0.16017000  0.77946800  0.80564500  1
  Rb  Rb3  1  0.54978100  0.18205900  0.59552900  1
  Rb  Rb4  1  0.66227700  0.02409600  0.81303200  1
  Rb  Rb5  1  0.03998100  0.42975900  0.59816400  1
  Rb  Rb6  1  0.96001900  0.57024100  0.40183600  1
  Rb  Rb7  1  0.33772300  0.97590400  0.18696800  1
  Rb  Rb8  1  0.45021900  0.81794100  0.40447100  1
  Rb  Rb9  1  0.83983000  0.22053200  0.19435500  1
  W  W10  1  0.00000000  0.00000000  0.00000000  1
  W  W11  1  0.20605900  0.21465500  0.90748600  1
  W  W12  1  0.50000000  0.00000000  0.00000000  1
  W  W13  1  0.62436500  0.61628900  0.70796000  1
  W  W14  1  0.89694500  0.40685200  0.80683800  1
  W  W15  1  0.00000000  0.00000000  0.50000000  1
  W  W16  1  0.40056200  0.41061200  0.79989900  1
  W  W17  1  0.32874400  0.80710100  0.60272400  1
  W  W18  1  0.67125600  0.19289900  0.39727600  1
  W  W19  1  0.10048400  0.10851500  0.70749800  1
  W  W20  1  0.10305500  0.59314800  0.19316200  1
  W  W21  1  0.50000000  0.50000000  0.50000000  1
  W  W22  1  0.37563500  0.38371100  0.29204000  1
  W  W23  1  0.59943800  0.58938800  0.20010100  1
  W  W24  1  0.89951600  0.89148500  0.29250200  1
  W  W25  1  0.79394100  0.78534500  0.09251400  1
  O  O26  1  0.36279700  0.28935500  0.85957100  1
  O  O27  1  0.74399300  0.04514800  0.98712700  1
  O  O28  1  0.95208300  0.85106300  0.92173600  1
  O  O29  1  0.80421400  0.68582400  0.67411000  1
  O  O30  1  0.92305000  0.54725400  0.87968800  1
  O  O31  1  0.98816800  0.28924700  0.86500300  1
  O  O32  1  0.13718200  0.43214900  0.78442700  1
  O  O33  1  0.24991600  0.34244200  0.98664300  1
  O  O34  1  0.25600700  0.95485200  0.01287300  1
  O  O35  1  0.14094100  0.07568000  0.79671800  1
  O  O36  1  0.39608000  0.09906900  0.93104100  1
  O  O37  1  0.24233300  0.94235600  0.67411200  1
  O  O38  1  0.30168200  0.22089000  0.71652600  1
  O  O39  1  0.21194000  0.09487800  0.49625500  1
  O  O40  1  0.47816400  0.85001900  0.92361000  1
  O  O41  1  0.40824600  0.70838200  0.66923400  1
  O  O42  1  0.44577700  0.54721300  0.87465700  1
  O  O43  1  0.65263900  0.73736400  0.79102400  1
  O  O44  1  0.52468000  0.90570100  0.60518300  1
  O  O45  1  0.64754400  0.34513300  0.80566200  1
  O  O46  1  0.57903200  0.50433600  0.60015600  1
  O  O47  1  0.79099300  0.48469500  0.73151700  1
  O  O48  1  0.64619700  0.34454600  0.47522700  1
  O  O49  1  0.69419100  0.60876000  0.49364400  1
  O  O50  1  0.56666100  0.50880700  0.27326600  1
  O  O51  1  0.83015700  0.13099300  0.47541000  1
  O  O52  1  0.03719800  0.10195000  0.93362100  1
  O  O53  1  0.93745700  0.94106000  0.66103900  1
  O  O54  1  0.91426900  0.22038800  0.72021300  1
  O  O55  1  0.93737700  0.28114000  0.42653500  1
  O  O56  1  0.03703200  0.09647100  0.59939500  1
  O  O57  1  0.06262300  0.71886000  0.57346500  1
  O  O58  1  0.96296800  0.90352900  0.40060500  1
  O  O59  1  0.16984300  0.86900700  0.52459000  1
  O  O60  1  0.08573100  0.77961200  0.27978700  1
  O  O61  1  0.06254300  0.05894000  0.33896100  1
  O  O62  1  0.96280200  0.89805000  0.06637900  1
  O  O63  1  0.43333900  0.49119300  0.72673400  1
  O  O64  1  0.35380300  0.65545400  0.52477300  1
  O  O65  1  0.30580900  0.39124000  0.50635600  1
  O  O66  1  0.20900700  0.51530500  0.26848300  1
  O  O67  1  0.42096800  0.49566400  0.39984400  1
  O  O68  1  0.35245600  0.65486700  0.19433800  1
  O  O69  1  0.47532000  0.09429900  0.39481700  1
  O  O70  1  0.34736100  0.26263600  0.20897600  1
  O  O71  1  0.59175400  0.29161800  0.33076600  1
  O  O72  1  0.52183600  0.14998100  0.07639000  1
  O  O73  1  0.55422300  0.45278700  0.12534300  1
  O  O74  1  0.78806000  0.90512200  0.50374500  1
  O  O75  1  0.75766700  0.05764400  0.32588800  1
  O  O76  1  0.60392000  0.90093100  0.06895900  1
  O  O77  1  0.69831800  0.77911000  0.28347400  1
  O  O78  1  0.85905900  0.92432000  0.20328200  1
  O  O79  1  0.86281800  0.56785100  0.21557300  1
  O  O80  1  0.75008400  0.65755800  0.01335700  1
  O  O81  1  0.01183200  0.71075300  0.13499700  1
  O  O82  1  0.07695000  0.45274600  0.12031200  1
  O  O83  1  0.19578600  0.31417600  0.32589000  1
  O  O84  1  0.04791700  0.14893700  0.07826400  1
  O  O85  1  0.63720300  0.71064500  0.14042900  1
