# generated using pymatgen
data_La12Au3I13
_symmetry_space_group_name_H-M   'P 1'
_cell_length_a   11.11095184
_cell_length_b   11.11095184
_cell_length_c   11.11095241
_cell_angle_alpha   109.58806040
_cell_angle_beta   109.58806040
_cell_angle_gamma   109.58805613
_symmetry_Int_Tables_number   1
_chemical_formula_structural   La12Au3I13
_chemical_formula_sum   'La12 Au3 I13'
_cell_volume   1051.32967570
_cell_formula_units_Z   1
loop_
 _symmetry_equiv_pos_site_id
 _symmetry_equiv_pos_as_xyz
  1  'x, y, z'
loop_
 _atom_site_type_symbol
 _atom_site_label
 _atom_site_symmetry_multiplicity
 _atom_site_fract_x
 _atom_site_fract_y
 _atom_site_fract_z
 _atom_site_occupancy
  La  La0  1  0.48754500  0.73042800  0.74135000  1
  La  La1  1  0.25865000  0.26957200  0.51245500  1
  La  La2  1  0.26302800  0.73697200  0.00000000  1
  La  La3  1  0.48444900  0.51555100  0.00000000  1
  La  La4  1  0.00000000  0.48444900  0.51555100  1
  La  La5  1  0.73697200  0.00000000  0.26302800  1
  La  La6  1  0.00000000  0.26302800  0.73697200  1
  La  La7  1  0.51555100  0.00000000  0.48444900  1
  La  La8  1  0.73042800  0.74135000  0.48754500  1
  La  La9  1  0.26957200  0.51245500  0.25865000  1
  La  La10  1  0.51245500  0.25865000  0.26957200  1
  La  La11  1  0.74135000  0.48754500  0.73042800  1
  Au  Au12  1  0.50000000  0.75037800  0.24962200  1
  Au  Au13  1  0.24962200  0.50000000  0.75037800  1
  Au  Au14  1  0.75037800  0.24962200  0.50000000  1
  I  I15  1  0.75892400  0.00848900  0.76917100  1
  I  I16  1  0.99151100  0.24107600  0.23082900  1
  I  I17  1  0.76917100  0.75892400  0.00848900  1
  I  I18  1  0.23082900  0.99151100  0.24107600  1
  I  I19  1  0.98987900  0.50000000  0.01012100  1
  I  I20  1  0.50000000  0.24038000  0.75962000  1
  I  I21  1  0.75962000  0.50000000  0.24038000  1
  I  I22  1  0.50000000  0.01012100  0.98987900  1
  I  I23  1  0.24038000  0.75962000  0.50000000  1
  I  I24  1  0.01012100  0.98987900  0.50000000  1
  I  I25  1  0.24107600  0.23082900  0.99151100  1
  I  I26  1  0.00848900  0.76917100  0.75892400  1
  I  I27  1  0.50000000  0.50000000  0.50000000  1
