# generated using pymatgen
data_CuSi2P3
_symmetry_space_group_name_H-M   'P 1'
_cell_length_a   11.47608426
_cell_length_b   11.47608426
_cell_length_c   6.44167169
_cell_angle_alpha   85.57100726
_cell_angle_beta   85.57100726
_cell_angle_gamma   18.24181343
_symmetry_Int_Tables_number   1
_chemical_formula_structural   CuSi2P3
_chemical_formula_sum   'Cu2 Si4 P6'
_cell_volume   264.75060940
_cell_formula_units_Z   2
loop_
 _symmetry_equiv_pos_site_id
 _symmetry_equiv_pos_as_xyz
  1  'x, y, z'
loop_
 _atom_site_type_symbol
 _atom_site_label
 _atom_site_symmetry_multiplicity
 _atom_site_fract_x
 _atom_site_fract_y
 _atom_site_fract_z
 _atom_site_occupancy
  Cu  Cu0  1  0.26838400  0.26838400  0.25492000  1
  Cu  Cu1  1  0.36047900  0.36047900  0.88171900  1
  Si  Si2  1  0.84329500  0.84329500  0.36941100  1
  Si  Si3  1  0.62643100  0.62643100  0.12327000  1
  Si  Si4  1  0.75159000  0.75159000  0.76725600  1
  Si  Si5  1  0.12200000  0.12200000  0.62581300  1
  P  P6  1  0.37984400  0.37984400  0.20459700  1
  P  P7  1  0.72560600  0.72560600  0.10577000  1
  P  P8  1  0.84917100  0.84917100  0.70706100  1
  P  P9  1  0.08233300  0.08233300  0.97092800  1
  P  P10  1  0.22146800  0.22146800  0.58693900  1
  P  P11  1  0.58190100  0.58190100  0.46481700  1
