# generated using pymatgen
data_Tl2CuF3
_symmetry_space_group_name_H-M   'P 1'
_cell_length_a   6.19909800
_cell_length_b   6.58240857
_cell_length_c   20.98255012
_cell_angle_alpha   95.21345787
_cell_angle_beta   89.36044638
_cell_angle_gamma   104.60428604
_symmetry_Int_Tables_number   1
_chemical_formula_structural   Tl2CuF3
_chemical_formula_sum   'Tl12 Cu6 F18'
_cell_volume   825.04066201
_cell_formula_units_Z   6
loop_
 _symmetry_equiv_pos_site_id
 _symmetry_equiv_pos_as_xyz
  1  'x, y, z'
loop_
 _atom_site_type_symbol
 _atom_site_label
 _atom_site_symmetry_multiplicity
 _atom_site_fract_x
 _atom_site_fract_y
 _atom_site_fract_z
 _atom_site_occupancy
  Tl  Tl0  1  0.28061400  0.65909800  0.99480000  1
  Tl  Tl1  1  0.69232400  0.05786000  0.82084800  1
  Tl  Tl2  1  0.97371100  0.61251600  0.84306700  1
  Tl  Tl3  1  0.02942500  0.39152300  0.65127300  1
  Tl  Tl4  1  0.30192200  0.94008500  0.68246800  1
  Tl  Tl5  1  0.36396200  0.72531200  0.48546600  1
  Tl  Tl6  1  0.63603800  0.27468800  0.51453400  1
  Tl  Tl7  1  0.69807800  0.05991500  0.31753200  1
  Tl  Tl8  1  0.97057500  0.60847700  0.34872700  1
  Tl  Tl9  1  0.02628900  0.38748400  0.15693300  1
  Tl  Tl10  1  0.30767600  0.94214000  0.17915200  1
  Tl  Tl11  1  0.71938600  0.34090200  0.00520000  1
  Cu  Cu12  1  0.35180300  0.35227300  0.83157200  1
  Cu  Cu13  1  0.66780300  0.66858600  0.66660900  1
  Cu  Cu14  1  0.00000000  0.00000000  0.00000000  1
  Cu  Cu15  1  0.00000000  0.00000000  0.50000000  1
  Cu  Cu16  1  0.33219700  0.33141400  0.33339100  1
  Cu  Cu17  1  0.64819700  0.64772700  0.16842800  1
  F  F18  1  0.07895700  0.05127800  0.08490700  1
  F  F19  1  0.48019500  0.42173600  0.91200000  1
  F  F20  1  0.33125100  0.81732400  0.81831900  1
  F  F21  1  0.79301300  0.73389800  0.74753700  1
  F  F22  1  0.21860100  0.27705300  0.75253900  1
  F  F23  1  0.67056900  0.16283300  0.66924300  1
  F  F24  1  0.11764400  0.06296700  0.58117500  1
  F  F25  1  0.54380800  0.60364400  0.58620400  1
  F  F26  1  0.00000000  0.50000000  0.50000000  1
  F  F27  1  0.45619200  0.39635600  0.41379600  1
  F  F28  1  0.88235600  0.93703300  0.41882500  1
  F  F29  1  0.32943100  0.83716700  0.33075700  1
  F  F30  1  0.78139900  0.72294700  0.24746100  1
  F  F31  1  0.20698700  0.26610200  0.25246300  1
  F  F32  1  0.66874900  0.18267600  0.18168100  1
  F  F33  1  0.51980500  0.57826400  0.08800000  1
  F  F34  1  0.92104300  0.94872200  0.91509300  1
  F  F35  1  0.50000000  0.00000000  0.00000000  1
