# generated using pymatgen
data_Tb6PbSe10
_symmetry_space_group_name_H-M   'P 1'
_cell_length_a   7.63384120
_cell_length_b   7.62691111
_cell_length_c   38.18241708
_cell_angle_alpha   109.30375137
_cell_angle_beta   109.48043418
_cell_angle_gamma   109.56858828
_symmetry_Int_Tables_number   1
_chemical_formula_structural   Tb6PbSe10
_chemical_formula_sum   'Tb24 Pb4 Se40'
_cell_volume   1712.60594058
_cell_formula_units_Z   4
loop_
 _symmetry_equiv_pos_site_id
 _symmetry_equiv_pos_as_xyz
  1  'x, y, z'
loop_
 _atom_site_type_symbol
 _atom_site_label
 _atom_site_symmetry_multiplicity
 _atom_site_fract_x
 _atom_site_fract_y
 _atom_site_fract_z
 _atom_site_occupancy
  Tb  Tb0  1  0.13236031  0.75772107  0.97787058  1
  Tb  Tb1  1  0.11809548  0.75283268  0.77502912  1
  Tb  Tb2  1  0.25327506  0.62508007  0.87413119  1
  Tb  Tb3  1  0.37374036  0.24613656  0.92577301  1
  Tb  Tb4  1  0.09643596  0.73669585  0.56936412  1
  Tb  Tb5  1  0.25175075  0.62287362  0.67294323  1
  Tb  Tb6  1  0.37147627  0.24353806  0.72462201  1
  Tb  Tb7  1  0.62701862  0.37516756  0.85006578  1
  Tb  Tb8  1  0.13160401  0.75231646  0.37430209  1
  Tb  Tb9  1  0.24891948  0.60808625  0.47209133  1
  Tb  Tb10  1  0.37318592  0.24995279  0.52378465  1
  Tb  Tb11  1  0.75090963  0.87635317  0.62376162  1
  Tb  Tb12  1  0.62352408  0.37238945  0.64884313  1
  Tb  Tb13  1  0.11941659  0.74737533  0.17409699  1
  Tb  Tb14  1  0.25796946  0.63099404  0.27529942  1
  Tb  Tb15  1  0.38706507  0.25381265  0.32914802  1
  Tb  Tb16  1  0.74044314  0.88446458  0.42731945  1
  Tb  Tb17  1  0.25705450  0.63786372  0.07835837  1
  Tb  Tb18  1  0.61682222  0.37209787  0.24715775  1
  Tb  Tb19  1  0.73855776  0.85256030  0.22099556  1
  Tb  Tb20  1  0.87516530  0.13123683  0.35093184  1
  Tb  Tb21  1  0.76837087  0.89148911  0.03044064  1
  Tb  Tb22  1  0.62194985  0.37953401  0.05340564  1
  Tb  Tb23  1  0.87590524  0.12264515  0.14880032  1
  Pb  Pb24  1  0.75611004  0.88190523  0.82706673  1
  Pb  Pb25  1  0.88467620  0.12693805  0.95186580  1
  Pb  Pb26  1  0.87439149  0.12166424  0.75051129  1
  Pb  Pb27  1  0.86851366  0.11228645  0.54616275  1
  Se  Se28  1  0.01303709  0.37900048  0.90172424  1
  Se  Se29  1  0.99826587  0.84614460  0.69713381  1
  Se  Se30  1  0.50311725  0.00261793  0.97431247  1
  Se  Se31  1  0.16771167  0.16014334  0.83202854  1
  Se  Se32  1  0.35635892  0.49860116  0.79973590  1
  Se  Se33  1  0.00988500  0.85309352  0.49732239  1
  Se  Se34  1  0.63605865  0.62897412  0.92774118  1
  Se  Se35  1  0.01324274  0.35748317  0.50002858  1
  Se  Se36  1  0.15162099  0.14636110  0.63104329  1
  Se  Se37  1  0.48303806  0.99825002  0.86969944  1
  Se  Se38  1  0.37325447  0.50901901  0.60190977  1
  Se  Se39  1  0.01294995  0.84382123  0.90111936  1
  Se  Se40  1  0.63387856  0.62378187  0.72566619  1
  Se  Se41  1  0.47985327  0.99872075  0.76983442  1
  Se  Se42  1  0.48602307  0.99740443  0.57297762  1
  Se  Se43  1  0.85680916  0.50166663  0.80085821  1
  Se  Se44  1  0.48941802  0.99795805  0.66930139  1
  Se  Se45  1  0.11870325  0.12565027  0.42576986  1
  Se  Se46  1  0.34701634  0.49864759  0.39838754  1
  Se  Se47  1  0.64225327  0.64537644  0.53088404  1
  Se  Se48  1  0.85728641  0.50691364  0.60102833  1
  Se  Se49  1  0.00455863  0.36918291  0.69943314  1
  Se  Se50  1  0.47878652  0.98640911  0.46884430  1
  Se  Se51  1  0.13895750  0.13685292  0.22780580  1
  Se  Se52  1  0.35004354  0.50311478  0.20141009  1
  Se  Se53  1  0.63842205  0.62935173  0.32606070  1
  Se  Se54  1  0.49781039  0.99180950  0.36772818  1
  Se  Se55  1  0.50204203  0.99361897  0.17337333  1
  Se  Se56  1  0.86402344  0.50343966  0.39764323  1
  Se  Se57  1  0.50308060  0.01015243  0.27277971  1
  Se  Se58  1  0.15101419  0.14632236  0.03012916  1
  Se  Se59  1  0.37346250  0.50913004  0.00121804  1
  Se  Se60  1  0.99588210  0.86435531  0.29972490  1
  Se  Se61  1  0.64761521  0.65594242  0.13068158  1
  Se  Se62  1  0.87050130  0.50433640  0.20205136  1
  Se  Se63  1  0.99433219  0.36000775  0.29776796  1
  Se  Se64  1  0.50624000  0.99668577  0.07115837  1
  Se  Se65  1  0.00371128  0.85191902  0.10129064  1
  Se  Se66  1  0.86257428  0.51394815  0.00314120  1
  Se  Se67  1  0.99245294  0.36278030  0.10010931  1
