# generated using pymatgen
data_Yb(NdS2)2
_symmetry_space_group_name_H-M   'P 1'
_cell_length_a   7.41414891
_cell_length_b   7.41414891
_cell_length_c   7.41414891
_cell_angle_alpha   109.56886453
_cell_angle_beta   109.56886453
_cell_angle_gamma   109.27610886
_symmetry_Int_Tables_number   1
_chemical_formula_structural   Yb(NdS2)2
_chemical_formula_sum   'Yb2 Nd4 S8'
_cell_volume   313.73158785
_cell_formula_units_Z   2
loop_
 _symmetry_equiv_pos_site_id
 _symmetry_equiv_pos_as_xyz
  1  'x, y, z'
loop_
 _atom_site_type_symbol
 _atom_site_label
 _atom_site_symmetry_multiplicity
 _atom_site_fract_x
 _atom_site_fract_y
 _atom_site_fract_z
 _atom_site_occupancy
  Yb  Yb0  1  0.75000000  0.25000000  0.50000000  1
  Yb  Yb1  1  0.00000000  0.00000000  0.00000000  1
  Nd  Nd2  1  0.87500000  0.49652400  0.12152400  1
  Nd  Nd3  1  0.24652400  0.12500000  0.62152400  1
  Nd  Nd4  1  0.37500000  0.75347600  0.87847600  1
  Nd  Nd5  1  0.50347600  0.62500000  0.37847600  1
  S  S6  1  0.77260000  0.87600700  0.25219100  1
  S  S7  1  0.12618400  0.37399300  0.39659300  1
  S  S8  1  0.97740000  0.72959100  0.60340700  1
  S  S9  1  0.27040900  0.87381600  0.24780900  1
  S  S10  1  0.12399300  0.37618400  0.89659300  1
  S  S11  1  0.62600700  0.02260000  0.75219100  1
  S  S12  1  0.47959100  0.22740000  0.10340700  1
  S  S13  1  0.62381600  0.52040900  0.74780900  1
