# generated using pymatgen
data_La12Cu10O31
_symmetry_space_group_name_H-M   'P 1'
_cell_length_a   6.70774755
_cell_length_b   6.70774755
_cell_length_c   20.68413937
_cell_angle_alpha   89.94231543
_cell_angle_beta   89.94231543
_cell_angle_gamma   120.34579255
_symmetry_Int_Tables_number   1
_chemical_formula_structural   La12Cu10O31
_chemical_formula_sum   'La12 Cu10 O31'
_cell_volume   803.15020617
_cell_formula_units_Z   1
loop_
 _symmetry_equiv_pos_site_id
 _symmetry_equiv_pos_as_xyz
  1  'x, y, z'
loop_
 _atom_site_type_symbol
 _atom_site_label
 _atom_site_symmetry_multiplicity
 _atom_site_fract_x
 _atom_site_fract_y
 _atom_site_fract_z
 _atom_site_occupancy
  La  La0  1  0.99970600  0.99969800  0.12896500  1
  La  La1  1  0.98611200  0.00000600  0.38633600  1
  La  La2  1  0.99999400  0.01388800  0.61366400  1
  La  La3  1  0.00030200  0.00029400  0.87103500  1
  La  La4  1  0.66592500  0.33306900  0.12970900  1
  La  La5  1  0.66512100  0.32899800  0.61745000  1
  La  La6  1  0.67100200  0.33487900  0.38255000  1
  La  La7  1  0.66693100  0.33407500  0.87029100  1
  La  La8  1  0.33311400  0.66717200  0.87098900  1
  La  La9  1  0.33315400  0.64983100  0.38251200  1
  La  La10  1  0.35016900  0.66684600  0.61748800  1
  La  La11  1  0.33282800  0.66688600  0.12901100  1
  Cu  Cu12  1  0.15934200  0.32997500  0.25562600  1
  Cu  Cu13  1  0.17054300  0.33467300  0.74409200  1
  Cu  Cu14  1  0.16638400  0.33298400  0.00001300  1
  Cu  Cu15  1  0.66532700  0.82945700  0.25590800  1
  Cu  Cu16  1  0.66701600  0.83361600  0.99998700  1
  Cu  Cu17  1  0.67002500  0.84065800  0.74437400  1
  Cu  Cu18  1  0.16118200  0.83881800  0.50000000  1
  Cu  Cu19  1  0.16638000  0.83362000  0.00000000  1
  Cu  Cu20  1  0.17066000  0.83990600  0.25642400  1
  Cu  Cu21  1  0.16009400  0.82934000  0.74357600  1
  O  O22  1  0.00749000  0.99251000  0.50000000  1
  O  O23  1  0.00094500  0.99905500  0.00000000  1
  O  O24  1  0.66714400  0.00024100  0.32767000  1
  O  O25  1  0.64840500  0.00612500  0.57420700  1
  O  O26  1  0.66893200  0.00198200  0.07613100  1
  O  O27  1  0.99503700  0.33241500  0.18004300  1
  O  O28  1  0.99763500  0.99879200  0.25421500  1
  O  O29  1  0.00120800  0.00236500  0.74578500  1
  O  O30  1  0.32544500  0.32364200  0.32717600  1
  O  O31  1  0.33861300  0.33731300  0.81966700  1
  O  O32  1  0.35715800  0.34280600  0.57786600  1
  O  O33  1  0.33447900  0.33452200  0.07615900  1
  O  O34  1  0.00465800  0.67609000  0.32836700  1
  O  O35  1  0.99387500  0.35159500  0.42579300  1
  O  O36  1  0.99801800  0.33106800  0.92386900  1
  O  O37  1  0.99975900  0.33285600  0.67233000  1
  O  O38  1  0.66268700  0.66138700  0.18033300  1
  O  O39  1  0.67635800  0.67455500  0.67282400  1
  O  O40  1  0.65719400  0.64284200  0.42213400  1
  O  O41  1  0.66547800  0.66552100  0.92384100  1
  O  O42  1  0.33220100  0.66779900  0.00000000  1
  O  O43  1  0.33065800  0.66596000  0.25603800  1
  O  O44  1  0.33404000  0.66934200  0.74396200  1
  O  O45  1  0.66758500  0.00496300  0.81995700  1
  O  O46  1  0.01336100  0.66045400  0.56822900  1
  O  O47  1  0.99579100  0.66232100  0.81976400  1
  O  O48  1  0.99964800  0.66724800  0.07665100  1
  O  O49  1  0.33767900  0.00420900  0.18023600  1
  O  O50  1  0.32391000  0.99534200  0.67163300  1
  O  O51  1  0.33954600  0.98663900  0.43177100  1
  O  O52  1  0.33275200  0.00035200  0.92334900  1
