# generated using pymatgen
data_Yb22Fe7S40
_symmetry_space_group_name_H-M   'P 1'
_cell_length_a   7.70573324
_cell_length_b   7.70573324
_cell_length_c   31.72378866
_cell_angle_alpha   82.81995238
_cell_angle_beta   82.81995238
_cell_angle_gamma   60.41578700
_symmetry_Int_Tables_number   1
_chemical_formula_structural   Yb22Fe7S40
_chemical_formula_sum   'Yb22 Fe7 S40'
_cell_volume   1620.90566166
_cell_formula_units_Z   1
loop_
 _symmetry_equiv_pos_site_id
 _symmetry_equiv_pos_as_xyz
  1  'x, y, z'
loop_
 _atom_site_type_symbol
 _atom_site_label
 _atom_site_symmetry_multiplicity
 _atom_site_fract_x
 _atom_site_fract_y
 _atom_site_fract_z
 _atom_site_occupancy
  Yb  Yb0  1  0.49933600  0.49933600  0.00171200  1
  Yb  Yb1  1  0.70077200  0.19877100  0.89969300  1
  Yb  Yb2  1  0.89989200  0.89989200  0.80024400  1
  Yb  Yb3  1  0.60087100  0.09960800  0.69986800  1
  Yb  Yb4  1  0.19877100  0.70077200  0.89969300  1
  Yb  Yb5  1  0.70067800  0.70067800  0.89966400  1
  Yb  Yb6  1  0.50100800  0.50100800  0.50069100  1
  Yb  Yb7  1  0.09960800  0.60087100  0.69986800  1
  Yb  Yb8  1  0.99730600  0.50096500  0.50070000  1
  Yb  Yb9  1  0.29996800  0.29996800  0.60002500  1
  Yb  Yb10  1  0.09963300  0.09963300  0.69986600  1
  Yb  Yb11  1  0.90307300  0.90307300  0.29888600  1
  Yb  Yb12  1  0.50096500  0.99730600  0.50070000  1
  Yb  Yb13  1  0.69997500  0.69997500  0.40047200  1
  Yb  Yb14  1  0.80166400  0.80166400  0.09878200  1
  Yb  Yb15  1  0.30081400  0.30081400  0.10044700  1
  Yb  Yb16  1  0.59825400  0.59825400  0.20151700  1
  Yb  Yb17  1  0.90544300  0.39345800  0.30111800  1
  Yb  Yb18  1  0.09972600  0.09972600  0.19915900  1
  Yb  Yb19  1  0.39345800  0.90544300  0.30111800  1
  Yb  Yb20  1  0.80146000  0.29803100  0.09876800  1
  Yb  Yb21  1  0.29803100  0.80146000  0.09876800  1
  Fe  Fe22  1  0.17491000  0.17491000  0.97391700  1
  Fe  Fe23  1  0.57468900  0.57468900  0.77482100  1
  Fe  Fe24  1  0.97474900  0.97474900  0.57467900  1
  Fe  Fe25  1  0.37461800  0.37461800  0.37567100  1
  Fe  Fe26  1  0.22544300  0.22544300  0.82477300  1
  Fe  Fe27  1  0.62526300  0.62526300  0.62520900  1
  Fe  Fe28  1  0.02511700  0.02511700  0.42581800  1
  S  S29  1  0.33591800  0.87616900  0.95206700  1
  S  S30  1  0.87616900  0.33591800  0.95206700  1
  S  S31  1  0.55127000  0.55127000  0.84598800  1
  S  S32  1  0.33613700  0.33613700  0.95219700  1
  S  S33  1  0.06103300  0.06103300  0.84840000  1
  S  S34  1  0.74087100  0.26697200  0.75139700  1
  S  S35  1  0.52890700  0.06132900  0.84833100  1
  S  S36  1  0.85120300  0.85120300  0.94605700  1
  S  S37  1  0.95119300  0.95119300  0.64631800  1
  S  S38  1  0.26697200  0.74087100  0.75139700  1
  S  S39  1  0.06132900  0.52890700  0.84833100  1
  S  S40  1  0.74117300  0.74117300  0.75132000  1
  S  S41  1  0.45869900  0.45869900  0.64883300  1
  S  S42  1  0.14187300  0.66532700  0.55100000  1
  S  S43  1  0.24857400  0.24857400  0.75438900  1
  S  S44  1  0.93301700  0.45905500  0.64875500  1
  S  S45  1  0.66532700  0.14187300  0.55100000  1
  S  S46  1  0.35218400  0.35218400  0.44359100  1
  S  S47  1  0.14223700  0.14223700  0.55091100  1
  S  S48  1  0.45905500  0.93301700  0.64875500  1
  S  S49  1  0.85745700  0.85745700  0.44836600  1
  S  S50  1  0.53156800  0.08563700  0.35245900  1
  S  S51  1  0.64889700  0.64889700  0.55348600  1
  S  S52  1  0.33644800  0.85754800  0.44838200  1
  S  S53  1  0.08563700  0.53156800  0.35245900  1
  S  S54  1  0.74625700  0.74625700  0.25576600  1
  S  S55  1  0.85754800  0.33644800  0.44838200  1
  S  S56  1  0.53160900  0.53160900  0.35205800  1
  S  S57  1  0.24616000  0.24616000  0.25059900  1
  S  S58  1  0.94828500  0.44784700  0.14894400  1
  S  S59  1  0.04713700  0.04713700  0.35643800  1
  S  S60  1  0.75651800  0.24883900  0.25145200  1
  S  S61  1  0.15300000  0.15300000  0.04112600  1
  S  S62  1  0.44784700  0.94828500  0.14894400  1
  S  S63  1  0.24883900  0.75651800  0.25145200  1
  S  S64  1  0.95237800  0.95237800  0.14882100  1
  S  S65  1  0.64781300  0.64781300  0.05059300  1
  S  S66  1  0.45206000  0.45206000  0.14813700  1
  S  S67  1  0.15273300  0.64817200  0.04969400  1
  S  S68  1  0.64817200  0.15273300  0.04969400  1
