# generated using pymatgen
data_Nb15IrS32
_symmetry_space_group_name_H-M   'P 1'
_cell_length_a   8.99552700
_cell_length_b   9.01565785
_cell_length_c   13.64205957
_cell_angle_alpha   106.25482035
_cell_angle_beta   106.36171772
_cell_angle_gamma   98.51252986
_symmetry_Int_Tables_number   1
_chemical_formula_structural   Nb15IrS32
_chemical_formula_sum   'Nb15 Ir1 S32'
_cell_volume   987.74311451
_cell_formula_units_Z   1
loop_
 _symmetry_equiv_pos_site_id
 _symmetry_equiv_pos_as_xyz
  1  'x, y, z'
loop_
 _atom_site_type_symbol
 _atom_site_label
 _atom_site_symmetry_multiplicity
 _atom_site_fract_x
 _atom_site_fract_y
 _atom_site_fract_z
 _atom_site_occupancy
  Nb  Nb0  1  0.01353100  0.02256600  0.00194200  1
  Nb  Nb1  1  0.73210300  0.25192400  0.99862600  1
  Nb  Nb2  1  0.00191500  0.47388200  0.50261300  1
  Nb  Nb3  1  0.37419100  0.13376200  0.99882700  1
  Nb  Nb4  1  0.72464000  0.75467600  0.49974700  1
  Nb  Nb5  1  0.49931500  0.49052700  0.00002600  1
  Nb  Nb6  1  0.14052400  0.37065600  0.00028000  1
  Nb  Nb7  1  0.24477800  0.72231100  0.99847900  1
  Nb  Nb8  1  0.49984100  0.03003200  0.49864200  1
  Nb  Nb9  1  0.86114300  0.60127800  0.99744200  1
  Nb  Nb10  1  0.11283900  0.86696900  0.50277400  1
  Nb  Nb11  1  0.25145600  0.25075000  0.49858600  1
  Nb  Nb12  1  0.88438500  0.11310500  0.49993200  1
  Nb  Nb13  1  0.62731600  0.89919700  0.00071800  1
  Nb  Nb14  1  0.61199000  0.39538800  0.49924200  1
  Ir  Ir15  1  0.39797700  0.61223400  0.50032800  1
  S  S16  1  0.64398700  0.15239200  0.13135400  1
  S  S17  1  0.73430300  0.48561200  0.38003700  1
  S  S18  1  0.39973400  0.39787700  0.13208600  1
  S  S19  1  0.65123000  0.65302300  0.63577200  1
  S  S20  1  0.73105400  0.98390300  0.87409600  1
  S  S21  1  0.01764000  0.27446200  0.12426600  1
  S  S22  1  0.46753700  0.73225200  0.37616600  1
  S  S23  1  0.12739000  0.60548000  0.38876400  1
  S  S24  1  0.14231500  0.63920300  0.12584900  1
  S  S25  1  0.39452800  0.87597500  0.60805500  1
  S  S26  1  0.22496400  0.98070200  0.37491500  1
  S  S27  1  0.47344100  0.22557900  0.86646400  1
  S  S28  1  0.76816900  0.52162700  0.13163200  1
  S  S29  1  0.01272000  0.76435800  0.62086900  1
  S  S30  1  0.89155000  0.89152500  0.11542400  1
  S  S31  1  0.10491500  0.10148600  0.86698100  1
  S  S32  1  0.15423900  0.14156800  0.62597000  1
  S  S33  1  0.84892600  0.84469400  0.37273400  1
  S  S34  1  0.51925600  0.76905900  0.12100500  1
  S  S35  1  0.97434500  0.22173200  0.36964400  1
  S  S36  1  0.22862300  0.47035600  0.86709200  1
  S  S37  1  0.76659300  0.02619200  0.62610700  1
  S  S38  1  0.89552200  0.39126900  0.62502200  1
  S  S39  1  0.60774500  0.11238500  0.37647600  1
  S  S40  1  0.85486400  0.34845600  0.87472000  1
  S  S41  1  0.98198400  0.73183000  0.88380300  1
  S  S42  1  0.26870300  0.01456300  0.12051300  1
  S  S43  1  0.52456000  0.28121900  0.63088500  1
  S  S44  1  0.35163700  0.35325500  0.36794100  1
  S  S45  1  0.60542100  0.60916200  0.87940300  1
  S  S46  1  0.27895900  0.52556300  0.62303300  1
  S  S47  1  0.35348000  0.85423000  0.87899700  1
