# generated using pymatgen
data_Ti3Fe5O12
_symmetry_space_group_name_H-M   'P 1'
_cell_length_a   5.15678000
_cell_length_b   5.54432585
_cell_length_c   7.59441390
_cell_angle_alpha   95.32044376
_cell_angle_beta   90.23487490
_cell_angle_gamma   90.03179812
_symmetry_Int_Tables_number   1
_chemical_formula_structural   Ti3Fe5O12
_chemical_formula_sum   'Ti3 Fe5 O12'
_cell_volume   216.19350843
_cell_formula_units_Z   1
loop_
 _symmetry_equiv_pos_site_id
 _symmetry_equiv_pos_as_xyz
  1  'x, y, z'
loop_
 _atom_site_type_symbol
 _atom_site_label
 _atom_site_symmetry_multiplicity
 _atom_site_fract_x
 _atom_site_fract_y
 _atom_site_fract_z
 _atom_site_occupancy
  Ti  Ti0  1  0.00184400  0.28732600  0.35782800  1
  Ti  Ti1  1  0.99497500  0.30409100  0.86148100  1
  Ti  Ti2  1  0.50589500  0.78285800  0.34922700  1
  Fe  Fe3  1  0.99948200  0.71434900  0.13902900  1
  Fe  Fe4  1  0.50081400  0.20559900  0.64735400  1
  Fe  Fe5  1  0.50053600  0.79095300  0.85382900  1
  Fe  Fe6  1  0.99863600  0.71675100  0.64520800  1
  Fe  Fe7  1  0.49903800  0.20895400  0.14244900  1
  O  O8  1  0.15043200  0.33353900  0.58340600  1
  O  O9  1  0.18984200  0.02281200  0.26716700  1
  O  O10  1  0.37594600  0.84967800  0.58429000  1
  O  O11  1  0.62721400  0.83919900  0.10117900  1
  O  O12  1  0.16615700  0.63769800  0.89136400  1
  O  O13  1  0.69154700  0.49589400  0.75825600  1
  O  O14  1  0.30532600  0.51698200  0.26776800  1
  O  O15  1  0.87237600  0.32955400  0.09094700  1
  O  O16  1  0.31919900  0.14745700  0.88576000  1
  O  O17  1  0.67897500  0.15137100  0.40884100  1
  O  O18  1  0.79993300  0.02337600  0.76582800  1
  O  O19  1  0.82183200  0.64156000  0.39878800  1
