# generated using pymatgen
data_Zr2N2O
_symmetry_space_group_name_H-M   'P 1'
_cell_length_a   8.85519106
_cell_length_b   8.88862550
_cell_length_c   8.87788583
_cell_angle_alpha   109.42335940
_cell_angle_beta   109.42278143
_cell_angle_gamma   109.53829178
_symmetry_Int_Tables_number   1
_chemical_formula_structural   Zr2N2O
_chemical_formula_sum   'Zr16 N16 O8'
_cell_volume   538.11653098
_cell_formula_units_Z   8
loop_
 _symmetry_equiv_pos_site_id
 _symmetry_equiv_pos_as_xyz
  1  'x, y, z'
loop_
 _atom_site_type_symbol
 _atom_site_label
 _atom_site_symmetry_multiplicity
 _atom_site_fract_x
 _atom_site_fract_y
 _atom_site_fract_z
 _atom_site_occupancy
  Zr  Zr0  1  0.21785900  0.75940100  0.97042800  1
  Zr  Zr1  1  0.98843400  0.48988700  0.48157700  1
  Zr  Zr2  1  0.03140800  0.77922100  0.25210100  1
  Zr  Zr3  1  0.24371300  0.04025300  0.78028000  1
  Zr  Zr4  1  0.46572100  0.71625000  0.75716800  1
  Zr  Zr5  1  0.25216400  0.53274600  0.29244200  1
  Zr  Zr6  1  0.50821500  0.01859600  0.51047900  1
  Zr  Zr7  1  0.99779200  0.98719100  0.99016200  1
  Zr  Zr8  1  0.28301200  0.24892600  0.53515700  1
  Zr  Zr9  1  0.71675800  0.74835700  0.45948800  1
  Zr  Zr10  1  0.49642000  0.50609300  0.01060500  1
  Zr  Zr11  1  0.75553800  0.46782300  0.71633300  1
  Zr  Zr12  1  0.74281600  0.96168300  0.21058700  1
  Zr  Zr13  1  0.53652200  0.28732200  0.25843700  1
  Zr  Zr14  1  0.95947400  0.20415500  0.74005800  1
  Zr  Zr15  1  0.78505600  0.24640500  0.03296400  1
  N  N16  1  0.25767000  0.98136200  0.53129600  1
  N  N17  1  0.23002100  0.27505800  0.76203000  1
  N  N18  1  0.23149400  0.45666400  0.48956500  1
  N  N19  1  0.72688700  0.96452000  0.95014300  1
  N  N20  1  0.46351600  0.73532400  0.00803700  1
  N  N21  1  0.45187200  0.48754700  0.22478300  1
  N  N22  1  0.27379300  0.03055800  0.04283500  1
  N  N23  1  0.48707700  0.22831000  0.45710700  1
  N  N24  1  0.95500900  0.72786900  0.96861500  1
  N  N25  1  0.72922300  0.24078200  0.77399700  1
  N  N26  1  0.96732900  0.95804800  0.73091100  1
  N  N27  1  0.77809300  0.54860100  0.51616500  1
  N  N28  1  0.77322300  0.72777800  0.23796100  1
  N  N29  1  0.73859000  0.01204200  0.46739200  1
  N  N30  1  0.76103500  0.22870200  0.27293900  1
  N  N31  1  0.99082000  0.53171000  0.25869500  1
  O  O32  1  0.01425700  0.46897400  0.74016200  1
  O  O33  1  0.24132800  0.77125900  0.73010700  1
  O  O34  1  0.03502100  0.04938100  0.27381600  1
  O  O35  1  0.04655100  0.27343200  0.03749800  1
  O  O36  1  0.27625600  0.75993900  0.22587700  1
  O  O37  1  0.50675900  0.77156200  0.54183500  1
  O  O38  1  0.54728200  0.51350800  0.77229000  1
  O  O39  1  0.53599200  0.26275900  0.98767700  1
