# generated using pymatgen
data_Li7Mn11O24
_symmetry_space_group_name_H-M   'P 1'
_cell_length_a   5.75214427
_cell_length_b   17.30381010
_cell_length_c   10.02278357
_cell_angle_alpha   30.39710261
_cell_angle_beta   54.98679629
_cell_angle_gamma   60.08034956
_symmetry_Int_Tables_number   1
_chemical_formula_structural   Li7Mn11O24
_chemical_formula_sum   'Li7 Mn11 O24'
_cell_volume   413.40641623
_cell_formula_units_Z   1
loop_
 _symmetry_equiv_pos_site_id
 _symmetry_equiv_pos_as_xyz
  1  'x, y, z'
loop_
 _atom_site_type_symbol
 _atom_site_label
 _atom_site_symmetry_multiplicity
 _atom_site_fract_x
 _atom_site_fract_y
 _atom_site_fract_z
 _atom_site_occupancy
  Li  Li0  1  0.13613100  0.02796000  0.06955000  1
  Li  Li1  1  0.12571700  0.33819200  0.11679300  1
  Li  Li2  1  0.12899600  0.67097200  0.11641300  1
  Li  Li3  1  0.87238300  0.99452800  0.88430300  1
  Li  Li4  1  0.87552800  0.33042000  0.87945200  1
  Li  Li5  1  0.85540800  0.63850200  0.93234200  1
  Li  Li6  1  0.00462700  0.83221000  0.50141100  1
  Mn  Mn7  1  0.50114400  0.15573100  0.01445900  1
  Mn  Mn8  1  0.49830200  0.99653500  0.50006800  1
  Mn  Mn9  1  0.99994700  0.33223900  0.50121400  1
  Mn  Mn10  1  0.50292600  0.16672500  0.49671000  1
  Mn  Mn11  1  0.49758900  0.50989100  0.98712100  1
  Mn  Mn12  1  0.01009700  0.99631500  0.50062400  1
  Mn  Mn13  1  0.49888600  0.33283000  0.50116000  1
  Mn  Mn14  1  0.99078300  0.66942000  0.50088600  1
  Mn  Mn15  1  0.49784300  0.49866200  0.50503200  1
  Mn  Mn16  1  0.50101100  0.83284000  0.00054300  1
  Mn  Mn17  1  0.50365200  0.66948100  0.50010900  1
  O  O18  1  0.23789000  0.01318600  0.24763000  1
  O  O19  1  0.26384600  0.14784300  0.26365700  1
  O  O20  1  0.72384300  0.01226900  0.24930000  1
  O  O21  1  0.26394600  0.33320900  0.26323700  1
  O  O22  1  0.73267800  0.14797700  0.29452900  1
  O  O23  1  0.26816200  0.18947700  0.69729800  1
  O  O24  1  0.26200300  0.48428500  0.26066000  1
  O  O25  1  0.70912500  0.33344400  0.26337700  1
  O  O26  1  0.29080500  0.33261800  0.73765600  1
  O  O27  1  0.26707400  0.66536200  0.26496700  1
  O  O28  1  0.73122600  0.47542700  0.30539800  1
  O  O29  1  0.73655600  0.18094500  0.74139400  1
  O  O30  1  0.26848500  0.51816300  0.70618800  1
  O  O31  1  0.25689600  0.81864300  0.26639700  1
  O  O32  1  0.73681800  0.33137200  0.73915800  1
  O  O33  1  0.71002700  0.66562200  0.26399700  1
  O  O34  1  0.27285600  0.65222600  0.75398000  1
  O  O35  1  0.75607000  0.80619000  0.28543600  1
  O  O36  1  0.24407500  0.85996300  0.71537400  1
  O  O37  1  0.73665400  0.51812800  0.73748100  1
  O  O38  1  0.75971300  0.65292600  0.75364300  1
  O  O39  1  0.29199500  0.99966200  0.73760400  1
  O  O40  1  0.74389800  0.84711900  0.73456900  1
  O  O41  1  0.73393100  0.99982400  0.73699000  1
