# generated using pymatgen
data_LaZr9O20
_symmetry_space_group_name_H-M   'P 1'
_cell_length_a   6.49391600
_cell_length_b   7.44586394
_cell_length_c   8.24292230
_cell_angle_alpha   77.37059099
_cell_angle_beta   75.44417822
_cell_angle_gamma   71.97038043
_symmetry_Int_Tables_number   1
_chemical_formula_structural   LaZr9O20
_chemical_formula_sum   'La1 Zr9 O20'
_cell_volume   362.51136905
_cell_formula_units_Z   1
loop_
 _symmetry_equiv_pos_site_id
 _symmetry_equiv_pos_as_xyz
  1  'x, y, z'
loop_
 _atom_site_type_symbol
 _atom_site_label
 _atom_site_symmetry_multiplicity
 _atom_site_fract_x
 _atom_site_fract_y
 _atom_site_fract_z
 _atom_site_occupancy
  La  La0  1  0.39880600  0.34898900  0.70047800  1
  Zr  Zr1  1  0.19193900  0.54939400  0.10390500  1
  Zr  Zr2  1  0.20309100  0.04419700  0.10091400  1
  Zr  Zr3  1  0.59552600  0.14684300  0.29896100  1
  Zr  Zr4  1  0.60336200  0.64981800  0.29834100  1
  Zr  Zr5  1  0.00479000  0.76034700  0.49183300  1
  Zr  Zr6  1  0.99599700  0.25505800  0.49472800  1
  Zr  Zr7  1  0.39392400  0.85138300  0.70422000  1
  Zr  Zr8  1  0.80943100  0.95023800  0.89873100  1
  Zr  Zr9  1  0.79583000  0.44997700  0.90283500  1
  O  O10  1  0.58459800  0.47199200  0.14070800  1
  O  O11  1  0.87786100  0.67394700  0.03639100  1
  O  O12  1  0.00149900  0.06105300  0.34043200  1
  O  O13  1  0.28123000  0.27664200  0.24194300  1
  O  O14  1  0.81060700  0.12760000  0.06549400  1
  O  O15  1  0.51084600  0.93006100  0.17398200  1
  O  O16  1  0.38254400  0.68080200  0.53214800  1
  O  O17  1  0.68996100  0.87249600  0.43949300  1
  O  O18  1  0.21935100  0.72773000  0.25440600  1
  O  O19  1  0.92067900  0.53158300  0.35057000  1
  O  O20  1  0.79354900  0.26145400  0.74479500  1
  O  O21  1  0.04870200  0.48386300  0.63264100  1
  O  O22  1  0.64779900  0.32263600  0.44153300  1
  O  O23  1  0.31691700  0.12264300  0.55439400  1
  O  O24  1  0.16518800  0.88334800  0.93682600  1
  O  O25  1  0.48604400  0.03722200  0.85392600  1
  O  O26  1  0.01917300  0.92484900  0.66206000  1
  O  O27  1  0.72079800  0.72613300  0.75653300  1
  O  O28  1  0.42073300  0.54955700  0.87491200  1
  O  O29  1  0.10922600  0.32814300  0.97186700  1
