# generated using pymatgen
data_Sm6Th4O17
_symmetry_space_group_name_H-M   'P 1'
_cell_length_a   3.90451819
_cell_length_b   3.90451854
_cell_length_c   39.88361598
_cell_angle_alpha   60.69300924
_cell_angle_beta   60.69300689
_cell_angle_gamma   59.99999427
_symmetry_Int_Tables_number   1
_chemical_formula_structural   Sm6Th4O17
_chemical_formula_sum   'Sm6 Th4 O17'
_cell_volume   434.39523771
_cell_formula_units_Z   1
loop_
 _symmetry_equiv_pos_site_id
 _symmetry_equiv_pos_as_xyz
  1  'x, y, z'
loop_
 _atom_site_type_symbol
 _atom_site_label
 _atom_site_symmetry_multiplicity
 _atom_site_fract_x
 _atom_site_fract_y
 _atom_site_fract_z
 _atom_site_occupancy
  Sm  Sm0  1  0.98599100  0.98599100  0.50420300  1
  Sm  Sm1  1  0.00710800  0.00710800  0.39786800  1
  Sm  Sm2  1  0.00909600  0.00909600  0.59727100  1
  Sm  Sm3  1  0.98645000  0.98645000  0.70406500  1
  Sm  Sm4  1  0.00953700  0.00953700  0.79713900  1
  Sm  Sm5  1  0.98899300  0.98899300  0.90330200  1
  Th  Th6  1  0.00726400  0.00726400  0.99782100  1
  Th  Th7  1  0.00633800  0.00633800  0.09809900  1
  Th  Th8  1  0.00519900  0.00519900  0.29844000  1
  Th  Th9  1  0.00526900  0.00526900  0.19841900  1
  O  O10  1  0.24787500  0.24787500  0.02563800  1
  O  O11  1  0.24704600  0.24704600  0.12588600  1
  O  O12  1  0.74839400  0.74839400  0.07548200  1
  O  O13  1  0.24537200  0.24537200  0.22638800  1
  O  O14  1  0.74769800  0.74769800  0.17569000  1
  O  O15  1  0.24965900  0.24965900  0.32510200  1
  O  O16  1  0.74798900  0.74798900  0.27560300  1
  O  O17  1  0.71781200  0.71781200  0.38465600  1
  O  O18  1  0.24894300  0.24894300  0.52531700  1
  O  O19  1  0.78234300  0.78234300  0.46529700  1
  O  O20  1  0.72128600  0.72128600  0.58361400  1
  O  O21  1  0.24928000  0.24928000  0.72521600  1
  O  O22  1  0.78343700  0.78343700  0.66496900  1
  O  O23  1  0.72111200  0.72111200  0.78366600  1
  O  O24  1  0.24754400  0.24754400  0.92573700  1
  O  O25  1  0.78432900  0.78432900  0.86470100  1
  O  O26  1  0.74863500  0.74863500  0.97541000  1
