# generated using pymatgen
data_LaMnO3
_symmetry_space_group_name_H-M   'P 1'
_cell_length_a   4.13700800
_cell_length_b   5.80749800
_cell_length_c   12.90489000
_cell_angle_alpha   90.00000000
_cell_angle_beta   90.00000000
_cell_angle_gamma   90.00000000
_symmetry_Int_Tables_number   1
_chemical_formula_structural   LaMnO3
_chemical_formula_sum   'La4 Mn4 O12'
_cell_volume   310.04857285
_cell_formula_units_Z   4
loop_
 _symmetry_equiv_pos_site_id
 _symmetry_equiv_pos_as_xyz
  1  'x, y, z'
loop_
 _atom_site_type_symbol
 _atom_site_label
 _atom_site_symmetry_multiplicity
 _atom_site_fract_x
 _atom_site_fract_y
 _atom_site_fract_z
 _atom_site_occupancy
  La  La0  1  0.60132700  0.63929600  0.25000000  1
  La  La1  1  0.39867300  0.36070400  0.75000000  1
  La  La2  1  0.10132700  0.86070400  0.75000000  1
  La  La3  1  0.89867300  0.13929600  0.25000000  1
  Mn  Mn4  1  0.00000000  0.00000000  0.50000000  1
  Mn  Mn5  1  0.00000000  0.00000000  0.00000000  1
  Mn  Mn6  1  0.50000000  0.50000000  0.50000000  1
  Mn  Mn7  1  0.50000000  0.50000000  0.00000000  1
  O  O8  1  0.25531700  0.24422200  0.57106700  1
  O  O9  1  0.62966300  0.01550500  0.75000000  1
  O  O10  1  0.37033700  0.98449500  0.25000000  1
  O  O11  1  0.74468300  0.75577800  0.07106700  1
  O  O12  1  0.74468300  0.75577800  0.42893300  1
  O  O13  1  0.75531700  0.25577800  0.07106700  1
  O  O14  1  0.12966300  0.48449500  0.25000000  1
  O  O15  1  0.24468300  0.74422200  0.92893300  1
  O  O16  1  0.24468300  0.74422200  0.57106700  1
  O  O17  1  0.87033700  0.51550500  0.75000000  1
  O  O18  1  0.25531700  0.24422200  0.92893300  1
  O  O19  1  0.75531700  0.25577800  0.42893300  1
