# generated using pymatgen
data_Yb3(Sb7Te12)2
_symmetry_space_group_name_H-M   'P 1'
_cell_length_a   8.29466800
_cell_length_b   8.69383577
_cell_length_c   21.47980092
_cell_angle_alpha   98.42507985
_cell_angle_beta   94.85054169
_cell_angle_gamma   109.77122220
_symmetry_Int_Tables_number   1
_chemical_formula_structural   Yb3(Sb7Te12)2
_chemical_formula_sum   'Yb3 Sb14 Te24'
_cell_volume   1426.87736289
_cell_formula_units_Z   1
loop_
 _symmetry_equiv_pos_site_id
 _symmetry_equiv_pos_as_xyz
  1  'x, y, z'
loop_
 _atom_site_type_symbol
 _atom_site_label
 _atom_site_symmetry_multiplicity
 _atom_site_fract_x
 _atom_site_fract_y
 _atom_site_fract_z
 _atom_site_occupancy
  Yb  Yb0  1  0.80962700  0.21414700  0.95757200  1
  Yb  Yb1  1  0.32018600  0.93931900  0.79863700  1
  Yb  Yb2  1  0.52247800  0.78008000  0.07201800  1
  Sb  Sb3  1  0.18678600  0.43426200  0.58614700  1
  Sb  Sb4  1  0.42052800  0.43941500  0.87573900  1
  Sb  Sb5  1  0.51121800  0.79724400  0.25934000  1
  Sb  Sb6  1  0.98465300  0.20317300  0.73301200  1
  Sb  Sb7  1  0.66360800  0.88974100  0.57882100  1
  Sb  Sb8  1  0.74228600  0.53508500  0.74349600  1
  Sb  Sb9  1  0.02151000  0.79884800  0.93014900  1
  Sb  Sb10  1  0.02922900  0.58414200  0.13770500  1
  Sb  Sb11  1  0.31872200  0.56747600  0.41584800  1
  Sb  Sb12  1  0.97638500  0.21031400  0.24502300  1
  Sb  Sb13  1  0.04788500  0.83744600  0.40188500  1
  Sb  Sb14  1  0.18101600  0.92483000  0.57658000  1
  Sb  Sb15  1  0.36761900  0.18506000  0.05717000  1
  Sb  Sb16  1  0.50535000  0.28108400  0.25529400  1
  Te  Te17  1  0.66737700  0.76621100  0.84507900  1
  Te  Te18  1  0.63692000  0.26744700  0.82253100  1
  Te  Te19  1  0.97571100  0.09214000  0.50193500  1
  Te  Te20  1  0.08733200  0.57453500  0.79703100  1
  Te  Te21  1  0.31488600  0.28119000  0.68425900  1
  Te  Te22  1  0.97729200  0.60477200  0.49103200  1
  Te  Te23  1  0.92432400  0.84224100  0.67205500  1
  Te  Te24  1  0.42789800  0.93678800  0.95369900  1
  Te  Te25  1  0.09503200  0.12045800  0.86719900  1
  Te  Te26  1  0.76865800  0.26176200  0.62844900  1
  Te  Te27  1  0.32090800  0.46712400  0.16047300  1
  Te  Te28  1  0.41507600  0.93867100  0.46226200  1
  Te  Te29  1  0.63331600  0.63110700  0.35367300  1
  Te  Te30  1  0.24008900  0.18614900  0.33979100  1
  Te  Te31  1  0.49891200  0.48962500  0.52752400  1
  Te  Te32  1  0.39837100  0.79566100  0.66336000  1
  Te  Te33  1  0.73143000  0.26063900  0.12670800  1
  Te  Te34  1  0.95294700  0.99631300  0.03587000  1
  Te  Te35  1  0.60105500  0.47106500  0.99814200  1
  Te  Te36  1  0.80169000  0.83296100  0.19175400  1
  Te  Te37  1  0.09186800  0.59600100  0.29315400  1
  Te  Te38  1  0.72816600  0.15969600  0.33383700  1
  Te  Te39  1  0.11672900  0.55349200  0.00716500  1
  Te  Te40  1  0.31826300  0.96062400  0.16025100  1
