# generated using pymatgen
data_BiTeO4
_symmetry_space_group_name_H-M   'P 1'
_cell_length_a   7.46432100
_cell_length_b   7.68797721
_cell_length_c   8.28916851
_cell_angle_alpha   75.06079988
_cell_angle_beta   67.91490711
_cell_angle_gamma   61.44323167
_symmetry_Int_Tables_number   1
_chemical_formula_structural   BiTeO4
_chemical_formula_sum   'Bi4 Te4 O16'
_cell_volume   385.36816794
_cell_formula_units_Z   4
loop_
 _symmetry_equiv_pos_site_id
 _symmetry_equiv_pos_as_xyz
  1  'x, y, z'
loop_
 _atom_site_type_symbol
 _atom_site_label
 _atom_site_symmetry_multiplicity
 _atom_site_fract_x
 _atom_site_fract_y
 _atom_site_fract_z
 _atom_site_occupancy
  Bi  Bi0  1  0.27854300  0.86948000  0.74805400  1
  Bi  Bi1  1  0.49372100  0.96677800  0.09536300  1
  Bi  Bi2  1  0.72812300  0.34750800  0.77502700  1
  Bi  Bi3  1  0.77381800  0.98027900  0.48388900  1
  Te  Te4  1  0.92436400  0.32978900  0.09434100  1
  Te  Te5  1  0.21471000  0.45388200  0.67144500  1
  Te  Te6  1  0.68671400  0.62865200  0.39784700  1
  Te  Te7  1  0.26806000  0.52669600  0.18122300  1
  O  O8  1  0.81417400  0.02350500  0.84339200  1
  O  O9  1  0.70455100  0.29374500  0.05242400  1
  O  O10  1  0.97336800  0.67281500  0.19164500  1
  O  O11  1  0.55329000  0.92250400  0.34721100  1
  O  O12  1  0.11919200  0.52908000  0.47458500  1
  O  O13  1  0.62416400  0.77856900  0.66980200  1
  O  O14  1  0.39054500  0.65344800  0.54516100  1
  O  O15  1  0.36070400  0.58421300  0.91562700  1
  O  O16  1  0.64071400  0.61997700  0.18439400  1
  O  O17  1  0.83894000  0.26762800  0.33927100  1
  O  O18  1  0.27093500  0.27846700  0.15832200  1
  O  O19  1  0.06529600  0.27114700  0.76047600  1
  O  O20  1  0.49195300  0.22977900  0.63435800  1
  O  O21  1  0.94602100  0.92919900  0.67921300  1
  O  O22  1  0.20187500  0.89995900  0.20572100  1
  O  O23  1  0.13622500  0.02270300  0.05121000  1
