# generated using pymatgen
data_NaRuO2
_symmetry_space_group_name_H-M   'P 1'
_cell_length_a   3.25726000
_cell_length_b   5.06100559
_cell_length_c   5.69188916
_cell_angle_alpha   103.97647197
_cell_angle_beta   91.46610286
_cell_angle_gamma   90.02763463
_symmetry_Int_Tables_number   1
_chemical_formula_structural   NaRuO2
_chemical_formula_sum   'Na2 Ru2 O4'
_cell_volume   91.02103836
_cell_formula_units_Z   2
loop_
 _symmetry_equiv_pos_site_id
 _symmetry_equiv_pos_as_xyz
  1  'x, y, z'
loop_
 _atom_site_type_symbol
 _atom_site_label
 _atom_site_symmetry_multiplicity
 _atom_site_fract_x
 _atom_site_fract_y
 _atom_site_fract_z
 _atom_site_occupancy
  Na  Na0  1  0.59768400  0.85916700  0.99045800  1
  Na  Na1  1  0.09434600  0.36046200  0.98434200  1
  Ru  Ru2  1  0.07661900  0.54084200  0.50019300  1
  Ru  Ru3  1  0.57597100  0.01455300  0.50805900  1
  O  O4  1  0.58476000  0.43129900  0.69014200  1
  O  O5  1  0.08514700  0.94001700  0.71597500  1
  O  O6  1  0.06782800  0.12420900  0.31837200  1
  O  O7  1  0.56889600  0.61289800  0.29155500  1
