# generated using pymatgen
data_Nd(SmSb)3
_symmetry_space_group_name_H-M   'P 1'
_cell_length_a   9.43162200
_cell_length_b   9.43162200
_cell_length_c   9.43162200
_cell_angle_alpha   90.00000000
_cell_angle_beta   90.00000000
_cell_angle_gamma   90.00000000
_symmetry_Int_Tables_number   1
_chemical_formula_structural   Nd(SmSb)3
_chemical_formula_sum   'Nd4 Sm12 Sb12'
_cell_volume   838.99459000
_cell_formula_units_Z   4
loop_
 _symmetry_equiv_pos_site_id
 _symmetry_equiv_pos_as_xyz
  1  'x, y, z'
loop_
 _atom_site_type_symbol
 _atom_site_label
 _atom_site_symmetry_multiplicity
 _atom_site_fract_x
 _atom_site_fract_y
 _atom_site_fract_z
 _atom_site_occupancy
  Nd  Nd0  1  0.07106300  0.57106300  0.92893700  1
  Nd  Nd1  1  0.92893700  0.07106300  0.57106300  1
  Nd  Nd2  1  0.42893700  0.42893700  0.42893700  1
  Nd  Nd3  1  0.57106300  0.92893700  0.07106300  1
  Sm  Sm4  1  0.82060300  0.32060300  0.17939700  1
  Sm  Sm5  1  0.92857300  0.92857300  0.92857300  1
  Sm  Sm6  1  0.82085500  0.67914500  0.32085500  1
  Sm  Sm7  1  0.17939700  0.82060300  0.32060300  1
  Sm  Sm8  1  0.17914500  0.17914500  0.17914500  1
  Sm  Sm9  1  0.32085500  0.82085500  0.67914500  1
  Sm  Sm10  1  0.07142700  0.42857300  0.57142700  1
  Sm  Sm11  1  0.32060300  0.17939700  0.82060300  1
  Sm  Sm12  1  0.67914500  0.32085500  0.82085500  1
  Sm  Sm13  1  0.67939700  0.67939700  0.67939700  1
  Sm  Sm14  1  0.57142700  0.07142700  0.42857300  1
  Sm  Sm15  1  0.42857300  0.57142700  0.07142700  1
  Sb  Sb16  1  0.74882300  0.62393500  0.00021200  1
  Sb  Sb17  1  0.87606500  0.99978800  0.24882300  1
  Sb  Sb18  1  0.00021200  0.74882300  0.62393500  1
  Sb  Sb19  1  0.12393500  0.49978800  0.25117700  1
  Sb  Sb20  1  0.25117700  0.12393500  0.49978800  1
  Sb  Sb21  1  0.24882300  0.87606500  0.99978800  1
  Sb  Sb22  1  0.99978800  0.24882300  0.87606500  1
  Sb  Sb23  1  0.37606500  0.50021200  0.75117700  1
  Sb  Sb24  1  0.49978800  0.25117700  0.12393500  1
  Sb  Sb25  1  0.62393500  0.00021200  0.74882300  1
  Sb  Sb26  1  0.75117700  0.37606500  0.50021200  1
  Sb  Sb27  1  0.50021200  0.75117700  0.37606500  1
