# generated using pymatgen
data_La2YbS4
_symmetry_space_group_name_H-M   'P 1'
_cell_length_a   7.51491121
_cell_length_b   7.51491121
_cell_length_c   7.51491121
_cell_angle_alpha   109.64404602
_cell_angle_beta   109.64404602
_cell_angle_gamma   109.12612005
_symmetry_Int_Tables_number   1
_chemical_formula_structural   La2YbS4
_chemical_formula_sum   'La4 Yb2 S8'
_cell_volume   326.69152003
_cell_formula_units_Z   2
loop_
 _symmetry_equiv_pos_site_id
 _symmetry_equiv_pos_as_xyz
  1  'x, y, z'
loop_
 _atom_site_type_symbol
 _atom_site_label
 _atom_site_symmetry_multiplicity
 _atom_site_fract_x
 _atom_site_fract_y
 _atom_site_fract_z
 _atom_site_occupancy
  La  La0  1  0.37500000  0.99417000  0.11917000  1
  La  La1  1  0.74417000  0.62500000  0.61917000  1
  La  La2  1  0.87500000  0.25583000  0.88083000  1
  La  La3  1  0.00583000  0.12500000  0.38083000  1
  Yb  Yb4  1  0.25000000  0.75000000  0.50000000  1
  Yb  Yb5  1  0.50000000  0.50000000  0.00000000  1
  S  S6  1  0.62455600  0.87200700  0.39219600  1
  S  S7  1  0.27018800  0.37799300  0.25254900  1
  S  S8  1  0.47981100  0.23236000  0.60780400  1
  S  S9  1  0.76764000  0.37544400  0.24745100  1
  S  S10  1  0.62200700  0.87455600  0.89219600  1
  S  S11  1  0.12799300  0.52018800  0.75254900  1
  S  S12  1  0.98236000  0.72981100  0.10780400  1
  S  S13  1  0.12544400  0.01764000  0.74745100  1
