# generated using pymatgen
data_Na3Nd5Cl18
_symmetry_space_group_name_H-M   'P 1'
_cell_length_a   7.60413604
_cell_length_b   7.60413604
_cell_length_c   12.82864800
_cell_angle_alpha   90.00000000
_cell_angle_beta   90.00000000
_cell_angle_gamma   120.00000038
_symmetry_Int_Tables_number   1
_chemical_formula_structural   Na3Nd5Cl18
_chemical_formula_sum   'Na3 Nd5 Cl18'
_cell_volume   642.40849476
_cell_formula_units_Z   1
loop_
 _symmetry_equiv_pos_site_id
 _symmetry_equiv_pos_as_xyz
  1  'x, y, z'
loop_
 _atom_site_type_symbol
 _atom_site_label
 _atom_site_symmetry_multiplicity
 _atom_site_fract_x
 _atom_site_fract_y
 _atom_site_fract_z
 _atom_site_occupancy
  Na  Na0  1  0.00000000  0.00000000  0.50000000  1
  Na  Na1  1  0.66666700  0.33333300  0.35617100  1
  Na  Na2  1  0.66666700  0.33333300  0.64382900  1
  Nd  Nd3  1  0.00000000  0.00000000  0.83460700  1
  Nd  Nd4  1  0.00000000  0.00000000  0.16539300  1
  Nd  Nd5  1  0.33333300  0.66666700  0.00000000  1
  Nd  Nd6  1  0.33333300  0.66666700  0.33353200  1
  Nd  Nd7  1  0.33333300  0.66666700  0.66646800  1
  Cl  Cl8  1  0.97185400  0.24542600  0.00000000  1
  Cl  Cl9  1  0.97917300  0.25426500  0.32553500  1
  Cl  Cl10  1  0.97917300  0.25426500  0.67446500  1
  Cl  Cl11  1  0.75457400  0.72642800  0.00000000  1
  Cl  Cl12  1  0.74573500  0.72490800  0.32553500  1
  Cl  Cl13  1  0.74573500  0.72490800  0.67446500  1
  Cl  Cl14  1  0.05821900  0.63713900  0.83592100  1
  Cl  Cl15  1  0.05821900  0.63713900  0.16407900  1
  Cl  Cl16  1  0.04924500  0.61533700  0.50000000  1
  Cl  Cl17  1  0.27357200  0.02814600  0.00000000  1
  Cl  Cl18  1  0.27509200  0.02082700  0.32553500  1
  Cl  Cl19  1  0.27509200  0.02082700  0.67446500  1
  Cl  Cl20  1  0.57892000  0.94178100  0.83592100  1
  Cl  Cl21  1  0.57892000  0.94178100  0.16407900  1
  Cl  Cl22  1  0.56609200  0.95075500  0.50000000  1
  Cl  Cl23  1  0.36286100  0.42108000  0.83592100  1
  Cl  Cl24  1  0.36286100  0.42108000  0.16407900  1
  Cl  Cl25  1  0.38466300  0.43390800  0.50000000  1
