# generated using pymatgen
data_CsPbCl3
_symmetry_space_group_name_H-M   'P 1'
_cell_length_a   8.08559043
_cell_length_b   8.08559043
_cell_length_c   5.76365400
_cell_angle_alpha   90.00000000
_cell_angle_beta   90.00000000
_cell_angle_gamma   90.03851202
_symmetry_Int_Tables_number   1
_chemical_formula_structural   CsPbCl3
_chemical_formula_sum   'Cs2 Pb2 Cl6'
_cell_volume   376.80901178
_cell_formula_units_Z   2
loop_
 _symmetry_equiv_pos_site_id
 _symmetry_equiv_pos_as_xyz
  1  'x, y, z'
loop_
 _atom_site_type_symbol
 _atom_site_label
 _atom_site_symmetry_multiplicity
 _atom_site_fract_x
 _atom_site_fract_y
 _atom_site_fract_z
 _atom_site_occupancy
  Cs  Cs0  1  0.50097900  0.49902100  0.50000000  1
  Cs  Cs1  1  0.00040900  0.99959100  0.50000000  1
  Pb  Pb2  1  0.99704400  0.50454800  0.00000000  1
  Pb  Pb3  1  0.49545200  0.00295600  0.00000000  1
  Cl  Cl4  1  0.20288500  0.21428300  0.00000000  1
  Cl  Cl5  1  0.47267200  0.02722500  0.50000000  1
  Cl  Cl6  1  0.97277500  0.52732800  0.50000000  1
  Cl  Cl7  1  0.29101800  0.70898200  0.00000000  1
  Cl  Cl8  1  0.70904900  0.29095100  0.00000000  1
  Cl  Cl9  1  0.78571700  0.79711500  0.00000000  1
