# generated using pymatgen
data_Yb4Zr3O12
_symmetry_space_group_name_H-M   'P 1'
_cell_length_a   6.39033900
_cell_length_b   6.47651907
_cell_length_c   12.87563015
_cell_angle_alpha   99.16110410
_cell_angle_beta   98.54294742
_cell_angle_gamma   100.29842688
_symmetry_Int_Tables_number   1
_chemical_formula_structural   Yb4Zr3O12
_chemical_formula_sum   'Yb8 Zr6 O24'
_cell_volume   508.94558758
_cell_formula_units_Z   2
loop_
 _symmetry_equiv_pos_site_id
 _symmetry_equiv_pos_as_xyz
  1  'x, y, z'
loop_
 _atom_site_type_symbol
 _atom_site_label
 _atom_site_symmetry_multiplicity
 _atom_site_fract_x
 _atom_site_fract_y
 _atom_site_fract_z
 _atom_site_occupancy
  Yb  Yb0  1  0.39050500  0.85891100  0.10038700  1
  Yb  Yb1  1  0.29499800  0.60536100  0.81766200  1
  Yb  Yb2  1  0.28777600  0.60717300  0.31792100  1
  Yb  Yb3  1  0.86137600  0.71455600  0.44701200  1
  Yb  Yb4  1  0.70500200  0.39463900  0.18233800  1
  Yb  Yb5  1  0.13862400  0.28544400  0.55298800  1
  Yb  Yb6  1  0.60949500  0.14108900  0.89961300  1
  Yb  Yb7  1  0.71222400  0.39282700  0.68207900  1
  Zr  Zr8  1  0.99670700  0.98927300  0.24954800  1
  Zr  Zr9  1  0.37793400  0.86035500  0.60661400  1
  Zr  Zr10  1  0.00329300  0.01072700  0.75045200  1
  Zr  Zr11  1  0.85638500  0.70880700  0.94215300  1
  Zr  Zr12  1  0.14361500  0.29119300  0.05784700  1
  Zr  Zr13  1  0.62206600  0.13964500  0.39338600  1
  O  O14  1  0.32227000  0.94264100  0.77434300  1
  O  O15  1  0.03572600  0.92075100  0.08737300  1
  O  O16  1  0.32312300  0.96817400  0.29029300  1
  O  O17  1  0.57739700  0.81289900  0.95972200  1
  O  O18  1  0.07027700  0.92959700  0.59434700  1
  O  O19  1  0.93854900  0.69736400  0.79073200  1
  O  O20  1  0.55348900  0.84780500  0.46965200  1
  O  O21  1  0.15578200  0.55858600  0.97275600  1
  O  O22  1  0.39862100  0.54089800  0.15694800  1
  O  O23  1  0.94071300  0.68662700  0.27810700  1
  O  O24  1  0.19005200  0.59643000  0.48199800  1
  O  O25  1  0.60137900  0.45910200  0.84305200  1
  O  O26  1  0.42122600  0.57319200  0.65063800  1
  O  O27  1  0.84421800  0.44141400  0.02724400  1
  O  O28  1  0.06145100  0.30263600  0.20926800  1
  O  O29  1  0.57877400  0.42680800  0.34936200  1
  O  O30  1  0.80994800  0.40357000  0.51800200  1
  O  O31  1  0.42260300  0.18710100  0.04027800  1
  O  O32  1  0.05928700  0.31337300  0.72189300  1
  O  O33  1  0.96427400  0.07924900  0.91262700  1
  O  O34  1  0.44651100  0.15219500  0.53034800  1
  O  O35  1  0.67773000  0.05735900  0.22565700  1
  O  O36  1  0.92972300  0.07040300  0.40565300  1
  O  O37  1  0.67687700  0.03182600  0.70970700  1
