# generated using pymatgen
data_MgTe(H4O3)3
_symmetry_space_group_name_H-M   'P 1'
_cell_length_a   8.70967062
_cell_length_b   4.98458336
_cell_length_c   8.27720971
_cell_angle_alpha   100.59405518
_cell_angle_beta   124.04955751
_cell_angle_gamma   88.98541850
_symmetry_Int_Tables_number   1
_chemical_formula_structural   MgTe(H4O3)3
_chemical_formula_sum   'Mg1 Te1 H12 O9'
_cell_volume   291.05642777
_cell_formula_units_Z   1
loop_
 _symmetry_equiv_pos_site_id
 _symmetry_equiv_pos_as_xyz
  1  'x, y, z'
loop_
 _atom_site_type_symbol
 _atom_site_label
 _atom_site_symmetry_multiplicity
 _atom_site_fract_x
 _atom_site_fract_y
 _atom_site_fract_z
 _atom_site_occupancy
  Mg  Mg0  1  0.77783600  0.99041100  0.91416700  1
  Te  Te1  1  0.21456200  0.34697200  0.08297500  1
  H  H2  1  0.96215800  0.39540100  0.26491600  1
  H  H3  1  0.55396100  0.73058800  0.55903000  1
  H  H4  1  0.70126500  0.23945800  0.15935700  1
  H  H5  1  0.70021100  0.51652600  0.99432600  1
  H  H6  1  0.28302800  0.18116500  0.38899200  1
  H  H7  1  0.78483500  0.22579900  0.43109000  1
  H  H8  1  0.22419900  0.65625800  0.79552400  1
  H  H9  1  0.68764300  0.23336600  0.40571300  1
  H  H10  1  0.51647200  0.66821100  0.85067500  1
  H  H11  1  0.05070400  0.74762700  0.89455900  1
  H  H12  1  0.52858000  0.03196900  0.51049400  1
  H  H13  1  0.22900700  0.66711700  0.61093000  1
  O  O14  1  0.65248200  0.65536200  0.90367200  1
  O  O15  1  0.10400200  0.47786300  0.35903200  1
  O  O16  1  0.02190300  0.06672600  0.96595600  1
  O  O17  1  0.11973800  0.60765900  0.22392500  1
  O  O18  1  0.61041500  0.92025400  0.61404700  1
  O  O19  1  0.77067000  0.27778300  0.10518200  1
  O  O20  1  0.07001100  0.55278900  0.85683200  1
  O  O21  1  0.37074600  0.19602400  0.35117500  1
  O  O22  1  0.30177100  0.73277400  0.75743100  1
