# generated using pymatgen
data_Hg2AsF6
_symmetry_space_group_name_H-M   'P 1'
_cell_length_a   8.51627733
_cell_length_b   8.51627733
_cell_length_c   8.51627733
_cell_angle_alpha   132.74132312
_cell_angle_beta   132.74132312
_cell_angle_gamma   69.06067767
_symmetry_Int_Tables_number   1
_chemical_formula_structural   Hg2AsF6
_chemical_formula_sum   'Hg4 As2 F12'
_cell_volume   326.99403712
_cell_formula_units_Z   2
loop_
 _symmetry_equiv_pos_site_id
 _symmetry_equiv_pos_as_xyz
  1  'x, y, z'
loop_
 _atom_site_type_symbol
 _atom_site_label
 _atom_site_symmetry_multiplicity
 _atom_site_fract_x
 _atom_site_fract_y
 _atom_site_fract_z
 _atom_site_occupancy
  Hg  Hg0  1  0.87500000  0.12500000  0.25000000  1
  Hg  Hg1  1  0.87500000  0.12500000  0.75000000  1
  Hg  Hg2  1  0.87500000  0.62500000  0.75000000  1
  Hg  Hg3  1  0.37500000  0.12500000  0.25000000  1
  As  As4  1  0.50000000  0.50000000  0.00000000  1
  As  As5  1  0.25000000  0.75000000  0.50000000  1
  F  F6  1  0.68471000  0.31529000  0.00000000  1
  F  F7  1  0.31529000  0.31529000  0.63058100  1
  F  F8  1  0.37429000  0.37429000  0.00000000  1
  F  F9  1  0.12429000  0.62429000  0.50000000  1
  F  F10  1  0.31529000  0.68471000  0.00000000  1
  F  F11  1  0.68471000  0.68471000  0.36941900  1
  F  F12  1  0.06529000  0.56529000  0.13058100  1
  F  F13  1  0.43471000  0.56529000  0.50000000  1
  F  F14  1  0.62571000  0.62571000  0.00000000  1
  F  F15  1  0.37571000  0.87571000  0.50000000  1
  F  F16  1  0.43471000  0.93471000  0.86941900  1
  F  F17  1  0.06529000  0.93471000  0.50000000  1
