# generated using pymatgen
data_K2Sn5Cl12
_symmetry_space_group_name_H-M   'P 1'
_cell_length_a   10.18739200
_cell_length_b   11.72150400
_cell_length_c   11.94329638
_cell_angle_alpha   61.33461759
_cell_angle_beta   90.00000000
_cell_angle_gamma   90.00000000
_symmetry_Int_Tables_number   1
_chemical_formula_structural   K2Sn5Cl12
_chemical_formula_sum   'K4 Sn10 Cl24'
_cell_volume   1251.37101368
_cell_formula_units_Z   2
loop_
 _symmetry_equiv_pos_site_id
 _symmetry_equiv_pos_as_xyz
  1  'x, y, z'
loop_
 _atom_site_type_symbol
 _atom_site_label
 _atom_site_symmetry_multiplicity
 _atom_site_fract_x
 _atom_site_fract_y
 _atom_site_fract_z
 _atom_site_occupancy
  K  K0  1  0.50000000  0.61861200  0.31933300  1
  K  K1  1  0.00000000  0.29747600  0.09828400  1
  K  K2  1  0.00000000  0.99063000  0.00532400  1
  K  K3  1  0.50000000  0.01524900  0.98312000  1
  Sn  Sn4  1  0.00000000  0.49079300  0.36611400  1
  Sn  Sn5  1  0.50000000  0.37586500  0.12032800  1
  Sn  Sn6  1  0.50000000  0.14985500  0.51630500  1
  Sn  Sn7  1  0.00000000  0.11074100  0.51483900  1
  Sn  Sn8  1  0.22988000  0.84307100  0.43058100  1
  Sn  Sn9  1  0.77012000  0.84307100  0.43058100  1
  Sn  Sn10  1  0.28840200  0.71421400  0.86268700  1
  Sn  Sn11  1  0.71159800  0.71421400  0.86268700  1
  Sn  Sn12  1  0.24499700  0.42553000  0.71764000  1
  Sn  Sn13  1  0.75500300  0.42553000  0.71764000  1
  Cl  Cl14  1  0.28894900  0.86000200  0.21991200  1
  Cl  Cl15  1  0.71105100  0.86000200  0.21991200  1
  Cl  Cl16  1  0.76954000  0.48656100  0.08040700  1
  Cl  Cl17  1  0.23046000  0.48656100  0.08040700  1
  Cl  Cl18  1  0.23163800  0.21047800  0.91601100  1
  Cl  Cl19  1  0.76836200  0.21047800  0.91601100  1
  Cl  Cl20  1  0.25744200  0.43096800  0.48124400  1
  Cl  Cl21  1  0.74255800  0.43096800  0.48124400  1
  Cl  Cl22  1  0.26384300  0.08766700  0.42487800  1
  Cl  Cl23  1  0.73615700  0.08766700  0.42487800  1
  Cl  Cl24  1  0.00000000  0.98752400  0.30028100  1
  Cl  Cl25  1  0.50000000  0.14711600  0.16297200  1
  Cl  Cl26  1  0.23377300  0.89871400  0.89926100  1
  Cl  Cl27  1  0.76622700  0.89871400  0.89926100  1
  Cl  Cl28  1  0.00000000  0.86646000  0.66186300  1
  Cl  Cl29  1  0.50000000  0.90693600  0.67611600  1
  Cl  Cl30  1  0.00000000  0.64116100  0.47019100  1
  Cl  Cl31  1  0.50000000  0.72472700  0.50738400  1
  Cl  Cl32  1  0.00000000  0.68642200  0.15364400  1
  Cl  Cl33  1  0.50000000  0.69400100  0.00654700  1
  Cl  Cl34  1  0.00000000  0.46525900  0.79478800  1
  Cl  Cl35  1  0.50000000  0.46943100  0.87394200  1
  Cl  Cl36  1  0.00000000  0.18293100  0.68427800  1
  Cl  Cl37  1  0.50000000  0.21690000  0.69450600  1
