# generated using pymatgen
data_Ho14(PbS8)3
_symmetry_space_group_name_H-M   'P 1'
_cell_length_a   7.27092200
_cell_length_b   7.27187817
_cell_length_c   18.36124068
_cell_angle_alpha   97.47692658
_cell_angle_beta   97.49958822
_cell_angle_gamma   109.90716777
_symmetry_Int_Tables_number   1
_chemical_formula_structural   Ho14(PbS8)3
_chemical_formula_sum   'Ho14 Pb3 S24'
_cell_volume   888.98970210
_cell_formula_units_Z   1
loop_
 _symmetry_equiv_pos_site_id
 _symmetry_equiv_pos_as_xyz
  1  'x, y, z'
loop_
 _atom_site_type_symbol
 _atom_site_label
 _atom_site_symmetry_multiplicity
 _atom_site_fract_x
 _atom_site_fract_y
 _atom_site_fract_z
 _atom_site_occupancy
  Ho  Ho0  1  0.15660600  0.78899100  0.94731400  1
  Ho  Ho1  1  0.46258900  0.81847700  0.78869000  1
  Ho  Ho2  1  0.51103900  0.12974300  0.62815000  1
  Ho  Ho3  1  0.50400100  0.38133800  0.87151000  1
  Ho  Ho4  1  0.79516400  0.16232900  0.46217700  1
  Ho  Ho5  1  0.82681000  0.45720900  0.28723300  1
  Ho  Ho6  1  0.03238500  0.17200800  0.71256600  1
  Ho  Ho7  1  0.84565500  0.70731100  0.55471300  1
  Ho  Ho8  1  0.95638300  0.20239600  0.91328300  1
  Ho  Ho9  1  0.12725400  0.49597500  0.12181800  1
  Ho  Ho10  1  0.37686800  0.50690200  0.37995700  1
  Ho  Ho11  1  0.17024200  0.03924900  0.21134500  1
  Ho  Ho12  1  0.29284700  0.54375700  0.58821700  1
  Ho  Ho13  1  0.70071700  0.83145400  0.03866000  1
  Pb  Pb14  1  0.20705700  0.96114200  0.41887600  1
  Pb  Pb15  1  0.53751000  0.28661900  0.07964400  1
  Pb  Pb16  1  0.62752900  0.87616900  0.25061900  1
  S  S17  1  0.17404300  0.03966000  0.83507900  1
  S  S18  1  0.54385800  0.03683900  0.94691600  1
  S  S19  1  0.41425100  0.41476600  0.71295500  1
  S  S20  1  0.68488500  0.83942000  0.66788800  1
  S  S21  1  0.76152000  0.76539600  0.88530400  1
  S  S22  1  0.70727700  0.20015900  0.78787000  1
  S  S23  1  0.76029800  0.74631500  0.38549500  1
  S  S24  1  0.02838000  0.18744100  0.33262500  1
  S  S25  1  0.88194100  0.37590600  0.61676200  1
  S  S26  1  0.08970300  0.09574900  0.55354900  1
  S  S27  1  0.20541700  0.83942400  0.66591700  1
  S  S28  1  0.04805100  0.53636700  0.45962200  1
  S  S29  1  0.36342100  0.87189400  0.11513700  1
  S  S30  1  0.17449700  0.51876800  0.83286000  1
  S  S31  1  0.07925100  0.08568100  0.04179400  1
  S  S32  1  0.35447400  0.50592900  0.99567900  1
  S  S33  1  0.20256400  0.70031300  0.28367900  1
  S  S34  1  0.41844800  0.41949800  0.21683500  1
  S  S35  1  0.50769900  0.37565300  0.50623200  1
  S  S36  1  0.53236100  0.18618900  0.33873200  1
  S  S37  1  0.51128100  0.85710400  0.50394700  1
  S  S38  1  0.84861400  0.69231600  0.16179200  1
  S  S39  1  0.87212900  0.49929800  0.99527700  1
  S  S40  1  0.85191100  0.19192100  0.16647900  1
