# generated using pymatgen
data_Ti3Fe7O15
_symmetry_space_group_name_H-M   'P 1'
_cell_length_a   5.15915500
_cell_length_b   5.54453634
_cell_length_c   21.37432171
_cell_angle_alpha   95.46096703
_cell_angle_beta   89.67619112
_cell_angle_gamma   117.41905053
_symmetry_Int_Tables_number   1
_chemical_formula_structural   Ti3Fe7O15
_chemical_formula_sum   'Ti6 Fe14 O30'
_cell_volume   539.76246507
_cell_formula_units_Z   2
loop_
 _symmetry_equiv_pos_site_id
 _symmetry_equiv_pos_as_xyz
  1  'x, y, z'
loop_
 _atom_site_type_symbol
 _atom_site_label
 _atom_site_symmetry_multiplicity
 _atom_site_fract_x
 _atom_site_fract_y
 _atom_site_fract_z
 _atom_site_occupancy
  Ti  Ti0  1  0.50399800  0.01171500  0.93061600  1
  Ti  Ti1  1  0.10372600  0.21744200  0.73072500  1
  Ti  Ti2  1  0.98706600  0.98154200  0.56831900  1
  Ti  Ti3  1  0.60631100  0.18785100  0.36972600  1
  Ti  Ti4  1  0.59347800  0.21241600  0.22977500  1
  Ti  Ti5  1  0.20376400  0.41093700  0.03182300  1
  Fe  Fe6  1  0.79819500  0.60043900  0.97105100  1
  Fe  Fe7  1  0.39840700  0.79857600  0.77196100  1
  Fe  Fe8  1  0.09803300  0.19256400  0.87141100  1
  Fe  Fe9  1  0.79942200  0.60499200  0.82852100  1
  Fe  Fe10  1  0.70096600  0.40249600  0.52805700  1
  Fe  Fe11  1  0.70174300  0.39265600  0.66953600  1
  Fe  Fe12  1  0.40652600  0.80592900  0.63016200  1
  Fe  Fe13  1  0.30234300  0.60096500  0.32895000  1
  Fe  Fe14  1  0.29837900  0.59383600  0.47029800  1
  Fe  Fe15  1  0.19418600  0.39259800  0.17132500  1
  Fe  Fe16  1  0.00891700  0.00881500  0.42918100  1
  Fe  Fe17  1  0.90388500  0.80313600  0.13064000  1
  Fe  Fe18  1  0.89717500  0.80182600  0.27164500  1
  Fe  Fe19  1  0.49592300  0.99645600  0.07067500  1
  O  O20  1  0.10148600  0.84818100  0.90517400  1
  O  O21  1  0.65211700  0.90008800  0.85602700  1
  O  O22  1  0.50738700  0.76625500  0.98267600  1
  O  O23  1  0.05666100  0.42805000  0.81005800  1
  O  O24  1  0.96009900  0.28952800  0.95279400  1
  O  O25  1  0.69757300  0.05237300  0.70950000  1
  O  O26  1  0.53128000  0.35510500  0.88540600  1
  O  O27  1  0.23858800  0.09826100  0.65067300  1
  O  O28  1  0.10788600  0.96619700  0.78400200  1
  O  O29  1  0.67269800  0.64046500  0.61258700  1
  O  O30  1  0.55027400  0.48484700  0.74936400  1
  O  O31  1  0.24014600  0.23282100  0.51670000  1
  O  O32  1  0.13018000  0.55587400  0.68717400  1
  O  O33  1  0.85703800  0.31207800  0.44541600  1
  O  O34  1  0.74251500  0.14780500  0.59173300  1
  O  O35  1  0.27118600  0.84102400  0.41244700  1
  O  O36  1  0.16966300  0.71939900  0.55060800  1
  O  O37  1  0.84693800  0.42075800  0.31354800  1
  O  O38  1  0.72807500  0.77721300  0.49149600  1
  O  O39  1  0.44128100  0.49034400  0.24714300  1
  O  O40  1  0.35376600  0.34855700  0.39549700  1
  O  O41  1  0.84696100  0.05228000  0.20574000  1
  O  O42  1  0.76055000  0.91212700  0.35380900  1
  O  O43  1  0.47561900  0.62046000  0.10831400  1
  O  O44  1  0.35530700  0.98455000  0.28819600  1
  O  O45  1  0.04283400  0.68473700  0.05343100  1
  O  O46  1  0.92965500  0.55880200  0.18961600  1
  O  O47  1  0.43792300  0.24012400  0.00631300  1
  O  O48  1  0.34374100  0.09296700  0.15594000  1
  O  O49  1  0.94812700  0.16154400  0.08422400  1
