# generated using pymatgen
data_Ti5Fe7O18
_symmetry_space_group_name_H-M   'P 1'
_cell_length_a   5.15360700
_cell_length_b   5.55488775
_cell_length_c   11.79541828
_cell_angle_alpha   97.61007474
_cell_angle_beta   102.57541427
_cell_angle_gamma   90.07490378
_symmetry_Int_Tables_number   1
_chemical_formula_structural   Ti5Fe7O18
_chemical_formula_sum   'Ti5 Fe7 O18'
_cell_volume   326.51365005
_cell_formula_units_Z   1
loop_
 _symmetry_equiv_pos_site_id
 _symmetry_equiv_pos_as_xyz
  1  'x, y, z'
loop_
 _atom_site_type_symbol
 _atom_site_label
 _atom_site_symmetry_multiplicity
 _atom_site_fract_x
 _atom_site_fract_y
 _atom_site_fract_z
 _atom_site_occupancy
  Ti  Ti0  1  0.38003400  0.67043900  0.76292500  1
  Ti  Ti1  1  0.94635400  0.65468100  0.90249700  1
  Ti  Ti2  1  0.12137900  0.83470600  0.24029600  1
  Ti  Ti3  1  0.60853500  0.33310100  0.23255800  1
  Ti  Ti4  1  0.29645900  0.98693300  0.57226400  1
  Fe  Fe5  1  0.71395500  0.01829100  0.43534300  1
  Fe  Fe6  1  0.78212000  0.49442100  0.56747600  1
  Fe  Fe7  1  0.45941600  0.16432700  0.90463600  1
  Fe  Fe8  1  0.88789800  0.16711200  0.76412000  1
  Fe  Fe9  1  0.05332900  0.33908100  0.09509000  1
  Fe  Fe10  1  0.54271200  0.83613500  0.09377500  1
  Fe  Fe11  1  0.20835100  0.50335000  0.43066800  1
  O  O12  1  0.90498700  0.07602200  0.17220100  1
  O  O13  1  0.82486900  0.34378500  0.38476800  1
  O  O14  1  0.69949400  0.52603900  0.73923100  1
  O  O15  1  0.54691100  0.75958700  0.49760900  1
  O  O16  1  0.49576400  0.01296300  0.72339600  1
  O  O17  1  0.39036800  0.19499000  0.07568000  1
  O  O18  1  0.97184300  0.13671100  0.59240500  1
  O  O19  1  0.83279500  0.32335900  0.93916700  1
  O  O20  1  0.22117100  0.43786600  0.82862200  1
  O  O21  1  0.78760900  0.56960800  0.17560000  1
  O  O22  1  0.15574100  0.68863900  0.06210400  1
  O  O23  1  0.03594700  0.85741100  0.38732500  1
  O  O24  1  0.63883000  0.80620200  0.92664500  1
  O  O25  1  0.45903600  0.98408400  0.27312200  1
  O  O26  1  0.44257600  0.23173100  0.50648200  1
  O  O27  1  0.30323400  0.49189600  0.26079300  1
  O  O28  1  0.16787200  0.65577000  0.61118300  1
  O  O29  1  0.12041000  0.90075800  0.84201900  1
