# generated using pymatgen
data_PdC8(NCl3)2
_symmetry_space_group_name_H-M   'P 1'
_cell_length_a   16.54406530
_cell_length_b   16.54406530
_cell_length_c   16.54406530
_cell_angle_alpha   60.00000000
_cell_angle_beta   60.00000000
_cell_angle_gamma   60.00000000
_symmetry_Int_Tables_number   1
_chemical_formula_structural   PdC8(NCl3)2
_chemical_formula_sum   'Pd8 C64 N16 Cl48'
_cell_volume   3201.92908209
_cell_formula_units_Z   8
loop_
 _symmetry_equiv_pos_site_id
 _symmetry_equiv_pos_as_xyz
  1  'x, y, z'
loop_
 _atom_site_type_symbol
 _atom_site_label
 _atom_site_symmetry_multiplicity
 _atom_site_fract_x
 _atom_site_fract_y
 _atom_site_fract_z
 _atom_site_occupancy
  Pd  Pd0  1  0.50000000  0.00000000  0.50000000  1
  Pd  Pd1  1  0.50000000  0.50000000  -0.00000000  1
  Pd  Pd2  1  0.00000000  0.50000000  0.50000000  1
  Pd  Pd3  1  0.50000000  0.50000000  0.50000000  1
  Pd  Pd4  1  0.00000000  0.50000000  -0.00000000  1
  Pd  Pd5  1  0.50000000  0.00000000  -0.00000000  1
  Pd  Pd6  1  0.00000000  0.00000000  0.50000000  1
  Pd  Pd7  1  0.00000000  0.00000000  -0.00000000  1
  C  C8  1  0.71071994  0.04035260  0.09671238  1
  C  C9  1  0.65221508  0.09671238  0.04035260  1
  C  C10  1  0.04035260  0.71071994  0.65221508  1
  C  C11  1  0.09671238  0.65221508  0.71071994  1
  C  C12  1  0.04035260  0.09671238  0.71071994  1
  C  C13  1  0.09671238  0.04035260  0.65221508  1
  C  C14  1  0.71071994  0.65221508  0.04035260  1
  C  C15  1  0.65221508  0.71071994  0.09671238  1
  C  C16  1  0.09671238  0.71071994  0.04035260  1
  C  C17  1  0.04035260  0.65221508  0.09671238  1
  C  C18  1  0.65221508  0.04035260  0.71071994  1
  C  C19  1  0.71071994  0.09671238  0.65221508  1
  C  C20  1  0.28928006  0.95964740  0.90328762  1
  C  C21  1  0.34778492  0.90328762  0.95964740  1
  C  C22  1  0.95964740  0.28928006  0.34778492  1
  C  C23  1  0.90328762  0.34778492  0.28928006  1
  C  C24  1  0.95964740  0.90328762  0.28928006  1
  C  C25  1  0.90328762  0.95964740  0.34778492  1
  C  C26  1  0.28928006  0.34778492  0.95964740  1
  C  C27  1  0.34778492  0.28928006  0.90328762  1
  C  C28  1  0.90328762  0.28928006  0.95964740  1
  C  C29  1  0.95964740  0.34778492  0.90328762  1
  C  C30  1  0.34778492  0.95964740  0.28928006  1
  C  C31  1  0.28928006  0.90328762  0.34778492  1
  C  C32  1  0.59671238  0.54035260  0.21071994  1
  C  C33  1  0.54035260  0.59671238  0.15221508  1
  C  C34  1  0.15221508  0.21071994  0.54035260  1
  C  C35  1  0.21071994  0.15221508  0.59671238  1
  C  C36  1  0.21071994  0.59671238  0.54035260  1
  C  C37  1  0.15221508  0.54035260  0.59671238  1
  C  C38  1  0.54035260  0.15221508  0.21071994  1
  C  C39  1  0.59671238  0.21071994  0.15221508  1
  C  C40  1  0.54035260  0.21071994  0.59671238  1
  C  C41  1  0.59671238  0.15221508  0.54035260  1
  C  C42  1  0.21071994  0.54035260  0.15221508  1
  C  C43  1  0.15221508  0.59671238  0.21071994  1
  C  C44  1  0.40328762  0.45964740  0.78928006  1
  C  C45  1  0.45964740  0.40328762  0.84778492  1
  C  C46  1  0.84778492  0.78928006  0.45964740  1
  C  C47  1  0.78928006  0.84778492  0.40328762  1
  C  C48  1  0.78928006  0.40328762  0.45964740  1
  C  C49  1  0.84778492  0.45964740  0.40328762  1
  C  C50  1  0.45964740  0.84778492  0.78928006  1
  C  C51  1  0.40328762  0.78928006  0.84778492  1
  C  C52  1  0.45964740  0.78928006  0.40328762  1
  C  C53  1  0.40328762  0.84778492  0.45964740  1
  C  C54  1  0.78928006  0.45964740  0.84778492  1
  C  C55  1  0.84778492  0.40328762  0.78928006  1
  C  C56  1  0.33998352  0.48004944  0.33998352  1
  C  C57  1  0.33998352  0.33998352  0.48004944  1
  C  C58  1  0.48004944  0.33998352  0.33998352  1
  C  C59  1  0.33998352  0.33998352  0.33998352  1
  C  C60  1  0.66001648  0.51995056  0.66001648  1
  C  C61  1  0.66001648  0.66001648  0.51995056  1
  C  C62  1  0.51995056  0.66001648  0.66001648  1
  C  C63  1  0.66001648  0.66001648  0.66001648  1
  C  C64  1  0.83998352  0.98004944  0.83998352  1
  C  C65  1  0.98004944  0.83998352  0.83998352  1
  C  C66  1  0.83998352  0.83998352  0.98004944  1
  C  C67  1  0.83998352  0.83998352  0.83998352  1
  C  C68  1  0.16001648  0.01995056  0.16001648  1
  C  C69  1  0.01995056  0.16001648  0.16001648  1
  C  C70  1  0.16001648  0.16001648  0.01995056  1
  C  C71  1  0.16001648  0.16001648  0.16001648  1
  N  N72  1  0.37500000  0.37500000  0.37500000  1
  N  N73  1  0.62500000  0.62500000  0.62500000  1
  N  N74  1  0.87500000  0.87500000  0.87500000  1
  N  N75  1  0.12500000  0.12500000  0.12500000  1
  N  N76  1  0.62500000  0.12500000  0.12500000  1
  N  N77  1  0.12500000  0.62500000  0.62500000  1
  N  N78  1  0.12500000  0.12500000  0.62500000  1
  N  N79  1  0.62500000  0.62500000  0.12500000  1
  N  N80  1  0.12500000  0.62500000  0.12500000  1
  N  N81  1  0.62500000  0.12500000  0.62500000  1
  N  N82  1  0.37500000  0.87500000  0.87500000  1
  N  N83  1  0.87500000  0.37500000  0.37500000  1
  N  N84  1  0.87500000  0.87500000  0.37500000  1
  N  N85  1  0.37500000  0.37500000  0.87500000  1
  N  N86  1  0.87500000  0.37500000  0.87500000  1
  N  N87  1  0.37500000  0.87500000  0.37500000  1
  Cl  Cl88  1  0.32347227  0.09691733  0.60653467  1
  Cl  Cl89  1  0.47307572  0.60653467  0.09691733  1
  Cl  Cl90  1  0.09691733  0.32347227  0.47307572  1
  Cl  Cl91  1  0.60653467  0.47307572  0.32347227  1
  Cl  Cl92  1  0.09691733  0.60653467  0.32347227  1
  Cl  Cl93  1  0.60653467  0.09691733  0.47307572  1
  Cl  Cl94  1  0.32347227  0.47307572  0.09691733  1
  Cl  Cl95  1  0.47307572  0.32347227  0.60653467  1
  Cl  Cl96  1  0.60653467  0.32347227  0.09691733  1
  Cl  Cl97  1  0.09691733  0.47307572  0.60653467  1
  Cl  Cl98  1  0.47307572  0.09691733  0.32347227  1
  Cl  Cl99  1  0.32347227  0.60653467  0.47307572  1
  Cl  Cl100  1  0.67652773  0.90308267  0.39346533  1
  Cl  Cl101  1  0.52692428  0.39346533  0.90308267  1
  Cl  Cl102  1  0.90308267  0.67652773  0.52692428  1
  Cl  Cl103  1  0.39346533  0.52692428  0.67652773  1
  Cl  Cl104  1  0.90308267  0.39346533  0.67652773  1
  Cl  Cl105  1  0.39346533  0.90308267  0.52692428  1
  Cl  Cl106  1  0.67652773  0.52692428  0.90308267  1
  Cl  Cl107  1  0.52692428  0.67652773  0.39346533  1
  Cl  Cl108  1  0.39346533  0.67652773  0.90308267  1
  Cl  Cl109  1  0.90308267  0.52692428  0.39346533  1
  Cl  Cl110  1  0.52692428  0.90308267  0.67652773  1
  Cl  Cl111  1  0.67652773  0.39346533  0.52692428  1
  Cl  Cl112  1  0.10653467  0.59691733  0.82347227  1
  Cl  Cl113  1  0.59691733  0.10653467  0.97307572  1
  Cl  Cl114  1  0.97307572  0.82347227  0.59691733  1
  Cl  Cl115  1  0.82347227  0.97307572  0.10653467  1
  Cl  Cl116  1  0.82347227  0.10653467  0.59691733  1
  Cl  Cl117  1  0.97307572  0.59691733  0.10653467  1
  Cl  Cl118  1  0.59691733  0.97307572  0.82347227  1
  Cl  Cl119  1  0.10653467  0.82347227  0.97307572  1
  Cl  Cl120  1  0.59691733  0.82347227  0.10653467  1
  Cl  Cl121  1  0.10653467  0.97307572  0.59691733  1
  Cl  Cl122  1  0.82347227  0.59691733  0.97307572  1
  Cl  Cl123  1  0.97307572  0.10653467  0.82347227  1
  Cl  Cl124  1  0.89346533  0.40308267  0.17652773  1
  Cl  Cl125  1  0.40308267  0.89346533  0.02692428  1
  Cl  Cl126  1  0.02692428  0.17652773  0.40308267  1
  Cl  Cl127  1  0.17652773  0.02692428  0.89346533  1
  Cl  Cl128  1  0.17652773  0.89346533  0.40308267  1
  Cl  Cl129  1  0.02692428  0.40308267  0.89346533  1
  Cl  Cl130  1  0.40308267  0.02692428  0.17652773  1
  Cl  Cl131  1  0.89346533  0.17652773  0.02692428  1
  Cl  Cl132  1  0.40308267  0.17652773  0.89346533  1
  Cl  Cl133  1  0.89346533  0.02692428  0.40308267  1
  Cl  Cl134  1  0.17652773  0.40308267  0.02692428  1
  Cl  Cl135  1  0.02692428  0.89346533  0.17652773  1
