# generated using pymatgen
data_Na2ThF6
_symmetry_space_group_name_H-M   'P 1'
_cell_length_a   6.88021696
_cell_length_b   6.88021696
_cell_length_c   6.98117211
_cell_angle_alpha   80.58835271
_cell_angle_beta   80.58835271
_cell_angle_gamma   120.52557410
_symmetry_Int_Tables_number   1
_chemical_formula_structural   Na2ThF6
_chemical_formula_sum   'Na4 Th2 F12'
_cell_volume   268.75351048
_cell_formula_units_Z   2
loop_
 _symmetry_equiv_pos_site_id
 _symmetry_equiv_pos_as_xyz
  1  'x, y, z'
loop_
 _atom_site_type_symbol
 _atom_site_label
 _atom_site_symmetry_multiplicity
 _atom_site_fract_x
 _atom_site_fract_y
 _atom_site_fract_z
 _atom_site_occupancy
  Na  Na0  1  0.91881500  0.08118500  0.75000000  1
  Na  Na1  1  0.24300600  0.75699400  0.75000000  1
  Na  Na2  1  0.08118500  0.91881500  0.25000000  1
  Na  Na3  1  0.75699400  0.24300600  0.25000000  1
  Th  Th4  1  0.59273000  0.40727000  0.75000000  1
  Th  Th5  1  0.40727000  0.59273000  0.25000000  1
  F  F6  1  0.53046500  0.68484800  0.88419700  1
  F  F7  1  0.22975300  0.06686200  0.87134000  1
  F  F8  1  0.06686200  0.22975300  0.37134000  1
  F  F9  1  0.86099300  0.37134400  0.87406300  1
  F  F10  1  0.77024700  0.93313800  0.12866000  1
  F  F11  1  0.68484800  0.53046500  0.38419700  1
  F  F12  1  0.46953500  0.31515200  0.11580300  1
  F  F13  1  0.37134400  0.86099300  0.37406300  1
  F  F14  1  0.31515200  0.46953500  0.61580300  1
  F  F15  1  0.13900700  0.62865600  0.12593700  1
  F  F16  1  0.93313800  0.77024700  0.62866000  1
  F  F17  1  0.62865600  0.13900700  0.62593700  1
