# generated using pymatgen
data_Ca2La2MgTi3O12
_symmetry_space_group_name_H-M   'P 1'
_cell_length_a   5.51821600
_cell_length_b   5.58068000
_cell_length_c   15.59867500
_cell_angle_alpha   89.99985308
_cell_angle_beta   90.00000000
_cell_angle_gamma   90.00000000
_symmetry_Int_Tables_number   1
_chemical_formula_structural   Ca2La2MgTi3O12
_chemical_formula_sum   'Ca4 La4 Mg2 Ti6 O24'
_cell_volume   480.36739970
_cell_formula_units_Z   2
loop_
 _symmetry_equiv_pos_site_id
 _symmetry_equiv_pos_as_xyz
  1  'x, y, z'
loop_
 _atom_site_type_symbol
 _atom_site_label
 _atom_site_symmetry_multiplicity
 _atom_site_fract_x
 _atom_site_fract_y
 _atom_site_fract_z
 _atom_site_occupancy
  Ca  Ca0  1  0.99039800  0.03782400  0.87916900  1
  Ca  Ca1  1  0.50960200  0.53782400  0.87916900  1
  Ca  Ca2  1  0.49039800  0.46217600  0.12083100  1
  Ca  Ca3  1  0.00960200  0.96217600  0.12083100  1
  La  La4  1  0.98465800  0.03139000  0.38089500  1
  La  La5  1  0.51534200  0.53139000  0.38089500  1
  La  La6  1  0.48465800  0.46861000  0.61910500  1
  La  La7  1  0.01534200  0.96861000  0.61910500  1
  Mg  Mg8  1  0.50000000  0.00000000  0.50000000  1
  Mg  Mg9  1  0.00000000  0.50000000  0.50000000  1
  Ti  Ti10  1  0.00000000  0.50000000  0.00000000  1
  Ti  Ti11  1  0.49408400  0.00912000  0.24516500  1
  Ti  Ti12  1  0.50000000  0.00000000  0.00000000  1
  Ti  Ti13  1  0.50591600  0.99088000  0.75483500  1
  Ti  Ti14  1  0.00591600  0.50912000  0.24516500  1
  Ti  Ti15  1  0.99408400  0.49088000  0.75483500  1
  O  O16  1  0.91628200  0.51897600  0.12164200  1
  O  O17  1  0.92009100  0.51638700  0.63588800  1
  O  O18  1  0.77833700  0.77292300  0.26866600  1
  O  O19  1  0.78296600  0.78295000  0.47775700  1
  O  O20  1  0.77841800  0.78337500  0.77775400  1
  O  O21  1  0.78132600  0.78133500  0.97817300  1
  O  O22  1  0.72166300  0.27292300  0.26866600  1
  O  O23  1  0.71703400  0.28295000  0.47775700  1
  O  O24  1  0.72158200  0.28337500  0.77775400  1
  O  O25  1  0.71867400  0.28133500  0.97817300  1
  O  O26  1  0.58371800  0.01897600  0.12164200  1
  O  O27  1  0.57990900  0.01638700  0.63588800  1
  O  O28  1  0.41628200  0.98102400  0.87835800  1
  O  O29  1  0.42009100  0.98361300  0.36411200  1
  O  O30  1  0.28132600  0.71866500  0.02182700  1
  O  O31  1  0.27841800  0.71662500  0.22224600  1
  O  O32  1  0.28296600  0.71705000  0.52224300  1
  O  O33  1  0.27833700  0.72707700  0.73133400  1
  O  O34  1  0.21867400  0.21866500  0.02182700  1
  O  O35  1  0.22158200  0.21662500  0.22224600  1
  O  O36  1  0.21703400  0.21705000  0.52224300  1
  O  O37  1  0.22166300  0.22707700  0.73133400  1
  O  O38  1  0.07990900  0.48361300  0.36411200  1
  O  O39  1  0.08371800  0.48102400  0.87835800  1
