# generated using pymatgen
data_KCo(CO)4
_symmetry_space_group_name_H-M   'P 1'
_cell_length_a   11.55773399
_cell_length_b   11.55773399
_cell_length_c   14.64097033
_cell_angle_alpha   54.78596218
_cell_angle_beta   54.78596218
_cell_angle_gamma   29.01503920
_symmetry_Int_Tables_number   1
_chemical_formula_structural   KCo(CO)4
_chemical_formula_sum   'K4 Co4 C16 O16'
_cell_volume   761.99125576
_cell_formula_units_Z   4
loop_
 _symmetry_equiv_pos_site_id
 _symmetry_equiv_pos_as_xyz
  1  'x, y, z'
loop_
 _atom_site_type_symbol
 _atom_site_label
 _atom_site_symmetry_multiplicity
 _atom_site_fract_x
 _atom_site_fract_y
 _atom_site_fract_z
 _atom_site_occupancy
  K  K0  1  0.12356100  0.22216100  0.94160100  1
  K  K1  1  0.77783900  0.87643900  0.55839900  1
  K  K2  1  0.87643900  0.77783900  0.05839900  1
  K  K3  1  0.22216100  0.12356100  0.44160100  1
  Co  Co4  1  0.82306900  0.42152500  0.74440800  1
  Co  Co5  1  0.42152500  0.82306900  0.24440800  1
  Co  Co6  1  0.57847500  0.17693100  0.75559200  1
  Co  Co7  1  0.17693100  0.57847500  0.25559200  1
  C  C8  1  0.35199300  0.36030700  0.18936600  1
  C  C9  1  0.80278700  0.12115300  0.65502600  1
  C  C10  1  0.63306200  0.57955700  0.66358600  1
  C  C11  1  0.87884700  0.19721300  0.84497400  1
  C  C12  1  0.89856000  0.72643700  0.33874400  1
  C  C13  1  0.42044300  0.36693800  0.83641400  1
  C  C14  1  0.12115300  0.80278700  0.15502600  1
  C  C15  1  0.57955700  0.63306200  0.16358600  1
  C  C16  1  0.64800700  0.63969300  0.81063400  1
  C  C17  1  0.72643700  0.89856000  0.83874400  1
  C  C18  1  0.36693800  0.42044300  0.33641400  1
  C  C19  1  0.10144000  0.27356300  0.66125600  1
  C  C20  1  0.19721300  0.87884700  0.34497400  1
  C  C21  1  0.63969300  0.64800700  0.31063400  1
  C  C22  1  0.36030700  0.35199300  0.68936600  1
  C  C23  1  0.27356300  0.10144000  0.16125600  1
  O  O24  1  0.70760000  0.83435200  0.39651400  1
  O  O25  1  0.95054300  0.08752700  0.58961700  1
  O  O26  1  0.04945700  0.91247300  0.41038300  1
  O  O27  1  0.48095300  0.20369300  0.14726500  1
  O  O28  1  0.79630700  0.51904700  0.35273500  1
  O  O29  1  0.69067700  0.49961700  0.11143800  1
  O  O30  1  0.51904700  0.79630700  0.85273500  1
  O  O31  1  0.49961700  0.69067700  0.61143800  1
  O  O32  1  0.50038300  0.30932300  0.38856200  1
  O  O33  1  0.83435200  0.70760000  0.89651400  1
  O  O34  1  0.91247300  0.04945700  0.91038300  1
  O  O35  1  0.08752700  0.95054300  0.08961700  1
  O  O36  1  0.20369300  0.48095300  0.64726500  1
  O  O37  1  0.16564800  0.29240000  0.10348600  1
  O  O38  1  0.29240000  0.16564800  0.60348600  1
  O  O39  1  0.30932300  0.50038300  0.88856200  1
