# generated using pymatgen
data_NaU2Cl6
_symmetry_space_group_name_H-M   'P 1'
_cell_length_a   4.10953500
_cell_length_b   7.73044400
_cell_length_c   15.49762053
_cell_angle_alpha   60.60474461
_cell_angle_beta   90.00000000
_cell_angle_gamma   90.00000000
_symmetry_Int_Tables_number   1
_chemical_formula_structural   NaU2Cl6
_chemical_formula_sum   'Na2 U4 Cl12'
_cell_volume   428.95048066
_cell_formula_units_Z   2
loop_
 _symmetry_equiv_pos_site_id
 _symmetry_equiv_pos_as_xyz
  1  'x, y, z'
loop_
 _atom_site_type_symbol
 _atom_site_label
 _atom_site_symmetry_multiplicity
 _atom_site_fract_x
 _atom_site_fract_y
 _atom_site_fract_z
 _atom_site_occupancy
  Na  Na0  1  0.25084700  0.99852000  0.00108000  1
  Na  Na1  1  0.74915300  0.99852000  0.50108000  1
  U  U2  1  0.00607000  0.33461300  0.16653800  1
  U  U3  1  0.99393000  0.33461300  0.66653800  1
  U  U4  1  0.50143100  0.66942200  0.33314600  1
  U  U5  1  0.49856900  0.66942200  0.83314600  1
  Cl  Cl6  1  0.50246600  0.61730800  0.03780100  1
  Cl  Cl7  1  0.50299500  0.29678500  0.30832600  1
  Cl  Cl8  1  0.00082100  0.91691000  0.34911300  1
  Cl  Cl9  1  0.50295500  0.07903100  0.14989400  1
  Cl  Cl10  1  0.49753400  0.61730800  0.53780100  1
  Cl  Cl11  1  0.49700500  0.29678500  0.80832600  1
  Cl  Cl12  1  0.00221800  0.69391000  0.19053400  1
  Cl  Cl13  1  0.00317500  0.38048800  0.45866300  1
  Cl  Cl14  1  0.99917900  0.91691000  0.84911300  1
  Cl  Cl15  1  0.49704500  0.07903100  0.64989400  1
  Cl  Cl16  1  0.99778200  0.69391000  0.69053400  1
  Cl  Cl17  1  0.99682500  0.38048800  0.95866300  1
