# generated using pymatgen
data_Eu(ErS2)2
_symmetry_space_group_name_H-M   'P 1'
_cell_length_a   7.27790159
_cell_length_b   7.27790159
_cell_length_c   7.27790159
_cell_angle_alpha   109.30173250
_cell_angle_beta   109.30173250
_cell_angle_gamma   109.81073129
_symmetry_Int_Tables_number   1
_chemical_formula_structural   Eu(ErS2)2
_chemical_formula_sum   'Eu2 Er4 S8'
_cell_volume   296.74622372
_cell_formula_units_Z   2
loop_
 _symmetry_equiv_pos_site_id
 _symmetry_equiv_pos_as_xyz
  1  'x, y, z'
loop_
 _atom_site_type_symbol
 _atom_site_label
 _atom_site_symmetry_multiplicity
 _atom_site_fract_x
 _atom_site_fract_y
 _atom_site_fract_z
 _atom_site_occupancy
  Eu  Eu0  1  0.75000000  0.25000000  0.50000000  1
  Eu  Eu1  1  0.50000000  0.50000000  0.00000000  1
  Er  Er2  1  0.00203600  0.37500000  0.12703600  1
  Er  Er3  1  0.24796400  0.87500000  0.87296400  1
  Er  Er4  1  0.62500000  0.75203600  0.62703600  1
  Er  Er5  1  0.12500000  0.99796400  0.37296400  1
  S  S6  1  0.88907600  0.63666000  0.40248900  1
  S  S7  1  0.36092400  0.26341300  0.24758500  1
  S  S8  1  0.23417200  0.48658700  0.59751100  1
  S  S9  1  0.88666000  0.63907600  0.90248900  1
  S  S10  1  0.36334000  0.76582800  0.25241500  1
  S  S11  1  0.51341300  0.11092400  0.74758500  1
  S  S12  1  0.73658700  0.98417200  0.09751100  1
  S  S13  1  0.01582800  0.11334000  0.75241500  1
