# generated using pymatgen
data_ErH9C5(NO4)2
_symmetry_space_group_name_H-M   'P 1'
_cell_length_a   6.67841429
_cell_length_b   6.67841429
_cell_length_c   6.62268310
_cell_angle_alpha   73.93051777
_cell_angle_beta   73.93051777
_cell_angle_gamma   64.98123544
_symmetry_Int_Tables_number   1
_chemical_formula_structural   ErH9C5(NO4)2
_chemical_formula_sum   'Er1 H9 C5 N2 O8'
_cell_volume   252.84065773
_cell_formula_units_Z   1
loop_
 _symmetry_equiv_pos_site_id
 _symmetry_equiv_pos_as_xyz
  1  'x, y, z'
loop_
 _atom_site_type_symbol
 _atom_site_label
 _atom_site_symmetry_multiplicity
 _atom_site_fract_x
 _atom_site_fract_y
 _atom_site_fract_z
 _atom_site_occupancy
  Er  Er0  1  0.00091300  0.99908700  0.00000000  1
  H  H1  1  0.81484000  0.65390700  0.42084700  1
  H  H2  1  0.34609300  0.18516000  0.57915300  1
  H  H3  1  0.51990900  0.73837400  0.51995700  1
  H  H4  1  0.26162600  0.48009100  0.48004300  1
  H  H5  1  0.16597700  0.46090100  0.87256400  1
  H  H6  1  0.53909900  0.83402300  0.12743600  1
  H  H7  1  0.91237200  0.08762800  0.50000000  1
  H  H8  1  0.54842900  0.45722900  0.79912500  1
  H  H9  1  0.54277100  0.45157100  0.20087500  1
  C  C10  1  0.06060000  0.46763800  0.03506600  1
  C  C11  1  0.53236200  0.93940000  0.96493400  1
  C  C12  1  0.06587600  0.93412400  0.50000000  1
  C  C13  1  0.70789200  0.46653300  0.70008100  1
  C  C14  1  0.53346700  0.29210800  0.29991900  1
  N  N15  1  0.68162300  0.63492300  0.53582700  1
  N  N16  1  0.36507700  0.31837700  0.46417400  1
  O  O17  1  0.99170000  0.31044500  0.12600900  1
  O  O18  1  0.68955500  0.00830000  0.87399100  1
  O  O19  1  0.01949900  0.63699700  0.11543100  1
  O  O20  1  0.36300300  0.98050100  0.88456900  1
  O  O21  1  0.15535200  0.85791400  0.66614800  1
  O  O22  1  0.14208600  0.84464800  0.33385200  1
  O  O23  1  0.89481100  0.32553400  0.74407700  1
  O  O24  1  0.67446600  0.10518900  0.25592300  1
