# generated using pymatgen
data_La3U2O10
_symmetry_space_group_name_H-M   'P 1'
_cell_length_a   6.66945885
_cell_length_b   6.66945885
_cell_length_c   8.60624754
_cell_angle_alpha   52.28144525
_cell_angle_beta   52.28144525
_cell_angle_gamma   49.23370233
_symmetry_Int_Tables_number   1
_chemical_formula_structural   La3U2O10
_chemical_formula_sum   'La3 U2 O10'
_cell_volume   214.46667302
_cell_formula_units_Z   1
loop_
 _symmetry_equiv_pos_site_id
 _symmetry_equiv_pos_as_xyz
  1  'x, y, z'
loop_
 _atom_site_type_symbol
 _atom_site_label
 _atom_site_symmetry_multiplicity
 _atom_site_fract_x
 _atom_site_fract_y
 _atom_site_fract_z
 _atom_site_occupancy
  La  La0  1  0.40026700  0.40026700  0.90225000  1
  La  La1  1  0.00000000  0.00000000  0.50000000  1
  La  La2  1  0.59973300  0.59973300  0.09775000  1
  U  U3  1  0.19013700  0.19013700  0.71035400  1
  U  U4  1  0.80986300  0.80986300  0.28964600  1
  O  O5  1  0.22326100  0.77673900  0.00000000  1
  O  O6  1  0.86509000  0.35059700  0.61296400  1
  O  O7  1  0.77673900  0.22326100  0.00000000  1
  O  O8  1  0.47490300  0.94493800  0.21565700  1
  O  O9  1  0.05506200  0.52509700  0.78434300  1
  O  O10  1  0.35059700  0.86509000  0.61296400  1
  O  O11  1  0.64940300  0.13491000  0.38703600  1
  O  O12  1  0.94493800  0.47490300  0.21565700  1
  O  O13  1  0.52509700  0.05506200  0.78434300  1
  O  O14  1  0.13491000  0.64940300  0.38703600  1
