# generated using pymatgen
data_Na2Sr3P4
_symmetry_space_group_name_H-M   'P 1'
_cell_length_a   9.06772600
_cell_length_b   9.47236700
_cell_length_c   13.50227216
_cell_angle_alpha   55.58565666
_cell_angle_beta   90.00000000
_cell_angle_gamma   90.00000000
_symmetry_Int_Tables_number   1
_chemical_formula_structural   Na2Sr3P4
_chemical_formula_sum   'Na8 Sr12 P16'
_cell_volume   956.75995929
_cell_formula_units_Z   4
loop_
 _symmetry_equiv_pos_site_id
 _symmetry_equiv_pos_as_xyz
  1  'x, y, z'
loop_
 _atom_site_type_symbol
 _atom_site_label
 _atom_site_symmetry_multiplicity
 _atom_site_fract_x
 _atom_site_fract_y
 _atom_site_fract_z
 _atom_site_occupancy
  Na  Na0  1  0.96259800  0.27886700  0.18575100  1
  Na  Na1  1  0.70956700  0.85103500  0.86281900  1
  Na  Na2  1  0.79043300  0.85103500  0.36281900  1
  Na  Na3  1  0.53740200  0.27886700  0.68575100  1
  Na  Na4  1  0.46259800  0.72113300  0.31424900  1
  Na  Na5  1  0.20956700  0.14896500  0.63718100  1
  Na  Na6  1  0.29043300  0.14896500  0.13718100  1
  Na  Na7  1  0.03740200  0.72113300  0.81424900  1
  Sr  Sr8  1  0.04742700  0.25135900  0.93397200  1
  Sr  Sr9  1  0.95373600  0.42692200  0.64468100  1
  Sr  Sr10  1  0.83509500  0.10594800  0.56482100  1
  Sr  Sr11  1  0.66490500  0.10594800  0.06482100  1
  Sr  Sr12  1  0.45257300  0.25135900  0.43397200  1
  Sr  Sr13  1  0.54626400  0.42692200  0.14468100  1
  Sr  Sr14  1  0.45373600  0.57307800  0.85531900  1
  Sr  Sr15  1  0.54742700  0.74864100  0.56602800  1
  Sr  Sr16  1  0.33509500  0.89405200  0.93517900  1
  Sr  Sr17  1  0.16490500  0.89405200  0.43517900  1
  Sr  Sr18  1  0.04626400  0.57307800  0.35531900  1
  Sr  Sr19  1  0.95257300  0.74864100  0.06602800  1
  P  P20  1  0.01700100  0.96083600  0.19263300  1
  P  P21  1  0.87881700  0.75933500  0.61220400  1
  P  P22  1  0.77502800  0.48301100  0.95689600  1
  P  P23  1  0.72955000  0.52210900  0.27698200  1
  P  P24  1  0.77045000  0.52210900  0.77698200  1
  P  P25  1  0.72497200  0.48301100  0.45689600  1
  P  P26  1  0.62118300  0.75933500  0.11220400  1
  P  P27  1  0.48299900  0.96083600  0.69263300  1
  P  P28  1  0.51700100  0.03916400  0.30736700  1
  P  P29  1  0.37881700  0.24066500  0.88779600  1
  P  P30  1  0.27502800  0.51698900  0.54310400  1
  P  P31  1  0.22955000  0.47789100  0.22301800  1
  P  P32  1  0.27045000  0.47789100  0.72301800  1
  P  P33  1  0.12118300  0.24066500  0.38779600  1
  P  P34  1  0.22497200  0.51698900  0.04310400  1
  P  P35  1  0.98299900  0.03916400  0.80736700  1
