# generated using pymatgen
data_MgC4S4N2(O4F3)4
_symmetry_space_group_name_H-M   'P 1'
_cell_length_a   15.07403000
_cell_length_b   5.69140400
_cell_length_c   14.93521752
_cell_angle_alpha   76.13541948
_cell_angle_beta   90.00000000
_cell_angle_gamma   90.00000000
_symmetry_Int_Tables_number   1
_chemical_formula_structural   MgC4S4N2(O4F3)4
_chemical_formula_sum   'Mg2 C8 S8 N4 O32 F24'
_cell_volume   1243.99632827
_cell_formula_units_Z   2
loop_
 _symmetry_equiv_pos_site_id
 _symmetry_equiv_pos_as_xyz
  1  'x, y, z'
loop_
 _atom_site_type_symbol
 _atom_site_label
 _atom_site_symmetry_multiplicity
 _atom_site_fract_x
 _atom_site_fract_y
 _atom_site_fract_z
 _atom_site_occupancy
  Mg  Mg0  1  0.50000000  0.00000000  0.50000000  1
  Mg  Mg1  1  0.00000000  0.00000000  0.00000000  1
  C  C2  1  0.35156200  0.41823500  0.10177600  1
  C  C3  1  0.14843800  0.41823500  0.60177600  1
  C  C4  1  0.64843800  0.58176500  0.89822400  1
  C  C5  1  0.85156200  0.58176500  0.39822400  1
  C  C6  1  0.09972900  0.08963900  0.34299700  1
  C  C7  1  0.40027100  0.08963900  0.84299700  1
  C  C8  1  0.90027100  0.91036100  0.65700300  1
  C  C9  1  0.59972900  0.91036100  0.15700300  1
  S  S10  1  0.28468300  0.14356400  0.15805900  1
  S  S11  1  0.21531700  0.14356400  0.65805900  1
  S  S12  1  0.71531700  0.85643600  0.84194100  1
  S  S13  1  0.78468300  0.85643600  0.34194100  1
  S  S14  1  0.15673200  0.35992100  0.26792300  1
  S  S15  1  0.34326800  0.35992100  0.76792300  1
  S  S16  1  0.84326800  0.64007900  0.73207700  1
  S  S17  1  0.65673200  0.64007900  0.23207700  1
  N  N18  1  0.19327800  0.25063600  0.18577300  1
  N  N19  1  0.30672200  0.25063600  0.68577300  1
  N  N20  1  0.80672200  0.74936400  0.81422700  1
  N  N21  1  0.69327800  0.74936400  0.31422700  1
  O  O22  1  0.11887500  0.55918400  0.94494700  1
  O  O23  1  0.38112500  0.55918400  0.44494700  1
  O  O24  1  0.88112500  0.44081600  0.05505300  1
  O  O25  1  0.61887500  0.44081600  0.55505300  1
  O  O26  1  0.39464000  0.76484000  0.46808900  1
  O  O27  1  0.10536000  0.76484000  0.96808900  1
  O  O28  1  0.60536000  0.23516000  0.53191100  1
  O  O29  1  0.89464000  0.23516000  0.03191100  1
  O  O30  1  0.42533300  0.36967400  0.49317900  1
  O  O31  1  0.07466700  0.36967400  0.99317900  1
  O  O32  1  0.57466700  0.63032600  0.50682100  1
  O  O33  1  0.92533300  0.63032600  0.00682100  1
  O  O34  1  0.46522900  0.18079600  0.37506100  1
  O  O35  1  0.03477100  0.18079600  0.87506100  1
  O  O36  1  0.53477100  0.81920400  0.62493900  1
  O  O37  1  0.96522900  0.81920400  0.12493900  1
  O  O38  1  0.33344600  0.02171100  0.23924900  1
  O  O39  1  0.16655400  0.02171100  0.73924900  1
  O  O40  1  0.66655400  0.97828900  0.76075100  1
  O  O41  1  0.83344600  0.97828900  0.26075100  1
  O  O42  1  0.26505100  0.02526800  0.08522400  1
  O  O43  1  0.23494900  0.02526800  0.58522400  1
  O  O44  1  0.73494900  0.97473200  0.91477600  1
  O  O45  1  0.76505100  0.97473200  0.41477600  1
  O  O46  1  0.22701400  0.42487900  0.32308200  1
  O  O47  1  0.27298600  0.42487900  0.82308200  1
  O  O48  1  0.77298600  0.57512100  0.67691800  1
  O  O49  1  0.72701400  0.57512100  0.17691800  1
  O  O50  1  0.08656800  0.52825700  0.23170600  1
  O  O51  1  0.41343200  0.52825700  0.73170600  1
  O  O52  1  0.91343200  0.47174300  0.76829400  1
  O  O53  1  0.58656800  0.47174300  0.26829400  1
  F  F54  1  0.43144800  0.34624100  0.07770500  1
  F  F55  1  0.06855200  0.34624100  0.57770500  1
  F  F56  1  0.56855200  0.65375900  0.92229500  1
  F  F57  1  0.93144800  0.65375900  0.42229500  1
  F  F58  1  0.30856300  0.53846900  0.02544400  1
  F  F59  1  0.19143700  0.53846900  0.52544400  1
  F  F60  1  0.69143700  0.46153100  0.97455600  1
  F  F61  1  0.80856300  0.46153100  0.47455600  1
  F  F62  1  0.36270500  0.56206600  0.16011800  1
  F  F63  1  0.13729500  0.56206600  0.66011800  1
  F  F64  1  0.63729500  0.43793400  0.83988200  1
  F  F65  1  0.86270500  0.43793400  0.33988200  1
  F  F66  1  0.06637700  0.15365200  0.41758400  1
  F  F67  1  0.43362300  0.15365200  0.91758400  1
  F  F68  1  0.93362300  0.84634800  0.58241600  1
  F  F69  1  0.56637700  0.84634800  0.08241600  1
  F  F70  1  0.15836900  0.90923800  0.37003800  1
  F  F71  1  0.34163100  0.90923800  0.87003800  1
  F  F72  1  0.84163100  0.09076200  0.62996200  1
  F  F73  1  0.65836900  0.09076200  0.12996200  1
  F  F74  1  0.03337400  0.01789800  0.29551400  1
  F  F75  1  0.46662600  0.01789800  0.79551400  1
  F  F76  1  0.96662600  0.98210200  0.70448600  1
  F  F77  1  0.53337400  0.98210200  0.20448600  1
