# generated using pymatgen
data_Yb(SbTe2)2
_symmetry_space_group_name_H-M   'P 1'
_cell_length_a   8.49473897
_cell_length_b   8.49473897
_cell_length_c   8.49473897
_cell_angle_alpha   108.89032079
_cell_angle_beta   108.89032079
_cell_angle_gamma   110.63937363
_symmetry_Int_Tables_number   1
_chemical_formula_structural   Yb(SbTe2)2
_chemical_formula_sum   'Yb2 Sb4 Te8'
_cell_volume   471.72891000
_cell_formula_units_Z   2
loop_
 _symmetry_equiv_pos_site_id
 _symmetry_equiv_pos_as_xyz
  1  'x, y, z'
loop_
 _atom_site_type_symbol
 _atom_site_label
 _atom_site_symmetry_multiplicity
 _atom_site_fract_x
 _atom_site_fract_y
 _atom_site_fract_z
 _atom_site_occupancy
  Yb  Yb0  1  0.25000000  0.75000000  0.50000000  1
  Yb  Yb1  1  0.00000000  0.00000000  0.00000000  1
  Sb  Sb2  1  0.61579100  0.87500000  0.24079100  1
  Sb  Sb3  1  0.63420900  0.37500000  0.75920900  1
  Sb  Sb4  1  0.12500000  0.36579100  0.74079100  1
  Sb  Sb5  1  0.62500000  0.38420900  0.25920900  1
  Te  Te6  1  0.96689300  0.62584900  0.71872800  1
  Te  Te7  1  0.49816500  0.65712100  0.78127200  1
  Te  Te8  1  0.34287900  0.12415100  0.84104400  1
  Te  Te9  1  0.87584900  0.71689300  0.21872800  1
  Te  Te10  1  0.75183500  0.03310700  0.65895600  1
  Te  Te11  1  0.90712100  0.24816500  0.28127200  1
  Te  Te12  1  0.37415100  0.09287900  0.34104300  1
  Te  Te13  1  0.28310700  0.50183500  0.15895600  1
