# generated using pymatgen
data_KH5O3
_symmetry_space_group_name_H-M   'P 1'
_cell_length_a   7.38659866
_cell_length_b   7.38659866
_cell_length_c   8.31915590
_cell_angle_alpha   64.82016578
_cell_angle_beta   64.82016578
_cell_angle_gamma   89.39831144
_symmetry_Int_Tables_number   1
_chemical_formula_structural   KH5O3
_chemical_formula_sum   'K4 H20 O12'
_cell_volume   363.59674616
_cell_formula_units_Z   4
loop_
 _symmetry_equiv_pos_site_id
 _symmetry_equiv_pos_as_xyz
  1  'x, y, z'
loop_
 _atom_site_type_symbol
 _atom_site_label
 _atom_site_symmetry_multiplicity
 _atom_site_fract_x
 _atom_site_fract_y
 _atom_site_fract_z
 _atom_site_occupancy
  K  K0  1  0.51269500  0.76145800  0.73178800  1
  K  K1  1  0.75649500  0.50468400  0.23496600  1
  K  K2  1  0.23854200  0.48730500  0.26821200  1
  K  K3  1  0.49531600  0.24350500  0.76503400  1
  H  H4  1  0.55295600  0.90295300  0.08495300  1
  H  H5  1  0.07800700  0.89801300  0.10041000  1
  H  H6  1  0.10198700  0.92199300  0.89959000  1
  H  H7  1  0.76388200  0.92086500  0.90224900  1
  H  H8  1  0.81318100  0.00327800  0.23176400  1
  H  H9  1  0.00053700  0.69654700  0.74805800  1
  H  H10  1  0.88431600  0.74391400  0.41109200  1
  H  H11  1  0.42046600  0.75347100  0.40034500  1
  H  H12  1  0.90975000  0.57604500  0.59610000  1
  H  H13  1  0.24652900  0.57953400  0.59965500  1
  H  H14  1  0.09704700  0.44704400  0.91504700  1
  H  H15  1  0.74982000  0.44671200  0.91592500  1
  H  H16  1  0.55328800  0.25018000  0.08407500  1
  H  H17  1  0.07913500  0.23611800  0.09775100  1
  H  H18  1  0.30345300  0.99946300  0.25194200  1
  H  H19  1  0.99672200  0.18681900  0.76823600  1
  H  H20  1  0.25608600  0.11568400  0.58890800  1
  H  H21  1  0.91067800  0.12222200  0.58561500  1
  H  H22  1  0.87777800  0.08932200  0.41438500  1
  H  H23  1  0.42395500  0.09025000  0.40390000  1
  O  O24  1  0.15275700  0.84724300  0.00000000  1
  O  O25  1  0.62001900  0.83809200  0.99429400  1
  O  O26  1  0.93038700  0.98849700  0.25991500  1
  O  O27  1  0.99898000  0.55717300  0.76341500  1
  O  O28  1  0.59628700  0.40371300  0.00000000  1
  O  O29  1  0.16190800  0.37998100  0.00570600  1
  O  O30  1  0.85565200  0.59121700  0.50040900  1
  O  O31  1  0.39552000  0.60448000  0.50000000  1
  O  O32  1  0.44282700  0.00102000  0.23658500  1
  O  O33  1  0.01150300  0.06961300  0.74008500  1
  O  O34  1  0.40878300  0.14434800  0.49959100  1
  O  O35  1  0.83835600  0.16164400  0.50000000  1
