# generated using pymatgen
data_Yb2Zr2O7
_symmetry_space_group_name_H-M   'P 1'
_cell_length_a   3.67345100
_cell_length_b   7.20747300
_cell_length_c   10.85691100
_cell_angle_alpha   90.00000000
_cell_angle_beta   90.00000000
_cell_angle_gamma   90.00000000
_symmetry_Int_Tables_number   1
_chemical_formula_structural   Yb2Zr2O7
_chemical_formula_sum   'Yb4 Zr4 O14'
_cell_volume   287.45082076
_cell_formula_units_Z   2
loop_
 _symmetry_equiv_pos_site_id
 _symmetry_equiv_pos_as_xyz
  1  'x, y, z'
loop_
 _atom_site_type_symbol
 _atom_site_label
 _atom_site_symmetry_multiplicity
 _atom_site_fract_x
 _atom_site_fract_y
 _atom_site_fract_z
 _atom_site_occupancy
  Yb  Yb0  1  0.00000000  0.25000000  0.72518700  1
  Yb  Yb1  1  0.50000000  0.00000000  0.00000000  1
  Yb  Yb2  1  0.50000000  0.50000000  0.00000000  1
  Yb  Yb3  1  0.00000000  0.75000000  0.27481300  1
  Zr  Zr4  1  0.00000000  0.25000000  0.22262300  1
  Zr  Zr5  1  0.50000000  0.50000000  0.50000000  1
  Zr  Zr6  1  0.00000000  0.75000000  0.77737700  1
  Zr  Zr7  1  0.50000000  0.00000000  0.50000000  1
  O  O8  1  0.50000000  0.25000000  0.36996200  1
  O  O9  1  0.00000000  0.53802000  0.61651000  1
  O  O10  1  0.50000000  0.75000000  0.87627900  1
  O  O11  1  0.50000000  0.25000000  0.60934700  1
  O  O12  1  0.00000000  0.98214700  0.13441100  1
  O  O13  1  0.00000000  0.51785300  0.13441100  1
  O  O14  1  0.00000000  0.48214700  0.86558900  1
  O  O15  1  0.50000000  0.75000000  0.39065300  1
  O  O16  1  0.50000000  0.25000000  0.12372100  1
  O  O17  1  0.00000000  0.96198000  0.61651000  1
  O  O18  1  0.00000000  0.46198000  0.38349000  1
  O  O19  1  0.00000000  0.03802000  0.38349000  1
  O  O20  1  0.50000000  0.75000000  0.63003800  1
  O  O21  1  0.00000000  0.01785300  0.86558900  1
