# generated using pymatgen
data_Na2UF6
_symmetry_space_group_name_H-M   'P 1'
_cell_length_a   6.78311498
_cell_length_b   6.78311498
_cell_length_c   6.95055090
_cell_angle_alpha   80.68876939
_cell_angle_beta   80.68876939
_cell_angle_gamma   120.54991589
_symmetry_Int_Tables_number   1
_chemical_formula_structural   Na2UF6
_chemical_formula_sum   'Na4 U2 F12'
_cell_volume   260.33188943
_cell_formula_units_Z   2
loop_
 _symmetry_equiv_pos_site_id
 _symmetry_equiv_pos_as_xyz
  1  'x, y, z'
loop_
 _atom_site_type_symbol
 _atom_site_label
 _atom_site_symmetry_multiplicity
 _atom_site_fract_x
 _atom_site_fract_y
 _atom_site_fract_z
 _atom_site_occupancy
  Na  Na0  1  0.91676100  0.08323900  0.75000000  1
  Na  Na1  1  0.24529700  0.75470300  0.75000000  1
  Na  Na2  1  0.08323900  0.91676100  0.25000000  1
  Na  Na3  1  0.75470300  0.24529700  0.25000000  1
  U  U4  1  0.58989500  0.41010500  0.75000000  1
  U  U5  1  0.41010500  0.58989500  0.25000000  1
  F  F6  1  0.92986700  0.76641600  0.62881000  1
  F  F7  1  0.62973800  0.14607500  0.62453700  1
  F  F8  1  0.68303100  0.53064600  0.38429800  1
  F  F9  1  0.46935400  0.31696900  0.11570200  1
  F  F10  1  0.31696900  0.46935400  0.61570200  1
  F  F11  1  0.14607500  0.62973800  0.12453700  1
  F  F12  1  0.37026200  0.85392500  0.37546300  1
  F  F13  1  0.23358400  0.07013300  0.87119000  1
  F  F14  1  0.07013300  0.23358400  0.37119000  1
  F  F15  1  0.76641600  0.92986700  0.12881000  1
  F  F16  1  0.85392500  0.37026200  0.87546300  1
  F  F17  1  0.53064600  0.68303100  0.88429800  1
