# generated using pymatgen
data_Tb14(PbSe8)3
_symmetry_space_group_name_H-M   'P 1'
_cell_length_a   7.64666784
_cell_length_b   7.64666784
_cell_length_c   19.77297873
_cell_angle_alpha   75.03572307
_cell_angle_beta   75.03572307
_cell_angle_gamma   70.22903144
_symmetry_Int_Tables_number   1
_chemical_formula_structural   Tb14(PbSe8)3
_chemical_formula_sum   'Tb14 Pb3 Se24'
_cell_volume   1032.37400079
_cell_formula_units_Z   1
loop_
 _symmetry_equiv_pos_site_id
 _symmetry_equiv_pos_as_xyz
  1  'x, y, z'
loop_
 _atom_site_type_symbol
 _atom_site_label
 _atom_site_symmetry_multiplicity
 _atom_site_fract_x
 _atom_site_fract_y
 _atom_site_fract_z
 _atom_site_occupancy
  Tb  Tb0  1  0.83496400  0.83092000  0.71250800  1
  Tb  Tb1  1  0.54167100  0.03990400  0.54010300  1
  Tb  Tb2  1  0.50242100  0.50504700  0.37198600  1
  Tb  Tb3  1  0.49495300  0.49757900  0.62801400  1
  Tb  Tb4  1  0.20918800  0.70983600  0.19894600  1
  Tb  Tb5  1  0.18082800  0.17106500  0.03894800  1
  Tb  Tb6  1  0.96009600  0.45832900  0.45989700  1
  Tb  Tb7  1  0.16908000  0.16503600  0.28749200  1
  Tb  Tb8  1  0.87056600  0.38259400  0.87774400  1
  Tb  Tb9  1  0.79476700  0.54456000  0.16315900  1
  Tb  Tb10  1  0.61740600  0.12943400  0.12225600  1
  Tb  Tb11  1  0.82893500  0.81917200  0.96105200  1
  Tb  Tb12  1  0.45544000  0.20523300  0.83684100  1
  Tb  Tb13  1  0.29016400  0.79081200  0.80105400  1
  Pb  Pb14  1  0.12473200  0.87526800  0.50000000  1
  Pb  Pb15  1  0.04103700  0.28967900  0.66772000  1
  Pb  Pb16  1  0.71032100  0.95896300  0.33228000  1
  Se  Se17  1  0.81844100  0.19405100  0.58280500  1
  Se  Se18  1  0.81792400  0.69242500  0.58789200  1
  Se  Se19  1  0.49634500  0.85531100  0.24656000  1
  Se  Se20  1  0.49845300  0.37125700  0.24567900  1
  Se  Se21  1  0.57738300  0.70352800  0.46711300  1
  Se  Se22  1  0.30757500  0.18207600  0.41210800  1
  Se  Se23  1  0.24734900  0.87537800  0.63543000  1
  Se  Se24  1  0.16390900  0.51678200  0.91777300  1
  Se  Se25  1  0.46062800  0.09006300  0.70635800  1
  Se  Se26  1  0.12462200  0.75265100  0.36457000  1
  Se  Se27  1  0.95899200  0.09731500  0.19808700  1
  Se  Se28  1  0.29647200  0.42261700  0.53288700  1
  Se  Se29  1  0.15969900  0.03702000  0.91575500  1
  Se  Se30  1  0.23253800  0.38124100  0.13390700  1
  Se  Se31  1  0.96298000  0.84030100  0.08424500  1
  Se  Se32  1  0.90993700  0.53937200  0.29364200  1
  Se  Se33  1  0.79861400  0.41747400  0.03707400  1
  Se  Se34  1  0.80594900  0.18155900  0.41719500  1
  Se  Se35  1  0.90268500  0.04100800  0.80191300  1
  Se  Se36  1  0.62874300  0.50154700  0.75432100  1
  Se  Se37  1  0.58252600  0.20138600  0.96292600  1
  Se  Se38  1  0.48321800  0.83609100  0.08222700  1
  Se  Se39  1  0.61875900  0.76746200  0.86609300  1
  Se  Se40  1  0.14468900  0.50365500  0.75344000  1
