# generated using pymatgen
data_Na3HoTi2Nb2O12
_symmetry_space_group_name_H-M   'P 1'
_cell_length_a   5.45865400
_cell_length_b   5.63778100
_cell_length_c   15.43889300
_cell_angle_alpha   90.00000000
_cell_angle_beta   90.00000000
_cell_angle_gamma   90.00000000
_symmetry_Int_Tables_number   1
_chemical_formula_structural   Na3HoTi2Nb2O12
_chemical_formula_sum   'Na6 Ho2 Ti4 Nb4 O24'
_cell_volume   475.12723567
_cell_formula_units_Z   2
loop_
 _symmetry_equiv_pos_site_id
 _symmetry_equiv_pos_as_xyz
  1  'x, y, z'
loop_
 _atom_site_type_symbol
 _atom_site_label
 _atom_site_symmetry_multiplicity
 _atom_site_fract_x
 _atom_site_fract_y
 _atom_site_fract_z
 _atom_site_occupancy
  Na  Na0  1  0.75739700  0.96319100  0.24813700  1
  Na  Na1  1  0.75739700  0.96319100  0.75186300  1
  Na  Na2  1  0.24260300  0.46319100  0.75186300  1
  Na  Na3  1  0.24260300  0.46319100  0.24813700  1
  Na  Na4  1  0.26009600  0.52111000  0.50000000  1
  Na  Na5  1  0.73990400  0.02111000  0.50000000  1
  Ho  Ho6  1  0.26378800  0.56868000  0.00000000  1
  Ho  Ho7  1  0.73621200  0.06868000  0.00000000  1
  Ti  Ti8  1  0.76360000  0.52911700  0.87322600  1
  Ti  Ti9  1  0.76360000  0.52911700  0.12677400  1
  Ti  Ti10  1  0.23640000  0.02911700  0.12677400  1
  Ti  Ti11  1  0.23640000  0.02911700  0.87322600  1
  Nb  Nb12  1  0.74759600  0.48079800  0.37248500  1
  Nb  Nb13  1  0.74759600  0.48079800  0.62751500  1
  Nb  Nb14  1  0.25240400  0.98079800  0.62751500  1
  Nb  Nb15  1  0.25240400  0.98079800  0.37248500  1
  O  O16  1  0.85261300  0.46118200  0.00000000  1
  O  O17  1  0.83376200  0.49040800  0.50000000  1
  O  O18  1  0.96621400  0.22162000  0.35031300  1
  O  O19  1  0.94804300  0.19427900  0.13764700  1
  O  O20  1  0.96621400  0.22162000  0.64968700  1
  O  O21  1  0.94804300  0.19427900  0.86235300  1
  O  O22  1  0.05195700  0.69427900  0.13764700  1
  O  O23  1  0.03378600  0.72162000  0.35031300  1
  O  O24  1  0.03378600  0.72162000  0.64968700  1
  O  O25  1  0.05195700  0.69427900  0.86235300  1
  O  O26  1  0.14738700  0.96118200  0.00000000  1
  O  O27  1  0.16623800  0.99040800  0.50000000  1
  O  O28  1  0.33014300  0.02275700  0.24547400  1
  O  O29  1  0.33014300  0.02275700  0.75452600  1
  O  O30  1  0.46460200  0.28638200  0.39502700  1
  O  O31  1  0.45075600  0.28118800  0.90860400  1
  O  O32  1  0.45075600  0.28118800  0.09139600  1
  O  O33  1  0.46460200  0.28638200  0.60497300  1
  O  O34  1  0.54924400  0.78118800  0.90860400  1
  O  O35  1  0.54924400  0.78118800  0.09139600  1
  O  O36  1  0.53539800  0.78638200  0.39502700  1
  O  O37  1  0.53539800  0.78638200  0.60497300  1
  O  O38  1  0.66985700  0.52275700  0.24547400  1
  O  O39  1  0.66985700  0.52275700  0.75452600  1
