# generated using pymatgen
data_V2Bi4O11
_symmetry_space_group_name_H-M   'P 1'
_cell_length_a   5.64827900
_cell_length_b   5.94524500
_cell_length_c   15.53150000
_cell_angle_alpha   87.50665211
_cell_angle_beta   90.00000000
_cell_angle_gamma   90.00000000
_symmetry_Int_Tables_number   1
_chemical_formula_structural   V2Bi4O11
_chemical_formula_sum   'V4 Bi8 O22'
_cell_volume   521.06025493
_cell_formula_units_Z   2
loop_
 _symmetry_equiv_pos_site_id
 _symmetry_equiv_pos_as_xyz
  1  'x, y, z'
loop_
 _atom_site_type_symbol
 _atom_site_label
 _atom_site_symmetry_multiplicity
 _atom_site_fract_x
 _atom_site_fract_y
 _atom_site_fract_z
 _atom_site_occupancy
  V  V0  1  0.23695400  0.56736100  0.49148200  1
  V  V1  1  0.20068000  0.98045300  0.00285100  1
  V  V2  1  0.79932000  0.98045300  0.50285100  1
  V  V3  1  0.76304600  0.56736100  0.99148200  1
  Bi  Bi4  1  0.73123500  0.48327600  0.64205000  1
  Bi  Bi5  1  0.30140400  0.53432600  0.81460500  1
  Bi  Bi6  1  0.71240900  0.03837000  0.16677100  1
  Bi  Bi7  1  0.15388600  0.08861000  0.32858200  1
  Bi  Bi8  1  0.28759100  0.03837000  0.66677100  1
  Bi  Bi9  1  0.84611400  0.08861000  0.82858200  1
  Bi  Bi10  1  0.26876500  0.48327600  0.14205000  1
  Bi  Bi11  1  0.69859600  0.53432600  0.31460500  1
  O  O12  1  0.52671300  0.26253400  0.74365700  1
  O  O13  1  0.03705100  0.31835300  0.73992900  1
  O  O14  1  0.59724300  0.40734300  0.06869200  1
  O  O15  1  0.51013700  0.73236200  0.21495300  1
  O  O16  1  0.94917900  0.84710200  0.25970800  1
  O  O17  1  0.69906000  0.51138500  0.88512000  1
  O  O18  1  0.58020300  0.78268500  0.49715900  1
  O  O19  1  0.09490300  0.85752700  0.50809600  1
  O  O20  1  0.48986300  0.73236200  0.71495300  1
  O  O21  1  0.05082100  0.84710200  0.75970800  1
  O  O22  1  0.24041800  0.10252800  0.10189300  1
  O  O23  1  0.41979700  0.78268500  0.99715900  1
  O  O24  1  0.79719000  0.13476700  0.40432700  1
  O  O25  1  0.75958200  0.10252800  0.60189300  1
  O  O26  1  0.02299700  0.43721700  0.00752500  1
  O  O27  1  0.47328700  0.26253400  0.24365700  1
  O  O28  1  0.96294900  0.31835300  0.23992900  1
  O  O29  1  0.20281000  0.13476700  0.90432700  1
  O  O30  1  0.40275700  0.40734300  0.56869200  1
  O  O31  1  0.97700300  0.43721700  0.50752500  1
  O  O32  1  0.30094000  0.51138500  0.38512000  1
  O  O33  1  0.90509700  0.85752700  0.00809600  1
