# generated using pymatgen
data_SbH7F11
_symmetry_space_group_name_H-M   'P 1'
_cell_length_a   6.15867500
_cell_length_b   6.54794625
_cell_length_c   26.52694680
_cell_angle_alpha   86.68354219
_cell_angle_beta   88.75280702
_cell_angle_gamma   88.72222621
_symmetry_Int_Tables_number   1
_chemical_formula_structural   SbH7F11
_chemical_formula_sum   'Sb5 H35 F55'
_cell_volume   1067.46167311
_cell_formula_units_Z   5
loop_
 _symmetry_equiv_pos_site_id
 _symmetry_equiv_pos_as_xyz
  1  'x, y, z'
loop_
 _atom_site_type_symbol
 _atom_site_label
 _atom_site_symmetry_multiplicity
 _atom_site_fract_x
 _atom_site_fract_y
 _atom_site_fract_z
 _atom_site_occupancy
  Sb  Sb0  1  0.42809600  0.45592800  0.80333700  1
  Sb  Sb1  1  0.85623400  0.81481600  0.62932700  1
  Sb  Sb2  1  0.24759700  0.24661100  0.42235700  1
  Sb  Sb3  1  0.57017100  0.61318000  0.20847700  1
  Sb  Sb4  1  0.83739500  0.92200400  0.98778800  1
  H  H5  1  0.85121400  0.61752800  0.90676900  1
  H  H6  1  0.35412900  0.03745900  0.75670200  1
  H  H7  1  0.38047800  0.40680600  0.68306000  1
  H  H8  1  0.44673700  0.05516900  0.91292100  1
  H  H9  1  0.79556800  0.43806700  0.54776500  1
  H  H10  1  0.91073900  0.34146700  0.77162000  1
  H  H11  1  0.08866200  0.92526900  0.07628900  1
  H  H12  1  0.81334600  0.80385100  0.81097300  1
  H  H13  1  0.76369500  0.85973800  0.50742100  1
  H  H14  1  0.92998000  0.37542800  0.70138500  1
  H  H15  1  0.21072500  0.71627100  0.33960800  1
  H  H16  1  0.26308000  0.69827600  0.57247700  1
  H  H17  1  0.71215600  0.35653400  0.89454800  1
  H  H18  1  0.39023200  0.20498100  0.61613300  1
  H  H19  1  0.02606200  0.24938800  0.30871900  1
  H  H20  1  0.24672200  0.73858800  0.49932700  1
  H  H21  1  0.34207500  0.74286200  0.89709900  1
  H  H22  1  0.53217700  0.18763700  0.15382400  1
  H  H23  1  0.76342600  0.04349300  0.39783700  1
  H  H24  1  0.13656900  0.86574000  0.71632000  1
  H  H25  1  0.77523700  0.70144000  0.43554800  1
  H  H26  1  0.35968500  0.56248600  0.10889400  1
  H  H27  1  0.76421100  0.09986400  0.28899000  1
  H  H28  1  0.72354300  0.19095400  0.67573900  1
  H  H29  1  0.88019700  0.45496500  0.13575300  1
  H  H30  1  0.55546400  0.24378000  0.54899800  1
  H  H31  1  0.20095600  0.10504800  0.20430200  1
  H  H32  1  0.12764500  0.06461900  0.91109300  1
  H  H33  1  0.12424200  0.71821900  0.25273000  1
  H  H34  1  0.06556400  0.69439200  0.43273800  1
  H  H35  1  0.39480300  0.03933400  0.09653200  1
  H  H36  1  0.85369300  0.66163800  0.28977700  1
  H  H37  1  0.40351500  0.47857300  0.98676800  1
  H  H38  1  0.43921000  0.04047000  0.27503500  1
  H  H39  1  0.08602000  0.44992800  0.09015100  1
  F  F40  1  0.12351700  0.81166000  0.98366300  1
  F  F41  1  0.34215400  0.59747600  0.90175800  1
  F  F42  1  0.57957800  0.27278200  0.88875800  1
  F  F43  1  0.43066100  0.11727600  0.78309900  1
  F  F44  1  0.65009400  0.05916900  0.68113700  1
  F  F45  1  0.27189400  0.47543900  0.08483200  1
  F  F46  1  0.95893700  0.77416200  0.70151900  1
  F  F47  1  0.74242200  0.37026200  0.80083600  1
  F  F48  1  0.55340000  0.03564500  0.97478700  1
  F  F49  1  0.28283900  0.92972900  0.72057100  1
  F  F50  1  0.90248300  0.52459000  0.56374500  1
  F  F51  1  0.98201000  0.29630500  0.45611100  1
  F  F52  1  0.31434100  0.36593800  0.99249700  1
  F  F53  1  0.33223700  0.99168600  0.89401300  1
  F  F54  1  0.35130300  0.11502200  0.48175900  1
  F  F55  1  0.17459300  0.72596200  0.61591900  1
  F  F56  1  0.03864100  0.32979500  0.74711400  1
  F  F57  1  0.98207100  0.11490900  0.92300400  1
  F  F58  1  0.64321900  0.32843900  0.52419000  1
  F  F59  1  0.36371700  0.71663700  0.33989500  1
  F  F60  1  0.64242000  0.01240200  0.29976900  1
  F  F61  1  0.55962000  0.72856900  0.81018200  1
  F  F62  1  0.77967800  0.80119800  0.92290600  1
  F  F63  1  0.96216800  0.83986700  0.81505900  1
  F  F64  1  0.82302800  0.39230000  0.67347800  1
  F  F65  1  0.68868300  0.56287400  0.28104000  1
  F  F66  1  0.45135500  0.07747800  0.38755500  1
  F  F67  1  0.35351200  0.68088900  0.53891700  1
  F  F68  1  0.45282900  0.50458300  0.72834500  1
  F  F69  1  0.00233100  0.74043600  0.29329800  1
  F  F70  1  0.50071100  0.31605500  0.20050800  1
  F  F71  1  0.14678600  0.11591300  0.17054100  1
  F  F72  1  0.98173600  0.08154000  0.61918500  1
  F  F73  1  0.31789600  0.35271000  0.65272600  1
  F  F74  1  0.44726900  0.12376300  0.58824000  1
  F  F75  1  0.15372700  0.79098200  0.46808600  1
  F  F76  1  0.93568000  0.87251600  0.07273700  1
  F  F77  1  0.85864300  0.51146300  0.18077400  1
  F  F78  1  0.91182200  0.03634600  0.38690200  1
  F  F79  1  0.81850000  0.92951000  0.53588400  1
  F  F80  1  0.56804300  0.13111100  0.12134700  1
  F  F81  1  0.70246900  0.68327100  0.01628000  1
  F  F82  1  0.40827800  0.48322500  0.42784600  1
  F  F83  1  0.96692900  0.63885700  0.40586900  1
  F  F84  1  0.67474300  0.77807300  0.45785700  1
  F  F85  1  0.93851400  0.24147500  0.27908200  1
  F  F86  1  0.30533500  0.96455300  0.07297500  1
  F  F87  1  0.20377100  0.68361300  0.21901300  1
  F  F88  1  0.15614500  0.33169200  0.35527500  1
  F  F89  1  0.88899200  0.47907000  0.89519800  1
  F  F90  1  0.69904400  0.88249900  0.20283100  1
  F  F91  1  0.29004300  0.04622700  0.26179900  1
  F  F92  1  0.48388200  0.66483000  0.13533700  1
  F  F93  1  0.91026200  0.41746600  0.09803600  1
  F  F94  1  0.89543700  0.17810100  0.01306900  1
