# generated using pymatgen
data_Cs3MoC6(SN2)3
_symmetry_space_group_name_H-M   'P 1'
_cell_length_a   9.50089934
_cell_length_b   9.50089934
_cell_length_c   7.28309300
_cell_angle_alpha   90.00000000
_cell_angle_beta   90.00000000
_cell_angle_gamma   119.99999542
_symmetry_Int_Tables_number   1
_chemical_formula_structural   Cs3MoC6(SN2)3
_chemical_formula_sum   'Cs3 Mo1 C6 S3 N6'
_cell_volume   569.34556412
_cell_formula_units_Z   1
loop_
 _symmetry_equiv_pos_site_id
 _symmetry_equiv_pos_as_xyz
  1  'x, y, z'
loop_
 _atom_site_type_symbol
 _atom_site_label
 _atom_site_symmetry_multiplicity
 _atom_site_fract_x
 _atom_site_fract_y
 _atom_site_fract_z
 _atom_site_occupancy
  Cs  Cs0  1  0.50866400  0.49133600  0.00000000  1
  Cs  Cs1  1  0.50866400  0.01732800  0.00000000  1
  Cs  Cs2  1  0.98267200  0.49133600  0.00000000  1
  Mo  Mo3  1  0.00000000  0.00000000  0.00000000  1
  C  C4  1  0.32123800  0.16061900  0.26582800  1
  C  C5  1  0.32123800  0.16061900  0.73417200  1
  C  C6  1  0.83938100  0.67876200  0.26582800  1
  C  C7  1  0.83938100  0.67876200  0.73417200  1
  C  C8  1  0.83938100  0.16061900  0.73417200  1
  C  C9  1  0.83938100  0.16061900  0.26582800  1
  S  S10  1  0.40539600  0.20269800  0.50000000  1
  S  S11  1  0.79730200  0.59460400  0.50000000  1
  S  S12  1  0.79730200  0.20269800  0.50000000  1
  N  N13  1  0.19510400  0.09755200  0.17993700  1
  N  N14  1  0.19510400  0.09755200  0.82006300  1
  N  N15  1  0.90244800  0.80489600  0.17993700  1
  N  N16  1  0.90244800  0.80489600  0.82006300  1
  N  N17  1  0.90244800  0.09755200  0.82006300  1
  N  N18  1  0.90244800  0.09755200  0.17993700  1
