# generated using pymatgen
data_Ba3Na7Ti3Nb7O30
_symmetry_space_group_name_H-M   'P 1'
_cell_length_a   4.01785500
_cell_length_b   8.03528000
_cell_length_c   20.10536501
_cell_angle_alpha   89.99796811
_cell_angle_beta   90.00000000
_cell_angle_gamma   90.00000000
_symmetry_Int_Tables_number   1
_chemical_formula_structural   Ba3Na7Ti3Nb7O30
_chemical_formula_sum   'Ba3 Na7 Ti3 Nb7 O30'
_cell_volume   649.09346431
_cell_formula_units_Z   1
loop_
 _symmetry_equiv_pos_site_id
 _symmetry_equiv_pos_as_xyz
  1  'x, y, z'
loop_
 _atom_site_type_symbol
 _atom_site_label
 _atom_site_symmetry_multiplicity
 _atom_site_fract_x
 _atom_site_fract_y
 _atom_site_fract_z
 _atom_site_occupancy
  Ba  Ba0  1  0.00000000  0.50127200  0.99610200  1
  Ba  Ba1  1  0.00000000  0.50508600  0.80149000  1
  Ba  Ba2  1  0.00000000  0.99507400  0.80148500  1
  Na  Na3  1  0.00000000  0.99928200  0.99719900  1
  Na  Na4  1  0.00000000  0.50445200  0.60049700  1
  Na  Na5  1  0.00000000  0.99553000  0.60051400  1
  Na  Na6  1  0.00000000  0.50165200  0.40029200  1
  Na  Na7  1  0.00000000  0.50099300  0.20109900  1
  Na  Na8  1  0.00000000  0.99835900  0.40027700  1
  Na  Na9  1  0.00000000  0.99896800  0.20117500  1
  Ti  Ti10  1  0.50000000  0.75595600  0.90000300  1
  Ti  Ti11  1  0.50000000  0.75007100  0.69713400  1
  Ti  Ti12  1  0.50000000  0.24293000  0.90220200  1
  Nb  Nb13  1  0.50000000  0.24991500  0.69704500  1
  Nb  Nb14  1  0.50000000  0.75000500  0.50320500  1
  Nb  Nb15  1  0.50000000  0.25000000  0.29966400  1
  Nb  Nb16  1  0.50000000  0.74999600  0.30197700  1
  Nb  Nb17  1  0.50000000  0.24999300  0.49863100  1
  Nb  Nb18  1  0.50000000  0.75364200  0.10111400  1
  Nb  Nb19  1  0.50000000  0.24644500  0.10085300  1
  O  O20  1  0.50000000  0.74981500  0.00090900  1
  O  O21  1  0.50000000  0.75093500  0.80041200  1
  O  O22  1  0.50000000  0.24999700  0.00067400  1
  O  O23  1  0.50000000  0.49979200  0.90085200  1
  O  O24  1  0.50000000  0.24926000  0.79958500  1
  O  O25  1  0.50000000  0.24998600  0.59897800  1
  O  O26  1  0.50000000  0.75000200  0.59980700  1
  O  O27  1  0.50000000  0.74995900  0.39953800  1
  O  O28  1  0.50000000  0.50075600  0.69935200  1
  O  O29  1  0.50000000  0.00058800  0.90015900  1
  O  O30  1  0.50000000  0.49992000  0.49966300  1
  O  O31  1  0.50000000  0.25002600  0.39990100  1
  O  O32  1  0.50000000  0.24955200  0.20013300  1
  O  O33  1  0.50000000  0.99925700  0.69936700  1
  O  O34  1  0.50000000  0.75046800  0.19987500  1
  O  O35  1  0.50000000  0.49919700  0.29950100  1
  O  O36  1  0.50000000  0.00007000  0.49966000  1
  O  O37  1  0.50000000  0.49914600  0.10020100  1
  O  O38  1  0.50000000  0.00079600  0.29954500  1
  O  O39  1  0.50000000  0.00082900  0.10067900  1
  O  O40  1  0.00000000  0.75124200  0.90067300  1
  O  O41  1  0.00000000  0.75008200  0.69927600  1
  O  O42  1  0.00000000  0.75000100  0.49936800  1
  O  O43  1  0.00000000  0.24886200  0.90040700  1
  O  O44  1  0.00000000  0.74997200  0.29928400  1
  O  O45  1  0.00000000  0.75019100  0.10039900  1
  O  O46  1  0.00000000  0.24995500  0.69944600  1
  O  O47  1  0.00000000  0.24999000  0.50009900  1
  O  O48  1  0.00000000  0.25002100  0.29983400  1
  O  O49  1  0.00000000  0.24970900  0.10046600  1
