# generated using pymatgen
data_Ce9YO20
_symmetry_space_group_name_H-M   'P 1'
_cell_length_a   6.67562900
_cell_length_b   7.71143551
_cell_length_c   8.63168984
_cell_angle_alpha   102.85718231
_cell_angle_beta   97.52752713
_cell_angle_gamma   106.63327594
_symmetry_Int_Tables_number   1
_chemical_formula_structural   Ce9YO20
_chemical_formula_sum   'Ce9 Y1 O20'
_cell_volume   405.96432753
_cell_formula_units_Z   1
loop_
 _symmetry_equiv_pos_site_id
 _symmetry_equiv_pos_as_xyz
  1  'x, y, z'
loop_
 _atom_site_type_symbol
 _atom_site_label
 _atom_site_symmetry_multiplicity
 _atom_site_fract_x
 _atom_site_fract_y
 _atom_site_fract_z
 _atom_site_occupancy
  Ce  Ce0  1  0.80066300  0.60149200  0.60154100  1
  Ce  Ce1  1  0.59935200  0.19864100  0.19845700  1
  Ce  Ce2  1  0.00000000  0.50000000  0.00000000  1
  Ce  Ce3  1  0.80056900  0.09966800  0.60158800  1
  Ce  Ce4  1  0.19933700  0.39850800  0.39845900  1
  Ce  Ce5  1  0.60152500  0.70096200  0.19912500  1
  Ce  Ce6  1  0.39847500  0.29903800  0.80087500  1
  Ce  Ce7  1  0.19943100  0.90033200  0.39841200  1
  Ce  Ce8  1  0.40064800  0.80135900  0.80154300  1
  Y  Y9  1  0.00000000  0.00000000  0.00000000  1
  O  O10  1  0.85006600  0.32490700  0.45030700  1
  O  O11  1  0.64767400  0.92431600  0.05059700  1
  O  O12  1  0.44985100  0.52465700  0.64999600  1
  O  O13  1  0.94961900  0.77349300  0.15116700  1
  O  O14  1  0.85025400  0.82534200  0.45012700  1
  O  O15  1  0.74950600  0.37478400  0.74994800  1
  O  O16  1  0.25155600  0.12589000  0.25184700  1
  O  O17  1  0.64955100  0.42512700  0.04975200  1
  O  O18  1  0.94986600  0.27702900  0.15122800  1
  O  O19  1  0.44970700  0.02514400  0.64972200  1
  O  O20  1  0.55029300  0.97485600  0.35027800  1
  O  O21  1  0.05013400  0.72297100  0.84877200  1
  O  O22  1  0.74844400  0.87411000  0.74815300  1
  O  O23  1  0.25049400  0.62521600  0.25005200  1
  O  O24  1  0.35044900  0.57487300  0.95024800  1
  O  O25  1  0.05038100  0.22650700  0.84883300  1
  O  O26  1  0.55014900  0.47534300  0.35000400  1
  O  O27  1  0.14974600  0.17465800  0.54987300  1
  O  O28  1  0.35232600  0.07568400  0.94940300  1
  O  O29  1  0.14993400  0.67509300  0.54969300  1
