# generated using pymatgen
data_Cd(Bi9O14)2
_symmetry_space_group_name_H-M   'P 1'
_cell_length_a   8.95211100
_cell_length_b   9.34109051
_cell_length_c   23.66283250
_cell_angle_alpha   97.46705219
_cell_angle_beta   97.00068341
_cell_angle_gamma   108.79764780
_symmetry_Int_Tables_number   1
_chemical_formula_structural   Cd(Bi9O14)2
_chemical_formula_sum   'Cd2 Bi36 O56'
_cell_volume   1828.83401948
_cell_formula_units_Z   2
loop_
 _symmetry_equiv_pos_site_id
 _symmetry_equiv_pos_as_xyz
  1  'x, y, z'
loop_
 _atom_site_type_symbol
 _atom_site_label
 _atom_site_symmetry_multiplicity
 _atom_site_fract_x
 _atom_site_fract_y
 _atom_site_fract_z
 _atom_site_occupancy
  Cd  Cd0  1  0.37630200  0.34366200  0.68173800  1
  Cd  Cd1  1  0.69909600  0.63714600  0.34780700  1
  Bi  Bi2  1  0.57846600  0.93279700  0.89274900  1
  Bi  Bi3  1  0.74254400  0.64023400  0.91477600  1
  Bi  Bi4  1  0.47419300  0.07175300  0.77612800  1
  Bi  Bi5  1  0.93640500  0.25615100  0.54957900  1
  Bi  Bi6  1  0.05724800  0.62515300  0.70185800  1
  Bi  Bi7  1  0.43989500  0.26329000  0.92605700  1
  Bi  Bi8  1  0.05366200  0.94167900  0.61000300  1
  Bi  Bi9  1  0.25903500  0.46776600  0.83360200  1
  Bi  Bi10  1  0.01115500  0.87822600  0.84048000  1
  Bi  Bi11  1  0.68625300  0.29159700  0.41498700  1
  Bi  Bi12  1  0.26542500  0.58698600  0.20851900  1
  Bi  Bi13  1  0.97472600  0.15523800  0.73735000  1
  Bi  Bi14  1  0.35406600  0.90322800  0.37593200  1
  Bi  Bi15  1  0.24282900  0.71727400  0.95998600  1
  Bi  Bi16  1  0.73790600  0.50448800  0.58183600  1
  Bi  Bi17  1  0.93502500  0.33364200  0.91184400  1
  Bi  Bi18  1  0.39112100  0.24418300  0.28246400  1
  Bi  Bi19  1  0.69108500  0.80109700  0.48613000  1
  Bi  Bi20  1  0.32013800  0.09995800  0.50554800  1
  Bi  Bi21  1  0.66135000  0.74068700  0.72754500  1
  Bi  Bi22  1  0.97881000  0.75115900  0.10512200  1
  Bi  Bi23  1  0.75190800  0.33599200  0.04441700  1
  Bi  Bi24  1  0.30093100  0.44923700  0.42489500  1
  Bi  Bi25  1  0.75130200  0.40250400  0.77668900  1
  Bi  Bi26  1  0.05753100  0.86610800  0.25786000  1
  Bi  Bi27  1  0.63307900  0.05227800  0.62510900  1
  Bi  Bi28  1  0.36188100  0.66399400  0.56643300  1
  Bi  Bi29  1  0.98661000  0.16386400  0.17679600  1
  Bi  Bi30  1  0.67441900  0.49323200  0.19344900  1
  Bi  Bi31  1  0.97590500  0.08028000  0.40116300  1
  Bi  Bi32  1  0.57645100  0.77515100  0.09222700  1
  Bi  Bi33  1  0.02256500  0.68618700  0.48785100  1
  Bi  Bi34  1  0.94711600  0.39008000  0.29350800  1
  Bi  Bi35  1  0.65145900  0.98076900  0.25873300  1
  Bi  Bi36  1  0.24096700  0.42992400  0.05856500  1
  Bi  Bi37  1  0.38937600  0.08843600  0.10871200  1
  O  O38  1  0.67865900  0.25425800  0.94403400  1
  O  O39  1  0.58517300  0.91405800  0.79470400  1
  O  O40  1  0.47666700  0.40311600  0.86028000  1
  O  O41  1  0.39315100  0.05767900  0.86377400  1
  O  O42  1  0.98107100  0.50044100  0.61404700  1
  O  O43  1  0.49384100  0.77999600  0.95417900  1
  O  O44  1  0.13484100  0.91643700  0.73573500  1
  O  O45  1  0.81969400  0.13605000  0.45681300  1
  O  O46  1  0.76881100  0.66495500  0.01550000  1
  O  O47  1  0.51711900  0.58546600  0.50756400  1
  O  O48  1  0.42423700  0.86152500  0.51654600  1
  O  O49  1  0.86818800  0.74066800  0.55632400  1
  O  O50  1  0.21713100  0.47839600  0.92427800  1
  O  O51  1  0.44461200  0.80601600  0.45758000  1
  O  O52  1  0.82294000  0.63811500  0.68277200  1
  O  O53  1  0.82494600  0.45505300  0.49817300  1
  O  O54  1  0.81911100  0.65647100  0.81509800  1
  O  O55  1  0.25699000  0.04395700  0.31874600  1
  O  O56  1  0.98591000  0.42944500  0.74991800  1
  O  O57  1  0.87811400  0.08772700  0.61774200  1
  O  O58  1  0.47795900  0.38073200  0.37239800  1
  O  O59  1  0.12906000  0.42162100  0.13278500  1
  O  O60  1  0.87712700  0.93216900  0.76717100  1
  O  O61  1  0.27875600  0.91038100  0.70988400  1
  O  O62  1  0.99975900  0.35141400  0.00787700  1
  O  O63  1  0.88899900  0.12489800  0.25594900  1
  O  O64  1  0.16129900  0.05695000  0.20384200  1
  O  O65  1  0.95216000  0.57205200  0.92753800  1
  O  O66  1  0.60021900  0.81869300  0.64845300  1
  O  O67  1  0.81720300  0.35139800  0.20490100  1
  O  O68  1  0.15898600  0.71611400  0.30512000  1
  O  O69  1  0.72075400  0.14626400  0.72046200  1
  O  O70  1  0.12720300  0.73851000  0.18659200  1
  O  O71  1  0.18652400  0.91811400  0.43263600  1
  O  O72  1  0.17058200  0.54242800  0.49289500  1
  O  O73  1  0.14525000  0.37384900  0.24774800  1
  O  O74  1  0.64710800  0.51054900  0.00942600  1
  O  O75  1  0.22316200  0.25827000  0.46833500  1
  O  O76  1  0.06796000  0.03588300  0.53246800  1
  O  O77  1  0.85097400  0.88495900  0.90602900  1
  O  O78  1  0.07805600  0.23491000  0.82892600  1
  O  O79  1  0.83763300  0.87205100  0.14409500  1
  O  O80  1  0.48488100  0.13597800  0.43813600  1
  O  O81  1  0.18872300  0.80289000  0.57108900  1
  O  O82  1  0.74767700  0.92970000  0.33601200  1
  O  O83  1  0.49514700  0.19161000  0.04205800  1
  O  O84  1  0.03829700  0.29856500  0.37185300  1
  O  O85  1  0.55774400  0.98536900  0.13714100  1
  O  O86  1  0.47074500  0.62040300  0.14867500  1
  O  O87  1  0.69935300  0.24492600  0.56918200  1
  O  O88  1  0.34939400  0.75523100  0.83205100  1
  O  O89  1  0.81170700  0.54453800  0.11740800  1
  O  O90  1  0.60544100  0.17314900  0.30168400  1
  O  O91  1  0.19787100  0.70730600  0.85620100  1
  O  O92  1  0.28263400  0.66354900  0.04925600  1
  O  O93  1  0.46087800  0.28598500  0.17480300  1
