# generated using pymatgen
data_KAu(Br2O)2
_symmetry_space_group_name_H-M   'P 1'
_cell_length_a   11.72230800
_cell_length_b   5.00411400
_cell_length_c   8.89238129
_cell_angle_alpha   80.80838398
_cell_angle_beta   90.00000000
_cell_angle_gamma   90.00000000
_symmetry_Int_Tables_number   1
_chemical_formula_structural   KAu(Br2O)2
_chemical_formula_sum   'K2 Au2 Br8 O4'
_cell_volume   514.92715417
_cell_formula_units_Z   2
loop_
 _symmetry_equiv_pos_site_id
 _symmetry_equiv_pos_as_xyz
  1  'x, y, z'
loop_
 _atom_site_type_symbol
 _atom_site_label
 _atom_site_symmetry_multiplicity
 _atom_site_fract_x
 _atom_site_fract_y
 _atom_site_fract_z
 _atom_site_occupancy
  K  K0  1  0.50000000  0.50000000  0.00000000  1
  K  K1  1  0.00000000  0.50000000  0.50000000  1
  Au  Au2  1  0.50000000  0.00000000  0.50000000  1
  Au  Au3  1  0.00000000  0.00000000  0.00000000  1
  Br  Br4  1  0.61150200  0.62153200  0.64191100  1
  Br  Br5  1  0.11150200  0.37846800  0.85808900  1
  Br  Br6  1  0.38849800  0.37846800  0.35808900  1
  Br  Br7  1  0.88849800  0.62153200  0.14191100  1
  Br  Br8  1  0.33303500  0.03200600  0.68894100  1
  Br  Br9  1  0.83303500  0.96799400  0.81105900  1
  Br  Br10  1  0.66696500  0.96799400  0.31105900  1
  Br  Br11  1  0.16696500  0.03200600  0.18894100  1
  O  O12  1  0.15652200  0.82399600  0.36561400  1
  O  O13  1  0.65652200  0.17600400  0.13438600  1
  O  O14  1  0.84347800  0.17600400  0.63438600  1
  O  O15  1  0.34347800  0.82399600  0.86561400  1
