# generated using pymatgen
data_Y6O5F8
_symmetry_space_group_name_H-M   'P 1'
_cell_length_a   5.51677900
_cell_length_b   5.57779660
_cell_length_c   8.72576484
_cell_angle_alpha   74.91103437
_cell_angle_beta   88.46541574
_cell_angle_gamma   89.24629249
_symmetry_Int_Tables_number   1
_chemical_formula_structural   Y6O5F8
_chemical_formula_sum   'Y6 O5 F8'
_cell_volume   259.14903019
_cell_formula_units_Z   1
loop_
 _symmetry_equiv_pos_site_id
 _symmetry_equiv_pos_as_xyz
  1  'x, y, z'
loop_
 _atom_site_type_symbol
 _atom_site_label
 _atom_site_symmetry_multiplicity
 _atom_site_fract_x
 _atom_site_fract_y
 _atom_site_fract_z
 _atom_site_occupancy
  Y  Y0  1  0.21473700  0.93289300  0.65275500  1
  Y  Y1  1  0.19245600  0.58137500  0.33903600  1
  Y  Y2  1  0.79211800  0.73044500  0.00278900  1
  Y  Y3  1  0.21854200  0.19992900  0.02269700  1
  Y  Y4  1  0.78185900  0.39787000  0.68651800  1
  Y  Y5  1  0.78586300  0.09278100  0.34529500  1
  O  O6  1  0.97041100  0.73853400  0.51810000  1
  O  O7  1  0.97583800  0.90866000  0.17914100  1
  O  O8  1  0.98643200  0.41861000  0.16641500  1
  O  O9  1  0.98227600  0.05299600  0.84213200  1
  O  O10  1  0.01126100  0.24847300  0.50524600  1
  F  F11  1  0.44233600  0.15381300  0.78980200  1
  F  F12  1  0.44067700  0.86592100  0.43266300  1
  F  F13  1  0.44713600  0.83241100  0.11101100  1
  F  F14  1  0.44332100  0.30136300  0.22503300  1
  F  F15  1  0.58139500  0.74113900  0.73900100  1
  F  F16  1  0.08277100  0.55985300  0.83777500  1
  F  F17  1  0.63539400  0.37182000  0.95888600  1
  F  F18  1  0.52311200  0.36260200  0.49511500  1
