# generated using pymatgen
data_Mo2NO7
_symmetry_space_group_name_H-M   'P 1'
_cell_length_a   7.71770400
_cell_length_b   9.43205604
_cell_length_c   9.95929437
_cell_angle_alpha   87.47149962
_cell_angle_beta   74.62295799
_cell_angle_gamma   87.06325852
_symmetry_Int_Tables_number   1
_chemical_formula_structural   Mo2NO7
_chemical_formula_sum   'Mo8 N4 O28'
_cell_volume   697.75319872
_cell_formula_units_Z   4
loop_
 _symmetry_equiv_pos_site_id
 _symmetry_equiv_pos_as_xyz
  1  'x, y, z'
loop_
 _atom_site_type_symbol
 _atom_site_label
 _atom_site_symmetry_multiplicity
 _atom_site_fract_x
 _atom_site_fract_y
 _atom_site_fract_z
 _atom_site_occupancy
  Mo  Mo0  1  0.25836100  0.46170900  0.53234600  1
  Mo  Mo1  1  0.74163900  0.53829100  0.46765400  1
  Mo  Mo2  1  0.40543200  0.20287400  0.25577400  1
  Mo  Mo3  1  0.59456800  0.79712600  0.74422600  1
  Mo  Mo4  1  0.62645200  0.20997800  0.53006900  1
  Mo  Mo5  1  0.37354800  0.79002200  0.46993100  1
  Mo  Mo6  1  0.55753100  0.55406800  0.21255400  1
  Mo  Mo7  1  0.44246900  0.44593200  0.78744600  1
  N  N8  1  0.11202500  0.31032500  0.95976300  1
  N  N9  1  0.88797500  0.68967500  0.04023700  1
  N  N10  1  0.50000000  0.00000000  0.00000000  1
  N  N11  1  0.00000000  0.00000000  0.50000000  1
  O  O12  1  0.79509700  0.52278900  0.11281900  1
  O  O13  1  0.20490300  0.47721100  0.88718100  1
  O  O14  1  0.94896300  0.49277300  0.36167300  1
  O  O15  1  0.05103700  0.50722700  0.63832700  1
  O  O16  1  0.85016100  0.13906700  0.45305100  1
  O  O17  1  0.14983900  0.86093300  0.54694900  1
  O  O18  1  0.23025800  0.32591900  0.42000800  1
  O  O19  1  0.76974200  0.67408100  0.57999200  1
  O  O20  1  0.49860200  0.69067400  0.11294500  1
  O  O21  1  0.50139800  0.30932600  0.88705500  1
  O  O22  1  0.64450400  0.67057900  0.34542500  1
  O  O23  1  0.35549600  0.32942100  0.65457500  1
  O  O24  1  0.44078900  0.39545300  0.17205700  1
  O  O25  1  0.55921100  0.60454700  0.82794300  1
  O  O26  1  0.42953700  0.87983100  0.88721700  1
  O  O27  1  0.57046300  0.12016900  0.11278300  1
  O  O28  1  0.43461200  0.89260800  0.32010300  1
  O  O29  1  0.56538800  0.10739200  0.67989700  1
  O  O30  1  0.31032100  0.61586700  0.38221600  1
  O  O31  1  0.68967900  0.38413300  0.61778400  1
  O  O32  1  0.49375900  0.13519900  0.41245100  1
  O  O33  1  0.50624100  0.86480100  0.58754900  1
  O  O34  1  0.58436100  0.40556600  0.39648100  1
  O  O35  1  0.41563900  0.59443400  0.60351900  1
  O  O36  1  0.21554000  0.13001400  0.23719100  1
  O  O37  1  0.78446000  0.86998600  0.76280900  1
  O  O38  1  0.02306600  0.70341600  0.06224500  1
  O  O39  1  0.97693400  0.29658400  0.93775500  1
