# generated using pymatgen
data_La2C3O17
_symmetry_space_group_name_H-M   'P 1'
_cell_length_a   8.60389700
_cell_length_b   9.81075700
_cell_length_c   17.89036500
_cell_angle_alpha   90.00000000
_cell_angle_beta   90.00000000
_cell_angle_gamma   90.00000000
_symmetry_Int_Tables_number   1
_chemical_formula_structural   La2C3O17
_chemical_formula_sum   'La8 C12 O68'
_cell_volume   1510.13899718
_cell_formula_units_Z   4
loop_
 _symmetry_equiv_pos_site_id
 _symmetry_equiv_pos_as_xyz
  1  'x, y, z'
loop_
 _atom_site_type_symbol
 _atom_site_label
 _atom_site_symmetry_multiplicity
 _atom_site_fract_x
 _atom_site_fract_y
 _atom_site_fract_z
 _atom_site_occupancy
  La  La0  1  0.25000000  0.25000000  0.76406500  1
  La  La1  1  0.75000000  0.75000000  0.73593500  1
  La  La2  1  0.75000000  0.75000000  0.23593500  1
  La  La3  1  0.25000000  0.25000000  0.26406500  1
  La  La4  1  0.25000000  0.75000000  0.80209600  1
  La  La5  1  0.75000000  0.25000000  0.69790400  1
  La  La6  1  0.75000000  0.25000000  0.19790400  1
  La  La7  1  0.25000000  0.75000000  0.30209600  1
  C  C8  1  0.25000000  0.75000000  0.62234900  1
  C  C9  1  0.75000000  0.25000000  0.87765100  1
  C  C10  1  0.75000000  0.25000000  0.37765100  1
  C  C11  1  0.25000000  0.75000000  0.12234900  1
  C  C12  1  0.45208000  0.00233400  0.77660800  1
  C  C13  1  0.04792000  0.49766600  0.77660800  1
  C  C14  1  0.95208000  0.99766600  0.72339200  1
  C  C15  1  0.54792000  0.50233400  0.72339200  1
  C  C16  1  0.54792000  0.99766600  0.22339200  1
  C  C17  1  0.95208000  0.50233400  0.22339200  1
  C  C18  1  0.04792000  0.00233400  0.27660800  1
  C  C19  1  0.45208000  0.49766600  0.27660800  1
  O  O20  1  0.26609600  0.10174300  0.57332300  1
  O  O21  1  0.23390400  0.39825700  0.57332300  1
  O  O22  1  0.76609600  0.89825700  0.92667700  1
  O  O23  1  0.73390400  0.60174300  0.92667700  1
  O  O24  1  0.73390400  0.89825700  0.42667700  1
  O  O25  1  0.76609600  0.60174300  0.42667700  1
  O  O26  1  0.23390400  0.10174300  0.07332300  1
  O  O27  1  0.26609600  0.39825700  0.07332300  1
  O  O28  1  0.17285700  0.23913200  0.89127400  1
  O  O29  1  0.32714300  0.26086800  0.89127400  1
  O  O30  1  0.67285700  0.76086800  0.60872600  1
  O  O31  1  0.82714300  0.73913200  0.60872600  1
  O  O32  1  0.82714300  0.76086800  0.10872600  1
  O  O33  1  0.67285700  0.73913200  0.10872600  1
  O  O34  1  0.32714300  0.23913200  0.39127400  1
  O  O35  1  0.17285700  0.26086800  0.39127400  1
  O  O36  1  0.14431600  0.81924700  0.92499400  1
  O  O37  1  0.35568400  0.68075300  0.92499400  1
  O  O38  1  0.64431600  0.18075300  0.57500600  1
  O  O39  1  0.85568400  0.31924700  0.57500600  1
  O  O40  1  0.85568400  0.18075300  0.07500600  1
  O  O41  1  0.64431600  0.31924700  0.07500600  1
  O  O42  1  0.35568400  0.81924700  0.42499400  1
  O  O43  1  0.14431600  0.68075300  0.42499400  1
  O  O44  1  0.34780500  0.06184900  0.03752300  1
  O  O45  1  0.15219500  0.43815100  0.03752300  1
  O  O46  1  0.84780500  0.93815100  0.46247700  1
  O  O47  1  0.65219500  0.56184900  0.46247700  1
  O  O48  1  0.65219500  0.93815100  0.96247700  1
  O  O49  1  0.84780500  0.56184900  0.96247700  1
  O  O50  1  0.15219500  0.06184900  0.53752300  1
  O  O51  1  0.34780500  0.43815100  0.53752300  1
  O  O52  1  0.33989600  0.84029300  0.62509200  1
  O  O53  1  0.16010400  0.65970700  0.62509200  1
  O  O54  1  0.83989600  0.15970700  0.87490800  1
  O  O55  1  0.66010400  0.34029300  0.87490800  1
  O  O56  1  0.66010400  0.15970700  0.37490800  1
  O  O57  1  0.83989600  0.34029300  0.37490800  1
  O  O58  1  0.16010400  0.84029300  0.12509200  1
  O  O59  1  0.33989600  0.65970700  0.12509200  1
  O  O60  1  0.25000000  0.75000000  0.46776800  1
  O  O61  1  0.75000000  0.25000000  0.03223200  1
  O  O62  1  0.75000000  0.25000000  0.53223200  1
  O  O63  1  0.25000000  0.75000000  0.96776800  1
  O  O64  1  0.02300000  0.11209600  0.71345100  1
  O  O65  1  0.47700000  0.38790400  0.71345100  1
  O  O66  1  0.52300000  0.88790400  0.78654900  1
  O  O67  1  0.97700000  0.61209600  0.78654900  1
  O  O68  1  0.97700000  0.88790400  0.28654900  1
  O  O69  1  0.52300000  0.61209600  0.28654900  1
  O  O70  1  0.47700000  0.11209600  0.21345100  1
  O  O71  1  0.02300000  0.38790400  0.21345100  1
  O  O72  1  0.01588200  0.88404800  0.74388200  1
  O  O73  1  0.48411800  0.61595200  0.74388200  1
  O  O74  1  0.51588200  0.11595200  0.75611800  1
  O  O75  1  0.98411800  0.38404800  0.75611800  1
  O  O76  1  0.98411800  0.11595200  0.25611800  1
  O  O77  1  0.51588200  0.38404800  0.25611800  1
  O  O78  1  0.48411800  0.88404800  0.24388200  1
  O  O79  1  0.01588200  0.61595200  0.24388200  1
  O  O80  1  0.30147100  0.00207300  0.78754500  1
  O  O81  1  0.19852900  0.49792700  0.78754500  1
  O  O82  1  0.80147100  0.99792700  0.71245500  1
  O  O83  1  0.69852900  0.50207300  0.71245500  1
  O  O84  1  0.69852900  0.99792700  0.21245500  1
  O  O85  1  0.80147100  0.50207300  0.21245500  1
  O  O86  1  0.19852900  0.00207300  0.28754500  1
  O  O87  1  0.30147100  0.49792700  0.28754500  1
