# generated using pymatgen
data_Bi8(P2O9)3
_symmetry_space_group_name_H-M   'P 1'
_cell_length_a   7.58198300
_cell_length_b   8.66650333
_cell_length_c   22.71606554
_cell_angle_alpha   82.89146480
_cell_angle_beta   86.49017919
_cell_angle_gamma   70.53695850
_symmetry_Int_Tables_number   1
_chemical_formula_structural   Bi8(P2O9)3
_chemical_formula_sum   'Bi16 P12 O54'
_cell_volume   1396.22455527
_cell_formula_units_Z   2
loop_
 _symmetry_equiv_pos_site_id
 _symmetry_equiv_pos_as_xyz
  1  'x, y, z'
loop_
 _atom_site_type_symbol
 _atom_site_label
 _atom_site_symmetry_multiplicity
 _atom_site_fract_x
 _atom_site_fract_y
 _atom_site_fract_z
 _atom_site_occupancy
  Bi  Bi0  1  0.49406400  0.03089100  0.28981700  1
  Bi  Bi1  1  0.22748000  0.35585800  0.56985000  1
  Bi  Bi2  1  0.73056200  0.64108600  0.81228500  1
  Bi  Bi3  1  0.33606200  0.94583700  0.99903400  1
  Bi  Bi4  1  0.28158000  0.45379100  0.40204100  1
  Bi  Bi5  1  0.97400600  0.22828500  0.33955900  1
  Bi  Bi6  1  0.07977100  0.68706700  0.67851600  1
  Bi  Bi7  1  0.63300900  0.56515100  0.65673900  1
  Bi  Bi8  1  0.68326800  0.11715000  0.00826300  1
  Bi  Bi9  1  0.22380400  0.39681700  0.20398100  1
  Bi  Bi10  1  0.87953600  0.77514900  0.51342900  1
  Bi  Bi11  1  0.60017500  0.06638800  0.85123200  1
  Bi  Bi12  1  0.15116000  0.34320100  0.05421700  1
  Bi  Bi13  1  0.76960900  0.64822900  0.38648600  1
  Bi  Bi14  1  0.42989400  0.94660200  0.71257300  1
  Bi  Bi15  1  0.77901000  0.23869100  0.16941100  1
  P  P16  1  0.68999100  0.53538700  0.26115400  1
  P  P17  1  0.40003000  0.88938800  0.55252400  1
  P  P18  1  0.04591600  0.24343200  0.92418800  1
  P  P19  1  0.64011200  0.56233900  0.04172500  1
  P  P20  1  0.21175700  0.82800300  0.36764200  1
  P  P21  1  0.94008100  0.18159400  0.69317000  1
  P  P22  1  0.01416100  0.82456800  0.26110100  1
  P  P23  1  0.75543000  0.13492300  0.61784000  1
  P  P24  1  0.46198100  0.52903800  0.96281400  1
  P  P25  1  0.02589800  0.84642100  0.12532700  1
  P  P26  1  0.57595300  0.08341100  0.41069700  1
  P  P27  1  0.29517900  0.40945900  0.73662300  1
  O  O28  1  0.83067800  0.97171700  0.10934300  1
  O  O29  1  0.41344800  0.19429900  0.44786400  1
  O  O30  1  0.13648200  0.52450400  0.77405800  1
  O  O31  1  0.51973700  0.18042400  0.21087000  1
  O  O32  1  0.77886000  0.41392400  0.07546300  1
  O  O33  1  0.22105400  0.50671500  0.49206000  1
  O  O34  1  0.40773500  0.70400200  0.37399400  1
  O  O35  1  0.23054600  0.23982800  0.29002400  1
  O  O36  1  0.62075100  0.73225300  0.05295700  1
  O  O37  1  0.80853200  0.84039500  0.83300700  1
  O  O38  1  0.10368600  0.03655300  0.71458500  1
  O  O39  1  0.50823100  0.48790900  0.23524500  1
  O  O40  1  0.02152400  0.56354100  0.60215600  1
  O  O41  1  0.19764600  0.99580200  0.38465500  1
  O  O42  1  0.53608900  0.48037400  0.17000500  1
  O  O43  1  0.27242500  0.76369500  0.56711400  1
  O  O44  1  0.60548200  0.97946600  0.95073300  1
  O  O45  1  0.90241700  0.34657400  0.71366400  1
  O  O46  1  0.17134900  0.86654900  0.29492600  1
  O  O47  1  0.31950100  0.81072300  0.50082100  1
  O  O48  1  0.89162700  0.13409900  0.92267200  1
  O  O49  1  0.93365600  0.20625800  0.61770600  1
  O  O50  1  0.43694700  0.53367500  0.03784200  1
  O  O51  1  0.81110700  0.18572300  0.86231400  1
  O  O52  1  0.05277700  0.89229000  0.19544100  1
  O  O53  1  0.67492300  0.53639900  0.97000600  1
  O  O54  1  0.06433100  0.75006200  0.39445500  1
  O  O55  1  0.18582100  0.88919500  0.09215400  1
  O  O56  1  0.84305800  0.05631200  0.48056300  1
  O  O57  1  0.75509700  0.12455000  0.69234700  1
  O  O58  1  0.04661700  0.64207100  0.27161000  1
  O  O59  1  0.40075700  0.12811400  0.04742700  1
  O  O60  1  0.76721800  0.12957300  0.42076200  1
  O  O61  1  0.58941800  0.39131700  0.80029800  1
  O  O62  1  0.81903900  0.96325500  0.60161900  1
  O  O63  1  0.01961500  0.41062400  0.38699600  1
  O  O64  1  0.49344500  0.45035700  0.74209100  1
  O  O65  1  0.82790600  0.93878000  0.28383200  1
  O  O66  1  0.11441100  0.26127400  0.14383700  1
  O  O67  1  0.47062200  0.35800600  0.95110300  1
  O  O68  1  0.74169000  0.70145000  0.71016700  1
  O  O69  1  0.03722100  0.66783300  0.13027500  1
  O  O70  1  0.57966700  0.26698200  0.59526800  1
  O  O71  1  0.80632200  0.58468300  0.47599200  1
  O  O72  1  0.62443200  0.90129400  0.43811100  1
  O  O73  1  0.33810800  0.68123900  0.93066000  1
  O  O74  1  0.45919600  0.83389200  0.79838900  1
  O  O75  1  0.33899100  0.22427400  0.75333300  1
  O  O76  1  0.86278900  0.38221700  0.23635400  1
  O  O77  1  0.67888000  0.45808700  0.32921600  1
  O  O78  1  0.60488000  0.77673300  0.56985600  1
  O  O79  1  0.36327700  0.75081900  0.67345600  1
  O  O80  1  0.23977700  0.11575500  0.90941500  1
  O  O81  1  0.04615400  0.19647100  0.99961500  1
