# generated using pymatgen
data_YbTi2CdO6F
_symmetry_space_group_name_H-M   'P 1'
_cell_length_a   7.21695909
_cell_length_b   7.21695909
_cell_length_c   7.21695909
_cell_angle_alpha   120.39920850
_cell_angle_beta   119.41760274
_cell_angle_gamma   90.16081578
_symmetry_Int_Tables_number   1
_chemical_formula_structural   YbTi2CdO6F
_chemical_formula_sum   'Yb2 Ti4 Cd2 O12 F2'
_cell_volume   266.13808125
_cell_formula_units_Z   2
loop_
 _symmetry_equiv_pos_site_id
 _symmetry_equiv_pos_as_xyz
  1  'x, y, z'
loop_
 _atom_site_type_symbol
 _atom_site_label
 _atom_site_symmetry_multiplicity
 _atom_site_fract_x
 _atom_site_fract_y
 _atom_site_fract_z
 _atom_site_occupancy
  Yb  Yb0  1  0.50000000  0.00000000  0.50000000  1
  Yb  Yb1  1  0.00000000  0.00000000  0.00000000  1
  Ti  Ti2  1  0.50000000  0.00000000  0.00000000  1
  Ti  Ti3  1  0.50000000  0.50000000  0.50000000  1
  Ti  Ti4  1  0.50000000  0.50000000  0.00000000  1
  Ti  Ti5  1  0.00000000  0.50000000  0.50000000  1
  Cd  Cd6  1  0.00000000  0.00000000  0.50000000  1
  Cd  Cd7  1  0.00000000  0.50000000  0.00000000  1
  O  O8  1  0.42228000  0.17228000  0.25000000  1
  O  O9  1  0.42580200  0.17309000  0.84702700  1
  O  O10  1  0.42580200  0.57877500  0.25271300  1
  O  O11  1  0.82606300  0.17309000  0.24728700  1
  O  O12  1  0.82739100  0.57739100  0.25000000  1
  O  O13  1  0.82606300  0.57877500  0.65297300  1
  O  O14  1  0.17260900  0.42260900  0.75000000  1
  O  O15  1  0.17393700  0.42122500  0.34702700  1
  O  O16  1  0.17393700  0.82691000  0.75271300  1
  O  O17  1  0.57419800  0.42122500  0.74728700  1
  O  O18  1  0.57772000  0.82772000  0.75000000  1
  O  O19  1  0.57419800  0.82691000  0.15297300  1
  F  F20  1  0.86891200  0.11891200  0.75000000  1
  F  F21  1  0.13108800  0.88108800  0.25000000  1
