# generated using pymatgen
data_K2HfF6
_symmetry_space_group_name_H-M   'P 1'
_cell_length_a   6.47701600
_cell_length_b   13.30017700
_cell_length_c   13.54808264
_cell_angle_alpha   64.95416005
_cell_angle_beta   90.00000000
_cell_angle_gamma   90.00000000
_symmetry_Int_Tables_number   1
_chemical_formula_structural   K2HfF6
_chemical_formula_sum   'K12 Hf6 F36'
_cell_volume   1057.36211614
_cell_formula_units_Z   6
loop_
 _symmetry_equiv_pos_site_id
 _symmetry_equiv_pos_as_xyz
  1  'x, y, z'
loop_
 _atom_site_type_symbol
 _atom_site_label
 _atom_site_symmetry_multiplicity
 _atom_site_fract_x
 _atom_site_fract_y
 _atom_site_fract_z
 _atom_site_occupancy
  K  K0  1  0.50000000  0.79548700  0.21513100  1
  K  K1  1  0.50000000  0.42722300  0.28353000  1
  K  K2  1  0.00000000  0.67202400  0.50299800  1
  K  K3  1  0.00000000  0.81771200  0.11368400  1
  K  K4  1  0.00000000  0.96018500  0.53240800  1
  K  K5  1  0.50000000  0.04004700  0.20759000  1
  K  K6  1  0.50000000  0.93165200  0.74046200  1
  K  K7  1  0.50000000  0.21658800  0.76698100  1
  K  K8  1  0.00000000  0.09631600  0.02329800  1
  K  K9  1  0.00000000  0.36088500  0.51987500  1
  K  K10  1  0.00000000  0.56575900  0.89477400  1
  K  K11  1  0.50000000  0.58918900  0.74237800  1
  Hf  Hf12  1  0.50000000  0.34271900  0.01057800  1
  Hf  Hf13  1  0.00000000  0.25537500  0.24384000  1
  Hf  Hf14  1  0.50000000  0.83903100  0.49729100  1
  Hf  Hf15  1  0.50000000  0.50043200  0.50907100  1
  Hf  Hf16  1  0.00000000  0.07701800  0.74276700  1
  Hf  Hf17  1  0.50000000  0.66638500  0.00242300  1
  F  F18  1  0.28610200  0.60319300  0.11640900  1
  F  F19  1  0.27716100  0.28754300  0.13294700  1
  F  F20  1  0.72283900  0.28754300  0.13294700  1
  F  F21  1  0.71389800  0.60319300  0.11640900  1
  F  F22  1  0.72370300  0.87729600  0.38789700  1
  F  F23  1  0.74055000  0.95656300  0.12252200  1
  F  F24  1  0.71255000  0.52534800  0.39474400  1
  F  F25  1  0.00000000  0.11725100  0.22451000  1
  F  F26  1  0.00000000  0.71798900  0.30773900  1
  F  F27  1  0.00000000  0.41583400  0.17991000  1
  F  F28  1  0.25945000  0.95656300  0.12252200  1
  F  F29  1  0.28745000  0.52534800  0.39474400  1
  F  F30  1  0.22030700  0.12279200  0.62683000  1
  F  F31  1  0.27629700  0.87729600  0.38789700  1
  F  F32  1  0.28873100  0.79015500  0.61605100  1
  F  F33  1  0.21347200  0.22881600  0.35278800  1
  F  F34  1  0.50000000  0.98663900  0.49492400  1
  F  F35  1  0.50000000  0.66830400  0.50236900  1
  F  F36  1  0.50000000  0.34406700  0.53345800  1
  F  F37  1  0.78652800  0.22881600  0.35278800  1
  F  F38  1  0.71126900  0.79015500  0.61605100  1
  F  F39  1  0.77969300  0.12279200  0.62683000  1
  F  F40  1  0.71857100  0.40091300  0.90300000  1
  F  F41  1  0.77039800  0.03943800  0.85157500  1
  F  F42  1  0.71965100  0.46451200  0.62023300  1
  F  F43  1  0.00000000  0.23156100  0.73378400  1
  F  F44  1  0.00000000  0.92920900  0.73897000  1
  F  F45  1  0.00000000  0.59927700  0.70826100  1
  F  F46  1  0.22960200  0.03943800  0.85157500  1
  F  F47  1  0.28034900  0.46451200  0.62023300  1
  F  F48  1  0.28142900  0.40091300  0.90300000  1
  F  F49  1  0.29662300  0.70051800  0.88124500  1
  F  F50  1  0.50000000  0.49473700  0.01280000  1
  F  F51  1  0.50000000  0.20121000  0.00017000  1
  F  F52  1  0.50000000  0.81235200  0.00157300  1
  F  F53  1  0.70337700  0.70051800  0.88124500  1
