# generated using pymatgen
data_K7(Si2Te5)4
_symmetry_space_group_name_H-M   'P 1'
_cell_length_a   15.23171600
_cell_length_b   10.84245100
_cell_length_c   17.94623629
_cell_angle_alpha   71.27086058
_cell_angle_beta   90.00000000
_cell_angle_gamma   90.00000000
_symmetry_Int_Tables_number   1
_chemical_formula_structural   K7(Si2Te5)4
_chemical_formula_sum   'K14 Si16 Te40'
_cell_volume   2806.86329256
_cell_formula_units_Z   2
loop_
 _symmetry_equiv_pos_site_id
 _symmetry_equiv_pos_as_xyz
  1  'x, y, z'
loop_
 _atom_site_type_symbol
 _atom_site_label
 _atom_site_symmetry_multiplicity
 _atom_site_fract_x
 _atom_site_fract_y
 _atom_site_fract_z
 _atom_site_occupancy
  K  K0  1  0.59016200  0.19892600  0.83224300  1
  K  K1  1  0.65897800  0.54550300  0.89695500  1
  K  K2  1  0.22639900  0.29127800  0.93634800  1
  K  K3  1  0.97262700  0.69690600  0.67581900  1
  K  K4  1  0.10816500  0.35939000  0.65651500  1
  K  K5  1  0.15751300  0.98237800  0.62499700  1
  K  K6  1  0.71588000  0.68015200  0.50544900  1
  K  K7  1  0.40983800  0.19892600  0.33224300  1
  K  K8  1  0.34102200  0.54550300  0.39695500  1
  K  K9  1  0.77360100  0.29127800  0.43634800  1
  K  K10  1  0.02737300  0.69690600  0.17581900  1
  K  K11  1  0.89183500  0.35939000  0.15651500  1
  K  K12  1  0.84248700  0.98237800  0.12499700  1
  K  K13  1  0.28412000  0.68015200  0.00544900  1
  Si  Si14  1  0.50764400  0.69439800  0.64738500  1
  Si  Si15  1  0.44394000  0.15281800  0.60691200  1
  Si  Si16  1  0.57212700  0.02104400  0.60729000  1
  Si  Si17  1  0.54067300  0.33512000  0.58517300  1
  Si  Si18  1  0.01792500  0.00852300  0.91891500  1
  Si  Si19  1  0.01781400  0.65543300  0.92728900  1
  Si  Si20  1  0.93948200  0.80956800  0.97139900  1
  Si  Si21  1  0.90201300  0.39352600  0.77510300  1
  Si  Si22  1  0.49235600  0.69439800  0.14738500  1
  Si  Si23  1  0.55606000  0.15281800  0.10691200  1
  Si  Si24  1  0.45932700  0.33512000  0.08517300  1
  Si  Si25  1  0.42787300  0.02104400  0.10729000  1
  Si  Si26  1  0.98207500  0.00852300  0.41891500  1
  Si  Si27  1  0.98218600  0.65543300  0.42728900  1
  Si  Si28  1  0.06051800  0.80956800  0.47139900  1
  Si  Si29  1  0.09798700  0.39352600  0.27510300  1
  Te  Te30  1  0.41490800  0.00462200  0.96494600  1
  Te  Te31  1  0.43617400  0.46121700  0.94441100  1
  Te  Te32  1  0.83438900  0.92302700  0.73123900  1
  Te  Te33  1  0.79561700  0.85246000  0.89159300  1
  Te  Te34  1  0.32291700  0.18764900  0.13928600  1
  Te  Te35  1  0.35338900  0.79602700  0.18635300  1
  Te  Te36  1  0.51165500  0.77179300  0.99701200  1
  Te  Te37  1  0.87954000  0.16568500  0.89417600  1
  Te  Te38  1  0.89199100  0.52990400  0.88019100  1
  Te  Te39  1  0.74430200  0.45250800  0.72942100  1
  Te  Te40  1  0.18295500  0.54437800  0.76355900  1
  Te  Te41  1  0.37810300  0.84485100  0.64672900  1
  Te  Te42  1  0.46419400  0.45287600  0.67459400  1
  Te  Te43  1  0.01595000  0.29348500  0.48628100  1
  Te  Te44  1  0.86246500  0.74956000  0.31858900  1
  Te  Te45  1  0.85928600  0.07103800  0.32174200  1
  Te  Te46  1  0.31793600  0.19944500  0.51391000  1
  Te  Te47  1  0.38928200  0.00960700  0.74399900  1
  Te  Te48  1  0.90988400  0.48998400  0.54656200  1
  Te  Te49  1  0.92523200  0.03212100  0.55041400  1
  Te  Te50  1  0.58509200  0.00462200  0.46494600  1
  Te  Te51  1  0.56382600  0.46121700  0.44441100  1
  Te  Te52  1  0.16561100  0.92302700  0.23123900  1
  Te  Te53  1  0.20438300  0.85246000  0.39159300  1
  Te  Te54  1  0.64661100  0.79602700  0.68635300  1
  Te  Te55  1  0.67708300  0.18764900  0.63928600  1
  Te  Te56  1  0.48834500  0.77179300  0.49701200  1
  Te  Te57  1  0.10800900  0.52990400  0.38019100  1
  Te  Te58  1  0.12046000  0.16568500  0.39417600  1
  Te  Te59  1  0.25569800  0.45250800  0.22942100  1
  Te  Te60  1  0.81704500  0.54437800  0.26355900  1
  Te  Te61  1  0.53580600  0.45287600  0.17459400  1
  Te  Te62  1  0.62189700  0.84485100  0.14672900  1
  Te  Te63  1  0.98405000  0.29348500  0.98628100  1
  Te  Te64  1  0.13753500  0.74956000  0.81858900  1
  Te  Te65  1  0.14071400  0.07103800  0.82174200  1
  Te  Te66  1  0.68206400  0.19944500  0.01391000  1
  Te  Te67  1  0.61071800  0.00960700  0.24399900  1
  Te  Te68  1  0.09011600  0.48998400  0.04656200  1
  Te  Te69  1  0.07476800  0.03212100  0.05041400  1
