# generated using pymatgen
data_Ca2YbF7
_symmetry_space_group_name_H-M   'P 1'
_cell_length_a   8.87600762
_cell_length_b   8.91202588
_cell_length_c   10.21967531
_cell_angle_alpha   116.09845076
_cell_angle_beta   116.12147265
_cell_angle_gamma   89.61889970
_symmetry_Int_Tables_number   1
_chemical_formula_structural   Ca2YbF7
_chemical_formula_sum   'Ca10 Yb5 F35'
_cell_volume   634.05486291
_cell_formula_units_Z   5
loop_
 _symmetry_equiv_pos_site_id
 _symmetry_equiv_pos_as_xyz
  1  'x, y, z'
loop_
 _atom_site_type_symbol
 _atom_site_label
 _atom_site_symmetry_multiplicity
 _atom_site_fract_x
 _atom_site_fract_y
 _atom_site_fract_z
 _atom_site_occupancy
  Ca  Ca0  1  0.02060300  0.47361400  0.68302000  1
  Ca  Ca1  1  0.20966500  0.02017200  0.68504900  1
  Ca  Ca2  1  0.47156100  0.66258400  0.68118400  1
  Ca  Ca3  1  0.33814700  0.78843100  0.31785400  1
  Ca  Ca4  1  0.66332200  0.20934500  0.68212000  1
  Ca  Ca5  1  0.52866000  0.34024200  0.31766600  1
  Ca  Ca6  1  0.49882600  0.49837200  0.99979300  1
  Ca  Ca7  1  0.79048300  0.98161700  0.31626400  1
  Ca  Ca8  1  0.68727900  0.09937500  0.99924200  1
  Ca  Ca9  1  0.97918700  0.52621000  0.31707600  1
  Yb  Yb10  1  0.18915300  0.18905300  0.37918600  1
  Yb  Yb11  1  0.10241600  0.31769300  0.00131000  1
  Yb  Yb12  1  0.31088500  0.90071200  0.00055700  1
  Yb  Yb13  1  0.81206400  0.81076900  0.62092900  1
  Yb  Yb14  1  0.89804000  0.68359300  0.99890600  1
  F  F15  1  0.08537800  0.78732300  0.73992900  1
  F  F16  1  0.06603400  0.17079300  0.53725300  1
  F  F17  1  0.21328500  0.34795200  0.84219100  1
  F  F18  1  0.17363400  0.46953400  0.53895600  1
  F  F19  1  0.04300600  0.91603200  0.25515400  1
  F  F20  1  0.34775000  0.63025800  0.84450600  1
  F  F21  1  0.00899000  0.99620200  0.00107300  1
  F  F22  1  0.08461500  0.58575200  0.16925600  1
  F  F23  1  0.25142700  0.74749100  0.49936100  1
  F  F24  1  0.41440600  0.91374400  0.83077200  1
  F  F25  1  0.21874800  0.34211300  0.26100900  1
  F  F26  1  0.36221000  0.06554000  0.53628800  1
  F  F27  1  0.49195400  0.21537700  0.83675400  1
  F  F28  1  0.14706500  0.70749100  0.99611500  1
  F  F29  1  0.34172900  0.03836600  0.26228000  1
  F  F30  1  0.46966800  0.36450600  0.54033900  1
  F  F31  1  0.62911800  0.49703100  0.84362700  1
  F  F32  1  0.28739600  0.14771800  0.99699900  1
  F  F33  1  0.37030600  0.50349400  0.15617900  1
  F  F34  1  0.53182800  0.63614400  0.46180100  1
  F  F35  1  0.65554400  0.95821200  0.73410200  1
  F  F36  1  0.50173200  0.78358400  0.15638800  1
  F  F37  1  0.63788000  0.93187500  0.45829300  1
  F  F38  1  0.78302300  0.65923700  0.74112300  1
  F  F39  1  0.57930300  0.08341200  0.17028800  1
  F  F40  1  0.74876300  0.25311400  0.50064800  1
  F  F41  1  0.91612400  0.41559900  0.83096200  1
  F  F42  1  0.65059500  0.37396500  0.15959800  1
  F  F43  1  0.95502600  0.08416600  0.74268900  1
  F  F44  1  0.83272000  0.53390900  0.46705800  1
  F  F45  1  0.78545100  0.65201000  0.15675500  1
  F  F46  1  0.71073800  0.84901800  0.00320000  1
  F  F47  1  0.93332900  0.82701200  0.46055600  1
  F  F48  1  0.91667600  0.21548500  0.26455500  1
  F  F49  1  0.85425700  0.29475800  0.00379100  1
