# generated using pymatgen
data_Nb2Pb3O8
_symmetry_space_group_name_H-M   'P 1'
_cell_length_a   7.67507500
_cell_length_b   7.64504900
_cell_length_c   10.84602351
_cell_angle_alpha   89.93256164
_cell_angle_beta   90.00000000
_cell_angle_gamma   90.00000000
_symmetry_Int_Tables_number   1
_chemical_formula_structural   Nb2Pb3O8
_chemical_formula_sum   'Nb6 Pb9 O24'
_cell_volume   636.40435385
_cell_formula_units_Z   3
loop_
 _symmetry_equiv_pos_site_id
 _symmetry_equiv_pos_as_xyz
  1  'x, y, z'
loop_
 _atom_site_type_symbol
 _atom_site_label
 _atom_site_symmetry_multiplicity
 _atom_site_fract_x
 _atom_site_fract_y
 _atom_site_fract_z
 _atom_site_occupancy
  Nb  Nb0  1  0.00894200  0.24165000  0.74873100  1
  Nb  Nb1  1  0.50905000  0.75096800  0.24470900  1
  Nb  Nb2  1  0.00894200  0.75835000  0.25126900  1
  Nb  Nb3  1  0.74318100  0.00000000  0.50000000  1
  Nb  Nb4  1  0.25181800  0.00000000  0.00000000  1
  Nb  Nb5  1  0.50905000  0.24903200  0.75529100  1
  Pb  Pb6  1  0.98916700  0.27182700  0.25113400  1
  Pb  Pb7  1  0.50519700  0.26549700  0.24686200  1
  Pb  Pb8  1  0.24716200  0.50000000  0.00000000  1
  Pb  Pb9  1  0.74950000  0.50000000  0.50000000  1
  Pb  Pb10  1  0.25126300  0.50000000  0.50000000  1
  Pb  Pb11  1  0.75802600  0.50000000  0.00000000  1
  Pb  Pb12  1  0.50519700  0.73450300  0.75313800  1
  Pb  Pb13  1  0.98916700  0.72817300  0.74886600  1
  Pb  Pb14  1  0.25179400  0.00000000  0.50000000  1
  O  O15  1  0.25417100  0.23471800  0.07831900  1
  O  O16  1  0.45618800  0.54864300  0.13167500  1
  O  O17  1  0.53408800  0.54409700  0.36969700  1
  O  O18  1  0.03704000  0.55033100  0.13033500  1
  O  O19  1  0.24940200  0.75680000  0.31545800  1
  O  O20  1  0.53408800  0.45590300  0.63030300  1
  O  O21  1  0.96252300  0.54227200  0.36779600  1
  O  O22  1  0.24940200  0.24320000  0.68454200  1
  O  O23  1  0.45618800  0.45135700  0.86832500  1
  O  O24  1  0.96252300  0.45772800  0.63220400  1
  O  O25  1  0.03704000  0.44966900  0.86966500  1
  O  O26  1  0.75247900  0.76525000  0.58007200  1
  O  O27  1  0.25417100  0.76528200  0.92168100  1
  O  O28  1  0.93793700  0.07604400  0.61799600  1
  O  O29  1  0.06775500  0.07707200  0.87641200  1
  O  O30  1  0.55764400  0.07452700  0.61720400  1
  O  O31  1  0.74962600  0.25293600  0.79691400  1
  O  O32  1  0.06775500  0.92292800  0.12358800  1
  O  O33  1  0.43079400  0.07362100  0.87266200  1
  O  O34  1  0.74962600  0.74706400  0.20308600  1
  O  O35  1  0.93793700  0.92395600  0.38200400  1
  O  O36  1  0.43079400  0.92637900  0.12733800  1
  O  O37  1  0.55764400  0.92547300  0.38279600  1
  O  O38  1  0.75247900  0.23475000  0.41992800  1
