# generated using pymatgen
data_HgNO4
_symmetry_space_group_name_H-M   'P 1'
_cell_length_a   6.89341500
_cell_length_b   6.87540600
_cell_length_c   10.18840988
_cell_angle_alpha   71.98561774
_cell_angle_beta   90.00000000
_cell_angle_gamma   90.00000000
_symmetry_Int_Tables_number   1
_chemical_formula_structural   HgNO4
_chemical_formula_sum   'Hg4 N4 O16'
_cell_volume   459.20866155
_cell_formula_units_Z   4
loop_
 _symmetry_equiv_pos_site_id
 _symmetry_equiv_pos_as_xyz
  1  'x, y, z'
loop_
 _atom_site_type_symbol
 _atom_site_label
 _atom_site_symmetry_multiplicity
 _atom_site_fract_x
 _atom_site_fract_y
 _atom_site_fract_z
 _atom_site_occupancy
  Hg  Hg0  1  0.47911000  0.00702100  0.74588700  1
  Hg  Hg1  1  0.02089000  0.00702100  0.24588700  1
  Hg  Hg2  1  0.52089000  0.99297900  0.25411300  1
  Hg  Hg3  1  0.97911000  0.99297900  0.75411300  1
  N  N4  1  0.31708400  0.42015900  0.39617900  1
  N  N5  1  0.18291600  0.42015900  0.89617900  1
  N  N6  1  0.68291600  0.57984100  0.60382100  1
  N  N7  1  0.81708400  0.57984100  0.10382100  1
  O  O8  1  0.23053800  0.88084500  0.70752600  1
  O  O9  1  0.26946200  0.88084500  0.20752600  1
  O  O10  1  0.76946200  0.11915500  0.29247400  1
  O  O11  1  0.73053800  0.11915500  0.79247400  1
  O  O12  1  0.27666300  0.23173300  0.44267900  1
  O  O13  1  0.22333700  0.23173300  0.94267900  1
  O  O14  1  0.72333700  0.76826700  0.55732100  1
  O  O15  1  0.77666300  0.76826700  0.05732100  1
  O  O16  1  0.48432800  0.48239200  0.36370300  1
  O  O17  1  0.01567200  0.48239200  0.86370300  1
  O  O18  1  0.51567200  0.51760800  0.63629700  1
  O  O19  1  0.98432800  0.51760800  0.13629700  1
  O  O20  1  0.17625100  0.54398500  0.38493500  1
  O  O21  1  0.32374900  0.54398500  0.88493500  1
  O  O22  1  0.82374900  0.45601500  0.61506500  1
  O  O23  1  0.67625100  0.45601500  0.11506500  1
