# generated using pymatgen
data_CaNd2Ti2ZnO9
_symmetry_space_group_name_H-M   'P 1'
_cell_length_a   5.47500200
_cell_length_b   5.72259773
_cell_length_c   23.33079569
_cell_angle_alpha   89.98106632
_cell_angle_beta   89.80182633
_cell_angle_gamma   89.70329721
_symmetry_Int_Tables_number   1
_chemical_formula_structural   CaNd2Ti2ZnO9
_chemical_formula_sum   'Ca4 Nd8 Ti8 Zn4 O36'
_cell_volume   730.96841044
_cell_formula_units_Z   4
loop_
 _symmetry_equiv_pos_site_id
 _symmetry_equiv_pos_as_xyz
  1  'x, y, z'
loop_
 _atom_site_type_symbol
 _atom_site_label
 _atom_site_symmetry_multiplicity
 _atom_site_fract_x
 _atom_site_fract_y
 _atom_site_fract_z
 _atom_site_occupancy
  Ca  Ca0  1  0.50832700  0.44892100  0.41175200  1
  Ca  Ca1  1  0.50780900  0.44914300  0.08018100  1
  Ca  Ca2  1  0.00439800  0.06093800  0.58654600  1
  Ca  Ca3  1  0.00961300  0.05893100  0.25524600  1
  Nd  Nd4  1  0.98100500  0.93677600  0.74798100  1
  Nd  Nd5  1  0.98384000  0.92821600  0.41342900  1
  Nd  Nd6  1  0.98653900  0.92934100  0.08245200  1
  Nd  Nd7  1  0.51756400  0.43949200  0.74937200  1
  Nd  Nd8  1  0.48445500  0.56188500  0.91769700  1
  Nd  Nd9  1  0.48265000  0.56243800  0.58391300  1
  Nd  Nd10  1  0.48381100  0.56372800  0.25290700  1
  Nd  Nd11  1  0.01952400  0.06117300  0.91795800  1
  Ti  Ti12  1  0.00172300  0.49993600  0.83332700  1
  Ti  Ti13  1  0.97047800  0.48116100  0.49712600  1
  Ti  Ti14  1  0.97134100  0.48114100  0.16536600  1
  Ti  Ti15  1  0.50967400  0.00439900  0.00030000  1
  Ti  Ti16  1  0.47471100  0.01273400  0.50145300  1
  Ti  Ti17  1  0.48950300  0.00331500  0.66602700  1
  Ti  Ti18  1  0.47529200  0.01368400  0.16897100  1
  Ti  Ti19  1  0.50101400  0.00797200  0.33318800  1
  Zn  Zn20  1  0.99892600  0.49492000  0.00240900  1
  Zn  Zn21  1  0.99803100  0.49404500  0.66497100  1
  Zn  Zn22  1  0.99774200  0.48958600  0.33392700  1
  Zn  Zn23  1  0.50118100  0.00004800  0.83320800  1
  O  O24  1  0.90408500  0.46991700  0.91404700  1
  O  O25  1  0.90961000  0.47140600  0.57784400  1
  O  O26  1  0.91171300  0.47177300  0.24604100  1
  O  O27  1  0.81434500  0.21045500  0.81524100  1
  O  O28  1  0.79865600  0.20271700  0.48179300  1
  O  O29  1  0.79943500  0.20275100  0.15005600  1
  O  O30  1  0.78971400  0.18928300  0.68166300  1
  O  O31  1  0.79712400  0.18417100  0.34758800  1
  O  O32  1  0.79914900  0.18527100  0.01545400  1
  O  O33  1  0.68762700  0.71020800  0.68120700  1
  O  O34  1  0.70786600  0.69760100  0.48323700  1
  O  O35  1  0.69458100  0.71394500  0.34824400  1
  O  O36  1  0.70929000  0.69238600  0.81662900  1
  O  O37  1  0.70897200  0.69793000  0.15172500  1
  O  O38  1  0.69299000  0.71471800  0.01846400  1
  O  O39  1  0.59728000  0.97123000  0.92038700  1
  O  O40  1  0.59229400  0.97557100  0.58000600  1
  O  O41  1  0.59311100  0.97734900  0.24866100  1
  O  O42  1  0.41386300  0.02935900  0.41780600  1
  O  O43  1  0.40206400  0.02926200  0.74609700  1
  O  O44  1  0.41367300  0.03223600  0.08647200  1
  O  O45  1  0.31365200  0.28896200  0.98389900  1
  O  O46  1  0.29561700  0.30965100  0.84985200  1
  O  O47  1  0.30101700  0.29191500  0.51625100  1
  O  O48  1  0.31763100  0.29455400  0.65004600  1
  O  O49  1  0.30172800  0.29222300  0.18476100  1
  O  O50  1  0.31924500  0.29196600  0.31856300  1
  O  O51  1  0.21208900  0.81155800  0.98666600  1
  O  O52  1  0.21139800  0.81183200  0.64904900  1
  O  O53  1  0.21773200  0.81133100  0.31891600  1
  O  O54  1  0.19093700  0.78821100  0.85156300  1
  O  O55  1  0.21343700  0.80707700  0.51534400  1
  O  O56  1  0.21515600  0.80696400  0.18357900  1
  O  O57  1  0.09775500  0.53068300  0.75246200  1
  O  O58  1  0.09764500  0.52453900  0.42127600  1
  O  O59  1  0.09836900  0.52506900  0.08940400  1
