# generated using pymatgen
data_Ba3In4(CuO4)3
_symmetry_space_group_name_H-M   'P 1'
_cell_length_a   9.72999089
_cell_length_b   9.72999089
_cell_length_c   9.72999089
_cell_angle_alpha   101.33565591
_cell_angle_beta   101.33565591
_cell_angle_gamma   127.36477240
_symmetry_Int_Tables_number   1
_chemical_formula_structural   Ba3In4(CuO4)3
_chemical_formula_sum   'Ba6 In8 Cu6 O24'
_cell_volume   656.24538398
_cell_formula_units_Z   2
loop_
 _symmetry_equiv_pos_site_id
 _symmetry_equiv_pos_as_xyz
  1  'x, y, z'
loop_
 _atom_site_type_symbol
 _atom_site_label
 _atom_site_symmetry_multiplicity
 _atom_site_fract_x
 _atom_site_fract_y
 _atom_site_fract_z
 _atom_site_occupancy
  Ba  Ba0  1  0.27957300  0.77957300  0.05914700  1
  Ba  Ba1  1  0.22042700  0.27957300  0.50000000  1
  Ba  Ba2  1  0.72042700  0.22042700  0.94085300  1
  Ba  Ba3  1  0.00000000  0.00000000  0.00000000  1
  Ba  Ba4  1  0.77957300  0.72042700  0.50000000  1
  Ba  Ba5  1  0.50000000  0.50000000  0.00000000  1
  In  In6  1  0.00711600  0.25000000  0.75711600  1
  In  In7  1  0.99288400  0.75000000  0.24288400  1
  In  In8  1  0.25000000  0.49288400  0.24288400  1
  In  In9  1  0.75000000  0.50711600  0.75711600  1
  In  In10  1  0.50711600  0.75000000  0.75711600  1
  In  In11  1  0.75000000  0.99288400  0.24288400  1
  In  In12  1  0.49288400  0.25000000  0.24288400  1
  In  In13  1  0.25000000  0.00711600  0.75711600  1
  Cu  Cu14  1  0.39515900  0.10484100  0.50000000  1
  Cu  Cu15  1  0.10484100  0.60484100  0.70968300  1
  Cu  Cu16  1  0.60484100  0.89515900  0.50000000  1
  Cu  Cu17  1  0.25000000  0.75000000  0.50000000  1
  Cu  Cu18  1  0.89515900  0.39515900  0.29031700  1
  Cu  Cu19  1  0.75000000  0.25000000  0.50000000  1
  O  O20  1  0.76916200  0.49823300  0.26739500  1
  O  O21  1  0.62019200  0.62019200  0.74038400  1
  O  O22  1  0.99823300  0.26916200  0.26739500  1
  O  O23  1  0.65990900  0.15990900  0.27514900  1
  O  O24  1  0.37980800  0.37980800  0.25961600  1
  O  O25  1  0.34009100  0.84009100  0.72485100  1
  O  O26  1  0.12019200  0.12019200  0.74038400  1
  O  O27  1  0.26916200  0.00176700  0.27093000  1
  O  O28  1  0.00176700  0.73083800  0.73260500  1
  O  O29  1  0.38476000  0.65990900  0.50000000  1
  O  O30  1  0.87980800  0.87980800  0.25961600  1
  O  O31  1  0.49823300  0.23083800  0.72907000  1
  O  O32  1  0.50176700  0.76916200  0.27093000  1
  O  O33  1  0.15990900  0.88476000  0.50000000  1
  O  O34  1  0.62019200  0.87980800  0.00000000  1
  O  O35  1  0.12019200  0.37980800  0.00000000  1
  O  O36  1  0.37980800  0.12019200  0.00000000  1
  O  O37  1  0.11524000  0.61524000  0.27514900  1
  O  O38  1  0.61524000  0.34009100  0.50000000  1
  O  O39  1  0.88476000  0.38476000  0.72485100  1
  O  O40  1  0.84009100  0.11524000  0.50000000  1
  O  O41  1  0.73083800  0.99823300  0.72907000  1
  O  O42  1  0.87980800  0.62019200  0.00000000  1
  O  O43  1  0.23083800  0.50176700  0.73260500  1
