# generated using pymatgen
data_Nd4AlSi5(NO)7
_symmetry_space_group_name_H-M   'P 1'
_cell_length_a   6.72728800
_cell_length_b   6.96342069
_cell_length_c   20.94201984
_cell_angle_alpha   90.62930560
_cell_angle_beta   91.00392763
_cell_angle_gamma   90.02558942
_symmetry_Int_Tables_number   1
_chemical_formula_structural   Nd4AlSi5(NO)7
_chemical_formula_sum   'Nd12 Al3 Si15 N21 O21'
_cell_volume   980.81763346
_cell_formula_units_Z   3
loop_
 _symmetry_equiv_pos_site_id
 _symmetry_equiv_pos_as_xyz
  1  'x, y, z'
loop_
 _atom_site_type_symbol
 _atom_site_label
 _atom_site_symmetry_multiplicity
 _atom_site_fract_x
 _atom_site_fract_y
 _atom_site_fract_z
 _atom_site_occupancy
  Nd  Nd0  1  0.72919500  0.40663300  0.23929300  1
  Nd  Nd1  1  0.64231200  0.43415400  0.59691200  1
  Nd  Nd2  1  0.30366200  0.37937600  0.05426100  1
  Nd  Nd3  1  0.77280900  0.35817100  0.94283000  1
  Nd  Nd4  1  0.27308000  0.33350300  0.41463600  1
  Nd  Nd5  1  0.24757000  0.30031400  0.73957500  1
  Nd  Nd6  1  0.84303500  0.61122300  0.08692700  1
  Nd  Nd7  1  0.75007900  0.70309200  0.40940700  1
  Nd  Nd8  1  0.14506300  0.61860700  0.58689400  1
  Nd  Nd9  1  0.75615000  0.59500600  0.76345700  1
  Nd  Nd10  1  0.25965300  0.68210400  0.21546600  1
  Nd  Nd11  1  0.19738100  0.64003300  0.89140900  1
  Al  Al12  1  0.04991800  0.88308400  0.00263500  1
  Al  Al13  1  0.98942100  0.07316500  0.32169200  1
  Al  Al14  1  0.09878600  0.15237900  0.55009200  1
  Si  Si15  1  0.47634700  0.09498800  0.16652400  1
  Si  Si16  1  0.95873500  0.01699600  0.65919000  1
  Si  Si17  1  0.46145200  0.93365800  0.49639400  1
  Si  Si18  1  0.53807300  0.89840900  0.83758000  1
  Si  Si19  1  0.45830400  0.81748800  0.06318400  1
  Si  Si20  1  0.68256200  0.86441600  0.27147500  1
  Si  Si21  1  0.31036600  0.80850000  0.36281500  1
  Si  Si22  1  0.58472600  0.90111200  0.63382600  1
  Si  Si23  1  0.36528200  0.77908300  0.70661700  1
  Si  Si24  1  0.68085900  0.82057800  0.96679300  1
  Si  Si25  1  0.79297400  0.23859700  0.45250400  1
  Si  Si26  1  0.92878900  0.15778100  0.11184400  1
  Si  Si27  1  0.13931700  0.25571300  0.19518900  1
  Si  Si28  1  0.87239100  0.17004800  0.81009800  1
  Si  Si29  1  0.19977400  0.14983900  0.88545800  1
  N  N30  1  0.51819900  0.72489200  0.31563000  1
  N  N31  1  0.39008700  0.54753500  0.67140000  1
  N  N32  1  0.38797000  0.33000500  0.18752100  1
  N  N33  1  0.62968400  0.27894200  0.83068400  1
  N  N34  1  0.32812600  0.14453300  0.50348200  1
  N  N35  1  0.44197500  0.13885600  0.83577100  1
  N  N36  1  0.92652100  0.81099900  0.31462300  1
  N  N37  1  0.39162600  0.76079600  0.43879800  1
  N  N38  1  0.08786300  0.67726400  0.34025600  1
  N  N39  1  0.24058800  0.71028600  0.04141000  1
  N  N40  1  0.89765400  0.67918800  0.96843000  1
  N  N41  1  0.54180900  0.72164200  0.14421700  1
  N  N42  1  0.61395900  0.87432100  0.19041600  1
  N  N43  1  0.87449800  0.61127700  0.65383400  1
  N  N44  1  0.80004600  0.80134200  0.66918300  1
  N  N45  1  0.41050200  0.74646500  0.78576400  1
  N  N46  1  0.51057600  0.79448700  0.56189600  1
  N  N47  1  0.53435200  0.75648200  0.90321300  1
  N  N48  1  0.00133900  0.49412400  0.18062600  1
  N  N49  1  0.93264100  0.34796500  0.51242400  1
  N  N50  1  0.01004300  0.41983500  0.81509400  1
  O  O51  1  0.59550300  0.45659300  0.02368600  1
  O  O52  1  0.95798200  0.30328500  0.05056100  1
  O  O53  1  0.04441400  0.25578600  0.26894000  1
  O  O54  1  0.71207600  0.20866900  0.14792100  1
  O  O55  1  0.09848400  0.22649300  0.63279800  1
  O  O56  1  0.94868600  0.19705900  0.39472600  1
  O  O57  1  0.62204000  0.38594900  0.42341300  1
  O  O58  1  0.92306600  0.15212900  0.73085700  1
  O  O59  1  0.21823800  0.33893500  0.93528400  1
  O  O60  1  0.25408700  0.00939600  0.20155800  1
  O  O61  1  0.01268700  0.92425700  0.57575000  1
  O  O62  1  0.19641100  0.97350900  0.93844600  1
  O  O63  1  0.93984200  0.94266000  0.08078200  1
  O  O64  1  0.69060900  0.01857500  0.46490000  1
  O  O65  1  0.77524200  0.92771500  0.81396900  1
  O  O66  1  0.42086200  0.04922600  0.08811700  1
  O  O67  1  0.25649700  0.03791000  0.35111200  1
  O  O68  1  0.15801100  0.89823800  0.69388200  1
  O  O69  1  0.70978600  0.09185600  0.29058200  1
  O  O70  1  0.69847600  0.11776900  0.62984500  1
  O  O71  1  0.78887900  0.03470400  0.96322200  1
