# generated using pymatgen
data_K2SO4
_symmetry_space_group_name_H-M   'P 1'
_cell_length_a   5.92677649
_cell_length_b   5.92677649
_cell_length_c   7.94976700
_cell_angle_alpha   90.00000000
_cell_angle_beta   90.00000000
_cell_angle_gamma   118.35978557
_symmetry_Int_Tables_number   1
_chemical_formula_structural   K2SO4
_chemical_formula_sum   'K4 S2 O8'
_cell_volume   245.73407303
_cell_formula_units_Z   2
loop_
 _symmetry_equiv_pos_site_id
 _symmetry_equiv_pos_as_xyz
  1  'x, y, z'
loop_
 _atom_site_type_symbol
 _atom_site_label
 _atom_site_symmetry_multiplicity
 _atom_site_fract_x
 _atom_site_fract_y
 _atom_site_fract_z
 _atom_site_occupancy
  K  K0  1  0.32456100  0.67543900  0.75000000  1
  K  K1  1  0.00000000  0.00000000  0.00000000  1
  K  K2  1  0.00000000  0.00000000  0.50000000  1
  K  K3  1  0.67543900  0.32456100  0.25000000  1
  S  S4  1  0.33435200  0.66564800  0.25000000  1
  S  S5  1  0.66564800  0.33435200  0.75000000  1
  O  O6  1  0.22021400  0.37867700  0.25000000  1
  O  O7  1  0.24969200  0.75030800  0.40206400  1
  O  O8  1  0.24969200  0.75030800  0.09793600  1
  O  O9  1  0.62132300  0.77978600  0.25000000  1
  O  O10  1  0.37867700  0.22021400  0.75000000  1
  O  O11  1  0.75030800  0.24969200  0.59793600  1
  O  O12  1  0.75030800  0.24969200  0.90206400  1
  O  O13  1  0.77978600  0.62132300  0.75000000  1
