# generated using pymatgen
data_K2CeAg3Te4
_symmetry_space_group_name_H-M   'P 1'
_cell_length_a   4.67952900
_cell_length_b   15.51463100
_cell_length_c   17.34343900
_cell_angle_alpha   90.00000000
_cell_angle_beta   90.00000000
_cell_angle_gamma   90.00000000
_symmetry_Int_Tables_number   1
_chemical_formula_structural   K2CeAg3Te4
_chemical_formula_sum   'K8 Ce4 Ag12 Te16'
_cell_volume   1259.15388845
_cell_formula_units_Z   4
loop_
 _symmetry_equiv_pos_site_id
 _symmetry_equiv_pos_as_xyz
  1  'x, y, z'
loop_
 _atom_site_type_symbol
 _atom_site_label
 _atom_site_symmetry_multiplicity
 _atom_site_fract_x
 _atom_site_fract_y
 _atom_site_fract_z
 _atom_site_occupancy
  K  K0  1  0.75000000  0.10083300  0.91843500  1
  K  K1  1  0.25000000  0.65570400  0.11593900  1
  K  K2  1  0.25000000  0.60083300  0.58156500  1
  K  K3  1  0.25000000  0.89916700  0.08156500  1
  K  K4  1  0.25000000  0.84429600  0.61593900  1
  K  K5  1  0.75000000  0.39916700  0.41843500  1
  K  K6  1  0.75000000  0.15570400  0.38406100  1
  K  K7  1  0.75000000  0.34429600  0.88406100  1
  Ce  Ce8  1  0.25000000  0.77166800  0.35727900  1
  Ce  Ce9  1  0.25000000  0.72833200  0.85727900  1
  Ce  Ce10  1  0.75000000  0.22833200  0.64272100  1
  Ce  Ce11  1  0.75000000  0.27166800  0.14272100  1
  Ag  Ag12  1  0.75000000  0.56984800  0.96800500  1
  Ag  Ag13  1  0.75000000  0.90201500  0.77740000  1
  Ag  Ag14  1  0.25000000  0.09798500  0.22260000  1
  Ag  Ag15  1  0.25000000  0.40201500  0.72260000  1
  Ag  Ag16  1  0.75000000  0.59798500  0.27740000  1
  Ag  Ag17  1  0.25000000  0.06984800  0.53199500  1
  Ag  Ag18  1  0.25000000  0.45257600  0.22702000  1
  Ag  Ag19  1  0.75000000  0.54742400  0.77298000  1
  Ag  Ag20  1  0.25000000  0.43015200  0.03199500  1
  Ag  Ag21  1  0.25000000  0.04742400  0.72702000  1
  Ag  Ag22  1  0.75000000  0.95257600  0.27298000  1
  Ag  Ag23  1  0.75000000  0.93015200  0.46800500  1
  Te  Te24  1  0.75000000  0.77685600  0.22733000  1
  Te  Te25  1  0.75000000  0.75016400  0.48208500  1
  Te  Te26  1  0.25000000  0.93903100  0.86172100  1
  Te  Te27  1  0.25000000  0.98402100  0.37601400  1
  Te  Te28  1  0.25000000  0.22314400  0.77267000  1
  Te  Te29  1  0.25000000  0.56096900  0.36172100  1
  Te  Te30  1  0.25000000  0.25016400  0.01791500  1
  Te  Te31  1  0.75000000  0.01597900  0.62398600  1
  Te  Te32  1  0.75000000  0.43903100  0.63827900  1
  Te  Te33  1  0.75000000  0.06096900  0.13827900  1
  Te  Te34  1  0.25000000  0.27685600  0.27267000  1
  Te  Te35  1  0.25000000  0.24983600  0.51791500  1
  Te  Te36  1  0.25000000  0.51597900  0.87601400  1
  Te  Te37  1  0.75000000  0.72314400  0.72733000  1
  Te  Te38  1  0.75000000  0.74983600  0.98208500  1
  Te  Te39  1  0.75000000  0.48402100  0.12398600  1
