# generated using pymatgen
data_Ba24In19N11
_symmetry_space_group_name_H-M   'P 1'
_cell_length_a   10.82763023
_cell_length_b   10.82763023
_cell_length_c   18.59667707
_cell_angle_alpha   73.46624074
_cell_angle_beta   73.46624074
_cell_angle_gamma   59.00078762
_symmetry_Int_Tables_number   1
_chemical_formula_structural   Ba24In19N11
_chemical_formula_sum   'Ba24 In19 N11'
_cell_volume   1766.11475298
_cell_formula_units_Z   1
loop_
 _symmetry_equiv_pos_site_id
 _symmetry_equiv_pos_as_xyz
  1  'x, y, z'
loop_
 _atom_site_type_symbol
 _atom_site_label
 _atom_site_symmetry_multiplicity
 _atom_site_fract_x
 _atom_site_fract_y
 _atom_site_fract_z
 _atom_site_occupancy
  Ba  Ba0  1  0.45489500  0.09277300  0.34941400  1
  Ba  Ba1  1  0.77534700  0.77534700  0.02734100  1
  Ba  Ba2  1  0.77682700  0.41612900  0.02664700  1
  Ba  Ba3  1  0.09277300  0.45489500  0.34941400  1
  Ba  Ba4  1  0.95130900  0.59635600  0.84720400  1
  Ba  Ba5  1  0.40552000  0.40552000  0.15821900  1
  Ba  Ba6  1  0.07944500  0.72051600  0.47586800  1
  Ba  Ba7  1  0.27316300  0.27316300  0.52915000  1
  Ba  Ba8  1  0.09514700  0.09514700  0.34959900  1
  Ba  Ba9  1  0.41612900  0.77682700  0.02664700  1
  Ba  Ba10  1  0.27478600  0.91804800  0.52827000  1
  Ba  Ba11  1  0.41282600  0.02111800  0.15942800  1
  Ba  Ba12  1  0.59635600  0.95130900  0.84720400  1
  Ba  Ba13  1  0.72051600  0.07944500  0.47586800  1
  Ba  Ba14  1  0.59902000  0.21638400  0.96332400  1
  Ba  Ba15  1  0.89903800  0.89903800  0.65244000  1
  Ba  Ba16  1  0.59888400  0.59888400  0.84568100  1
  Ba  Ba17  1  0.91804800  0.27478600  0.52827000  1
  Ba  Ba18  1  0.72140700  0.72140700  0.47436000  1
  Ba  Ba19  1  0.02111800  0.41282600  0.15942800  1
  Ba  Ba20  1  0.90153000  0.54339200  0.65272800  1
  Ba  Ba21  1  0.21638400  0.59902000  0.96332400  1
  Ba  Ba22  1  0.21952800  0.21952800  0.96342800  1
  Ba  Ba23  1  0.54339200  0.90153000  0.65272800  1
  In  In24  1  0.75798800  0.04798100  0.15093100  1
  In  In25  1  0.90283400  0.90283400  0.29670600  1
  In  In26  1  0.00272700  0.00272700  0.99557000  1
  In  In27  1  0.74726100  0.25289600  0.24980900  1
  In  In28  1  0.04798100  0.75798800  0.15093100  1
  In  In29  1  0.05483600  0.05483600  0.14833500  1
  In  In30  1  0.25289600  0.74726100  0.24980900  1
  In  In31  1  0.25779700  0.54511300  0.65292100  1
  In  In32  1  0.44759100  0.44759100  0.35186900  1
  In  In33  1  0.45543400  0.73445500  0.34847400  1
  In  In34  1  0.40192800  0.40192800  0.79477400  1
  In  In35  1  0.54511300  0.25779700  0.65292100  1
  In  In36  1  0.59849300  0.59849300  0.19782400  1
  In  In37  1  0.73445500  0.45543400  0.34847400  1
  In  In38  1  0.54388700  0.54388700  0.65228100  1
  In  In39  1  0.95051600  0.95051600  0.84907200  1
  In  In40  1  0.95015900  0.24644000  0.85107800  1
  In  In41  1  0.09351600  0.09351600  0.71475700  1
  In  In42  1  0.24644000  0.95015900  0.85107800  1
  N  N43  1  0.47587600  0.47587600  0.00773100  1
  N  N44  1  0.80843100  0.80843100  0.56288800  1
  N  N45  1  0.99876600  0.99876600  0.49937200  1
  N  N46  1  0.18769900  0.18769900  0.43764400  1
  N  N47  1  0.25504200  0.25504200  0.22866200  1
  N  N48  1  0.99776000  0.49624000  0.49927500  1
  N  N49  1  0.49624000  0.99776000  0.49927500  1
  N  N50  1  0.68489200  0.68489200  0.94093500  1
  N  N51  1  0.74715100  0.74715100  0.75227000  1
  N  N52  1  0.47930500  0.03449900  0.00902700  1
  N  N53  1  0.03449900  0.47930500  0.00902700  1
