# generated using pymatgen
data_Bi34Ir3Br37
_symmetry_space_group_name_H-M   'P 1'
_cell_length_a   13.09892400
_cell_length_b   13.20020943
_cell_length_c   17.39003165
_cell_angle_alpha   90.81055607
_cell_angle_beta   89.88218960
_cell_angle_gamma   118.94272326
_symmetry_Int_Tables_number   1
_chemical_formula_structural   Bi34Ir3Br37
_chemical_formula_sum   'Bi34 Ir3 Br37'
_cell_volume   2631.03410928
_cell_formula_units_Z   1
loop_
 _symmetry_equiv_pos_site_id
 _symmetry_equiv_pos_as_xyz
  1  'x, y, z'
loop_
 _atom_site_type_symbol
 _atom_site_label
 _atom_site_symmetry_multiplicity
 _atom_site_fract_x
 _atom_site_fract_y
 _atom_site_fract_z
 _atom_site_occupancy
  Bi  Bi0  1  0.85953200  0.02203300  0.41868500  1
  Bi  Bi1  1  0.14348300  0.14587300  0.42589600  1
  Bi  Bi2  1  0.11686300  0.98134700  0.57219000  1
  Bi  Bi3  1  0.60859100  0.14307400  0.57545300  1
  Bi  Bi4  1  0.79766800  0.27879300  0.76054300  1
  Bi  Bi5  1  0.19068600  0.53166600  0.91258300  1
  Bi  Bi6  1  0.00626000  0.14999900  0.57520100  1
  Bi  Bi7  1  0.50313800  0.21224300  0.23558400  1
  Bi  Bi8  1  0.05143600  0.18780800  0.09162800  1
  Bi  Bi9  1  0.94819500  0.81153100  0.90878500  1
  Bi  Bi10  1  0.47844700  0.19624800  0.75723700  1
  Bi  Bi11  1  0.32819200  0.55176400  0.75702300  1
  Bi  Bi12  1  0.69386800  0.21124900  0.13690800  1
  Bi  Bi13  1  0.17975400  0.66986300  0.77287400  1
  Bi  Bi14  1  0.84076000  0.87664500  0.56226900  1
  Bi  Bi15  1  0.86533100  0.04790000  0.90473700  1
  Bi  Bi16  1  0.18555600  0.13322100  0.90878600  1
  Bi  Bi17  1  0.19450500  0.70916500  0.23718600  1
  Bi  Bi18  1  0.99563100  0.86881600  0.41448500  1
  Bi  Bi19  1  0.38585800  0.85162500  0.42878900  1
  Bi  Bi20  1  0.28188300  0.48522800  0.23999400  1
  Bi  Bi21  1  0.46327900  0.61109600  0.42604200  1
  Bi  Bi22  1  0.84922300  0.46277800  0.57602500  1
  Bi  Bi23  1  0.53080100  0.38555700  0.57482800  1
  Bi  Bi24  1  0.71714400  0.51923900  0.75829700  1
  Bi  Bi25  1  0.46168000  0.63672000  0.90729500  1
  Bi  Bi26  1  0.36361800  0.80086200  0.89458600  1
  Bi  Bi27  1  0.14492900  0.54004900  0.42555700  1
  Bi  Bi28  1  0.80823600  0.45529300  0.07976500  1
  Bi  Bi29  1  0.51069400  0.80568200  0.24263500  1
  Bi  Bi30  1  0.81458800  0.86747700  0.09061000  1
  Bi  Bi31  1  0.69539800  0.47080500  0.22864300  1
  Bi  Bi32  1  0.13367600  0.94981400  0.09497400  1
  Bi  Bi33  1  0.53285700  0.33019200  0.08246400  1
  Ir  Ir34  1  0.00055600  0.00006500  0.99986100  1
  Ir  Ir35  1  0.33099200  0.66653800  0.33526600  1
  Ir  Ir36  1  0.66446900  0.33109900  0.66664400  1
  Br  Br37  1  0.08817700  0.73546300  0.00854600  1
  Br  Br38  1  0.35206900  0.66339400  0.10890400  1
  Br  Br39  1  0.05461300  0.47624000  0.16696500  1
  Br  Br40  1  0.92607200  0.68253800  0.66526100  1
  Br  Br41  1  0.55522700  0.57157500  0.17336600  1
  Br  Br42  1  0.73710200  0.65424300  0.99414000  1
  Br  Br43  1  0.19622200  0.14564500  0.20492900  1
  Br  Br44  1  0.72211000  0.53818800  0.46863400  1
  Br  Br45  1  0.58163800  0.60079700  0.66340400  1
  Br  Br46  1  0.87361000  0.48172900  0.86603000  1
  Br  Br47  1  0.69422500  0.77366200  0.34155800  1
  Br  Br48  1  0.91913200  0.26776500  0.99128900  1
  Br  Br49  1  0.01479900  0.40903300  0.66373800  1
  Br  Br50  1  0.45545000  0.18172200  0.46610000  1
  Br  Br51  1  0.60768600  0.01178400  0.34661400  1
  Br  Br52  1  0.27330900  0.46449700  0.53357700  1
  Br  Br53  1  0.39538900  0.98615500  0.66090000  1
  Br  Br54  1  0.60582000  0.12264900  0.86246400  1
  Br  Br55  1  0.05833700  0.20781700  0.80282200  1
  Br  Br56  1  0.94707700  0.80224100  0.20188800  1
  Br  Br57  1  0.84699100  0.06263000  0.19800400  1
  Br  Br58  1  0.22762300  0.92270600  0.33955800  1
  Br  Br59  1  0.78828500  0.84236200  0.80306300  1
  Br  Br60  1  0.98639400  0.60353700  0.33932300  1
  Br  Br61  1  0.31336000  0.24712200  0.66754400  1
  Br  Br62  1  0.53735100  0.81032700  0.53640500  1
  Br  Br63  1  0.81801900  0.26394600  0.46982600  1
  Br  Br64  1  0.51989100  0.39774100  0.86521700  1
  Br  Br65  1  0.35639400  0.08933500  0.99894800  1
  Br  Br66  1  0.65220400  0.91964400  0.00311300  1
  Br  Br67  1  0.15631300  0.93751200  0.80575500  1
  Br  Br68  1  0.27139600  0.34392200  0.01192600  1
  Br  Br69  1  0.75858700  0.06793900  0.66840500  1
  Br  Br70  1  0.18440600  0.72906400  0.53486900  1
  Br  Br71  1  0.39870300  0.38621500  0.34301300  1
  Br  Br72  1  0.07825900  0.31160100  0.33647100  1
  Br  Br73  1  0.41218300  0.94640200  0.17354500  1
