# generated using pymatgen
data_CdI2
_symmetry_space_group_name_H-M   'P 1'
_cell_length_a   4.34146390
_cell_length_b   4.34146390
_cell_length_c   103.15345200
_cell_angle_alpha   90.00000000
_cell_angle_beta   90.00000000
_cell_angle_gamma   119.99999850
_symmetry_Int_Tables_number   1
_chemical_formula_structural   CdI2
_chemical_formula_sum   'Cd14 I28'
_cell_volume   1683.78560740
_cell_formula_units_Z   14
loop_
 _symmetry_equiv_pos_site_id
 _symmetry_equiv_pos_as_xyz
  1  'x, y, z'
loop_
 _atom_site_type_symbol
 _atom_site_label
 _atom_site_symmetry_multiplicity
 _atom_site_fract_x
 _atom_site_fract_y
 _atom_site_fract_z
 _atom_site_occupancy
  Cd  Cd0  1  0.00000000  0.00000000  0.80357400  1
  Cd  Cd1  1  0.00000000  0.00000000  0.51784500  1
  Cd  Cd2  1  0.66666700  0.33333300  0.30357800  1
  Cd  Cd3  1  0.66666700  0.33333300  0.16071400  1
  Cd  Cd4  1  0.00000000  0.00000000  0.66071100  1
  Cd  Cd5  1  0.00000000  0.00000000  0.23215000  1
  Cd  Cd6  1  0.00000000  0.00000000  0.94643000  1
  Cd  Cd7  1  0.66666700  0.33333300  0.73214100  1
  Cd  Cd8  1  0.66666700  0.33333300  0.01785300  1
  Cd  Cd9  1  0.66666700  0.33333300  0.58928200  1
  Cd  Cd10  1  0.66666700  0.33333300  0.44644100  1
  Cd  Cd11  1  0.00000000  0.00000000  0.08928600  1
  Cd  Cd12  1  0.00000000  0.00000000  0.37499600  1
  Cd  Cd13  1  0.00000000  0.00000000  0.87500000  1
  I  I14  1  0.66666700  0.33333300  0.07253600  1
  I  I15  1  0.33333300  0.66666700  0.53459500  1
  I  I16  1  0.33333300  0.66666700  0.17746500  1
  I  I17  1  0.33333300  0.66666700  0.10604400  1
  I  I18  1  0.33333300  0.66666700  0.46317600  1
  I  I19  1  0.66666700  0.33333300  0.78683200  1
  I  I20  1  0.00000000  0.00000000  0.71538100  1
  I  I21  1  0.00000000  0.00000000  0.28681000  1
  I  I22  1  0.66666700  0.33333300  0.64395300  1
  I  I23  1  0.33333300  0.66666700  0.32032500  1
  I  I24  1  0.33333300  0.66666700  0.60604200  1
  I  I25  1  0.00000000  0.00000000  0.14395700  1
  I  I26  1  0.33333300  0.66666700  0.82032800  1
  I  I27  1  0.33333300  0.66666700  0.96316900  1
  I  I28  1  0.00000000  0.00000000  0.00112600  1
  I  I29  1  0.66666700  0.33333300  0.85826200  1
  I  I30  1  0.66666700  0.33333300  0.92967700  1
  I  I31  1  0.33333300  0.66666700  0.67746100  1
  I  I32  1  0.66666700  0.33333300  0.21540100  1
  I  I33  1  0.33333300  0.66666700  0.03460400  1
  I  I34  1  0.33333300  0.66666700  0.89173800  1
  I  I35  1  0.33333300  0.66666700  0.24890300  1
  I  I36  1  0.66666700  0.33333300  0.35825900  1
  I  I37  1  0.33333300  0.66666700  0.39173700  1
  I  I38  1  0.66666700  0.33333300  0.50109400  1
  I  I39  1  0.00000000  0.00000000  0.57254700  1
  I  I40  1  0.00000000  0.00000000  0.42968300  1
  I  I41  1  0.33333300  0.66666700  0.74889400  1
