# generated using pymatgen
data_Na11Zr8Si7P5O48
_symmetry_space_group_name_H-M   'P 1'
_cell_length_a   9.14653020
_cell_length_b   9.16047104
_cell_length_c   18.58518613
_cell_angle_alpha   60.91382880
_cell_angle_beta   60.74268026
_cell_angle_gamma   60.23518394
_symmetry_Int_Tables_number   1
_chemical_formula_structural   Na11Zr8Si7P5O48
_chemical_formula_sum   'Na11 Zr8 Si7 P5 O48'
_cell_volume   1116.69336076
_cell_formula_units_Z   1
loop_
 _symmetry_equiv_pos_site_id
 _symmetry_equiv_pos_as_xyz
  1  'x, y, z'
loop_
 _atom_site_type_symbol
 _atom_site_label
 _atom_site_symmetry_multiplicity
 _atom_site_fract_x
 _atom_site_fract_y
 _atom_site_fract_z
 _atom_site_occupancy
  Na  Na0  1  0.24177000  0.09420100  0.15615900  1
  Na  Na1  1  0.51665200  0.00445300  0.26144600  1
  Na  Na2  1  0.61593100  0.40335200  0.11995500  1
  Na  Na3  1  0.24857600  0.08239000  0.65934200  1
  Na  Na4  1  0.38214200  0.61121500  0.37749600  1
  Na  Na5  1  0.51786500  0.00162000  0.75729600  1
  Na  Na6  1  0.92732200  0.72352100  0.07272000  1
  Na  Na7  1  0.59892500  0.40190500  0.62397800  1
  Na  Na8  1  0.37026600  0.61018300  0.88294700  1
  Na  Na9  1  0.00686500  0.48046100  0.48754900  1
  Na  Na10  1  0.91848500  0.75406000  0.58876200  1
  Zr  Zr11  1  0.14763800  0.64860200  0.28117400  1
  Zr  Zr12  1  0.65272000  0.14744300  0.02631900  1
  Zr  Zr13  1  0.14421500  0.64691400  0.78397200  1
  Zr  Zr14  1  0.34916900  0.85579400  0.46969600  1
  Zr  Zr15  1  0.64722200  0.15097300  0.52387100  1
  Zr  Zr16  1  0.84839300  0.34611500  0.22459200  1
  Zr  Zr17  1  0.34726600  0.85270200  0.97226100  1
  Zr  Zr18  1  0.85198300  0.35131000  0.72317900  1
  Si  Si19  1  0.25372600  0.46286000  0.12296800  1
  Si  Si20  1  0.04853500  0.95004400  0.37543200  1
  Si  Si21  1  0.45985400  0.25237000  0.36759800  1
  Si  Si22  1  0.53088500  0.75321900  0.13095900  1
  Si  Si23  1  0.25244100  0.46375700  0.62141700  1
  Si  Si24  1  0.05346300  0.95685000  0.87282600  1
  Si  Si25  1  0.53613800  0.74808100  0.62923400  1
  P  P26  1  0.95500400  0.03954200  0.12661000  1
  P  P27  1  0.74654800  0.53510100  0.38184200  1
  P  P28  1  0.46790400  0.24826000  0.86762100  1
  P  P29  1  0.95589000  0.04184900  0.62691900  1
  P  P30  1  0.74332500  0.53995300  0.87931200  1
  O  O31  1  0.11130800  0.00168900  0.04407100  1
  O  O32  1  0.00506400  0.11355100  0.28876000  1
  O  O33  1  0.07105100  0.42987400  0.14931300  1
  O  O34  1  0.26883800  0.63073800  0.03016400  1
  O  O35  1  0.11043600  0.00355900  0.54461300  1
  O  O36  1  0.42390600  0.27890300  0.11335000  1
  O  O37  1  0.25364200  0.51551900  0.19519600  1
  O  O38  1  0.06239400  0.76104200  0.37856200  1
  O  O39  1  0.00955600  0.12323800  0.78665900  1
  O  O40  1  0.27432400  0.42365000  0.36751200  1
  O  O41  1  0.43442100  0.07052600  0.38929500  1
  O  O42  1  0.06990100  0.43247700  0.64292400  1
  O  O43  1  0.48229900  0.76266200  0.05431700  1
  O  O44  1  0.77630600  0.06849500  0.12182100  1
  O  O45  1  0.35716700  0.74787400  0.22031400  1
  O  O46  1  0.61692300  0.28990700  0.27392200  1
  O  O47  1  0.24132600  0.92331700  0.37445200  1
  O  O48  1  0.51567900  0.24009000  0.44347400  1
  O  O49  1  0.26774700  0.62908700  0.52954400  1
  O  O50  1  0.56411900  0.93618700  0.10532800  1
  O  O51  1  0.71282800  0.58490400  0.14185600  1
  O  O52  1  0.42079500  0.27570400  0.61771600  1
  O  O53  1  0.94136400  0.21020700  0.13139400  1
  O  O54  1  0.23916600  0.51985000  0.69596500  1
  O  O55  1  0.75894300  0.47749800  0.31259100  1
  O  O56  1  0.07446000  0.77015500  0.87107200  1
  O  O57  1  0.58372100  0.70893600  0.38381800  1
  O  O58  1  0.29818400  0.41340800  0.86094100  1
  O  O59  1  0.43943200  0.07863800  0.88852700  1
  O  O60  1  0.71345100  0.38858400  0.47248500  1
  O  O61  1  0.48437500  0.75778200  0.55404400  1
  O  O62  1  0.77711600  0.06217000  0.62612400  1
  O  O63  1  0.36787200  0.73169100  0.72045700  1
  O  O64  1  0.62072500  0.27590700  0.77877100  1
  O  O65  1  0.24439200  0.93278000  0.87280200  1
  O  O66  1  0.51932700  0.23759800  0.93909400  1
  O  O67  1  0.91667900  0.56373700  0.36084500  1
  O  O68  1  0.56859100  0.92882600  0.60820400  1
  O  O69  1  0.72353200  0.57918600  0.63461200  1
  O  O70  1  0.98844400  0.87948400  0.20753200  1
  O  O71  1  0.93958900  0.22031600  0.62700900  1
  O  O72  1  0.74746700  0.48759600  0.80929500  1
  O  O73  1  0.58262400  0.71544100  0.88276000  1
  O  O74  1  0.88707900  0.99743000  0.46315900  1
  O  O75  1  0.71038300  0.39178000  0.96788600  1
  O  O76  1  0.91711900  0.56653500  0.85273400  1
  O  O77  1  0.99575900  0.88850200  0.70853900  1
  O  O78  1  0.88905800  0.99787100  0.96072500  1
