# generated using pymatgen
data_Zn(FeO2)2
_symmetry_space_group_name_H-M   'P 1'
_cell_length_a   6.11272612
_cell_length_b   6.08756508
_cell_length_c   36.26618510
_cell_angle_alpha   60.51575225
_cell_angle_beta   58.97985289
_cell_angle_gamma   58.51704248
_symmetry_Int_Tables_number   1
_chemical_formula_structural   Zn(FeO2)2
_chemical_formula_sum   'Zn11 Fe22 O44'
_cell_volume   939.22041552
_cell_formula_units_Z   11
loop_
 _symmetry_equiv_pos_site_id
 _symmetry_equiv_pos_as_xyz
  1  'x, y, z'
loop_
 _atom_site_type_symbol
 _atom_site_label
 _atom_site_symmetry_multiplicity
 _atom_site_fract_x
 _atom_site_fract_y
 _atom_site_fract_z
 _atom_site_occupancy
  Zn  Zn0  1  0.10270400  0.09210900  0.01627100  1
  Zn  Zn1  1  0.54415500  0.98407700  0.08470400  1
  Zn  Zn2  1  0.54267100  0.98728400  0.25077500  1
  Zn  Zn3  1  0.11399800  0.09113400  0.50877800  1
  Zn  Zn4  1  0.54589400  0.98844300  0.41649400  1
  Zn  Zn5  1  0.51725600  0.98490800  0.58718300  1
  Zn  Zn6  1  0.14019000  0.11944400  0.68663300  1
  Zn  Zn7  1  0.00363000  0.49655800  0.74989300  1
  Zn  Zn8  1  0.14087100  0.12038600  0.85386400  1
  Zn  Zn9  1  0.99461300  0.51249500  0.58588100  1
  Zn  Zn10  1  0.00074800  0.50429100  0.91562200  1
  Fe  Fe11  1  0.50881200  0.53226700  0.99902900  1
  Fe  Fe12  1  0.11594200  0.07975000  0.18065400  1
  Fe  Fe13  1  0.47679800  0.51083200  0.08626200  1
  Fe  Fe14  1  0.12101100  0.08730900  0.34489500  1
  Fe  Fe15  1  0.54551000  0.52265900  0.16211800  1
  Fe  Fe16  1  0.48233000  0.51131200  0.25241600  1
  Fe  Fe17  1  0.85790300  0.87886000  0.14879000  1
  Fe  Fe18  1  0.54730600  0.52504200  0.32753400  1
  Fe  Fe19  1  0.48131400  0.50575000  0.41820000  1
  Fe  Fe20  1  0.85648200  0.87609300  0.31562000  1
  Fe  Fe21  1  0.55403500  0.51783900  0.49328200  1
  Fe  Fe22  1  0.49936300  0.49702800  0.58265800  1
  Fe  Fe23  1  0.87005100  0.87386400  0.48138800  1
  Fe  Fe24  1  0.50057400  0.49001500  0.66841900  1
  Fe  Fe25  1  0.49685200  0.49558300  0.74994000  1
  Fe  Fe26  1  0.86757800  0.87559200  0.64815800  1
  Fe  Fe27  1  0.49541500  0.50830500  0.83433700  1
  Fe  Fe28  1  0.49849300  0.00138300  0.75036000  1
  Fe  Fe29  1  0.49417800  0.50284600  0.91750900  1
  Fe  Fe30  1  0.86041000  0.87750200  0.81293000  1
  Fe  Fe31  1  0.50289000  0.01575100  0.91434700  1
  Fe  Fe32  1  0.85340200  0.88503600  0.98073500  1
  O  O33  1  0.28200100  0.24801300  0.12113000  1
  O  O34  1  0.26463500  0.71944900  0.04297600  1
  O  O35  1  0.71606900  0.27964700  0.04102600  1
  O  O36  1  0.26094900  0.73914000  0.12890900  1
  O  O37  1  0.68155000  0.78508500  0.04288800  1
  O  O38  1  0.70023800  0.26867700  0.12891400  1
  O  O39  1  0.27637800  0.71806500  0.20756700  1
  O  O40  1  0.28103800  0.25027600  0.28545600  1
  O  O41  1  0.73758900  0.26858200  0.20723200  1
  O  O42  1  0.76188500  0.74218600  0.12503600  1
  O  O43  1  0.25892900  0.73748700  0.29578400  1
  O  O44  1  0.68483400  0.77552300  0.21170300  1
  O  O45  1  0.70316800  0.26771000  0.29533400  1
  O  O46  1  0.28788700  0.25767500  0.44904500  1
  O  O47  1  0.27800900  0.72489500  0.37281300  1
  O  O48  1  0.74380700  0.27163500  0.37230800  1
  O  O49  1  0.76403900  0.74321900  0.29096500  1
  O  O50  1  0.26535000  0.72661700  0.46252600  1
  O  O51  1  0.70892000  0.25704000  0.46210100  1
  O  O52  1  0.68043100  0.77418700  0.37876500  1
  O  O53  1  0.26837300  0.70681900  0.54207200  1
  O  O54  1  0.26550000  0.26441800  0.61897200  1
  O  O55  1  0.72483200  0.25462600  0.54139100  1
  O  O56  1  0.75700200  0.74578800  0.45936900  1
  O  O57  1  0.26675300  0.73185900  0.62596200  1
  O  O58  1  0.28668400  0.24012800  0.70952300  1
  O  O59  1  0.74820400  0.26854500  0.62240600  1
  O  O60  1  0.27576800  0.25257800  0.78612900  1
  O  O61  1  0.73317500  0.73336900  0.54761800  1
  O  O62  1  0.26744200  0.71631600  0.71056200  1
  O  O63  1  0.72034200  0.24221200  0.71132900  1
  O  O64  1  0.73552100  0.73234900  0.63037500  1
  O  O65  1  0.27572100  0.26001800  0.87447700  1
  O  O66  1  0.26793200  0.75322400  0.79113100  1
  O  O67  1  0.72874800  0.74668600  0.71386300  1
  O  O68  1  0.73595400  0.26951000  0.79181200  1
  O  O69  1  0.27201200  0.26702300  0.95291600  1
  O  O70  1  0.27290400  0.71893800  0.87798100  1
  O  O71  1  0.71946900  0.26365000  0.87764600  1
  O  O72  1  0.72163900  0.75711500  0.79130000  1
  O  O73  1  0.26725100  0.74427200  0.95823900  1
  O  O74  1  0.72817700  0.74075300  0.87853200  1
  O  O75  1  0.71654400  0.28210900  0.95889300  1
  O  O76  1  0.73297000  0.76083800  0.95601000  1
