# generated using pymatgen
data_Co(Bi3O5)4
_symmetry_space_group_name_H-M   'P 1'
_cell_length_a   8.90127584
_cell_length_b   8.90127584
_cell_length_c   8.90127584
_cell_angle_alpha   109.47122063
_cell_angle_beta   109.47122063
_cell_angle_gamma   109.47122063
_symmetry_Int_Tables_number   1
_chemical_formula_structural   Co(Bi3O5)4
_chemical_formula_sum   'Co1 Bi12 O20'
_cell_volume   542.91880836
_cell_formula_units_Z   1
loop_
 _symmetry_equiv_pos_site_id
 _symmetry_equiv_pos_as_xyz
  1  'x, y, z'
loop_
 _atom_site_type_symbol
 _atom_site_label
 _atom_site_symmetry_multiplicity
 _atom_site_fract_x
 _atom_site_fract_y
 _atom_site_fract_z
 _atom_site_occupancy
  Co  Co0  1  0.00000000  0.00000000  0.00000000  1
  Bi  Bi1  1  0.86091300  0.69694700  0.19283000  1
  Bi  Bi2  1  0.33191700  0.83603400  0.13908700  1
  Bi  Bi3  1  0.49588300  0.30305300  0.16396600  1
  Bi  Bi4  1  0.83603400  0.13908700  0.33191700  1
  Bi  Bi5  1  0.66808300  0.80717000  0.50411700  1
  Bi  Bi6  1  0.16396600  0.49588300  0.30305300  1
  Bi  Bi7  1  0.80717000  0.50411700  0.66808300  1
  Bi  Bi8  1  0.30305300  0.16396600  0.49588300  1
  Bi  Bi9  1  0.19283000  0.86091300  0.69694700  1
  Bi  Bi10  1  0.50411700  0.66808300  0.80717000  1
  Bi  Bi11  1  0.69694700  0.19283000  0.86091300  1
  Bi  Bi12  1  0.13908700  0.33191700  0.83603400  1
  O  O13  1  0.00000000  0.00000000  0.39140000  1
  O  O14  1  0.12306700  0.74181700  0.35782600  1
  O  O15  1  0.61875100  0.87693300  0.23476000  1
  O  O16  1  0.25818300  0.38124900  0.61600900  1
  O  O17  1  0.00000000  0.00000000  0.79577500  1
  O  O18  1  0.87693300  0.23476000  0.61875100  1
  O  O19  1  0.35782600  0.12306700  0.74181700  1
  O  O20  1  0.76524000  0.64217400  0.38399100  1
  O  O21  1  0.00000000  0.79577500  0.00000000  1
  O  O22  1  0.20422500  0.20422500  0.20422500  1
  O  O23  1  0.79577500  0.00000000  0.00000000  1
  O  O24  1  0.00000000  0.39140000  0.00000000  1
  O  O25  1  0.60860000  0.60860000  0.60860000  1
  O  O26  1  0.39140000  0.00000000  0.00000000  1
  O  O27  1  0.23476000  0.61875100  0.87693300  1
  O  O28  1  0.38124900  0.61600900  0.25818300  1
  O  O29  1  0.38399100  0.76524000  0.64217400  1
  O  O30  1  0.64217400  0.38399100  0.76524000  1
  O  O31  1  0.74181700  0.35782600  0.12306700  1
  O  O32  1  0.61600900  0.25818300  0.38124900  1
