# generated using pymatgen
data_CdI2
_symmetry_space_group_name_H-M   'P 1'
_cell_length_a   4.34452523
_cell_length_b   4.34452523
_cell_length_c   110.58151500
_cell_angle_alpha   90.00000000
_cell_angle_beta   90.00000000
_cell_angle_gamma   119.99998835
_symmetry_Int_Tables_number   1
_chemical_formula_structural   CdI2
_chemical_formula_sum   'Cd15 I30'
_cell_volume   1807.58141157
_cell_formula_units_Z   15
loop_
 _symmetry_equiv_pos_site_id
 _symmetry_equiv_pos_as_xyz
  1  'x, y, z'
loop_
 _atom_site_type_symbol
 _atom_site_label
 _atom_site_symmetry_multiplicity
 _atom_site_fract_x
 _atom_site_fract_y
 _atom_site_fract_z
 _atom_site_occupancy
  Cd  Cd0  1  0.00000000  0.00000000  0.01666300  1
  Cd  Cd1  1  0.00000000  0.00000000  0.81666600  1
  Cd  Cd2  1  0.33333300  0.66666700  0.54999300  1
  Cd  Cd3  1  0.00000000  0.00000000  0.61666900  1
  Cd  Cd4  1  0.00000000  0.00000000  0.28333400  1
  Cd  Cd5  1  0.00000000  0.00000000  0.34999800  1
  Cd  Cd6  1  0.00000000  0.00000000  0.88334800  1
  Cd  Cd7  1  0.00000000  0.00000000  0.14999600  1
  Cd  Cd8  1  0.00000000  0.00000000  0.48332700  1
  Cd  Cd9  1  0.33333300  0.66666700  0.08332500  1
  Cd  Cd10  1  0.00000000  0.00000000  0.21667200  1
  Cd  Cd11  1  0.00000000  0.00000000  0.68332900  1
  Cd  Cd12  1  0.00000000  0.00000000  0.95000200  1
  Cd  Cd13  1  0.00000000  0.00000000  0.41665900  1
  Cd  Cd14  1  0.00000000  0.00000000  0.74998600  1
  I  I15  1  0.33333300  0.66666700  0.73434300  1
  I  I16  1  0.66666700  0.33333300  0.56564800  1
  I  I17  1  0.33333300  0.66666700  0.20102400  1
  I  I18  1  0.66666700  0.33333300  0.43230500  1
  I  I19  1  0.33333300  0.66666700  0.86770200  1
  I  I20  1  0.66666700  0.33333300  0.36565100  1
  I  I21  1  0.66666700  0.33333300  0.89899400  1
  I  I22  1  0.33333300  0.66666700  0.46769000  1
  I  I23  1  0.66666700  0.33333300  0.96564800  1
  I  I24  1  0.66666700  0.33333300  0.23231700  1
  I  I25  1  0.66666700  0.33333300  0.69898200  1
  I  I26  1  0.33333300  0.66666700  0.60102500  1
  I  I27  1  0.66666700  0.33333300  0.76563600  1
  I  I28  1  0.33333300  0.66666700  0.66769000  1
  I  I29  1  0.33333300  0.66666700  0.40101300  1
  I  I30  1  0.33333300  0.66666700  0.80102500  1
  I  I31  1  0.66666700  0.33333300  0.63231500  1
  I  I32  1  0.00000000  0.00000000  0.53434900  1
  I  I33  1  0.33333300  0.66666700  0.93435900  1
  I  I34  1  0.66666700  0.33333300  0.09897500  1
  I  I35  1  0.33333300  0.66666700  0.00102500  1
  I  I36  1  0.33333300  0.66666700  0.13435600  1
  I  I37  1  0.00000000  0.00000000  0.06767500  1
  I  I38  1  0.66666700  0.33333300  0.03231500  1
  I  I39  1  0.33333300  0.66666700  0.26769100  1
  I  I40  1  0.66666700  0.33333300  0.29898000  1
  I  I41  1  0.33333300  0.66666700  0.33435700  1
  I  I42  1  0.66666700  0.33333300  0.83231600  1
  I  I43  1  0.66666700  0.33333300  0.16564700  1
  I  I44  1  0.66666700  0.33333300  0.49897800  1
