# generated using pymatgen
data_Nb2O5
_symmetry_space_group_name_H-M   'P 1'
_cell_length_a   3.86273200
_cell_length_b   14.71097224
_cell_length_c   15.43864190
_cell_angle_alpha   104.89077689
_cell_angle_beta   97.18336953
_cell_angle_gamma   97.53233096
_symmetry_Int_Tables_number   1
_chemical_formula_structural   Nb2O5
_chemical_formula_sum   'Nb16 O40'
_cell_volume   828.90028385
_cell_formula_units_Z   8
loop_
 _symmetry_equiv_pos_site_id
 _symmetry_equiv_pos_as_xyz
  1  'x, y, z'
loop_
 _atom_site_type_symbol
 _atom_site_label
 _atom_site_symmetry_multiplicity
 _atom_site_fract_x
 _atom_site_fract_y
 _atom_site_fract_z
 _atom_site_occupancy
  Nb  Nb0  1  0.16956100  0.24709400  0.09664600  1
  Nb  Nb1  1  0.30575700  0.51177900  0.09772200  1
  Nb  Nb2  1  0.96103200  0.02270900  0.89865900  1
  Nb  Nb3  1  0.32870700  0.32897900  0.37121800  1
  Nb  Nb4  1  0.63670000  0.67217200  0.62891600  1
  Nb  Nb5  1  0.82811000  0.75346600  0.90291900  1
  Nb  Nb6  1  0.53157400  0.40860800  0.63226800  1
  Nb  Nb7  1  0.78263500  0.93977800  0.62873500  1
  Nb  Nb8  1  0.69376500  0.48833100  0.90159700  1
  Nb  Nb9  1  0.03879400  0.97831100  0.10110100  1
  Nb  Nb10  1  0.21936600  0.06121100  0.37090500  1
  Nb  Nb11  1  0.55780100  0.21651400  0.89954500  1
  Nb  Nb12  1  0.61496900  0.86208500  0.36544000  1
  Nb  Nb13  1  0.38810700  0.13868300  0.63393900  1
  Nb  Nb14  1  0.46577700  0.59258300  0.36783000  1
  Nb  Nb15  1  0.44082900  0.78363000  0.09960400  1
  O  O16  1  0.64164700  0.23228800  0.05455800  1
  O  O17  1  0.62844300  0.34413600  0.91020500  1
  O  O18  1  0.29823500  0.09237800  0.50152700  1
  O  O19  1  0.12876500  0.89755400  0.35784000  1
  O  O20  1  0.48704400  0.06099900  0.91311800  1
  O  O21  1  0.38773200  0.54855300  0.22061300  1
  O  O22  1  0.52696500  0.83441300  0.22232900  1
  O  O23  1  0.05536500  0.18612000  0.92587400  1
  O  O24  1  0.12048300  0.01796500  0.22366000  1
  O  O25  1  0.75482700  0.72923100  0.78242000  1
  O  O26  1  0.24168000  0.27192500  0.21748700  1
  O  O27  1  0.77281200  0.62662600  0.91815100  1
  O  O28  1  0.94295000  0.81449200  0.07368000  1
  O  O29  1  0.45398400  0.26553400  0.64562200  1
  O  O30  1  0.07433200  0.09053100  0.06125800  1
  O  O31  1  0.58651000  0.54114500  0.63734900  1
  O  O32  1  0.01432200  0.39607500  0.64064200  1
  O  O33  1  0.30871500  0.97978800  0.63920800  1
  O  O34  1  0.47186600  0.16504500  0.77678300  1
  O  O35  1  0.61136100  0.45153600  0.77877400  1
  O  O36  1  0.27891300  0.18319300  0.36347500  1
  O  O37  1  0.41351500  0.45984500  0.36269400  1
  O  O38  1  0.83300700  0.31444100  0.35133000  1
  O  O39  1  0.37110300  0.65589200  0.08805100  1
  O  O40  1  0.98425500  0.60469800  0.35832500  1
  O  O41  1  0.88067700  0.98430400  0.77600900  1
  O  O42  1  0.21142100  0.48601200  0.93722300  1
  O  O43  1  0.72408600  0.81811900  0.63696900  1
  O  O44  1  0.42472100  0.35795400  0.49999400  1
  O  O45  1  0.78764000  0.51378000  0.06164800  1
  O  O46  1  0.57015200  0.64351200  0.49998000  1
  O  O47  1  0.70298900  0.90781100  0.49799700  1
  O  O48  1  0.69241700  0.02065500  0.35984300  1
  O  O49  1  0.87281500  0.10302600  0.64095500  1
  O  O50  1  0.51259100  0.94009600  0.08689100  1
  O  O51  1  0.35639800  0.76861100  0.94480700  1
  O  O52  1  0.22632000  0.37383000  0.08090700  1
  O  O53  1  0.54716400  0.73516500  0.35421200  1
  O  O54  1  0.16524500  0.68563300  0.64838200  1
  O  O55  1  0.92436200  0.91049300  0.93857000  1
