# generated using pymatgen
data_K2In3AgSe6
_symmetry_space_group_name_H-M   'P 1'
_cell_length_a   8.39636358
_cell_length_b   8.39636358
_cell_length_c   21.92997684
_cell_angle_alpha   84.42114742
_cell_angle_beta   84.42114742
_cell_angle_gamma   90.14307722
_symmetry_Int_Tables_number   1
_chemical_formula_structural   K2In3AgSe6
_chemical_formula_sum   'K8 In12 Ag4 Se24'
_cell_volume   1531.31689138
_cell_formula_units_Z   4
loop_
 _symmetry_equiv_pos_site_id
 _symmetry_equiv_pos_as_xyz
  1  'x, y, z'
loop_
 _atom_site_type_symbol
 _atom_site_label
 _atom_site_symmetry_multiplicity
 _atom_site_fract_x
 _atom_site_fract_y
 _atom_site_fract_z
 _atom_site_occupancy
  K  K0  1  0.60722700  0.25086800  0.58229400  1
  K  K1  1  0.74913200  0.39277300  0.91770600  1
  K  K2  1  0.89561400  0.79210500  0.41762100  1
  K  K3  1  0.79210500  0.89561400  0.91762100  1
  K  K4  1  0.39277300  0.74913200  0.41770600  1
  K  K5  1  0.10438600  0.20789500  0.58237900  1
  K  K6  1  0.25086800  0.60722700  0.08229400  1
  K  K7  1  0.20789500  0.10438600  0.08237900  1
  In  In8  1  0.27743700  0.15179400  0.88686300  1
  In  In9  1  0.72256300  0.84820600  0.11313700  1
  In  In10  1  0.93205300  0.06794700  0.25000000  1
  In  In11  1  0.55958800  0.44041200  0.75000000  1
  In  In12  1  0.65158000  0.27899500  0.38751500  1
  In  In13  1  0.06794700  0.93205300  0.75000000  1
  In  In14  1  0.34842000  0.72100500  0.61248500  1
  In  In15  1  0.15179400  0.27743700  0.38686300  1
  In  In16  1  0.84820600  0.72256300  0.61313700  1
  In  In17  1  0.72100500  0.34842000  0.11248500  1
  In  In18  1  0.44041200  0.55958800  0.25000000  1
  In  In19  1  0.27899500  0.65158000  0.88751500  1
  Ag  Ag20  1  0.44018100  0.06660300  0.24987400  1
  Ag  Ag21  1  0.93339700  0.55981900  0.25012600  1
  Ag  Ag22  1  0.06660300  0.44018100  0.74987400  1
  Ag  Ag23  1  0.55981900  0.93339700  0.75012600  1
  Se  Se24  1  0.43799400  0.33348400  0.17541700  1
  Se  Se25  1  0.82950900  0.44031800  0.67662000  1
  Se  Se26  1  0.02745600  0.66839800  0.82472600  1
  Se  Se27  1  0.97141200  0.83470200  0.17705200  1
  Se  Se28  1  0.16529800  0.02858800  0.32294800  1
  Se  Se29  1  0.88364900  0.24160200  0.45986200  1
  Se  Se30  1  0.11635100  0.75839800  0.54013800  1
  Se  Se31  1  0.55968200  0.17049100  0.82338000  1
  Se  Se32  1  0.75839800  0.11635100  0.04013800  1
  Se  Se33  1  0.17049100  0.55968200  0.32338000  1
  Se  Se34  1  0.33348400  0.43799400  0.67541700  1
  Se  Se35  1  0.83470200  0.97141200  0.67705200  1
  Se  Se36  1  0.02858800  0.16529800  0.82294800  1
  Se  Se37  1  0.72218200  0.61703600  0.04000800  1
  Se  Se38  1  0.33160200  0.97254400  0.67527400  1
  Se  Se39  1  0.44031800  0.82950900  0.17662000  1
  Se  Se40  1  0.97254400  0.33160200  0.17527400  1
  Se  Se41  1  0.61703600  0.72218200  0.54000800  1
  Se  Se42  1  0.38296400  0.27781800  0.45999200  1
  Se  Se43  1  0.27781800  0.38296400  0.95999200  1
  Se  Se44  1  0.66839800  0.02745600  0.32472600  1
  Se  Se45  1  0.66651600  0.56200600  0.32458300  1
  Se  Se46  1  0.24160200  0.88364900  0.95986200  1
  Se  Se47  1  0.56200600  0.66651600  0.82458300  1
