# generated using pymatgen
data_Bi2Pb2S5
_symmetry_space_group_name_H-M   'P 1'
_cell_length_a   4.08703000
_cell_length_b   19.67637800
_cell_length_c   24.46415800
_cell_angle_alpha   90.00000000
_cell_angle_beta   90.00000000
_cell_angle_gamma   90.00000000
_symmetry_Int_Tables_number   1
_chemical_formula_structural   Bi2Pb2S5
_chemical_formula_sum   'Bi16 Pb16 S40'
_cell_volume   1967.35736578
_cell_formula_units_Z   8
loop_
 _symmetry_equiv_pos_site_id
 _symmetry_equiv_pos_as_xyz
  1  'x, y, z'
loop_
 _atom_site_type_symbol
 _atom_site_label
 _atom_site_symmetry_multiplicity
 _atom_site_fract_x
 _atom_site_fract_y
 _atom_site_fract_z
 _atom_site_occupancy
  Bi  Bi0  1  0.25000000  0.09490600  0.30099700  1
  Bi  Bi1  1  0.25000000  0.98302600  0.15300400  1
  Bi  Bi2  1  0.75000000  0.48302600  0.34699600  1
  Bi  Bi3  1  0.75000000  0.18671400  0.17001500  1
  Bi  Bi4  1  0.75000000  0.59490600  0.19900300  1
  Bi  Bi5  1  0.75000000  0.09723800  0.00815200  1
  Bi  Bi6  1  0.25000000  0.90276200  0.99184800  1
  Bi  Bi7  1  0.25000000  0.81328600  0.82998500  1
  Bi  Bi8  1  0.75000000  0.40276200  0.50815200  1
  Bi  Bi9  1  0.25000000  0.59723800  0.49184800  1
  Bi  Bi10  1  0.75000000  0.31328600  0.67001500  1
  Bi  Bi11  1  0.25000000  0.51697400  0.65300400  1
  Bi  Bi12  1  0.75000000  0.90509400  0.69900300  1
  Bi  Bi13  1  0.25000000  0.40509400  0.80099700  1
  Bi  Bi14  1  0.25000000  0.68671400  0.32998500  1
  Bi  Bi15  1  0.75000000  0.01697400  0.84699600  1
  Pb  Pb16  1  0.75000000  0.60880600  0.79889800  1
  Pb  Pb17  1  0.75000000  0.79493200  0.13015800  1
  Pb  Pb18  1  0.75000000  0.70506800  0.63015800  1
  Pb  Pb19  1  0.25000000  0.10880600  0.70110200  1
  Pb  Pb20  1  0.75000000  0.89119400  0.29889800  1
  Pb  Pb21  1  0.25000000  0.96618100  0.56456600  1
  Pb  Pb22  1  0.75000000  0.71776600  0.95941900  1
  Pb  Pb23  1  0.25000000  0.53381900  0.06456600  1
  Pb  Pb24  1  0.25000000  0.28223400  0.04058100  1
  Pb  Pb25  1  0.75000000  0.46618100  0.93543400  1
  Pb  Pb26  1  0.75000000  0.78223400  0.45941900  1
  Pb  Pb27  1  0.25000000  0.21776600  0.54058100  1
  Pb  Pb28  1  0.25000000  0.20506800  0.86984200  1
  Pb  Pb29  1  0.75000000  0.03381900  0.43543400  1
  Pb  Pb30  1  0.25000000  0.39119400  0.20110200  1
  Pb  Pb31  1  0.25000000  0.29493200  0.36984200  1
  S  S32  1  0.75000000  0.87729100  0.91549300  1
  S  S33  1  0.25000000  0.43949400  0.42550900  1
  S  S34  1  0.75000000  0.91015300  0.50111500  1
  S  S35  1  0.75000000  0.30652700  0.12535900  1
  S  S36  1  0.75000000  0.13787500  0.80128000  1
  S  S37  1  0.25000000  0.96928800  0.77820600  1
  S  S38  1  0.25000000  0.63787500  0.69872000  1
  S  S39  1  0.75000000  0.58984700  0.00111500  1
  S  S40  1  0.75000000  0.19347300  0.62535900  1
  S  S41  1  0.25000000  0.69347300  0.87464100  1
  S  S42  1  0.25000000  0.84523000  0.64325400  1
  S  S43  1  0.25000000  0.41015300  0.99888500  1
  S  S44  1  0.25000000  0.65477000  0.14325400  1
  S  S45  1  0.75000000  0.46928800  0.72179400  1
  S  S46  1  0.25000000  0.22295600  0.23512200  1
  S  S47  1  0.75000000  0.02687800  0.64933200  1
  S  S48  1  0.25000000  0.97312200  0.35066800  1
  S  S49  1  0.75000000  0.47312200  0.14933200  1
  S  S50  1  0.25000000  0.12270900  0.08450700  1
  S  S51  1  0.75000000  0.36212500  0.30128000  1
  S  S52  1  0.25000000  0.52687800  0.85066800  1
  S  S53  1  0.75000000  0.21615700  0.96356900  1
  S  S54  1  0.25000000  0.53071200  0.27820600  1
  S  S55  1  0.75000000  0.72295600  0.26487800  1
  S  S56  1  0.75000000  0.77704400  0.76487800  1
  S  S57  1  0.25000000  0.80652700  0.37464100  1
  S  S58  1  0.25000000  0.71615700  0.53643100  1
  S  S59  1  0.25000000  0.06050600  0.92550900  1
  S  S60  1  0.75000000  0.03071200  0.22179400  1
  S  S61  1  0.75000000  0.56050600  0.57449100  1
  S  S62  1  0.75000000  0.93949400  0.07449100  1
  S  S63  1  0.75000000  0.62270900  0.41549300  1
  S  S64  1  0.25000000  0.86212500  0.19872000  1
  S  S65  1  0.75000000  0.28384300  0.46356900  1
  S  S66  1  0.25000000  0.08984700  0.49888500  1
  S  S67  1  0.25000000  0.27704400  0.73512200  1
  S  S68  1  0.25000000  0.78384300  0.03643100  1
  S  S69  1  0.75000000  0.15477000  0.35674600  1
  S  S70  1  0.25000000  0.37729100  0.58450700  1
  S  S71  1  0.75000000  0.34523000  0.85674600  1
