# generated using pymatgen
data_Tb6In23Pt12
_symmetry_space_group_name_H-M   'P 1'
_cell_length_a   14.52334691
_cell_length_b   14.52334691
_cell_length_c   14.98154380
_cell_angle_alpha   67.94123037
_cell_angle_beta   67.94123037
_cell_angle_gamma   17.69267485
_symmetry_Int_Tables_number   1
_chemical_formula_structural   Tb6In23Pt12
_chemical_formula_sum   'Tb6 In23 Pt12'
_cell_volume   888.29452866
_cell_formula_units_Z   1
loop_
 _symmetry_equiv_pos_site_id
 _symmetry_equiv_pos_as_xyz
  1  'x, y, z'
loop_
 _atom_site_type_symbol
 _atom_site_label
 _atom_site_symmetry_multiplicity
 _atom_site_fract_x
 _atom_site_fract_y
 _atom_site_fract_z
 _atom_site_occupancy
  Tb  Tb0  1  0.54589800  0.54589800  0.30140300  1
  Tb  Tb1  1  0.83413000  0.83413000  0.53071000  1
  Tb  Tb2  1  0.17809200  0.17809200  0.92204600  1
  Tb  Tb3  1  0.82190800  0.82190800  0.07795400  1
  Tb  Tb4  1  0.16587000  0.16587000  0.46929000  1
  Tb  Tb5  1  0.45410200  0.45410200  0.69859700  1
  In  In6  1  0.40789700  0.40789700  0.95024000  1
  In  In7  1  0.94382900  0.94382900  0.06147400  1
  In  In8  1  0.14573100  0.14573100  0.72058600  1
  In  In9  1  0.72732500  0.72732500  0.75568800  1
  In  In10  1  0.95459500  0.95459500  0.33336400  1
  In  In11  1  0.04540500  0.04540500  0.66663600  1
  In  In12  1  0.76215900  0.76215900  0.91642300  1
  In  In13  1  0.87658100  0.87658100  0.82944700  1
  In  In14  1  0.12341900  0.12341900  0.17055300  1
  In  In15  1  0.47128800  0.47128800  0.17454600  1
  In  In16  1  0.59210300  0.59210300  0.04976000  1
  In  In17  1  0.05617100  0.05617100  0.93852600  1
  In  In18  1  0.42460800  0.42460800  0.50601200  1
  In  In19  1  0.32641300  0.32641300  0.71818400  1
  In  In20  1  0.00000000  0.00000000  0.50000000  1
  In  In21  1  0.52871200  0.52871200  0.82545400  1
  In  In22  1  0.28665500  0.28665500  0.43460600  1
  In  In23  1  0.67358700  0.67358700  0.28181600  1
  In  In24  1  0.23784100  0.23784100  0.08357700  1
  In  In25  1  0.27267500  0.27267500  0.24431200  1
  In  In26  1  0.71334500  0.71334500  0.56539400  1
  In  In27  1  0.85426900  0.85426900  0.27941400  1
  In  In28  1  0.57539200  0.57539200  0.49398800  1
  Pt  Pt29  1  0.90054200  0.90054200  0.63451400  1
  Pt  Pt30  1  0.32061900  0.32061900  0.91083600  1
  Pt  Pt31  1  0.38100100  0.38100100  0.14929900  1
  Pt  Pt32  1  0.03262700  0.03262700  0.14242100  1
  Pt  Pt33  1  0.09945800  0.09945800  0.36548600  1
  Pt  Pt34  1  0.60936700  0.60936700  0.64096900  1
  Pt  Pt35  1  0.25321500  0.25321500  0.63588700  1
  Pt  Pt36  1  0.67938100  0.67938100  0.08916400  1
  Pt  Pt37  1  0.96737300  0.96737300  0.85757900  1
  Pt  Pt38  1  0.39063300  0.39063300  0.35903100  1
  Pt  Pt39  1  0.61899900  0.61899900  0.85070100  1
  Pt  Pt40  1  0.74678500  0.74678500  0.36411300  1
