# generated using pymatgen
data_Ca3AlCd17
_symmetry_space_group_name_H-M   'P 1'
_cell_length_a   15.84461802
_cell_length_b   15.84461802
_cell_length_c   15.84461862
_cell_angle_alpha   90.04463755
_cell_angle_beta   90.04463755
_cell_angle_gamma   90.04463449
_symmetry_Int_Tables_number   1
_chemical_formula_structural   Ca3AlCd17
_chemical_formula_sum   'Ca24 Al8 Cd136'
_cell_volume   3977.81830914
_cell_formula_units_Z   8
loop_
 _symmetry_equiv_pos_site_id
 _symmetry_equiv_pos_as_xyz
  1  'x, y, z'
loop_
 _atom_site_type_symbol
 _atom_site_label
 _atom_site_symmetry_multiplicity
 _atom_site_fract_x
 _atom_site_fract_y
 _atom_site_fract_z
 _atom_site_occupancy
  Ca  Ca0  1  0.19883600  0.49788500  0.31066000  1
  Ca  Ca1  1  0.80102100  0.50117200  0.31397900  1
  Ca  Ca2  1  0.50111200  0.68959900  0.20171300  1
  Ca  Ca3  1  0.68959900  0.20171300  0.50111200  1
  Ca  Ca4  1  0.80356900  0.50210200  0.69060300  1
  Ca  Ca5  1  0.50210200  0.69060300  0.80356900  1
  Ca  Ca6  1  0.18770300  0.29880500  0.99870100  1
  Ca  Ca7  1  0.69916800  0.00107200  0.19021900  1
  Ca  Ca8  1  0.99870100  0.18770300  0.29880500  1
  Ca  Ca9  1  0.29880500  0.99870100  0.18770300  1
  Ca  Ca10  1  0.31066000  0.19883600  0.49788500  1
  Ca  Ca11  1  0.69899500  0.00239400  0.81166500  1
  Ca  Ca12  1  0.80927000  0.30468800  0.00080000  1
  Ca  Ca13  1  0.19021900  0.69916800  0.00107200  1
  Ca  Ca14  1  0.30468800  0.00080000  0.80927000  1
  Ca  Ca15  1  0.00239400  0.81166500  0.69899500  1
  Ca  Ca16  1  0.69060300  0.80356900  0.50210200  1
  Ca  Ca17  1  0.31397900  0.80102100  0.50117200  1
  Ca  Ca18  1  0.00080000  0.80927000  0.30468800  1
  Ca  Ca19  1  0.00107200  0.19021900  0.69916800  1
  Ca  Ca20  1  0.49788500  0.31066000  0.19883600  1
  Ca  Ca21  1  0.50117200  0.31397900  0.80102100  1
  Ca  Ca22  1  0.20171300  0.50111200  0.68959900  1
  Ca  Ca23  1  0.81166500  0.69899500  0.00239400  1
  Al  Al24  1  0.06812400  0.07535700  0.94759400  1
  Al  Al25  1  0.07535700  0.94759400  0.06812400  1
  Al  Al26  1  0.58214400  0.43299200  0.49429400  1
  Al  Al27  1  0.42476500  0.42476500  0.42476500  1
  Al  Al28  1  0.43299200  0.49429400  0.58214400  1
  Al  Al29  1  0.49429400  0.58214400  0.43299200  1
  Al  Al30  1  0.94759400  0.06812400  0.07535700  1
  Al  Al31  1  0.94556600  0.94556600  0.94556600  1
  Cd  Cd32  1  0.00172400  0.77279600  0.90966100  1
  Cd  Cd33  1  0.69787800  0.38683800  0.83756400  1
  Cd  Cd34  1  0.83120300  0.16915400  0.16862900  1
  Cd  Cd35  1  0.99928200  0.40551500  0.34281200  1
  Cd  Cd36  1  0.16915400  0.16862900  0.83120300  1
  Cd  Cd37  1  0.69704300  0.61698200  0.16413400  1
  Cd  Cd38  1  0.30014100  0.38518300  0.15262700  1
  Cd  Cd39  1  0.65627800  0.66026100  0.34560200  1
  Cd  Cd40  1  0.50491600  0.72033600  0.58841100  1
  Cd  Cd41  1  0.38788900  0.16068900  0.69477900  1
  Cd  Cd42  1  0.50197000  0.90439800  0.15807300  1
  Cd  Cd43  1  0.59755700  0.65787000  0.00260300  1
  Cd  Cd44  1  0.09407200  0.15629400  0.49936700  1
  Cd  Cd45  1  0.34560200  0.65627800  0.66026100  1
  Cd  Cd46  1  0.69477900  0.38788900  0.16068900  1
  Cd  Cd47  1  0.50056100  0.99792500  0.31591500  1
  Cd  Cd48  1  0.59561000  0.34484500  0.99911100  1
  Cd  Cd49  1  0.23657000  0.90561400  0.99882300  1
  Cd  Cd50  1  0.50084000  0.26308500  0.40435000  1
  Cd  Cd51  1  0.90561400  0.99882300  0.23657000  1
  Cd  Cd52  1  0.40551500  0.34281200  0.99928200  1
  Cd  Cd53  1  0.50058900  0.10006200  0.50596500  1
  Cd  Cd54  1  0.99882300  0.23657000  0.90561400  1
  Cd  Cd55  1  0.83872900  0.16282600  0.83962200  1
  Cd  Cd56  1  0.65588500  0.00052200  0.40655900  1
  Cd  Cd57  1  0.28058800  0.58929000  0.49891400  1
  Cd  Cd58  1  0.66017000  0.20145200  0.88349600  1
  Cd  Cd59  1  0.11638400  0.34483200  0.80033200  1
  Cd  Cd60  1  0.50175700  0.90492500  0.84446700  1
  Cd  Cd61  1  0.90439800  0.15807300  0.50197000  1
  Cd  Cd62  1  0.00260300  0.59755700  0.65787000  1
  Cd  Cd63  1  0.68838000  0.50146700  0.99941000  1
  Cd  Cd64  1  0.83757400  0.83757400  0.83757400  1
  Cd  Cd65  1  0.88349600  0.66017000  0.20145200  1
  Cd  Cd66  1  0.61698200  0.16413400  0.69704300  1
  Cd  Cd67  1  0.11762100  0.34007300  0.19877800  1
  Cd  Cd68  1  0.66548500  0.66548500  0.66548500  1
  Cd  Cd69  1  0.30112600  0.61644900  0.15808500  1
  Cd  Cd70  1  0.99988200  0.50140600  0.18560300  1
  Cd  Cd71  1  0.90492500  0.84446700  0.50175700  1
  Cd  Cd72  1  0.00064200  0.59860000  0.99905900  1
  Cd  Cd73  1  0.31591500  0.50056100  0.99792500  1
  Cd  Cd74  1  0.29868800  0.37999500  0.84330200  1
  Cd  Cd75  1  0.19877800  0.11762100  0.34007300  1
  Cd  Cd76  1  0.34091100  0.66308000  0.33830800  1
  Cd  Cd77  1  0.80238900  0.88376600  0.34327200  1
  Cd  Cd78  1  0.15629400  0.49936700  0.09407200  1
  Cd  Cd79  1  0.40435000  0.50084000  0.26308500  1
  Cd  Cd80  1  0.66052000  0.80252900  0.11553500  1
  Cd  Cd81  1  0.34603300  0.19971800  0.88012600  1
  Cd  Cd82  1  0.09728100  0.84223300  0.50280300  1
  Cd  Cd83  1  0.80033200  0.11638400  0.34483200  1
  Cd  Cd84  1  0.65636300  0.20111800  0.11646900  1
  Cd  Cd85  1  0.99941000  0.68838000  0.50146700  1
  Cd  Cd86  1  0.66037500  0.80311700  0.88577900  1
  Cd  Cd87  1  0.20111800  0.11646900  0.65636300  1
  Cd  Cd88  1  0.88577900  0.66037500  0.80311700  1
  Cd  Cd89  1  0.09432600  0.00184700  0.77083000  1
  Cd  Cd90  1  0.84446700  0.50175700  0.90492500  1
  Cd  Cd91  1  0.84141700  0.29842300  0.62398300  1
  Cd  Cd92  1  0.99737300  0.24194100  0.09222500  1
  Cd  Cd93  1  0.40655900  0.65588500  0.00052200  1
  Cd  Cd94  1  0.84223300  0.50280300  0.09728100  1
  Cd  Cd95  1  0.51085500  0.50178900  0.90863400  1
  Cd  Cd96  1  0.32412900  0.32412900  0.32412900  1
  Cd  Cd97  1  0.34007300  0.19877800  0.11762100  1
  Cd  Cd98  1  0.34484500  0.99911100  0.59561000  1
  Cd  Cd99  1  0.90863400  0.51085500  0.50178900  1
  Cd  Cd100  1  0.66308000  0.33830800  0.34091100  1
  Cd  Cd101  1  0.16282600  0.83962200  0.83872900  1
  Cd  Cd102  1  0.34281200  0.99928200  0.40551500  1
  Cd  Cd103  1  0.50140600  0.18560300  0.99988200  1
  Cd  Cd104  1  0.15476000  0.15476000  0.15476000  1
  Cd  Cd105  1  0.61746000  0.84214100  0.69927000  1
  Cd  Cd106  1  0.10006200  0.50596500  0.50058900  1
  Cd  Cd107  1  0.72033600  0.58841100  0.50491600  1
  Cd  Cd108  1  0.50596500  0.50058900  0.10006200  1
  Cd  Cd109  1  0.58929000  0.49891400  0.28058800  1
  Cd  Cd110  1  0.40760000  0.99546300  0.99987900  1
  Cd  Cd111  1  0.69927000  0.61746000  0.84214100  1
  Cd  Cd112  1  0.16862900  0.83120300  0.16915400  1
  Cd  Cd113  1  0.62398300  0.84141700  0.29842300  1
  Cd  Cd114  1  0.24194100  0.09222500  0.99737300  1
  Cd  Cd115  1  0.26308500  0.40435000  0.50084000  1
  Cd  Cd116  1  0.84214100  0.69927000  0.61746000  1
  Cd  Cd117  1  0.49891400  0.28058800  0.58929000  1
  Cd  Cd118  1  0.50178900  0.90863400  0.51085500  1
  Cd  Cd119  1  0.16068900  0.69477900  0.38788900  1
  Cd  Cd120  1  0.38518300  0.15262700  0.30014100  1
  Cd  Cd121  1  0.99905900  0.00064200  0.59860000  1
  Cd  Cd122  1  0.50146700  0.99941000  0.68838000  1
  Cd  Cd123  1  0.11646900  0.65636300  0.20111800  1
  Cd  Cd124  1  0.99792500  0.31591500  0.50056100  1
  Cd  Cd125  1  0.77279600  0.90966100  0.00172400  1
  Cd  Cd126  1  0.77083000  0.09432600  0.00184700  1
  Cd  Cd127  1  0.50119800  0.81349300  0.00079700  1
  Cd  Cd128  1  0.20145200  0.88349600  0.66017000  1
  Cd  Cd129  1  0.99546300  0.99987900  0.40760000  1
  Cd  Cd130  1  0.15808500  0.30112600  0.61644900  1
  Cd  Cd131  1  0.33830800  0.34091100  0.66308000  1
  Cd  Cd132  1  0.61644900  0.15808500  0.30112600  1
  Cd  Cd133  1  0.15807300  0.50197000  0.90439800  1
  Cd  Cd134  1  0.00052200  0.40655900  0.65588500  1
  Cd  Cd135  1  0.80252900  0.11553500  0.66052000  1
  Cd  Cd136  1  0.16413400  0.69704300  0.61698200  1
  Cd  Cd137  1  0.00079700  0.50119800  0.81349300  1
  Cd  Cd138  1  0.66026100  0.34560200  0.65627800  1
  Cd  Cd139  1  0.11553500  0.66052000  0.80252900  1
  Cd  Cd140  1  0.90966100  0.00172400  0.77279600  1
  Cd  Cd141  1  0.00184700  0.77083000  0.09432600  1
  Cd  Cd142  1  0.19971800  0.88012600  0.34603300  1
  Cd  Cd143  1  0.83962200  0.83872900  0.16282600  1
  Cd  Cd144  1  0.29842300  0.62398300  0.84141700  1
  Cd  Cd145  1  0.59860000  0.99905900  0.00064200  1
  Cd  Cd146  1  0.49936700  0.09407200  0.15629400  1
  Cd  Cd147  1  0.15262700  0.30014100  0.38518300  1
  Cd  Cd148  1  0.99987900  0.40760000  0.99546300  1
  Cd  Cd149  1  0.88376600  0.34327200  0.80238900  1
  Cd  Cd150  1  0.34327200  0.80238900  0.88376600  1
  Cd  Cd151  1  0.34483200  0.80033200  0.11638400  1
  Cd  Cd152  1  0.65787000  0.00260300  0.59755700  1
  Cd  Cd153  1  0.40580500  0.50182900  0.75466000  1
  Cd  Cd154  1  0.09222500  0.99737300  0.24194100  1
  Cd  Cd155  1  0.99911100  0.59561000  0.34484500  1
  Cd  Cd156  1  0.80311700  0.88577900  0.66037500  1
  Cd  Cd157  1  0.83756400  0.69787800  0.38683800  1
  Cd  Cd158  1  0.75466000  0.40580500  0.50182900  1
  Cd  Cd159  1  0.37999500  0.84330200  0.29868800  1
  Cd  Cd160  1  0.50182900  0.75466000  0.40580500  1
  Cd  Cd161  1  0.58841100  0.50491600  0.72033600  1
  Cd  Cd162  1  0.84330200  0.29868800  0.37999500  1
  Cd  Cd163  1  0.81349300  0.00079700  0.50119800  1
  Cd  Cd164  1  0.38683800  0.83756400  0.69787800  1
  Cd  Cd165  1  0.18560300  0.99988200  0.50140600  1
  Cd  Cd166  1  0.50280300  0.09728100  0.84223300  1
  Cd  Cd167  1  0.88012600  0.34603300  0.19971800  1
