# generated using pymatgen
data_H2W2O7
_symmetry_space_group_name_H-M   'P 1'
_cell_length_a   7.06331199
_cell_length_b   7.06331199
_cell_length_c   7.06331199
_cell_angle_alpha   118.12292090
_cell_angle_beta   118.12292090
_cell_angle_gamma   93.28315618
_symmetry_Int_Tables_number   1
_chemical_formula_structural   H2W2O7
_chemical_formula_sum   'H4 W4 O14'
_cell_volume   255.79369832
_cell_formula_units_Z   2
loop_
 _symmetry_equiv_pos_site_id
 _symmetry_equiv_pos_as_xyz
  1  'x, y, z'
loop_
 _atom_site_type_symbol
 _atom_site_label
 _atom_site_symmetry_multiplicity
 _atom_site_fract_x
 _atom_site_fract_y
 _atom_site_fract_z
 _atom_site_occupancy
  H  H0  1  0.33407200  0.33407200  0.00000000  1
  H  H1  1  0.66592800  0.66592800  0.00000000  1
  H  H2  1  0.41592800  0.91592800  0.50000000  1
  H  H3  1  0.08407200  0.58407200  0.50000000  1
  W  W4  1  0.87500000  0.12500000  0.25000000  1
  W  W5  1  0.87500000  0.62500000  0.75000000  1
  W  W6  1  0.87500000  0.12500000  0.75000000  1
  W  W7  1  0.37500000  0.12500000  0.25000000  1
  O  O8  1  0.23329700  0.23329700  0.00000000  1
  O  O9  1  0.76670300  0.76670300  0.00000000  1
  O  O10  1  0.21804400  0.78195600  0.00000000  1
  O  O11  1  0.78195600  0.21804400  0.00000000  1
  O  O12  1  0.21804400  0.21804400  0.43608800  1
  O  O13  1  0.78195600  0.78195600  0.56391200  1
  O  O14  1  0.51670300  0.01670300  0.50000000  1
  O  O15  1  0.98329700  0.48329700  0.50000000  1
  O  O16  1  0.53195600  0.46804400  0.50000000  1
  O  O17  1  0.96804400  0.03195600  0.50000000  1
  O  O18  1  0.53195600  0.03195600  0.06391200  1
  O  O19  1  0.96804400  0.46804400  0.93608800  1
  O  O20  1  0.00000000  0.00000000  0.00000000  1
  O  O21  1  0.75000000  0.25000000  0.50000000  1
