# generated using pymatgen
data_KFe2P2O11
_symmetry_space_group_name_H-M   'P 1'
_cell_length_a   9.93185300
_cell_length_b   9.41924800
_cell_length_c   12.16398027
_cell_angle_alpha   51.74436522
_cell_angle_beta   90.00000000
_cell_angle_gamma   90.00000000
_symmetry_Int_Tables_number   1
_chemical_formula_structural   KFe2P2O11
_chemical_formula_sum   'K4 Fe8 P8 O44'
_cell_volume   893.58014067
_cell_formula_units_Z   4
loop_
 _symmetry_equiv_pos_site_id
 _symmetry_equiv_pos_as_xyz
  1  'x, y, z'
loop_
 _atom_site_type_symbol
 _atom_site_label
 _atom_site_symmetry_multiplicity
 _atom_site_fract_x
 _atom_site_fract_y
 _atom_site_fract_z
 _atom_site_occupancy
  K  K0  1  0.69093300  0.62089700  0.98731400  1
  K  K1  1  0.80906700  0.62089700  0.48731400  1
  K  K2  1  0.30906700  0.37910300  0.01268600  1
  K  K3  1  0.19093300  0.37910300  0.51268600  1
  Fe  Fe4  1  0.05234400  0.02473600  0.10083600  1
  Fe  Fe5  1  0.44765600  0.02473600  0.60083600  1
  Fe  Fe6  1  0.94765600  0.97526400  0.89916400  1
  Fe  Fe7  1  0.55234400  0.97526400  0.39916400  1
  Fe  Fe8  1  0.74887200  0.28719900  0.89689600  1
  Fe  Fe9  1  0.75112800  0.28719900  0.39689600  1
  Fe  Fe10  1  0.25112800  0.71280100  0.10310400  1
  Fe  Fe11  1  0.24887200  0.71280100  0.60310400  1
  P  P12  1  0.03141100  0.36787500  0.78337200  1
  P  P13  1  0.46858900  0.36787500  0.28337200  1
  P  P14  1  0.96858900  0.63212500  0.21662800  1
  P  P15  1  0.53141100  0.63212500  0.71662800  1
  P  P16  1  0.82151300  0.15100700  0.21220800  1
  P  P17  1  0.67848700  0.15100700  0.71220800  1
  P  P18  1  0.17848700  0.84899300  0.78779200  1
  P  P19  1  0.32151300  0.84899300  0.28779200  1
  O  O20  1  0.10098200  0.28010000  0.92612700  1
  O  O21  1  0.39901800  0.28010000  0.42612700  1
  O  O22  1  0.89901800  0.71990000  0.07387300  1
  O  O23  1  0.60098200  0.71990000  0.57387300  1
  O  O24  1  0.61627100  0.47948600  0.84125700  1
  O  O25  1  0.88372900  0.47948600  0.34125700  1
  O  O26  1  0.38372900  0.52051400  0.15874300  1
  O  O27  1  0.11627100  0.52051400  0.65874300  1
  O  O28  1  0.98793600  0.76945500  0.24798700  1
  O  O29  1  0.51206400  0.76945500  0.74798700  1
  O  O30  1  0.01206400  0.23054500  0.75201300  1
  O  O31  1  0.48793600  0.23054500  0.25201300  1
  O  O32  1  0.89220300  0.45054100  0.77586400  1
  O  O33  1  0.60779700  0.45054100  0.27586400  1
  O  O34  1  0.10779700  0.54945900  0.22413600  1
  O  O35  1  0.39220300  0.54945900  0.72413600  1
  O  O36  1  0.75904400  0.27190400  0.06403400  1
  O  O37  1  0.74095600  0.27190400  0.56403400  1
  O  O38  1  0.24095600  0.72809600  0.93596600  1
  O  O39  1  0.25904400  0.72809600  0.43596600  1
  O  O40  1  0.96502800  0.09296700  0.20395100  1
  O  O41  1  0.53497200  0.09296700  0.70395100  1
  O  O42  1  0.03497200  0.90703300  0.79604900  1
  O  O43  1  0.46502800  0.90703300  0.29604900  1
  O  O44  1  0.23210900  0.01598600  0.18288100  1
  O  O45  1  0.26789100  0.01598600  0.68288100  1
  O  O46  1  0.76789100  0.98401400  0.81711900  1
  O  O47  1  0.73210900  0.98401400  0.31711900  1
  O  O48  1  0.66365900  0.26680800  0.76188400  1
  O  O49  1  0.83634100  0.26680800  0.26188400  1
  O  O50  1  0.33634100  0.73319200  0.23811600  1
  O  O51  1  0.16365900  0.73319200  0.73811600  1
  O  O52  1  0.87576500  0.07230100  0.98668800  1
  O  O53  1  0.62423500  0.07230100  0.48668800  1
  O  O54  1  0.12423500  0.92769900  0.01331200  1
  O  O55  1  0.37576500  0.92769900  0.51331200  1
  O  O56  1  0.58236900  0.04559000  0.04796700  1
  O  O57  1  0.91763100  0.04559000  0.54796700  1
  O  O58  1  0.41763100  0.95441000  0.95203300  1
  O  O59  1  0.08236900  0.95441000  0.45203300  1
  O  O60  1  0.59361300  0.89729900  0.07424000  1
  O  O61  1  0.90638700  0.89729900  0.57424000  1
  O  O62  1  0.40638700  0.10270100  0.92576000  1
  O  O63  1  0.09361300  0.10270100  0.42576000  1
