# generated using pymatgen
data_Ce5Mg41
_symmetry_space_group_name_H-M   'P 1'
_cell_length_a   11.71290609
_cell_length_b   11.71290609
_cell_length_c   11.71290609
_cell_angle_alpha   101.43181383
_cell_angle_beta   101.43181383
_cell_angle_gamma   127.12793450
_symmetry_Int_Tables_number   1
_chemical_formula_structural   Ce5Mg41
_chemical_formula_sum   'Ce5 Mg41'
_cell_volume   1147.20953936
_cell_formula_units_Z   1
loop_
 _symmetry_equiv_pos_site_id
 _symmetry_equiv_pos_as_xyz
  1  'x, y, z'
loop_
 _atom_site_type_symbol
 _atom_site_label
 _atom_site_symmetry_multiplicity
 _atom_site_fract_x
 _atom_site_fract_y
 _atom_site_fract_z
 _atom_site_occupancy
  Ce  Ce0  1  0.23704300  0.42857600  0.66561900  1
  Ce  Ce1  1  0.76295700  0.57142400  0.33438100  1
  Ce  Ce2  1  0.42857600  0.76295700  0.19153200  1
  Ce  Ce3  1  0.57142400  0.23704300  0.80846800  1
  Ce  Ce4  1  0.00000000  0.00000000  0.00000000  1
  Mg  Mg5  1  0.22156000  0.87809000  0.09965000  1
  Mg  Mg6  1  0.18177700  0.89052400  0.55621100  1
  Mg  Mg7  1  0.50000000  0.50000000  0.00000000  1
  Mg  Mg8  1  0.76647700  0.82590100  0.21260500  1
  Mg  Mg9  1  0.81822300  0.10947600  0.44378900  1
  Mg  Mg10  1  0.10947600  0.66568700  0.29125300  1
  Mg  Mg11  1  0.61329500  0.55387200  0.78739500  1
  Mg  Mg12  1  0.62556600  0.18177700  0.29125300  1
  Mg  Mg13  1  0.08583800  0.37385500  0.16620600  1
  Mg  Mg14  1  0.62614500  0.79235000  0.71198200  1
  Mg  Mg15  1  0.37385500  0.20765000  0.28801800  1
  Mg  Mg16  1  0.34080700  0.21696800  0.55777500  1
  Mg  Mg17  1  0.40332200  0.00964000  0.41296300  1
  Mg  Mg18  1  0.12191000  0.22156000  0.34347100  1
  Mg  Mg19  1  0.65919300  0.78303200  0.44222500  1
  Mg  Mg20  1  0.00964000  0.59667800  0.60631800  1
  Mg  Mg21  1  0.99036000  0.40332200  0.39368200  1
  Mg  Mg22  1  0.08036800  0.91416200  0.28801800  1
  Mg  Mg23  1  0.20765000  0.91963200  0.83379400  1
  Mg  Mg24  1  0.17409900  0.38670500  0.94057700  1
  Mg  Mg25  1  0.33431300  0.62556600  0.44378900  1
  Mg  Mg26  1  0.79235000  0.08036800  0.16620600  1
  Mg  Mg27  1  0.91963200  0.08583800  0.71198200  1
  Mg  Mg28  1  0.87809000  0.77844000  0.65652900  1
  Mg  Mg29  1  0.50000000  0.50000000  0.50000000  1
  Mg  Mg30  1  0.38670500  0.44612800  0.21260500  1
  Mg  Mg31  1  0.91416200  0.62614500  0.83379400  1
  Mg  Mg32  1  0.59667800  0.99036000  0.58703700  1
  Mg  Mg33  1  0.00000000  0.50000000  0.00000000  1
  Mg  Mg34  1  0.78303200  0.34080700  0.12383900  1
  Mg  Mg35  1  0.44612800  0.23352300  0.05942300  1
  Mg  Mg36  1  0.89052400  0.33431300  0.70874700  1
  Mg  Mg37  1  0.66568700  0.37443400  0.55621100  1
  Mg  Mg38  1  0.77844000  0.12191000  0.90035000  1
  Mg  Mg39  1  0.82590100  0.61329500  0.05942300  1
  Mg  Mg40  1  0.37443400  0.81822300  0.70874700  1
  Mg  Mg41  1  0.50000000  0.00000000  0.00000000  1
  Mg  Mg42  1  0.55387200  0.76647700  0.94057700  1
  Mg  Mg43  1  0.23352200  0.17409900  0.78739500  1
  Mg  Mg44  1  0.00000000  0.00000000  0.50000000  1
  Mg  Mg45  1  0.21696800  0.65919300  0.87616100  1
