# generated using pymatgen
data_Ti2Se
_symmetry_space_group_name_H-M   'P 1'
_cell_length_a   3.46470400
_cell_length_b   9.51060900
_cell_length_c   17.94930300
_cell_angle_alpha   90.00000000
_cell_angle_beta   90.00000000
_cell_angle_gamma   90.00000000
_symmetry_Int_Tables_number   1
_chemical_formula_structural   Ti2Se
_chemical_formula_sum   'Ti24 Se12'
_cell_volume   591.45547140
_cell_formula_units_Z   12
loop_
 _symmetry_equiv_pos_site_id
 _symmetry_equiv_pos_as_xyz
  1  'x, y, z'
loop_
 _atom_site_type_symbol
 _atom_site_label
 _atom_site_symmetry_multiplicity
 _atom_site_fract_x
 _atom_site_fract_y
 _atom_site_fract_z
 _atom_site_occupancy
  Ti  Ti0  1  0.75000000  0.88885700  0.98663400  1
  Ti  Ti1  1  0.75000000  0.38703000  0.03088100  1
  Ti  Ti2  1  0.75000000  0.41824800  0.64586300  1
  Ti  Ti3  1  0.25000000  0.54155000  0.16025000  1
  Ti  Ti4  1  0.75000000  0.61114300  0.48663400  1
  Ti  Ti5  1  0.25000000  0.95845000  0.66025000  1
  Ti  Ti6  1  0.75000000  0.08175200  0.14586300  1
  Ti  Ti7  1  0.25000000  0.88703000  0.46911900  1
  Ti  Ti8  1  0.25000000  0.58175200  0.35413700  1
  Ti  Ti9  1  0.25000000  0.25439100  0.27078800  1
  Ti  Ti10  1  0.75000000  0.75439100  0.22921200  1
  Ti  Ti11  1  0.75000000  0.15021500  0.89340700  1
  Ti  Ti12  1  0.25000000  0.65021500  0.60659300  1
  Ti  Ti13  1  0.75000000  0.74560900  0.72921200  1
  Ti  Ti14  1  0.25000000  0.61297000  0.96911900  1
  Ti  Ti15  1  0.25000000  0.24560900  0.77078800  1
  Ti  Ti16  1  0.25000000  0.84978500  0.10659300  1
  Ti  Ti17  1  0.25000000  0.91824800  0.85413700  1
  Ti  Ti18  1  0.75000000  0.34978500  0.39340700  1
  Ti  Ti19  1  0.25000000  0.11114300  0.01336600  1
  Ti  Ti20  1  0.75000000  0.45845000  0.83975000  1
  Ti  Ti21  1  0.25000000  0.38885700  0.51336600  1
  Ti  Ti22  1  0.75000000  0.11297000  0.53088100  1
  Ti  Ti23  1  0.75000000  0.04155000  0.33975000  1
  Se  Se24  1  0.25000000  0.28214500  0.12761500  1
  Se  Se25  1  0.75000000  0.03125800  0.76153900  1
  Se  Se26  1  0.75000000  0.46874200  0.26153900  1
  Se  Se27  1  0.25000000  0.53125800  0.73846100  1
  Se  Se28  1  0.75000000  0.71785500  0.87238500  1
  Se  Se29  1  0.25000000  0.96874200  0.23846100  1
  Se  Se30  1  0.25000000  0.21785500  0.62761500  1
  Se  Se31  1  0.75000000  0.78214500  0.37238500  1
  Se  Se32  1  0.75000000  0.66018300  0.07499500  1
  Se  Se33  1  0.25000000  0.33981700  0.92500500  1
  Se  Se34  1  0.25000000  0.16018300  0.42500500  1
  Se  Se35  1  0.75000000  0.83981700  0.57499500  1
