# generated using pymatgen
data_PC2S2N3
_symmetry_space_group_name_H-M   'P 1'
_cell_length_a   35.07359000
_cell_length_b   8.11208800
_cell_length_c   13.88525088
_cell_angle_alpha   78.06641305
_cell_angle_beta   90.00000000
_cell_angle_gamma   90.00000000
_symmetry_Int_Tables_number   1
_chemical_formula_structural   PC2S2N3
_chemical_formula_sum   'P24 C48 S48 N72'
_cell_volume   3865.25095188
_cell_formula_units_Z   24
loop_
 _symmetry_equiv_pos_site_id
 _symmetry_equiv_pos_as_xyz
  1  'x, y, z'
loop_
 _atom_site_type_symbol
 _atom_site_label
 _atom_site_symmetry_multiplicity
 _atom_site_fract_x
 _atom_site_fract_y
 _atom_site_fract_z
 _atom_site_occupancy
  P  P0  1  0.27979500  0.90294400  0.46568500  1
  P  P1  1  0.96636500  0.97005400  0.27231300  1
  P  P2  1  0.28422100  0.78919600  0.87957300  1
  P  P3  1  0.78072700  0.11783700  0.23051400  1
  P  P4  1  0.71577900  0.21080400  0.12042700  1
  P  P5  1  0.02744600  0.84579600  0.18154000  1
  P  P6  1  0.97255400  0.15420400  0.81846000  1
  P  P7  1  0.77979500  0.09705600  0.03431500  1
  P  P8  1  0.03671600  0.92205400  0.36650700  1
  P  P9  1  0.46328400  0.92205400  0.86650700  1
  P  P10  1  0.03363500  0.02994600  0.72768700  1
  P  P11  1  0.22020500  0.90294400  0.96568500  1
  P  P12  1  0.53671600  0.07794600  0.13349300  1
  P  P13  1  0.28072700  0.88216300  0.26948600  1
  P  P14  1  0.46636500  0.02994600  0.22768700  1
  P  P15  1  0.53363500  0.97005400  0.77231300  1
  P  P16  1  0.21927300  0.88216300  0.76948600  1
  P  P17  1  0.71927300  0.11783700  0.73051400  1
  P  P18  1  0.52744600  0.15420400  0.31846000  1
  P  P19  1  0.78422100  0.21080400  0.62042700  1
  P  P20  1  0.47255400  0.84579600  0.68154000  1
  P  P21  1  0.72020500  0.09705600  0.53431500  1
  P  P22  1  0.96328400  0.07794600  0.63349300  1
  P  P23  1  0.21577900  0.78919600  0.37957300  1
  C  C24  1  0.89972900  0.77873200  0.30909700  1
  C  C25  1  0.26569000  0.21507000  0.18983300  1
  C  C26  1  0.57445500  0.00592800  0.47389300  1
  C  C27  1  0.46656500  0.51539800  0.64395100  1
  C  C28  1  0.42713000  0.21485100  0.89474600  1
  C  C29  1  0.03440000  0.67213300  0.53746500  1
  C  C30  1  0.73431000  0.78493000  0.81016700  1
  C  C31  1  0.06907300  0.72878600  0.82160100  1
  C  C32  1  0.83587700  0.19440600  0.35105700  1
  C  C33  1  0.19481100  0.45216300  0.42932700  1
  C  C34  1  0.92554500  0.00592800  0.97389300  1
  C  C35  1  0.29526000  0.23257400  0.46866900  1
  C  C36  1  0.10027100  0.22126800  0.69090300  1
  C  C37  1  0.33587700  0.80559400  0.14894300  1
  C  C38  1  0.16412300  0.80559400  0.64894300  1
  C  C39  1  0.42554500  0.99407200  0.52610700  1
  C  C40  1  0.66335300  0.98924100  0.21865300  1
  C  C41  1  0.53440000  0.32786700  0.96253500  1
  C  C42  1  0.57287000  0.78514900  0.10525400  1
  C  C43  1  0.32837300  0.71421400  0.60734600  1
  C  C44  1  0.56907300  0.27121400  0.67839900  1
  C  C45  1  0.82837300  0.28578600  0.89265400  1
  C  C46  1  0.92713000  0.78514900  0.60525400  1
  C  C47  1  0.96656500  0.48460200  0.85604900  1
  C  C48  1  0.20474000  0.23257400  0.96866900  1
  C  C49  1  0.53343500  0.48460200  0.35604900  1
  C  C50  1  0.16335300  0.01075900  0.28134700  1
  C  C51  1  0.46560000  0.67213300  0.03746500  1
  C  C52  1  0.17162700  0.71421400  0.10734600  1
  C  C53  1  0.83664700  0.98924100  0.71865300  1
  C  C54  1  0.67162700  0.28578600  0.39265400  1
  C  C55  1  0.70474000  0.76742600  0.53133100  1
  C  C56  1  0.03343500  0.51539800  0.14395100  1
  C  C57  1  0.43092700  0.72878600  0.32160100  1
  C  C58  1  0.07445500  0.99407200  0.02610700  1
  C  C59  1  0.93092700  0.27121400  0.17839900  1
  C  C60  1  0.76569000  0.78493000  0.31016700  1
  C  C61  1  0.79526000  0.76742600  0.03133100  1
  C  C62  1  0.39972900  0.22126800  0.19090300  1
  C  C63  1  0.30518900  0.45216300  0.92932700  1
  C  C64  1  0.80518900  0.54783700  0.57067300  1
  C  C65  1  0.23431000  0.21507000  0.68983300  1
  C  C66  1  0.96560000  0.32786700  0.46253500  1
  C  C67  1  0.60027100  0.77873200  0.80909700  1
  C  C68  1  0.66412300  0.19440600  0.85105700  1
  C  C69  1  0.07287000  0.21485100  0.39474600  1
  C  C70  1  0.33664700  0.01075900  0.78134700  1
  C  C71  1  0.69481100  0.54783700  0.07067300  1
  S  S72  1  0.89215200  0.94135300  0.04584500  1
  S  S73  1  0.96096700  0.66266800  0.88024000  1
  S  S74  1  0.08519900  0.39658700  0.40191800  1
  S  S75  1  0.52377400  0.46257200  0.86912800  1
  S  S76  1  0.60784800  0.94135300  0.54584500  1
  S  S77  1  0.25466800  0.40411800  0.18033500  1
  S  S78  1  0.12972500  0.82371500  0.57679100  1
  S  S79  1  0.03903300  0.33733200  0.11976000  1
  S  S80  1  0.19053200  0.41787300  0.93610500  1
  S  S81  1  0.24533200  0.40411800  0.68033500  1
  S  S82  1  0.30946800  0.41787300  0.43610500  1
  S  S83  1  0.64452900  0.85416700  0.30091400  1
  S  S84  1  0.58519900  0.60341300  0.09808200  1
  S  S85  1  0.02377400  0.53742800  0.63087200  1
  S  S86  1  0.47622600  0.53742800  0.13087200  1
  S  S87  1  0.69132100  0.74316500  0.05400400  1
  S  S88  1  0.53903300  0.66266800  0.38024000  1
  S  S89  1  0.37027500  0.82371500  0.07679100  1
  S  S90  1  0.36079200  0.62371600  0.67534800  1
  S  S91  1  0.85547100  0.85416700  0.80091400  1
  S  S92  1  0.63920800  0.37628400  0.32465200  1
  S  S93  1  0.75466800  0.59588200  0.31966500  1
  S  S94  1  0.13920800  0.62371600  0.17534800  1
  S  S95  1  0.41009600  0.57488800  0.38584000  1
  S  S96  1  0.80867900  0.74316500  0.55400400  1
  S  S97  1  0.36260500  0.32580000  0.19329700  1
  S  S98  1  0.86260500  0.67420000  0.30670300  1
  S  S99  1  0.80946800  0.58212700  0.06389500  1
  S  S100  1  0.62972500  0.17628500  0.92320900  1
  S  S101  1  0.87027500  0.17628500  0.42320900  1
  S  S102  1  0.10784800  0.05864700  0.95415500  1
  S  S103  1  0.74533200  0.59588200  0.81966500  1
  S  S104  1  0.13739500  0.32580000  0.69329700  1
  S  S105  1  0.39215200  0.05864700  0.45415500  1
  S  S106  1  0.19132100  0.25683500  0.44599600  1
  S  S107  1  0.63739500  0.67420000  0.80670300  1
  S  S108  1  0.69053200  0.58212700  0.56389500  1
  S  S109  1  0.58990400  0.42511200  0.61416000  1
  S  S110  1  0.30867900  0.25683500  0.94599600  1
  S  S111  1  0.14452900  0.14583300  0.19908600  1
  S  S112  1  0.91480100  0.60341300  0.59808200  1
  S  S113  1  0.08990400  0.57488800  0.88584000  1
  S  S114  1  0.46096700  0.33733200  0.61976000  1
  S  S115  1  0.41480100  0.39658700  0.90191800  1
  S  S116  1  0.97622600  0.46257200  0.36912800  1
  S  S117  1  0.35547100  0.14583300  0.69908600  1
  S  S118  1  0.91009600  0.42511200  0.11416000  1
  S  S119  1  0.86079200  0.37628400  0.82465200  1
  N  N120  1  0.00671500  0.01829700  0.63654100  1
  N  N121  1  0.45507300  0.77413800  0.96592700  1
  N  N122  1  0.69553000  0.39584700  0.08020600  1
  N  N123  1  0.98393000  0.90248500  0.18164300  1
  N  N124  1  0.19809200  0.78078600  0.05846400  1
  N  N125  1  0.01607000  0.09751500  0.81835700  1
  N  N126  1  0.05276500  0.84362200  0.76794600  1
  N  N127  1  0.55357000  0.14298200  0.22604600  1
  N  N128  1  0.77490700  0.93056700  0.30653900  1
  N  N129  1  0.72509300  0.93056700  0.80653900  1
  N  N130  1  0.26409200  0.84912800  0.97001900  1
  N  N131  1  0.24087600  0.78438600  0.28381200  1
  N  N132  1  0.69117600  0.21793200  0.79492400  1
  N  N133  1  0.48393000  0.09751500  0.31835700  1
  N  N134  1  0.94723500  0.15637800  0.23205400  1
  N  N135  1  0.51607000  0.90248500  0.68164300  1
  N  N136  1  0.76409200  0.15087200  0.52998100  1
  N  N137  1  0.05357000  0.85701800  0.27395400  1
  N  N138  1  0.45290900  0.95008200  0.57863800  1
  N  N139  1  0.75912400  0.21561400  0.71618800  1
  N  N140  1  0.04492700  0.77413800  0.46592700  1
  N  N141  1  0.32308100  0.90691800  0.84865900  1
  N  N142  1  0.80317100  0.09383200  0.13374600  1
  N  N143  1  0.07143000  0.14220900  0.68399800  1
  N  N144  1  0.78353100  0.91016600  0.00248800  1
  N  N145  1  0.47151400  0.65125100  0.66429100  1
  N  N146  1  0.17691900  0.90691800  0.34865900  1
  N  N147  1  0.54709100  0.04991800  0.42136200  1
  N  N148  1  0.80447000  0.39584700  0.58020600  1
  N  N149  1  0.71646900  0.91016600  0.50248800  1
  N  N150  1  0.42857000  0.14220900  0.18399800  1
  N  N151  1  0.19117600  0.78206800  0.70507600  1
  N  N152  1  0.44643000  0.85701800  0.77395400  1
  N  N153  1  0.21646900  0.08983400  0.99751200  1
  N  N154  1  0.80882400  0.21793200  0.29492400  1
  N  N155  1  0.06514000  0.07099700  0.39026800  1
  N  N156  1  0.30317100  0.90616800  0.36625400  1
  N  N157  1  0.73590800  0.15087200  0.02998100  1
  N  N158  1  0.55276500  0.15637800  0.73205400  1
  N  N159  1  0.69809200  0.21921400  0.44153600  1
  N  N160  1  0.99328500  0.98170300  0.36345900  1
  N  N161  1  0.52848600  0.34874900  0.33570900  1
  N  N162  1  0.23590800  0.84912800  0.47001900  1
  N  N163  1  0.43486000  0.07099700  0.89026800  1
  N  N164  1  0.30190800  0.78078600  0.55846400  1
  N  N165  1  0.80190800  0.21921400  0.94153600  1
  N  N166  1  0.92857000  0.85779100  0.31600200  1
  N  N167  1  0.19553000  0.60415300  0.41979400  1
  N  N168  1  0.25912400  0.78438600  0.78381200  1
  N  N169  1  0.82308100  0.09308200  0.65134100  1
  N  N170  1  0.28353100  0.08983400  0.49751200  1
  N  N171  1  0.04709100  0.95008200  0.07863800  1
  N  N172  1  0.30882400  0.78206800  0.20507600  1
  N  N173  1  0.50671500  0.98170300  0.86345900  1
  N  N174  1  0.95507300  0.22586200  0.53407300  1
  N  N175  1  0.74087600  0.21561400  0.21618800  1
  N  N176  1  0.93486000  0.92900300  0.60973200  1
  N  N177  1  0.94643000  0.14298200  0.72604600  1
  N  N178  1  0.56514000  0.92900300  0.10973200  1
  N  N179  1  0.27490700  0.06943300  0.19346100  1
  N  N180  1  0.44723500  0.84362200  0.26794600  1
  N  N181  1  0.97151400  0.34874900  0.83570900  1
  N  N182  1  0.67691900  0.09308200  0.15134100  1
  N  N183  1  0.19682900  0.90616800  0.86625400  1
  N  N184  1  0.49328500  0.01829700  0.13654100  1
  N  N185  1  0.57143000  0.85779100  0.81600200  1
  N  N186  1  0.69682900  0.09383200  0.63374600  1
  N  N187  1  0.02848600  0.65125100  0.16429100  1
  N  N188  1  0.22509300  0.06943300  0.69346100  1
  N  N189  1  0.30447000  0.60415300  0.91979400  1
  N  N190  1  0.54492700  0.22586200  0.03407300  1
  N  N191  1  0.95290900  0.04991800  0.92136200  1
