# generated using pymatgen
data_K3Ta4F15
_symmetry_space_group_name_H-M   'P 1'
_cell_length_a   4.13527500
_cell_length_b   18.59592300
_cell_length_c   19.97589000
_cell_angle_alpha   90.00000000
_cell_angle_beta   90.00000000
_cell_angle_gamma   90.00000000
_symmetry_Int_Tables_number   1
_chemical_formula_structural   K3Ta4F15
_chemical_formula_sum   'K12 Ta16 F60'
_cell_volume   1536.13106863
_cell_formula_units_Z   4
loop_
 _symmetry_equiv_pos_site_id
 _symmetry_equiv_pos_as_xyz
  1  'x, y, z'
loop_
 _atom_site_type_symbol
 _atom_site_label
 _atom_site_symmetry_multiplicity
 _atom_site_fract_x
 _atom_site_fract_y
 _atom_site_fract_z
 _atom_site_occupancy
  K  K0  1  0.00000000  0.86038300  0.51749400  1
  K  K1  1  0.50000000  0.45221200  0.86287500  1
  K  K2  1  0.50000000  0.65959500  0.85358700  1
  K  K3  1  0.50000000  0.64260900  0.53693100  1
  K  K4  1  0.50000000  0.13961700  0.01749400  1
  K  K5  1  0.00000000  0.35739100  0.03693100  1
  K  K6  1  0.50000000  0.17905800  0.67365300  1
  K  K7  1  0.00000000  0.34040500  0.35358700  1
  K  K8  1  0.00000000  0.54778800  0.36287500  1
  K  K9  1  0.00000000  0.82094200  0.17365300  1
  K  K10  1  0.00000000  0.03629600  0.17825000  1
  K  K11  1  0.50000000  0.96370400  0.67825000  1
  Ta  Ta12  1  0.50000000  0.24377300  0.18345700  1
  Ta  Ta13  1  0.00000000  0.01662700  0.84019700  1
  Ta  Ta14  1  0.00000000  0.46437300  0.54971400  1
  Ta  Ta15  1  0.00000000  0.49514200  0.70458600  1
  Ta  Ta16  1  0.00000000  0.96488000  0.98983800  1
  Ta  Ta17  1  0.50000000  0.63060200  0.16012600  1
  Ta  Ta18  1  0.00000000  0.24222200  0.86909000  1
  Ta  Ta19  1  0.00000000  0.75622700  0.68345700  1
  Ta  Ta20  1  0.50000000  0.75777800  0.36909000  1
  Ta  Ta21  1  0.00000000  0.85425000  0.87433000  1
  Ta  Ta22  1  0.50000000  0.03512000  0.48983800  1
  Ta  Ta23  1  0.50000000  0.14575000  0.37433000  1
  Ta  Ta24  1  0.50000000  0.98337300  0.34019700  1
  Ta  Ta25  1  0.00000000  0.36939800  0.66012600  1
  Ta  Ta26  1  0.50000000  0.53562700  0.04971400  1
  Ta  Ta27  1  0.50000000  0.50485800  0.20458600  1
  F  F28  1  0.50000000  0.86548200  0.33802300  1
  F  F29  1  0.00000000  0.05578000  0.05181900  1
  F  F30  1  0.00000000  0.24397600  0.18027600  1
  F  F31  1  0.50000000  0.34848900  0.67103500  1
  F  F32  1  0.00000000  0.35282800  0.55784000  1
  F  F33  1  0.00000000  0.97086200  0.32840200  1
  F  F34  1  0.50000000  0.50695000  0.71988300  1
  F  F35  1  0.50000000  0.24192800  0.87031000  1
  F  F36  1  0.00000000  0.25110000  0.65046400  1
  F  F37  1  0.50000000  0.44311600  0.12112600  1
  F  F38  1  0.50000000  0.14504300  0.47721400  1
  F  F39  1  0.00000000  0.56196000  0.49844900  1
  F  F40  1  0.50000000  0.57277900  0.95412800  1
  F  F41  1  0.00000000  0.52898600  0.04140900  1
  F  F42  1  0.50000000  0.43804000  0.99844900  1
  F  F43  1  0.50000000  0.75602400  0.68027600  1
  F  F44  1  0.00000000  0.02736400  0.50009100  1
  F  F45  1  0.50000000  0.97263600  0.00009100  1
  F  F46  1  0.50000000  0.64717200  0.05784000  1
  F  F47  1  0.00000000  0.16145300  0.36662500  1
  F  F48  1  0.50000000  0.47101400  0.54140900  1
  F  F49  1  0.00000000  0.05881600  0.93432700  1
  F  F50  1  0.00000000  0.85495700  0.97721400  1
  F  F51  1  0.50000000  0.96039900  0.23944000  1
  F  F52  1  0.50000000  0.65669100  0.40196800  1
  F  F53  1  0.00000000  0.72528200  0.58664600  1
  F  F54  1  0.50000000  0.47062100  0.30730400  1
  F  F55  1  0.50000000  0.83854700  0.86662500  1
  F  F56  1  0.00000000  0.66084000  0.72518100  1
  F  F57  1  0.00000000  0.74922200  0.90011000  1
  F  F58  1  0.00000000  0.34330900  0.90196800  1
  F  F59  1  0.50000000  0.27471800  0.08664600  1
  F  F60  1  0.00000000  0.86065600  0.65352600  1
  F  F61  1  0.50000000  0.02913800  0.82840200  1
  F  F62  1  0.50000000  0.94118400  0.43432700  1
  F  F63  1  0.50000000  0.78868100  0.46617900  1
  F  F64  1  0.00000000  0.39949200  0.76717100  1
  F  F65  1  0.00000000  0.79153800  0.78120900  1
  F  F66  1  0.00000000  0.42722100  0.45412800  1
  F  F67  1  0.00000000  0.92466000  0.08372300  1
  F  F68  1  0.00000000  0.49305000  0.21988300  1
  F  F69  1  0.00000000  0.13451800  0.83802300  1
  F  F70  1  0.50000000  0.33916000  0.22518100  1
  F  F71  1  0.50000000  0.94422000  0.55181900  1
  F  F72  1  0.50000000  0.08072300  0.29013900  1
  F  F73  1  0.50000000  0.07534000  0.58372300  1
  F  F74  1  0.00000000  0.52937900  0.80730400  1
  F  F75  1  0.00000000  0.75807200  0.37031000  1
  F  F76  1  0.50000000  0.20846200  0.28120900  1
  F  F77  1  0.00000000  0.03960100  0.73944000  1
  F  F78  1  0.50000000  0.60050800  0.26717100  1
  F  F79  1  0.00000000  0.91927700  0.79013900  1
  F  F80  1  0.50000000  0.74890000  0.15046400  1
  F  F81  1  0.00000000  0.65151100  0.17103500  1
  F  F82  1  0.00000000  0.26049700  0.77455600  1
  F  F83  1  0.50000000  0.13934400  0.15352600  1
  F  F84  1  0.00000000  0.55688400  0.62112600  1
  F  F85  1  0.50000000  0.73950300  0.27455600  1
  F  F86  1  0.00000000  0.21131900  0.96617900  1
  F  F87  1  0.50000000  0.25077800  0.40011000  1
