# generated using pymatgen
data_MnSb6(Pb2S7)2
_symmetry_space_group_name_H-M   'P 1'
_cell_length_a   19.37850300
_cell_length_b   4.03600400
_cell_length_c   15.97886365
_cell_angle_alpha   87.97886816
_cell_angle_beta   90.00000000
_cell_angle_gamma   90.00000000
_symmetry_Int_Tables_number   1
_chemical_formula_structural   MnSb6(Pb2S7)2
_chemical_formula_sum   'Mn2 Sb12 Pb8 S28'
_cell_volume   1248.95686447
_cell_formula_units_Z   2
loop_
 _symmetry_equiv_pos_site_id
 _symmetry_equiv_pos_as_xyz
  1  'x, y, z'
loop_
 _atom_site_type_symbol
 _atom_site_label
 _atom_site_symmetry_multiplicity
 _atom_site_fract_x
 _atom_site_fract_y
 _atom_site_fract_z
 _atom_site_occupancy
  Mn  Mn0  1  0.00000000  0.50000000  0.00000000  1
  Mn  Mn1  1  0.50000000  0.50000000  0.50000000  1
  Sb  Sb2  1  0.43764800  0.90935400  0.68217000  1
  Sb  Sb3  1  0.34013900  0.12309900  0.87052600  1
  Sb  Sb4  1  0.54936000  0.87696200  0.89680600  1
  Sb  Sb5  1  0.45064000  0.12303800  0.10319400  1
  Sb  Sb6  1  0.56235200  0.09064600  0.31783000  1
  Sb  Sb7  1  0.93764800  0.09064600  0.81783000  1
  Sb  Sb8  1  0.15986100  0.12309900  0.37052600  1
  Sb  Sb9  1  0.06235200  0.90935400  0.18217000  1
  Sb  Sb10  1  0.95064000  0.87696200  0.39680600  1
  Sb  Sb11  1  0.84013900  0.87690100  0.62947400  1
  Sb  Sb12  1  0.65986100  0.87690100  0.12947400  1
  Sb  Sb13  1  0.04936000  0.12303800  0.60319400  1
  Pb  Pb14  1  0.36006800  0.53944100  0.31458900  1
  Pb  Pb15  1  0.86006800  0.46055900  0.18541100  1
  Pb  Pb16  1  0.26046200  0.56437300  0.07287200  1
  Pb  Pb17  1  0.13993200  0.53944100  0.81458900  1
  Pb  Pb18  1  0.23953800  0.56437300  0.57287200  1
  Pb  Pb19  1  0.76046200  0.43562700  0.42712800  1
  Pb  Pb20  1  0.73953800  0.43562700  0.92712800  1
  Pb  Pb21  1  0.63993200  0.46055900  0.68541100  1
  S  S22  1  0.95603900  0.97397100  0.09657000  1
  S  S23  1  0.60091600  0.44779300  0.00324500  1
  S  S24  1  0.84075000  0.94215000  0.31815400  1
  S  S25  1  0.50377000  0.47015600  0.78664000  1
  S  S26  1  0.29768000  0.59479300  0.77725300  1
  S  S27  1  0.39908400  0.55220700  0.99675500  1
  S  S28  1  0.89908400  0.44779300  0.50324500  1
  S  S29  1  0.73066400  0.91884700  0.55168700  1
  S  S30  1  0.20232000  0.59479300  0.27725300  1
  S  S31  1  0.79768000  0.40520700  0.72274700  1
  S  S32  1  0.39508400  0.48410000  0.58300200  1
  S  S33  1  0.70232000  0.40520700  0.22274700  1
  S  S34  1  0.99623000  0.47015600  0.28664000  1
  S  S35  1  0.49623000  0.52984400  0.21336000  1
  S  S36  1  0.10091600  0.55220700  0.49675500  1
  S  S37  1  0.10491600  0.48410000  0.08300200  1
  S  S38  1  0.76933600  0.91884700  0.05168700  1
  S  S39  1  0.34075000  0.05785000  0.18184600  1
  S  S40  1  0.26933600  0.08115300  0.44831300  1
  S  S41  1  0.15925000  0.05785000  0.68184600  1
  S  S42  1  0.60491600  0.51590000  0.41699800  1
  S  S43  1  0.45603900  0.02602900  0.40343000  1
  S  S44  1  0.89508400  0.51590000  0.91699800  1
  S  S45  1  0.23066400  0.08115300  0.94831300  1
  S  S46  1  0.00377000  0.52984400  0.71336000  1
  S  S47  1  0.04396100  0.02602900  0.90343000  1
  S  S48  1  0.65925000  0.94215000  0.81815400  1
  S  S49  1  0.54396100  0.97397100  0.59657000  1
