# generated using pymatgen
data_Bi2O3
_symmetry_space_group_name_H-M   'P 1'
_cell_length_a   4.08046139
_cell_length_b   3.74137292
_cell_length_c   8.20278732
_cell_angle_alpha   62.66372061
_cell_angle_beta   62.59337208
_cell_angle_gamma   61.13165530
_symmetry_Int_Tables_number   1
_chemical_formula_structural   Bi2O3
_chemical_formula_sum   'Bi2 O3'
_cell_volume   92.72425942
_cell_formula_units_Z   1
loop_
 _symmetry_equiv_pos_site_id
 _symmetry_equiv_pos_as_xyz
  1  'x, y, z'
loop_
 _atom_site_type_symbol
 _atom_site_label
 _atom_site_symmetry_multiplicity
 _atom_site_fract_x
 _atom_site_fract_y
 _atom_site_fract_z
 _atom_site_occupancy
  Bi  Bi0  1  0.94602900  0.02822000  0.01330800  1
  Bi  Bi1  1  0.07902300  0.99427600  0.49239400  1
  O  O2  1  0.30583900  0.22156100  0.15729500  1
  O  O3  1  0.74035300  0.68862800  0.47162600  1
  O  O4  1  0.87675700  0.75131500  0.83937700  1
