# generated using pymatgen
data_Rb8U9O31
_symmetry_space_group_name_H-M   'P 1'
_cell_length_a   7.07037600
_cell_length_b   14.56759900
_cell_length_c   34.41438100
_cell_angle_alpha   90.00000000
_cell_angle_beta   90.00000000
_cell_angle_gamma   90.00000000
_symmetry_Int_Tables_number   1
_chemical_formula_structural   Rb8U9O31
_chemical_formula_sum   'Rb32 U36 O124'
_cell_volume   3544.62626077
_cell_formula_units_Z   4
loop_
 _symmetry_equiv_pos_site_id
 _symmetry_equiv_pos_as_xyz
  1  'x, y, z'
loop_
 _atom_site_type_symbol
 _atom_site_label
 _atom_site_symmetry_multiplicity
 _atom_site_fract_x
 _atom_site_fract_y
 _atom_site_fract_z
 _atom_site_occupancy
  Rb  Rb0  1  0.23973600  0.48576900  0.47289200  1
  Rb  Rb1  1  0.76026400  0.98576900  0.47289200  1
  Rb  Rb2  1  0.24718800  0.94770400  0.41243700  1
  Rb  Rb3  1  0.28325400  0.39467100  0.35274800  1
  Rb  Rb4  1  0.74718800  0.94770400  0.08756300  1
  Rb  Rb5  1  0.74718800  0.55229600  0.91243700  1
  Rb  Rb6  1  0.80384400  0.12655600  0.71996900  1
  Rb  Rb7  1  0.25281200  0.05229600  0.91243700  1
  Rb  Rb8  1  0.30384400  0.37344400  0.21996900  1
  Rb  Rb9  1  0.73973600  0.48576900  0.02710800  1
  Rb  Rb10  1  0.21674600  0.89467100  0.14725200  1
  Rb  Rb11  1  0.26026400  0.98576900  0.02710800  1
  Rb  Rb12  1  0.21674600  0.60532900  0.85274800  1
  Rb  Rb13  1  0.78325400  0.10532900  0.85274800  1
  Rb  Rb14  1  0.19615600  0.87344400  0.28003100  1
  Rb  Rb15  1  0.25281200  0.44770400  0.08756300  1
  Rb  Rb16  1  0.78325400  0.39467100  0.14725200  1
  Rb  Rb17  1  0.69615600  0.62655600  0.78003100  1
  Rb  Rb18  1  0.23973600  0.01423100  0.52710800  1
  Rb  Rb19  1  0.19615600  0.62655600  0.71996900  1
  Rb  Rb20  1  0.75281200  0.44770400  0.41243700  1
  Rb  Rb21  1  0.75281200  0.05229600  0.58756300  1
  Rb  Rb22  1  0.30384400  0.12655600  0.78003100  1
  Rb  Rb23  1  0.71674600  0.89467100  0.35274800  1
  Rb  Rb24  1  0.28325400  0.10532900  0.64725200  1
  Rb  Rb25  1  0.80384400  0.37344400  0.28003100  1
  Rb  Rb26  1  0.26026400  0.51423100  0.97289200  1
  Rb  Rb27  1  0.24718800  0.55229600  0.58756300  1
  Rb  Rb28  1  0.73973600  0.01423100  0.97289200  1
  Rb  Rb29  1  0.71674600  0.60532900  0.64725200  1
  Rb  Rb30  1  0.69615600  0.87344400  0.21996900  1
  Rb  Rb31  1  0.76026400  0.51423100  0.52710800  1
  U  U32  1  0.06336700  0.13241800  0.33072000  1
  U  U33  1  0.94981400  0.75000000  0.00000000  1
  U  U34  1  0.06336700  0.36758200  0.66928000  1
  U  U35  1  0.01568900  0.38356500  0.78460400  1
  U  U36  1  0.51568900  0.11643500  0.28460400  1
  U  U37  1  0.58562000  0.21227900  0.05663900  1
  U  U38  1  0.55018600  0.25000000  0.50000000  1
  U  U39  1  0.88125600  0.82757600  0.89004200  1
  U  U40  1  0.56336700  0.36758200  0.83072000  1
  U  U41  1  0.11874400  0.17242400  0.10995800  1
  U  U42  1  0.38125600  0.82757600  0.60995800  1
  U  U43  1  0.98431100  0.88356500  0.78460400  1
  U  U44  1  0.61874400  0.32757600  0.60995800  1
  U  U45  1  0.11874400  0.32757600  0.89004200  1
  U  U46  1  0.93663300  0.63241800  0.33072000  1
  U  U47  1  0.93663300  0.86758200  0.66928000  1
  U  U48  1  0.44981400  0.75000000  0.50000000  1
  U  U49  1  0.98431100  0.61643500  0.21539600  1
  U  U50  1  0.88125600  0.67242400  0.10995800  1
  U  U51  1  0.48431100  0.88356500  0.71539600  1
  U  U52  1  0.05018600  0.25000000  0.00000000  1
  U  U53  1  0.08562000  0.28772100  0.55663900  1
  U  U54  1  0.91438000  0.78772100  0.55663900  1
  U  U55  1  0.08562000  0.21227900  0.44336100  1
  U  U56  1  0.61874400  0.17242400  0.39004200  1
  U  U57  1  0.38125600  0.67242400  0.39004200  1
  U  U58  1  0.48431100  0.61643500  0.28460400  1
  U  U59  1  0.43663300  0.86758200  0.83072000  1
  U  U60  1  0.43663300  0.63241800  0.16928000  1
  U  U61  1  0.91438000  0.71227900  0.44336100  1
  U  U62  1  0.51568900  0.38356500  0.71539600  1
  U  U63  1  0.56336700  0.13241800  0.16928000  1
  U  U64  1  0.41438000  0.71227900  0.05663900  1
  U  U65  1  0.58562000  0.28772100  0.94336100  1
  U  U66  1  0.01568900  0.11643500  0.21539600  1
  U  U67  1  0.41438000  0.78772100  0.94336100  1
  O  O68  1  0.43430500  0.74270200  0.81855700  1
  O  O69  1  0.75092500  0.63052200  0.17468100  1
  O  O70  1  0.69806500  0.39840600  0.77090800  1
  O  O71  1  0.43872000  0.99442200  0.84068500  1
  O  O72  1  0.97290300  0.48800600  0.21114200  1
  O  O73  1  0.08562600  0.16435200  0.57338300  1
  O  O74  1  0.62517400  0.63799900  0.34436400  1
  O  O75  1  0.44789900  0.87289600  0.48494800  1
  O  O76  1  0.80193500  0.89840600  0.72909200  1
  O  O77  1  0.69806500  0.10159400  0.22909200  1
  O  O78  1  0.06569500  0.25729800  0.31855700  1
  O  O79  1  0.54440100  0.83517600  0.88875400  1
  O  O80  1  0.10063400  0.70521600  0.06640700  1
  O  O81  1  0.25092500  0.86947800  0.67468100  1
  O  O82  1  0.02709700  0.51199400  0.78885800  1
  O  O83  1  0.24907500  0.36947800  0.82531900  1
  O  O84  1  0.58562600  0.16435200  0.92661700  1
  O  O85  1  0.25092500  0.63052200  0.32531900  1
  O  O86  1  0.91098700  0.58799700  0.45886500  1
  O  O87  1  0.11213000  0.04852900  0.09668800  1
  O  O88  1  0.74907500  0.13052200  0.32531900  1
  O  O89  1  0.87482600  0.36200100  0.84436400  1
  O  O90  1  0.58901300  0.41200300  0.95886500  1
  O  O91  1  0.21017700  0.25000000  0.50000000  1
  O  O92  1  0.37420000  0.79338900  0.37326800  1
  O  O93  1  0.37420000  0.70661100  0.62673200  1
  O  O94  1  0.19806500  0.39840600  0.72909200  1
  O  O95  1  0.19806500  0.10159400  0.27090800  1
  O  O96  1  0.41437400  0.83564800  0.07338300  1
  O  O97  1  0.60063400  0.79478400  0.56640700  1
  O  O98  1  0.12517400  0.86200100  0.84436400  1
  O  O99  1  0.41437400  0.66435200  0.92661700  1
  O  O100  1  0.11213000  0.45147100  0.90331200  1
  O  O101  1  0.22941500  0.78262800  0.54522400  1
  O  O102  1  0.71017700  0.25000000  0.00000000  1
  O  O103  1  0.88787000  0.95147100  0.90331200  1
  O  O104  1  0.62580000  0.20661100  0.62673200  1
  O  O105  1  0.05210100  0.37289600  0.01505200  1
  O  O106  1  0.93872000  0.50557800  0.34068500  1
  O  O107  1  0.06569500  0.24270200  0.68144300  1
  O  O108  1  0.47290300  0.48800600  0.28885800  1
  O  O109  1  0.28982300  0.75000000  0.00000000  1
  O  O110  1  0.37482600  0.36200100  0.65563600  1
  O  O111  1  0.56569500  0.25729800  0.18144300  1
  O  O112  1  0.10063400  0.79478400  0.93359300  1
  O  O113  1  0.38787000  0.54852900  0.40331200  1
  O  O114  1  0.08562600  0.33564800  0.42661700  1
  O  O115  1  0.41098700  0.58799700  0.04113500  1
  O  O116  1  0.04440100  0.83517600  0.61124600  1
  O  O117  1  0.77058500  0.21737200  0.45477600  1
  O  O118  1  0.72941500  0.78262800  0.95477600  1
  O  O119  1  0.87420000  0.70661100  0.87326800  1
  O  O120  1  0.06128000  0.00557800  0.34068500  1
  O  O121  1  0.58901300  0.08799700  0.04113500  1
  O  O122  1  0.38787000  0.95147100  0.59668800  1
  O  O123  1  0.61213000  0.04852900  0.40331200  1
  O  O124  1  0.43872000  0.50557800  0.15931500  1
  O  O125  1  0.99787800  0.74154000  0.22487700  1
  O  O126  1  0.72941500  0.71737200  0.04522400  1
  O  O127  1  0.54440100  0.66482400  0.11124600  1
  O  O128  1  0.88787000  0.54852900  0.09668800  1
  O  O129  1  0.47290300  0.01199400  0.71114200  1
  O  O130  1  0.52709700  0.98800600  0.28885800  1
  O  O131  1  0.27058500  0.21737200  0.04522400  1
  O  O132  1  0.62517400  0.86200100  0.65563600  1
  O  O133  1  0.08901300  0.08799700  0.45886500  1
  O  O134  1  0.89936600  0.29478400  0.93359300  1
  O  O135  1  0.62580000  0.29338900  0.37326800  1
  O  O136  1  0.39936600  0.20521600  0.43359300  1
  O  O137  1  0.22941500  0.71737200  0.45477600  1
  O  O138  1  0.58562600  0.33564800  0.07338300  1
  O  O139  1  0.55210100  0.12710400  0.51505200  1
  O  O140  1  0.61213000  0.45147100  0.59668800  1
  O  O141  1  0.30193500  0.89840600  0.77090800  1
  O  O142  1  0.56569500  0.24270200  0.81855700  1
  O  O143  1  0.75092500  0.86947800  0.82531900  1
  O  O144  1  0.24907500  0.13052200  0.17468100  1
  O  O145  1  0.87420000  0.79338900  0.12673200  1
  O  O146  1  0.94789900  0.62710400  0.98494800  1
  O  O147  1  0.93430500  0.75729800  0.31855700  1
  O  O148  1  0.87482600  0.13799900  0.15563600  1
  O  O149  1  0.74907500  0.36947800  0.67468100  1
  O  O150  1  0.30193500  0.60159400  0.22909200  1
  O  O151  1  0.08901300  0.41200300  0.54113500  1
  O  O152  1  0.12517400  0.63799900  0.15563600  1
  O  O153  1  0.27058500  0.28262800  0.95477600  1
  O  O154  1  0.45559900  0.33517600  0.88875400  1
  O  O155  1  0.04440100  0.66482400  0.38875400  1
  O  O156  1  0.06128000  0.49442200  0.65931500  1
  O  O157  1  0.49787800  0.75846000  0.72487700  1
  O  O158  1  0.91098700  0.91200300  0.54113500  1
  O  O159  1  0.95559900  0.16482400  0.38875400  1
  O  O160  1  0.56128000  0.00557800  0.15931500  1
  O  O161  1  0.43430500  0.75729800  0.18144300  1
  O  O162  1  0.99787800  0.75846000  0.77512300  1
  O  O163  1  0.05210100  0.12710400  0.98494800  1
  O  O164  1  0.78982300  0.75000000  0.50000000  1
  O  O165  1  0.91437400  0.83564800  0.42661700  1
  O  O166  1  0.93430500  0.74270200  0.68144300  1
  O  O167  1  0.37482600  0.13799900  0.34436400  1
  O  O168  1  0.80193500  0.60159400  0.27090800  1
  O  O169  1  0.12580000  0.20661100  0.87326800  1
  O  O170  1  0.00212200  0.25846000  0.77512300  1
  O  O171  1  0.02709700  0.98800600  0.21114200  1
  O  O172  1  0.55210100  0.37289600  0.48494800  1
  O  O173  1  0.50212200  0.24154000  0.27512300  1
  O  O174  1  0.94789900  0.87289600  0.01505200  1
  O  O175  1  0.77058500  0.28262800  0.54522400  1
  O  O176  1  0.39936600  0.29478400  0.56640700  1
  O  O177  1  0.97290300  0.01199400  0.78885800  1
  O  O178  1  0.56128000  0.49442200  0.84068500  1
  O  O179  1  0.52709700  0.51199400  0.71114200  1
  O  O180  1  0.50212200  0.25846000  0.72487700  1
  O  O181  1  0.44789900  0.62710400  0.51505200  1
  O  O182  1  0.00212200  0.24154000  0.22487700  1
  O  O183  1  0.93872000  0.99442200  0.65931500  1
  O  O184  1  0.49787800  0.74154000  0.27512300  1
  O  O185  1  0.95559900  0.33517600  0.61124600  1
  O  O186  1  0.60063400  0.70521600  0.43359300  1
  O  O187  1  0.41098700  0.91200300  0.95886500  1
  O  O188  1  0.91437400  0.66435200  0.57338300  1
  O  O189  1  0.89936600  0.20521600  0.06640700  1
  O  O190  1  0.45559900  0.16482400  0.11124600  1
  O  O191  1  0.12580000  0.29338900  0.12673200  1
