# generated using pymatgen
data_Tl7Bi3I16
_symmetry_space_group_name_H-M   'P 1'
_cell_length_a   14.66633706
_cell_length_b   14.66633706
_cell_length_c   36.88744400
_cell_angle_alpha   90.00000000
_cell_angle_beta   90.00000000
_cell_angle_gamma   119.56255261
_symmetry_Int_Tables_number   1
_chemical_formula_structural   Tl7Bi3I16
_chemical_formula_sum   'Tl42 Bi18 I96'
_cell_volume   6901.60444572
_cell_formula_units_Z   6
loop_
 _symmetry_equiv_pos_site_id
 _symmetry_equiv_pos_as_xyz
  1  'x, y, z'
loop_
 _atom_site_type_symbol
 _atom_site_label
 _atom_site_symmetry_multiplicity
 _atom_site_fract_x
 _atom_site_fract_y
 _atom_site_fract_z
 _atom_site_occupancy
  Tl  Tl0  1  0.62711400  0.62711400  0.54428400  1
  Tl  Tl1  1  0.37593900  0.67279300  0.11999700  1
  Tl  Tl2  1  0.38502100  0.66872000  0.25000000  1
  Tl  Tl3  1  0.66961500  0.00486200  0.62026900  1
  Tl  Tl4  1  0.67279300  0.37593900  0.11999700  1
  Tl  Tl5  1  0.67204300  0.99883900  0.75000000  1
  Tl  Tl6  1  0.33038500  0.99513800  0.37973100  1
  Tl  Tl7  1  0.62406100  0.32720700  0.61999700  1
  Tl  Tl8  1  0.32720700  0.62406100  0.61999700  1
  Tl  Tl9  1  0.66872000  0.38502100  0.25000000  1
  Tl  Tl10  1  0.03990900  0.33686200  0.97166700  1
  Tl  Tl11  1  0.03990900  0.33686200  0.52833300  1
  Tl  Tl12  1  0.33038500  0.99513800  0.12026900  1
  Tl  Tl13  1  0.32720700  0.62406100  0.88000300  1
  Tl  Tl14  1  0.62406100  0.32720700  0.88000300  1
  Tl  Tl15  1  0.32795700  0.00116100  0.25000000  1
  Tl  Tl16  1  0.66961500  0.00486200  0.87973100  1
  Tl  Tl17  1  0.62711400  0.62711400  0.95571600  1
  Tl  Tl18  1  0.96009100  0.66313800  0.02833300  1
  Tl  Tl19  1  0.33686200  0.03990900  0.97166700  1
  Tl  Tl20  1  0.94818200  0.94818200  0.11589000  1
  Tl  Tl21  1  0.96009100  0.66313800  0.47166700  1
  Tl  Tl22  1  0.37288600  0.37288600  0.45571600  1
  Tl  Tl23  1  0.94757400  0.94757400  0.25000000  1
  Tl  Tl24  1  0.94818200  0.94818200  0.38411000  1
  Tl  Tl25  1  0.05181800  0.05181800  0.88411000  1
  Tl  Tl26  1  0.00486200  0.66961500  0.62026900  1
  Tl  Tl27  1  0.99513800  0.33038500  0.37973100  1
  Tl  Tl28  1  0.00116100  0.32795700  0.25000000  1
  Tl  Tl29  1  0.37288600  0.37288600  0.04428400  1
  Tl  Tl30  1  0.99883900  0.67204300  0.75000000  1
  Tl  Tl31  1  0.00486200  0.66961500  0.87973100  1
  Tl  Tl32  1  0.99513800  0.33038500  0.12026900  1
  Tl  Tl33  1  0.33128000  0.61497900  0.75000000  1
  Tl  Tl34  1  0.37593900  0.67279300  0.38000300  1
  Tl  Tl35  1  0.05181800  0.05181800  0.61589000  1
  Tl  Tl36  1  0.05242600  0.05242600  0.75000000  1
  Tl  Tl37  1  0.66313800  0.96009100  0.02833300  1
  Tl  Tl38  1  0.67279300  0.37593900  0.38000300  1
  Tl  Tl39  1  0.61497900  0.33128000  0.75000000  1
  Tl  Tl40  1  0.66313800  0.96009100  0.47166700  1
  Tl  Tl41  1  0.33686200  0.03990900  0.52833300  1
  Bi  Bi42  1  0.32741800  0.00275900  0.81656300  1
  Bi  Bi43  1  0.33553600  0.66446400  0.00000000  1
  Bi  Bi44  1  0.99724100  0.67258200  0.18343700  1
  Bi  Bi45  1  0.33942900  0.33942900  0.31577800  1
  Bi  Bi46  1  0.99724100  0.67258200  0.31656300  1
  Bi  Bi47  1  0.66446400  0.33553600  0.00000000  1
  Bi  Bi48  1  0.32741800  0.00275900  0.68343700  1
  Bi  Bi49  1  0.00000000  0.00000000  0.50000000  1
  Bi  Bi50  1  0.00275900  0.32741800  0.81656300  1
  Bi  Bi51  1  0.66446400  0.33553600  0.50000000  1
  Bi  Bi52  1  0.33553600  0.66446400  0.50000000  1
  Bi  Bi53  1  0.66057100  0.66057100  0.68422200  1
  Bi  Bi54  1  0.66057100  0.66057100  0.81577800  1
  Bi  Bi55  1  0.33942900  0.33942900  0.18422200  1
  Bi  Bi56  1  0.67258200  0.99724100  0.18343700  1
  Bi  Bi57  1  0.67258200  0.99724100  0.31656300  1
  Bi  Bi58  1  0.00000000  0.00000000  0.00000000  1
  Bi  Bi59  1  0.00275900  0.32741800  0.68343700  1
  I  I60  1  0.08281800  0.88582700  0.81523900  1
  I  I61  1  0.95014000  0.13533100  0.44688000  1
  I  I62  1  0.48779700  0.33259600  0.54325700  1
  I  I63  1  0.66740400  0.51220300  0.45674300  1
  I  I64  1  0.33259600  0.48779700  0.95674300  1
  I  I65  1  0.32115000  0.85253500  0.75000000  1
  I  I66  1  0.87823700  0.42628600  0.31382000  1
  I  I67  1  0.87823700  0.42628600  0.18618000  1
  I  I68  1  0.91718200  0.11417300  0.31523900  1
  I  I69  1  0.80719100  0.51572500  0.55369500  1
  I  I70  1  0.19088900  0.19088900  0.53080800  1
  I  I71  1  0.33319800  0.16068500  0.86888000  1
  I  I72  1  0.20877200  0.20877200  0.12193300  1
  I  I73  1  0.88582700  0.08281800  0.68476100  1
  I  I74  1  0.20877200  0.20877200  0.37806700  1
  I  I75  1  0.49676800  0.49676800  0.36659500  1
  I  I76  1  0.15266500  0.33182800  0.75000000  1
  I  I77  1  0.51220300  0.66740400  0.04325700  1
  I  I78  1  0.33182800  0.15266500  0.75000000  1
  I  I79  1  0.46463300  0.21717000  0.18555100  1
  I  I80  1  0.14746500  0.67885000  0.25000000  1
  I  I81  1  0.53536700  0.78283000  0.81444900  1
  I  I82  1  0.51298700  0.51298700  0.75000000  1
  I  I83  1  0.12176300  0.57371400  0.81382000  1
  I  I84  1  0.86466900  0.04986000  0.55312000  1
  I  I85  1  0.67827300  0.13038800  0.37923500  1
  I  I86  1  0.13038800  0.67827300  0.12076500  1
  I  I87  1  0.38129900  0.86470800  0.04574500  1
  I  I88  1  0.86466900  0.04986000  0.94688000  1
  I  I89  1  0.12176300  0.57371400  0.68618000  1
  I  I90  1  0.80911100  0.80911100  0.03080800  1
  I  I91  1  0.83931500  0.66680200  0.13112000  1
  I  I92  1  0.53536700  0.78283000  0.68555100  1
  I  I93  1  0.11417300  0.91718200  0.31523900  1
  I  I94  1  0.46463300  0.21717000  0.31444900  1
  I  I95  1  0.88582700  0.08281800  0.81523900  1
  I  I96  1  0.83931500  0.66680200  0.36888000  1
  I  I97  1  0.33319800  0.16068500  0.63112000  1
  I  I98  1  0.19280900  0.48427500  0.05369500  1
  I  I99  1  0.57371400  0.12176300  0.68618000  1
  I  I100  1  0.19088900  0.19088900  0.96919200  1
  I  I101  1  0.11417300  0.91718200  0.18476100  1
  I  I102  1  0.13533100  0.95014000  0.05312000  1
  I  I103  1  0.48427500  0.19280900  0.44630500  1
  I  I104  1  0.33259600  0.48779700  0.54325700  1
  I  I105  1  0.21717000  0.46463300  0.18555100  1
  I  I106  1  0.08281800  0.88582700  0.68476100  1
  I  I107  1  0.16068500  0.33319800  0.63112000  1
  I  I108  1  0.51220300  0.66740400  0.45674300  1
  I  I109  1  0.67885000  0.14746500  0.25000000  1
  I  I110  1  0.42628600  0.87823700  0.18618000  1
  I  I111  1  0.80911100  0.80911100  0.46919200  1
  I  I112  1  0.66680200  0.83931500  0.36888000  1
  I  I113  1  0.13533100  0.95014000  0.44688000  1
  I  I114  1  0.78283000  0.53536700  0.81444900  1
  I  I115  1  0.21717000  0.46463300  0.31444900  1
  I  I116  1  0.50323200  0.50323200  0.63340500  1
  I  I117  1  0.91718200  0.11417300  0.18476100  1
  I  I118  1  0.49676800  0.49676800  0.13340500  1
  I  I119  1  0.79122800  0.79122800  0.87806700  1
  I  I120  1  0.48427500  0.19280900  0.05369500  1
  I  I121  1  0.51572500  0.80719100  0.55369500  1
  I  I122  1  0.66740400  0.51220300  0.04325700  1
  I  I123  1  0.85253500  0.32115000  0.75000000  1
  I  I124  1  0.13038800  0.67827300  0.37923500  1
  I  I125  1  0.04986000  0.86466900  0.94688000  1
  I  I126  1  0.61870100  0.13529200  0.95425500  1
  I  I127  1  0.86961200  0.32172700  0.62076500  1
  I  I128  1  0.48701300  0.48701300  0.25000000  1
  I  I129  1  0.32172700  0.86961200  0.87923500  1
  I  I130  1  0.32172700  0.86961200  0.62076500  1
  I  I131  1  0.19217500  0.19217500  0.25000000  1
  I  I132  1  0.13529200  0.61870100  0.95425500  1
  I  I133  1  0.80782500  0.80782500  0.75000000  1
  I  I134  1  0.86961200  0.32172700  0.87923500  1
  I  I135  1  0.61870100  0.13529200  0.54574500  1
  I  I136  1  0.04986000  0.86466900  0.55312000  1
  I  I137  1  0.57371400  0.12176300  0.81382000  1
  I  I138  1  0.66680200  0.83931500  0.13112000  1
  I  I139  1  0.13529200  0.61870100  0.54574500  1
  I  I140  1  0.48779700  0.33259600  0.95674300  1
  I  I141  1  0.67827300  0.13038800  0.12076500  1
  I  I142  1  0.51572500  0.80719100  0.94630500  1
  I  I143  1  0.79122800  0.79122800  0.62193300  1
  I  I144  1  0.19280900  0.48427500  0.44630500  1
  I  I145  1  0.42628600  0.87823700  0.31382000  1
  I  I146  1  0.84733500  0.66817200  0.25000000  1
  I  I147  1  0.50323200  0.50323200  0.86659500  1
  I  I148  1  0.78283000  0.53536700  0.68555100  1
  I  I149  1  0.66817200  0.84733500  0.25000000  1
  I  I150  1  0.95014000  0.13533100  0.05312000  1
  I  I151  1  0.86470800  0.38129900  0.04574500  1
  I  I152  1  0.38129900  0.86470800  0.45425500  1
  I  I153  1  0.80719100  0.51572500  0.94630500  1
  I  I154  1  0.16068500  0.33319800  0.86888000  1
  I  I155  1  0.86470800  0.38129900  0.45425500  1
