# generated using pymatgen
data_Sn4Sb6S13
_symmetry_space_group_name_H-M   'P 1'
_cell_length_a   16.98663393
_cell_length_b   16.98663393
_cell_length_c   24.94199032
_cell_angle_alpha   48.44171393
_cell_angle_beta   48.44171393
_cell_angle_gamma   12.95770454
_symmetry_Int_Tables_number   1
_chemical_formula_structural   Sn4Sb6S13
_chemical_formula_sum   'Sn8 Sb12 S26'
_cell_volume   1201.42168972
_cell_formula_units_Z   2
loop_
 _symmetry_equiv_pos_site_id
 _symmetry_equiv_pos_as_xyz
  1  'x, y, z'
loop_
 _atom_site_type_symbol
 _atom_site_label
 _atom_site_symmetry_multiplicity
 _atom_site_fract_x
 _atom_site_fract_y
 _atom_site_fract_z
 _atom_site_occupancy
  Sn  Sn0  1  0.19827600  0.19827600  0.10151400  1
  Sn  Sn1  1  0.64628200  0.64628200  0.83676800  1
  Sn  Sn2  1  0.42904400  0.42904400  0.69654700  1
  Sn  Sn3  1  0.54778200  0.54778200  0.51133700  1
  Sn  Sn4  1  0.45221800  0.45221800  0.48866300  1
  Sn  Sn5  1  0.57095600  0.57095600  0.30345300  1
  Sn  Sn6  1  0.80172400  0.80172400  0.89848600  1
  Sn  Sn7  1  0.35371800  0.35371800  0.16323200  1
  Sb  Sb8  1  0.32793900  0.32793900  0.33202100  1
  Sb  Sb9  1  0.67206100  0.67206100  0.66797900  1
  Sb  Sb10  1  0.82132400  0.82132400  0.69300600  1
  Sb  Sb11  1  0.48864200  0.48864200  0.09637400  1
  Sb  Sb12  1  0.51135800  0.51135800  0.90362600  1
  Sb  Sb13  1  0.17867600  0.17867600  0.30699400  1
  Sb  Sb14  1  0.86759700  0.86759700  0.99295900  1
  Sb  Sb15  1  0.02736200  0.02736200  0.75115100  1
  Sb  Sb16  1  0.97263800  0.97263800  0.24884900  1
  Sb  Sb17  1  0.85590600  0.85590600  0.47770100  1
  Sb  Sb18  1  0.14409400  0.14409400  0.52229900  1
  Sb  Sb19  1  0.13240300  0.13240300  0.00704100  1
  S  S20  1  0.92363500  0.92363500  0.20282000  1
  S  S21  1  0.21076900  0.21076900  0.75755500  1
  S  S22  1  0.68635300  0.68635300  0.04188200  1
  S  S23  1  0.78923100  0.78923100  0.24244500  1
  S  S24  1  0.31364700  0.31364700  0.95811800  1
  S  S25  1  0.67987300  0.67987300  0.91100900  1
  S  S26  1  0.05774000  0.05774000  0.00073000  1
  S  S27  1  0.08026400  0.08026400  0.40565100  1
  S  S28  1  0.08786600  0.08786600  0.21812300  1
  S  S29  1  0.46338100  0.46338100  0.85632100  1
  S  S30  1  0.04748800  0.04748800  0.59562800  1
  S  S31  1  0.65354500  0.65354500  0.44123100  1
  S  S32  1  0.91973600  0.91973600  0.59434900  1
  S  S33  1  0.39602500  0.39602500  0.34609500  1
  S  S34  1  0.60397500  0.60397500  0.65390500  1
  S  S35  1  0.94226000  0.94226000  0.99927000  1
  S  S36  1  0.32176600  0.32176600  0.76319100  1
  S  S37  1  0.91213400  0.91213400  0.78187700  1
  S  S38  1  0.32012700  0.32012700  0.08899100  1
  S  S39  1  0.22345000  0.22345000  0.57768600  1
  S  S40  1  0.67823400  0.67823400  0.23680900  1
  S  S41  1  0.95251200  0.95251200  0.40437200  1
  S  S42  1  0.77655000  0.77655000  0.42231400  1
  S  S43  1  0.53661900  0.53661900  0.14367900  1
  S  S44  1  0.07636500  0.07636500  0.79718000  1
  S  S45  1  0.34645500  0.34645500  0.55876900  1
