# generated using pymatgen
data_HfGe2Rh
_symmetry_space_group_name_H-M   'P 1'
_cell_length_a   8.08297000
_cell_length_b   9.31442000
_cell_length_c   10.56671900
_cell_angle_alpha   90.00000000
_cell_angle_beta   90.00000000
_cell_angle_gamma   90.00000000
_symmetry_Int_Tables_number   1
_chemical_formula_structural   HfGe2Rh
_chemical_formula_sum   'Hf12 Ge24 Rh12'
_cell_volume   795.54901490
_cell_formula_units_Z   12
loop_
 _symmetry_equiv_pos_site_id
 _symmetry_equiv_pos_as_xyz
  1  'x, y, z'
loop_
 _atom_site_type_symbol
 _atom_site_label
 _atom_site_symmetry_multiplicity
 _atom_site_fract_x
 _atom_site_fract_y
 _atom_site_fract_z
 _atom_site_occupancy
  Hf  Hf0  1  0.24402600  0.82991100  0.45356800  1
  Hf  Hf1  1  0.24402600  0.17008900  0.54643200  1
  Hf  Hf2  1  0.75597400  0.32991100  0.04643200  1
  Hf  Hf3  1  0.75597400  0.67008900  0.95356800  1
  Hf  Hf4  1  0.75597400  0.17008900  0.54643200  1
  Hf  Hf5  1  0.75597400  0.82991100  0.45356800  1
  Hf  Hf6  1  0.24402600  0.67008900  0.95356800  1
  Hf  Hf7  1  0.24402600  0.32991100  0.04643200  1
  Hf  Hf8  1  0.00000000  0.83456300  0.18240900  1
  Hf  Hf9  1  0.00000000  0.16543700  0.81759100  1
  Hf  Hf10  1  0.00000000  0.33456300  0.31759100  1
  Hf  Hf11  1  0.00000000  0.66543700  0.68240900  1
  Ge  Ge12  1  0.34838400  0.84510400  0.18311300  1
  Ge  Ge13  1  0.34838400  0.15489600  0.81688700  1
  Ge  Ge14  1  0.65161600  0.34510400  0.31688700  1
  Ge  Ge15  1  0.65161600  0.65489600  0.68311300  1
  Ge  Ge16  1  0.65161600  0.15489600  0.81688700  1
  Ge  Ge17  1  0.65161600  0.84510400  0.18311300  1
  Ge  Ge18  1  0.34838400  0.65489600  0.68311300  1
  Ge  Ge19  1  0.34838400  0.34510400  0.31688700  1
  Ge  Ge20  1  0.50000000  0.54730100  0.11219800  1
  Ge  Ge21  1  0.50000000  0.45269900  0.88780200  1
  Ge  Ge22  1  0.50000000  0.04730100  0.38780200  1
  Ge  Ge23  1  0.50000000  0.95269900  0.61219800  1
  Ge  Ge24  1  0.00000000  0.53788900  0.11548200  1
  Ge  Ge25  1  0.00000000  0.46211100  0.88451800  1
  Ge  Ge26  1  0.00000000  0.03788900  0.38451800  1
  Ge  Ge27  1  0.00000000  0.96211100  0.61548200  1
  Ge  Ge28  1  0.50000000  0.63871600  0.40548000  1
  Ge  Ge29  1  0.50000000  0.36128400  0.59452000  1
  Ge  Ge30  1  0.50000000  0.13871600  0.09452000  1
  Ge  Ge31  1  0.50000000  0.86128400  0.90548000  1
  Ge  Ge32  1  0.00000000  0.63292700  0.40096800  1
  Ge  Ge33  1  0.00000000  0.36707300  0.59903200  1
  Ge  Ge34  1  0.00000000  0.13292700  0.09903200  1
  Ge  Ge35  1  0.00000000  0.86707300  0.90096800  1
  Rh  Rh36  1  0.24968900  0.59930500  0.24528300  1
  Rh  Rh37  1  0.24968900  0.40069500  0.75471700  1
  Rh  Rh38  1  0.75031100  0.09930500  0.25471700  1
  Rh  Rh39  1  0.75031100  0.90069500  0.74528300  1
  Rh  Rh40  1  0.75031100  0.40069500  0.75471700  1
  Rh  Rh41  1  0.75031100  0.59930500  0.24528300  1
  Rh  Rh42  1  0.24968900  0.90069500  0.74528300  1
  Rh  Rh43  1  0.24968900  0.09930500  0.25471700  1
  Rh  Rh44  1  0.24807500  0.50000000  0.50000000  1
  Rh  Rh45  1  0.75192500  0.00000000  0.00000000  1
  Rh  Rh46  1  0.75192500  0.50000000  0.50000000  1
  Rh  Rh47  1  0.24807500  0.00000000  0.00000000  1
