# generated using pymatgen
data_Ce3NbS3O4
_symmetry_space_group_name_H-M   'P 1'
_cell_length_a   7.03134500
_cell_length_b   7.56072500
_cell_length_c   14.57434000
_cell_angle_alpha   90.00000000
_cell_angle_beta   90.00000000
_cell_angle_gamma   90.00000000
_symmetry_Int_Tables_number   1
_chemical_formula_structural   Ce3NbS3O4
_chemical_formula_sum   'Ce12 Nb4 S12 O16'
_cell_volume   774.80202390
_cell_formula_units_Z   4
loop_
 _symmetry_equiv_pos_site_id
 _symmetry_equiv_pos_as_xyz
  1  'x, y, z'
loop_
 _atom_site_type_symbol
 _atom_site_label
 _atom_site_symmetry_multiplicity
 _atom_site_fract_x
 _atom_site_fract_y
 _atom_site_fract_z
 _atom_site_occupancy
  Ce  Ce0  1  0.71306100  0.24679600  0.15715300  1
  Ce  Ce1  1  0.78693900  0.24679600  0.65715300  1
  Ce  Ce2  1  0.71688600  0.50000000  0.91969800  1
  Ce  Ce3  1  0.21306100  0.24679600  0.34284700  1
  Ce  Ce4  1  0.28693900  0.75320400  0.84284700  1
  Ce  Ce5  1  0.21306100  0.75320400  0.34284700  1
  Ce  Ce6  1  0.28693900  0.24679600  0.84284700  1
  Ce  Ce7  1  0.21688600  0.50000000  0.58030200  1
  Ce  Ce8  1  0.28311400  0.50000000  0.08030200  1
  Ce  Ce9  1  0.78693900  0.75320400  0.65715300  1
  Ce  Ce10  1  0.71306100  0.75320400  0.15715300  1
  Ce  Ce11  1  0.78311400  0.50000000  0.41969800  1
  Nb  Nb12  1  0.74931600  0.00000000  0.43036800  1
  Nb  Nb13  1  0.75068400  0.00000000  0.93036800  1
  Nb  Nb14  1  0.25068400  0.00000000  0.56963200  1
  Nb  Nb15  1  0.24931600  0.00000000  0.06963200  1
  S  S16  1  0.50000000  0.75350400  0.50000000  1
  S  S17  1  0.97144500  0.00000000  0.79198000  1
  S  S18  1  0.02855500  0.00000000  0.20802000  1
  S  S19  1  0.52855500  0.00000000  0.29198000  1
  S  S20  1  0.00000000  0.75350400  0.00000000  1
  S  S21  1  0.50000000  0.24649600  0.50000000  1
  S  S22  1  0.00000000  0.24649600  0.00000000  1
  S  S23  1  0.47144500  0.00000000  0.70802000  1
  S  S24  1  0.50659800  0.50000000  0.72580600  1
  S  S25  1  0.99340200  0.50000000  0.22580600  1
  S  S26  1  0.00659800  0.50000000  0.77419400  1
  S  S27  1  0.49340200  0.50000000  0.27419400  1
  O  O28  1  0.62344800  0.79244600  0.88628700  1
  O  O29  1  0.86702600  0.50000000  0.57250600  1
  O  O30  1  0.37655200  0.20755400  0.11371300  1
  O  O31  1  0.12344800  0.20755400  0.61371300  1
  O  O32  1  0.31693900  0.00000000  0.94008600  1
  O  O33  1  0.81693900  0.00000000  0.55991400  1
  O  O34  1  0.13297400  0.50000000  0.42749400  1
  O  O35  1  0.87655200  0.20755400  0.38628700  1
  O  O36  1  0.18306100  0.00000000  0.44008600  1
  O  O37  1  0.87655200  0.79244600  0.38628700  1
  O  O38  1  0.37655200  0.79244600  0.11371300  1
  O  O39  1  0.12344800  0.79244600  0.61371300  1
  O  O40  1  0.63297400  0.50000000  0.07250600  1
  O  O41  1  0.36702600  0.50000000  0.92749400  1
  O  O42  1  0.62344800  0.20755400  0.88628700  1
  O  O43  1  0.68306100  0.00000000  0.05991400  1
