# generated using pymatgen
data_Yb2Te4O11
_symmetry_space_group_name_H-M   'P 1'
_cell_length_a   6.70457721
_cell_length_b   6.70457721
_cell_length_c   17.27554160
_cell_angle_alpha   81.36258116
_cell_angle_beta   81.36258116
_cell_angle_gamma   46.72332634
_symmetry_Int_Tables_number   1
_chemical_formula_structural   Yb2Te4O11
_chemical_formula_sum   'Yb4 Te8 O22'
_cell_volume   557.75855242
_cell_formula_units_Z   2
loop_
 _symmetry_equiv_pos_site_id
 _symmetry_equiv_pos_as_xyz
  1  'x, y, z'
loop_
 _atom_site_type_symbol
 _atom_site_label
 _atom_site_symmetry_multiplicity
 _atom_site_fract_x
 _atom_site_fract_y
 _atom_site_fract_z
 _atom_site_occupancy
  Yb  Yb0  1  0.34013400  0.89430900  0.96639200  1
  Yb  Yb1  1  0.89430900  0.34013400  0.46639200  1
  Yb  Yb2  1  0.65986600  0.10569100  0.03360800  1
  Yb  Yb3  1  0.10569100  0.65986600  0.53360800  1
  Te  Te4  1  0.16680100  0.59953000  0.17661600  1
  Te  Te5  1  0.40047000  0.83319900  0.32338400  1
  Te  Te6  1  0.19831500  0.55170800  0.88210800  1
  Te  Te7  1  0.55170800  0.19831500  0.38210800  1
  Te  Te8  1  0.59953000  0.16680100  0.67661600  1
  Te  Te9  1  0.44829200  0.80168500  0.61789200  1
  Te  Te10  1  0.80168500  0.44829200  0.11789200  1
  Te  Te11  1  0.83319900  0.40047000  0.82338400  1
  O  O12  1  0.08631600  0.19102200  0.33675300  1
  O  O13  1  0.83088200  0.03193700  0.44883600  1
  O  O14  1  0.54952800  0.40700400  0.59077700  1
  O  O15  1  0.74259300  0.67482900  0.54544100  1
  O  O16  1  0.19102200  0.08631600  0.83675300  1
  O  O17  1  0.91368400  0.80897800  0.66324700  1
  O  O18  1  0.33144500  0.18051900  0.63528600  1
  O  O19  1  0.45047200  0.59299600  0.40922300  1
  O  O20  1  0.32517100  0.25740700  0.95455900  1
  O  O21  1  0.80897800  0.91368400  0.16324700  1
  O  O22  1  0.31114800  0.68885200  0.25000000  1
  O  O23  1  0.16911800  0.96806300  0.55116400  1
  O  O24  1  0.66855500  0.81948100  0.36471400  1
  O  O25  1  0.40700400  0.54952800  0.09077700  1
  O  O26  1  0.25740700  0.32517100  0.45455900  1
  O  O27  1  0.81948100  0.66855500  0.86471400  1
  O  O28  1  0.67482900  0.74259300  0.04544100  1
  O  O29  1  0.68885200  0.31114800  0.75000000  1
  O  O30  1  0.03193700  0.83088200  0.94883600  1
  O  O31  1  0.18051900  0.33144500  0.13528600  1
  O  O32  1  0.59299600  0.45047200  0.90922300  1
  O  O33  1  0.96806300  0.16911800  0.05116400  1
