# generated using pymatgen
data_Yb5Cu11Sn8
_symmetry_space_group_name_H-M   'P 1'
_cell_length_a   4.42950400
_cell_length_b   9.28474100
_cell_length_c   22.80765200
_cell_angle_alpha   90.00000000
_cell_angle_beta   90.00000000
_cell_angle_gamma   90.00000000
_symmetry_Int_Tables_number   1
_chemical_formula_structural   Yb5Cu11Sn8
_chemical_formula_sum   'Yb10 Cu22 Sn16'
_cell_volume   938.00568294
_cell_formula_units_Z   2
loop_
 _symmetry_equiv_pos_site_id
 _symmetry_equiv_pos_as_xyz
  1  'x, y, z'
loop_
 _atom_site_type_symbol
 _atom_site_label
 _atom_site_symmetry_multiplicity
 _atom_site_fract_x
 _atom_site_fract_y
 _atom_site_fract_z
 _atom_site_occupancy
  Yb  Yb0  1  0.50000000  0.76366400  0.50000000  1
  Yb  Yb1  1  0.00000000  0.25881700  0.78878900  1
  Yb  Yb2  1  0.50000000  0.74118300  0.71121100  1
  Yb  Yb3  1  0.50000000  0.70774900  0.90546900  1
  Yb  Yb4  1  0.00000000  0.29225100  0.59453100  1
  Yb  Yb5  1  0.00000000  0.25881700  0.21121100  1
  Yb  Yb6  1  0.00000000  0.29225100  0.40546900  1
  Yb  Yb7  1  0.50000000  0.70774900  0.09453100  1
  Yb  Yb8  1  0.00000000  0.23633600  0.00000000  1
  Yb  Yb9  1  0.50000000  0.74118300  0.28878900  1
  Cu  Cu10  1  0.50000000  0.53514200  0.39379100  1
  Cu  Cu11  1  0.50000000  0.48721700  0.80767700  1
  Cu  Cu12  1  0.00000000  0.46485800  0.89379100  1
  Cu  Cu13  1  0.50000000  0.45411600  0.00000000  1
  Cu  Cu14  1  0.00000000  0.97469800  0.44584500  1
  Cu  Cu15  1  0.50000000  0.02530200  0.05415500  1
  Cu  Cu16  1  0.50000000  0.08142400  0.71890800  1
  Cu  Cu17  1  0.50000000  0.02579200  0.61027100  1
  Cu  Cu18  1  0.00000000  0.97420800  0.88972900  1
  Cu  Cu19  1  0.00000000  0.51278300  0.30767700  1
  Cu  Cu20  1  0.00000000  0.51278300  0.69232300  1
  Cu  Cu21  1  0.00000000  0.91857600  0.21890800  1
  Cu  Cu22  1  0.00000000  0.91857600  0.78109200  1
  Cu  Cu23  1  0.50000000  0.02530200  0.94584500  1
  Cu  Cu24  1  0.00000000  0.54588400  0.50000000  1
  Cu  Cu25  1  0.50000000  0.53514200  0.60620900  1
  Cu  Cu26  1  0.50000000  0.02579200  0.38972900  1
  Cu  Cu27  1  0.50000000  0.48721700  0.19232300  1
  Cu  Cu28  1  0.50000000  0.08142400  0.28109200  1
  Cu  Cu29  1  0.00000000  0.46485800  0.10620900  1
  Cu  Cu30  1  0.00000000  0.97469800  0.55415500  1
  Cu  Cu31  1  0.00000000  0.97420800  0.11027100  1
  Sn  Sn32  1  0.50000000  0.36215100  0.69839300  1
  Sn  Sn33  1  0.00000000  0.63784900  0.80160700  1
  Sn  Sn34  1  0.50000000  0.30204700  0.10220800  1
  Sn  Sn35  1  0.50000000  0.01605100  0.16966600  1
  Sn  Sn36  1  0.50000000  0.09738800  0.50000000  1
  Sn  Sn37  1  0.00000000  0.63784900  0.19839300  1
  Sn  Sn38  1  0.00000000  0.98394900  0.33033400  1
  Sn  Sn39  1  0.00000000  0.69795300  0.60220800  1
  Sn  Sn40  1  0.00000000  0.98394900  0.66966600  1
  Sn  Sn41  1  0.00000000  0.59278300  0.00000000  1
  Sn  Sn42  1  0.00000000  0.69795300  0.39779200  1
  Sn  Sn43  1  0.00000000  0.90261200  0.00000000  1
  Sn  Sn44  1  0.50000000  0.30204700  0.89779200  1
  Sn  Sn45  1  0.50000000  0.01605100  0.83033400  1
  Sn  Sn46  1  0.50000000  0.40721700  0.50000000  1
  Sn  Sn47  1  0.50000000  0.36215100  0.30160700  1
