# generated using pymatgen
data_CdI2
_symmetry_space_group_name_H-M   'P 1'
_cell_length_a   4.34134830
_cell_length_b   4.34134830
_cell_length_c   103.05149500
_cell_angle_alpha   90.00000000
_cell_angle_beta   90.00000000
_cell_angle_gamma   120.00000456
_symmetry_Int_Tables_number   1
_chemical_formula_structural   CdI2
_chemical_formula_sum   'Cd14 I28'
_cell_volume   1682.03166861
_cell_formula_units_Z   14
loop_
 _symmetry_equiv_pos_site_id
 _symmetry_equiv_pos_as_xyz
  1  'x, y, z'
loop_
 _atom_site_type_symbol
 _atom_site_label
 _atom_site_symmetry_multiplicity
 _atom_site_fract_x
 _atom_site_fract_y
 _atom_site_fract_z
 _atom_site_occupancy
  Cd  Cd0  1  0.33333300  0.66666700  0.94644700  1
  Cd  Cd1  1  0.33333300  0.66666700  0.73215500  1
  Cd  Cd2  1  0.33333300  0.66666700  0.30356200  1
  Cd  Cd3  1  0.66666700  0.33333300  0.16073300  1
  Cd  Cd4  1  0.66666700  0.33333300  0.01786100  1
  Cd  Cd5  1  0.33333300  0.66666700  0.51785600  1
  Cd  Cd6  1  0.33333300  0.66666700  0.08927000  1
  Cd  Cd7  1  0.66666700  0.33333300  0.58927100  1
  Cd  Cd8  1  0.33333300  0.66666700  0.23215600  1
  Cd  Cd9  1  0.33333300  0.66666700  0.80356200  1
  Cd  Cd10  1  0.33333300  0.66666700  0.87497600  1
  Cd  Cd11  1  0.33333300  0.66666700  0.66073400  1
  Cd  Cd12  1  0.33333300  0.66666700  0.37497600  1
  Cd  Cd13  1  0.33333300  0.66666700  0.44644800  1
  I  I14  1  0.00000000  0.00000000  0.07252500  1
  I  I15  1  0.00000000  0.00000000  0.64396200  1
  I  I16  1  0.00000000  0.00000000  0.78677600  1
  I  I17  1  0.66666700  0.33333300  0.10605200  1
  I  I18  1  0.66666700  0.33333300  0.67748900  1
  I  I19  1  0.00000000  0.00000000  0.85820400  1
  I  I20  1  0.33333300  0.66666700  0.60605300  1
  I  I21  1  0.00000000  0.00000000  0.92967500  1
  I  I22  1  0.33333300  0.66666700  0.17748900  1
  I  I23  1  0.66666700  0.33333300  0.53463300  1
  I  I24  1  0.66666700  0.33333300  0.24893400  1
  I  I25  1  0.00000000  0.00000000  0.35820400  1
  I  I26  1  0.66666700  0.33333300  0.82033500  1
  I  I27  1  0.00000000  0.00000000  0.21537600  1
  I  I28  1  0.00000000  0.00000000  0.50112100  1
  I  I29  1  0.66666700  0.33333300  0.39172400  1
  I  I30  1  0.00000000  0.00000000  0.71537400  1
  I  I31  1  0.66666700  0.33333300  0.32033400  1
  I  I32  1  0.00000000  0.00000000  0.57252500  1
  I  I33  1  0.00000000  0.00000000  0.14395700  1
  I  I34  1  0.00000000  0.00000000  0.42967700  1
  I  I35  1  0.33333300  0.66666700  0.03463700  1
  I  I36  1  0.00000000  0.00000000  0.28677600  1
  I  I37  1  0.66666700  0.33333300  0.96319300  1
  I  I38  1  0.66666700  0.33333300  0.46319200  1
  I  I39  1  0.66666700  0.33333300  0.89172300  1
  I  I40  1  0.00000000  0.00000000  0.00112300  1
  I  I41  1  0.66666700  0.33333300  0.74893400  1
