# generated using pymatgen
data_Mn7SiO12
_symmetry_space_group_name_H-M   'P 1'
_cell_length_a   9.44972678
_cell_length_b   9.44972608
_cell_length_c   12.12212781
_cell_angle_alpha   112.94029743
_cell_angle_beta   112.94030311
_cell_angle_gamma   90.00000024
_symmetry_Int_Tables_number   1
_chemical_formula_structural   Mn7SiO12
_chemical_formula_sum   'Mn28 Si4 O48'
_cell_volume   903.17224912
_cell_formula_units_Z   4
loop_
 _symmetry_equiv_pos_site_id
 _symmetry_equiv_pos_as_xyz
  1  'x, y, z'
loop_
 _atom_site_type_symbol
 _atom_site_label
 _atom_site_symmetry_multiplicity
 _atom_site_fract_x
 _atom_site_fract_y
 _atom_site_fract_z
 _atom_site_occupancy
  Mn  Mn0  1  0.74650300  0.25000000  0.50000000  1
  Mn  Mn1  1  0.14574500  0.35425500  0.75000000  1
  Mn  Mn2  1  0.25000000  0.75349700  0.00000000  1
  Mn  Mn3  1  0.50000000  0.00000000  0.50000000  1
  Mn  Mn4  1  0.50000000  0.50000000  0.50000000  1
  Mn  Mn5  1  0.00000000  0.50000000  0.50000000  1
  Mn  Mn6  1  0.25000000  0.25349700  0.00000000  1
  Mn  Mn7  1  0.37500000  0.12500000  0.75000000  1
  Mn  Mn8  1  0.00000000  0.00000000  0.00000000  1
  Mn  Mn9  1  0.12500000  0.37500000  0.25000000  1
  Mn  Mn10  1  0.24650300  0.25000000  0.50000000  1
  Mn  Mn11  1  0.75349700  0.75000000  0.50000000  1
  Mn  Mn12  1  0.39574500  0.10425500  0.25000000  1
  Mn  Mn13  1  0.85425500  0.64574500  0.25000000  1
  Mn  Mn14  1  0.75000000  0.74650300  0.00000000  1
  Mn  Mn15  1  0.62500000  0.87500000  0.25000000  1
  Mn  Mn16  1  0.10425500  0.85425500  0.75000000  1
  Mn  Mn17  1  0.00000000  0.50000000  0.00000000  1
  Mn  Mn18  1  0.87500000  0.62500000  0.75000000  1
  Mn  Mn19  1  0.35425500  0.60425500  0.25000000  1
  Mn  Mn20  1  0.50000000  0.50000000  0.00000000  1
  Mn  Mn21  1  0.60425500  0.89574500  0.75000000  1
  Mn  Mn22  1  0.89574500  0.14574500  0.25000000  1
  Mn  Mn23  1  0.75000000  0.24650300  0.00000000  1
  Mn  Mn24  1  0.64574500  0.39574500  0.75000000  1
  Mn  Mn25  1  0.25349700  0.75000000  0.50000000  1
  Mn  Mn26  1  0.50000000  0.00000000  0.00000000  1
  Mn  Mn27  1  0.00000000  0.00000000  0.50000000  1
  Si  Si28  1  0.12500000  0.87500000  0.25000000  1
  Si  Si29  1  0.87500000  0.12500000  0.75000000  1
  Si  Si30  1  0.37500000  0.62500000  0.75000000  1
  Si  Si31  1  0.62500000  0.37500000  0.25000000  1
  O  O32  1  0.85673600  0.29648300  0.41230600  1
  O  O33  1  0.47419400  0.44515300  0.16051200  1
  O  O34  1  0.15131500  0.41141800  0.11686300  1
  O  O35  1  0.41141800  0.96554700  0.61686300  1
  O  O36  1  0.20351700  0.64326400  0.08769400  1
  O  O37  1  0.55484700  0.31368200  0.33948800  1
  O  O38  1  0.58858200  0.03445300  0.38313700  1
  O  O39  1  0.03445300  0.79455600  0.88313700  1
  O  O40  1  0.05484700  0.02580600  0.33948800  1
  O  O41  1  0.52580600  0.55484700  0.83948800  1
  O  O42  1  0.97419400  0.71536000  0.16051200  1
  O  O43  1  0.88417700  0.94443100  0.08769400  1
  O  O44  1  0.35673600  0.11582300  0.41230600  1
  O  O45  1  0.20544400  0.15131500  0.61686300  1
  O  O46  1  0.94443100  0.20351700  0.58769400  1
  O  O47  1  0.46554700  0.91141800  0.11686300  1
  O  O48  1  0.70351700  0.44443100  0.08769400  1
  O  O49  1  0.31368200  0.78464000  0.83948800  1
  O  O50  1  0.96554700  0.20544400  0.11686300  1
  O  O51  1  0.84868500  0.58858200  0.88313700  1
  O  O52  1  0.08858200  0.34868500  0.38313700  1
  O  O53  1  0.64326400  0.88417700  0.58769400  1
  O  O54  1  0.53445300  0.08858200  0.88313700  1
  O  O55  1  0.21536000  0.47419400  0.66051200  1
  O  O56  1  0.44515300  0.68631800  0.66051200  1
  O  O57  1  0.44443100  0.38417700  0.58769400  1
  O  O58  1  0.18631800  0.94515300  0.16051200  1
  O  O59  1  0.71536000  0.18631800  0.66051200  1
  O  O60  1  0.79455600  0.84868500  0.38313700  1
  O  O61  1  0.65131500  0.70544400  0.11686300  1
  O  O62  1  0.29648300  0.55556900  0.91230600  1
  O  O63  1  0.38417700  0.14326400  0.08769400  1
  O  O64  1  0.55556900  0.61582300  0.41230600  1
  O  O65  1  0.94515300  0.97419400  0.66051200  1
  O  O66  1  0.05556900  0.79648300  0.41230600  1
  O  O67  1  0.29455600  0.53445300  0.38313700  1
  O  O68  1  0.28464000  0.81368200  0.33948800  1
  O  O69  1  0.34868500  0.29455600  0.88313700  1
  O  O70  1  0.14326400  0.70351700  0.58769400  1
  O  O71  1  0.11582300  0.05556900  0.91230600  1
  O  O72  1  0.70544400  0.46554700  0.61686300  1
  O  O73  1  0.02580600  0.28464000  0.83948800  1
  O  O74  1  0.61582300  0.85673600  0.91230600  1
  O  O75  1  0.81368200  0.05484700  0.83948800  1
  O  O76  1  0.91141800  0.65131500  0.61686300  1
  O  O77  1  0.79648300  0.35673600  0.91230600  1
  O  O78  1  0.68631800  0.21536000  0.16051200  1
  O  O79  1  0.78464000  0.52580600  0.33948800  1
