# generated using pymatgen
data_PWC5Br3O5
_symmetry_space_group_name_H-M   'P 1'
_cell_length_a   13.76977500
_cell_length_b   6.96598000
_cell_length_c   13.51270300
_cell_angle_alpha   87.44405975
_cell_angle_beta   90.00000000
_cell_angle_gamma   90.00000000
_symmetry_Int_Tables_number   1
_chemical_formula_structural   PWC5Br3O5
_chemical_formula_sum   'P4 W4 C20 Br12 O20'
_cell_volume   1294.84871215
_cell_formula_units_Z   4
loop_
 _symmetry_equiv_pos_site_id
 _symmetry_equiv_pos_as_xyz
  1  'x, y, z'
loop_
 _atom_site_type_symbol
 _atom_site_label
 _atom_site_symmetry_multiplicity
 _atom_site_fract_x
 _atom_site_fract_y
 _atom_site_fract_z
 _atom_site_occupancy
  P  P0  1  0.36693800  0.68758600  0.33499400  1
  P  P1  1  0.86693800  0.31241400  0.16500600  1
  P  P2  1  0.63306200  0.31241400  0.66500600  1
  P  P3  1  0.13306200  0.68758600  0.83499400  1
  W  W4  1  0.80462800  0.28805700  0.60542200  1
  W  W5  1  0.19537200  0.71194300  0.39457800  1
  W  W6  1  0.30462800  0.71194300  0.89457800  1
  W  W7  1  0.69537200  0.28805700  0.10542200  1
  C  C8  1  0.55498700  0.26167400  0.05504800  1
  C  C9  1  0.44501300  0.73832600  0.94495200  1
  C  C10  1  0.23876600  0.57353100  0.52784300  1
  C  C11  1  0.73876600  0.42646900  0.97215700  1
  C  C12  1  0.34247600  0.84481600  0.75815600  1
  C  C13  1  0.65752400  0.15518400  0.24184400  1
  C  C14  1  0.15752400  0.84481600  0.25815600  1
  C  C15  1  0.05498700  0.73832600  0.44495200  1
  C  C16  1  0.33839800  0.44791100  0.83514200  1
  C  C17  1  0.76123400  0.42646900  0.47215700  1
  C  C18  1  0.23447900  0.97406500  0.45245600  1
  C  C19  1  0.26123400  0.57353100  0.02784300  1
  C  C20  1  0.83839800  0.55208900  0.66485800  1
  C  C21  1  0.26552100  0.97406500  0.95245600  1
  C  C22  1  0.94501300  0.26167400  0.55504800  1
  C  C23  1  0.73447900  0.02593500  0.04754400  1
  C  C24  1  0.66160200  0.55208900  0.16485800  1
  C  C25  1  0.84247600  0.15518400  0.74184400  1
  C  C26  1  0.76552100  0.02593500  0.54754400  1
  C  C27  1  0.16160200  0.44791100  0.33514200  1
  Br  Br28  1  0.01793500  0.76301500  0.94220900  1
  Br  Br29  1  0.98206500  0.23698500  0.05779100  1
  Br  Br30  1  0.58175400  0.60032300  0.71178400  1
  Br  Br31  1  0.51793500  0.23698500  0.55779100  1
  Br  Br32  1  0.91824600  0.60032300  0.21178400  1
  Br  Br33  1  0.41824600  0.39967700  0.28821600  1
  Br  Br34  1  0.90682600  0.12084900  0.29703500  1
  Br  Br35  1  0.59317400  0.12084900  0.79703500  1
  Br  Br36  1  0.40682600  0.87915100  0.20296500  1
  Br  Br37  1  0.08175400  0.39967700  0.78821600  1
  Br  Br38  1  0.48206500  0.76301500  0.44220900  1
  Br  Br39  1  0.09317400  0.87915100  0.70296500  1
  O  O40  1  0.97524100  0.75417300  0.47259500  1
  O  O41  1  0.52475900  0.75417300  0.97259500  1
  O  O42  1  0.36179300  0.91287500  0.68066600  1
  O  O43  1  0.86179300  0.08712500  0.81933400  1
  O  O44  1  0.25832400  0.11813300  0.48519700  1
  O  O45  1  0.64378200  0.69791900  0.19902600  1
  O  O46  1  0.76388400  0.50067900  0.89784700  1
  O  O47  1  0.26388400  0.49932100  0.60215300  1
  O  O48  1  0.02475900  0.24582700  0.52740500  1
  O  O49  1  0.13820700  0.91287500  0.18066600  1
  O  O50  1  0.73611600  0.50067900  0.39784700  1
  O  O51  1  0.74167600  0.88186700  0.51480300  1
  O  O52  1  0.14378200  0.30208100  0.30097400  1
  O  O53  1  0.47524100  0.24582700  0.02740500  1
  O  O54  1  0.85621800  0.69791900  0.69902600  1
  O  O55  1  0.75832400  0.88186700  0.01480300  1
  O  O56  1  0.35621800  0.30208100  0.80097400  1
  O  O57  1  0.23611600  0.49932100  0.10215300  1
  O  O58  1  0.63820700  0.08712500  0.31933400  1
  O  O59  1  0.24167600  0.11813300  0.98519700  1
