# generated using pymatgen
data_MoSe2Cl4O
_symmetry_space_group_name_H-M   'P 1'
_cell_length_a   7.97391182
_cell_length_b   16.21087795
_cell_length_c   28.35458778
_cell_angle_alpha   102.93402898
_cell_angle_beta   90.00000000
_cell_angle_gamma   90.00000000
_symmetry_Int_Tables_number   1
_chemical_formula_structural   MoSe2Cl4O
_chemical_formula_sum   'Mo16 Se32 Cl64 O16'
_cell_volume   3572.23793587
_cell_formula_units_Z   16
loop_
 _symmetry_equiv_pos_site_id
 _symmetry_equiv_pos_as_xyz
  1  'x, y, z'
loop_
 _atom_site_type_symbol
 _atom_site_label
 _atom_site_symmetry_multiplicity
 _atom_site_fract_x
 _atom_site_fract_y
 _atom_site_fract_z
 _atom_site_occupancy
  Mo  Mo0  1  0.88245984  0.08370944  0.06240232  1
  Mo  Mo1  1  0.61754016  0.08370944  0.56240232  1
  Mo  Mo2  1  0.28249514  0.67466312  0.77803183  1
  Mo  Mo3  1  0.21750486  0.67466312  0.27803183  1
  Mo  Mo4  1  0.38245984  0.91629056  0.43759768  1
  Mo  Mo5  1  0.91113371  0.60640312  0.55438832  1
  Mo  Mo6  1  0.71750486  0.32533688  0.22196817  1
  Mo  Mo7  1  0.78249514  0.32533688  0.72196817  1
  Mo  Mo8  1  0.11754016  0.91629056  0.93759768  1
  Mo  Mo9  1  0.78972453  0.81572163  0.24010663  1
  Mo  Mo10  1  0.21027547  0.18427837  0.75989337  1
  Mo  Mo11  1  0.08886629  0.39359688  0.44561168  1
  Mo  Mo12  1  0.71027547  0.81572163  0.74010663  1
  Mo  Mo13  1  0.41113371  0.39359688  0.94561168  1
  Mo  Mo14  1  0.58886629  0.60640312  0.05438832  1
  Mo  Mo15  1  0.28972453  0.18427837  0.25989337  1
  Se  Se16  1  0.22458652  0.43767543  0.65194968  1
  Se  Se17  1  0.72458652  0.56232457  0.84805032  1
  Se  Se18  1  0.51324142  0.03787627  0.85143724  1
  Se  Se19  1  0.27541348  0.43767543  0.15194968  1
  Se  Se20  1  0.49046096  0.86863969  0.07317798  1
  Se  Se21  1  0.73222716  0.18608733  0.40904361  1
  Se  Se22  1  0.55608122  0.37263526  0.58365788  1
  Se  Se23  1  0.47763149  0.49934850  0.63640655  1
  Se  Se24  1  0.76571173  0.09640823  0.83245717  1
  Se  Se25  1  0.94391878  0.37263526  0.08365788  1
  Se  Se26  1  0.77541348  0.56232457  0.34805032  1
  Se  Se27  1  0.00953904  0.86863969  0.57317798  1
  Se  Se28  1  0.73428827  0.09640823  0.33245717  1
  Se  Se29  1  0.48675858  0.96212373  0.14856276  1
  Se  Se30  1  0.26777284  0.81391267  0.59095639  1
  Se  Se31  1  0.99046096  0.13136031  0.42682202  1
  Se  Se32  1  0.23428827  0.90359177  0.16754283  1
  Se  Se33  1  0.97763149  0.50065150  0.86359345  1
  Se  Se34  1  0.76777284  0.18608733  0.90904361  1
  Se  Se35  1  0.50953904  0.13136031  0.92682202  1
  Se  Se36  1  0.19735605  0.31218610  0.09903085  1
  Se  Se37  1  0.05608122  0.62736474  0.91634212  1
  Se  Se38  1  0.52236851  0.50065150  0.36359345  1
  Se  Se39  1  0.98675858  0.03787627  0.35143724  1
  Se  Se40  1  0.30264395  0.31218610  0.59903085  1
  Se  Se41  1  0.80264395  0.68781390  0.90096915  1
  Se  Se42  1  0.69735605  0.68781390  0.40096915  1
  Se  Se43  1  0.44391878  0.62736474  0.41634212  1
  Se  Se44  1  0.23222716  0.81391267  0.09095639  1
  Se  Se45  1  0.01324142  0.96212373  0.64856276  1
  Se  Se46  1  0.02236851  0.49934850  0.13640655  1
  Se  Se47  1  0.26571173  0.90359177  0.66754283  1
  Cl  Cl48  1  0.51648802  0.68972413  0.99651948  1
  Cl  Cl49  1  0.05411544  0.80764437  0.98224842  1
  Cl  Cl50  1  0.83923062  0.49584070  0.59701720  1
  Cl  Cl51  1  0.57504647  0.29658160  0.14483553  1
  Cl  Cl52  1  0.07504647  0.70341840  0.35516447  1
  Cl  Cl53  1  0.15103933  0.32713980  0.75600403  1
  Cl  Cl54  1  0.82815917  0.46948605  0.46725757  1
  Cl  Cl55  1  0.25942047  0.63907373  0.19113671  1
  Cl  Cl56  1  0.01648802  0.31027587  0.50348052  1
  Cl  Cl57  1  0.17630165  0.04767901  0.91252568  1
  Cl  Cl58  1  0.67184083  0.46948605  0.96725757  1
  Cl  Cl59  1  0.35816935  0.03633557  0.25634592  1
  Cl  Cl60  1  0.48351198  0.31027587  0.00348052  1
  Cl  Cl61  1  0.33923062  0.50415930  0.90298280  1
  Cl  Cl62  1  0.37539022  0.37120028  0.45693647  1
  Cl  Cl63  1  0.09580722  0.90414572  0.45250042  1
  Cl  Cl64  1  0.14694854  0.53114607  0.27163941  1
  Cl  Cl65  1  0.23287067  0.14844830  0.67497106  1
  Cl  Cl66  1  0.75942047  0.36092627  0.30886329  1
  Cl  Cl67  1  0.64183065  0.96366443  0.74365408  1
  Cl  Cl68  1  0.85816935  0.96366443  0.24365408  1
  Cl  Cl69  1  0.83877248  0.18132774  0.72882287  1
  Cl  Cl70  1  0.12460978  0.37120028  0.95693647  1
  Cl  Cl71  1  0.98351198  0.68972413  0.49651948  1
  Cl  Cl72  1  0.34896067  0.32713980  0.25600403  1
  Cl  Cl73  1  0.62460978  0.62879972  0.54306353  1
  Cl  Cl74  1  0.34258617  0.02660190  0.53934496  1
  Cl  Cl75  1  0.82369835  0.95232099  0.08747432  1
  Cl  Cl76  1  0.92495353  0.29658160  0.64483553  1
  Cl  Cl77  1  0.32815917  0.53051395  0.03274243  1
  Cl  Cl78  1  0.17184083  0.53051395  0.53274243  1
  Cl  Cl79  1  0.87539022  0.62879972  0.04306353  1
  Cl  Cl80  1  0.76712933  0.85155170  0.32502894  1
  Cl  Cl81  1  0.64694854  0.46885393  0.22836059  1
  Cl  Cl82  1  0.84258617  0.97339810  0.96065504  1
  Cl  Cl83  1  0.65103933  0.67286020  0.74399597  1
  Cl  Cl84  1  0.67630165  0.95232099  0.58747432  1
  Cl  Cl85  1  0.74057953  0.36092627  0.80886329  1
  Cl  Cl86  1  0.15741383  0.02660190  0.03934496  1
  Cl  Cl87  1  0.26712933  0.14844830  0.17497106  1
  Cl  Cl88  1  0.59580722  0.09585428  0.04749958  1
  Cl  Cl89  1  0.92387460  0.78651706  0.16095338  1
  Cl  Cl90  1  0.14183065  0.03633557  0.75634592  1
  Cl  Cl91  1  0.55411544  0.19235563  0.51775158  1
  Cl  Cl92  1  0.24057953  0.63907373  0.69113671  1
  Cl  Cl93  1  0.44588456  0.80764437  0.48224842  1
  Cl  Cl94  1  0.73287067  0.85155170  0.82502894  1
  Cl  Cl95  1  0.84896067  0.67286020  0.24399597  1
  Cl  Cl96  1  0.33877248  0.81867226  0.77117713  1
  Cl  Cl97  1  0.85305146  0.46885393  0.72836059  1
  Cl  Cl98  1  0.66076938  0.49584070  0.09701720  1
  Cl  Cl99  1  0.40419278  0.90414572  0.95250042  1
  Cl  Cl100  1  0.42495353  0.70341840  0.85516447  1
  Cl  Cl101  1  0.07612540  0.21348294  0.83904662  1
  Cl  Cl102  1  0.42387460  0.21348294  0.33904662  1
  Cl  Cl103  1  0.94588456  0.19235563  0.01775158  1
  Cl  Cl104  1  0.57612540  0.78651706  0.66095338  1
  Cl  Cl105  1  0.35305146  0.53114607  0.77163941  1
  Cl  Cl106  1  0.16122752  0.81867226  0.27117713  1
  Cl  Cl107  1  0.90419278  0.09585428  0.54749958  1
  Cl  Cl108  1  0.66122752  0.18132774  0.22882287  1
  Cl  Cl109  1  0.65741383  0.97339810  0.46065504  1
  Cl  Cl110  1  0.32369835  0.04767901  0.41252568  1
  Cl  Cl111  1  0.16076938  0.50415930  0.40298280  1
  O  O112  1  0.08576237  0.18866332  0.27733637  1
  O  O113  1  0.08740792  0.85375658  0.88206928  1
  O  O114  1  0.91423763  0.81133668  0.72266363  1
  O  O115  1  0.46257436  0.31888355  0.89589604  1
  O  O116  1  0.91259208  0.14624342  0.11793072  1
  O  O117  1  0.58225011  0.31989175  0.70253702  1
  O  O118  1  0.53742564  0.68111645  0.10410396  1
  O  O119  1  0.08225011  0.68010825  0.79746298  1
  O  O120  1  0.03742564  0.31888355  0.39589604  1
  O  O121  1  0.58740792  0.14624342  0.61793072  1
  O  O122  1  0.58576237  0.81133668  0.22266363  1
  O  O123  1  0.41423763  0.18866332  0.77733637  1
  O  O124  1  0.41259208  0.85375658  0.38206928  1
  O  O125  1  0.41774989  0.68010825  0.29746298  1
  O  O126  1  0.96257436  0.68111645  0.60410396  1
  O  O127  1  0.91774989  0.31989175  0.20253702  1
