# generated using pymatgen
data_As12S13
_symmetry_space_group_name_H-M   'P 1'
_cell_length_a   8.18489500
_cell_length_b   9.25312953
_cell_length_c   23.24594370
_cell_angle_alpha   88.29413637
_cell_angle_beta   89.42743551
_cell_angle_gamma   87.23603216
_symmetry_Int_Tables_number   1
_chemical_formula_structural   As12S13
_chemical_formula_sum   'As24 S26'
_cell_volume   1757.66029540
_cell_formula_units_Z   2
loop_
 _symmetry_equiv_pos_site_id
 _symmetry_equiv_pos_as_xyz
  1  'x, y, z'
loop_
 _atom_site_type_symbol
 _atom_site_label
 _atom_site_symmetry_multiplicity
 _atom_site_fract_x
 _atom_site_fract_y
 _atom_site_fract_z
 _atom_site_occupancy
  As  As0  1  0.10799500  0.70800400  0.99740600  1
  As  As1  1  0.27377100  0.39990200  0.16333700  1
  As  As2  1  0.30337800  0.38002600  0.52376500  1
  As  As3  1  0.05816700  0.25968800  0.30733700  1
  As  As4  1  0.88647500  0.28549600  0.80794400  1
  As  As5  1  0.04491800  0.75786000  0.09981700  1
  As  As6  1  0.72181400  0.29585200  0.65170900  1
  As  As7  1  0.28078600  0.58087100  0.35762300  1
  As  As8  1  0.41740900  0.41167800  0.92918600  1
  As  As9  1  0.20393500  0.84125600  0.32360200  1
  As  As10  1  0.10262700  0.49316400  0.23667900  1
  As  As11  1  0.00866900  0.82281400  0.67979600  1
  As  As12  1  0.99054300  0.55153700  0.58780000  1
  As  As13  1  0.70302200  0.91669000  0.59259700  1
  As  As14  1  0.88400600  0.77562800  0.52477400  1
  As  As15  1  0.90164700  0.00497100  0.07849900  1
  As  As16  1  0.47283100  0.48738500  0.59091300  1
  As  As17  1  0.74594200  0.47185700  0.87417600  1
  As  As18  1  0.16679300  0.30397200  0.98732500  1
  As  As19  1  0.79547400  0.27671900  0.26076200  1
  As  As20  1  0.76173500  0.56754900  0.66524000  1
  As  As21  1  0.62768000  0.02509900  0.38390100  1
  As  As22  1  0.41736500  0.48729200  0.24507700  1
  As  As23  1  0.24006700  0.97831700  0.73030900  1
  S  S24  1  0.27049100  0.13382900  0.05077800  1
  S  S25  1  0.30139800  0.50490200  0.01729200  1
  S  S26  1  0.86519500  0.01278200  0.41359500  1
  S  S27  1  0.95314100  0.40756600  0.37668300  1
  S  S28  1  0.46025000  0.85252100  0.73811700  1
  S  S29  1  0.46792000  0.49215400  0.74290900  1
  S  S30  1  0.85959800  0.03196200  0.23215200  1
  S  S31  1  0.73134600  0.01321500  0.15655000  1
  S  S32  1  0.67832000  0.34336200  0.95203500  1
  S  S33  1  0.58628400  0.09508900  0.53083200  1
  S  S34  1  0.46203800  0.00851900  0.46606900  1
  S  S35  1  0.36287800  0.56208800  0.46620500  1
  S  S36  1  0.80783300  0.15357000  0.73300900  1
  S  S37  1  0.08440700  0.12988300  0.85315900  1
  S  S38  1  0.88554600  0.62958800  0.04037600  1
  S  S39  1  0.90818100  0.61110500  0.74923200  1
  S  S40  1  0.08116200  0.93539000  0.81727000  1
  S  S41  1  0.07088500  0.43880800  0.76835700  1
  S  S42  1  0.45536700  0.76491000  0.35146300  1
  S  S43  1  0.73902400  0.46714900  0.33851500  1
  S  S44  1  0.47513300  0.72722600  0.21603400  1
  S  S45  1  0.18125500  0.66410600  0.63654500  1
  S  S46  1  0.45294100  0.34803200  0.68196300  1
  S  S47  1  0.97574300  0.95888900  0.57600000  1
  S  S48  1  0.25349400  0.83032000  0.22249500  1
  S  S49  1  0.10211900  0.14260900  0.11709300  1
