# generated using pymatgen
data_Sm15(Ga11Ni13)4
_symmetry_space_group_name_H-M   'P 1'
_cell_length_a   8.88192279
_cell_length_b   8.88192279
_cell_length_c   25.03356500
_cell_angle_alpha   90.00000000
_cell_angle_beta   90.00000000
_cell_angle_gamma   120.00000589
_symmetry_Int_Tables_number   1
_chemical_formula_structural   Sm15(Ga11Ni13)4
_chemical_formula_sum   'Sm15 Ga44 Ni52'
_cell_volume   1710.28030477
_cell_formula_units_Z   1
loop_
 _symmetry_equiv_pos_site_id
 _symmetry_equiv_pos_as_xyz
  1  'x, y, z'
loop_
 _atom_site_type_symbol
 _atom_site_label
 _atom_site_symmetry_multiplicity
 _atom_site_fract_x
 _atom_site_fract_y
 _atom_site_fract_z
 _atom_site_occupancy
  Sm  Sm0  1  0.66666700  0.33333300  0.10235300  1
  Sm  Sm1  1  0.33333300  0.66666700  0.58572600  1
  Sm  Sm2  1  0.66666700  0.33333300  0.58390300  1
  Sm  Sm3  1  0.33333300  0.66666700  0.00000000  1
  Sm  Sm4  1  0.33333300  0.66666700  0.73274600  1
  Sm  Sm5  1  0.00000000  0.00000000  0.09445200  1
  Sm  Sm6  1  0.33333300  0.66666700  0.41427400  1
  Sm  Sm7  1  0.66666700  0.33333300  0.72937400  1
  Sm  Sm8  1  0.66666700  0.33333300  0.27062600  1
  Sm  Sm9  1  0.66666700  0.33333300  0.89764700  1
  Sm  Sm10  1  0.66666700  0.33333300  0.41609700  1
  Sm  Sm11  1  0.00000000  0.00000000  0.66448200  1
  Sm  Sm12  1  0.00000000  0.00000000  0.90554800  1
  Sm  Sm13  1  0.00000000  0.00000000  0.33551800  1
  Sm  Sm14  1  0.33333300  0.66666700  0.26725400  1
  Ga  Ga15  1  0.85353600  0.14646400  0.50000000  1
  Ga  Ga16  1  0.54604700  0.45395300  0.00000000  1
  Ga  Ga17  1  0.48762500  0.51237500  0.50000000  1
  Ga  Ga18  1  0.13282100  0.86717900  0.00000000  1
  Ga  Ga19  1  0.48762500  0.97525100  0.50000000  1
  Ga  Ga20  1  0.82519200  0.65038300  0.82057900  1
  Ga  Ga21  1  0.63540800  0.66355100  0.91403300  1
  Ga  Ga22  1  0.15807600  0.84192400  0.81665100  1
  Ga  Ga23  1  0.33333300  0.66666700  0.87018500  1
  Ga  Ga24  1  0.02814300  0.66355100  0.91403300  1
  Ga  Ga25  1  0.15807600  0.31615200  0.81665100  1
  Ga  Ga26  1  0.15807600  0.84192400  0.18334900  1
  Ga  Ga27  1  0.00170000  0.50085000  0.80080900  1
  Ga  Ga28  1  0.34961700  0.17480800  0.17942100  1
  Ga  Ga29  1  0.33644900  0.97185700  0.91403300  1
  Ga  Ga30  1  0.90790600  0.45395300  0.00000000  1
  Ga  Ga31  1  0.02814300  0.36459200  0.08596700  1
  Ga  Ga32  1  0.82519200  0.17480800  0.17942100  1
  Ga  Ga33  1  0.82519200  0.65038300  0.17942100  1
  Ga  Ga34  1  0.15807600  0.31615200  0.18334900  1
  Ga  Ga35  1  0.33644900  0.36459200  0.91403300  1
  Ga  Ga36  1  0.02814300  0.36459200  0.91403300  1
  Ga  Ga37  1  0.68384800  0.84192400  0.81665100  1
  Ga  Ga38  1  0.49915000  0.99830000  0.80080900  1
  Ga  Ga39  1  0.49915000  0.99830000  0.19919100  1
  Ga  Ga40  1  0.54604700  0.09209400  0.00000000  1
  Ga  Ga41  1  0.33644900  0.97185700  0.08596700  1
  Ga  Ga42  1  0.63540800  0.97185700  0.91403300  1
  Ga  Ga43  1  0.33333300  0.66666700  0.12981500  1
  Ga  Ga44  1  0.73435900  0.86717900  0.00000000  1
  Ga  Ga45  1  0.02814300  0.66355100  0.08596700  1
  Ga  Ga46  1  0.49915000  0.50085000  0.19919100  1
  Ga  Ga47  1  0.13282100  0.26564100  0.00000000  1
  Ga  Ga48  1  0.68384800  0.84192400  0.18334900  1
  Ga  Ga49  1  0.00170000  0.50085000  0.19919100  1
  Ga  Ga50  1  0.34961700  0.17480800  0.82057900  1
  Ga  Ga51  1  0.29292800  0.14646400  0.50000000  1
  Ga  Ga52  1  0.82519200  0.17480800  0.82057900  1
  Ga  Ga53  1  0.63540800  0.97185700  0.08596700  1
  Ga  Ga54  1  0.02474900  0.51237500  0.50000000  1
  Ga  Ga55  1  0.85353600  0.70707200  0.50000000  1
  Ga  Ga56  1  0.33644900  0.36459200  0.08596700  1
  Ga  Ga57  1  0.63540800  0.66355100  0.08596700  1
  Ga  Ga58  1  0.49915000  0.50085000  0.80080900  1
  Ni  Ni59  1  0.99673800  0.70235400  0.73637300  1
  Ni  Ni60  1  0.50049000  0.49951000  0.66024600  1
  Ni  Ni61  1  0.18199700  0.81800300  0.65806300  1
  Ni  Ni62  1  0.00174700  0.31016100  0.58129700  1
  Ni  Ni63  1  0.81764800  0.18235200  0.34256900  1
  Ni  Ni64  1  0.00174700  0.69158600  0.41870300  1
  Ni  Ni65  1  0.70561600  0.70235400  0.26362700  1
  Ni  Ni66  1  0.29764600  0.29438400  0.73637300  1
  Ni  Ni67  1  0.68983900  0.69158600  0.41870300  1
  Ni  Ni68  1  0.00000000  0.00000000  0.55087400  1
  Ni  Ni69  1  0.18199700  0.36399300  0.65806300  1
  Ni  Ni70  1  0.99902000  0.49951000  0.33975400  1
  Ni  Ni71  1  0.81764800  0.18235200  0.65743100  1
  Ni  Ni72  1  0.66053700  0.83026800  0.50000000  1
  Ni  Ni73  1  0.68983900  0.99825300  0.41870300  1
  Ni  Ni74  1  0.16973200  0.33946300  0.50000000  1
  Ni  Ni75  1  0.99673800  0.70235400  0.26362700  1
  Ni  Ni76  1  0.30841400  0.99825300  0.41870300  1
  Ni  Ni77  1  0.29764600  0.00326200  0.73637300  1
  Ni  Ni78  1  0.63600700  0.81800300  0.34193700  1
  Ni  Ni79  1  0.00000000  0.00000000  0.78786600  1
  Ni  Ni80  1  0.00000000  0.00000000  0.21213400  1
  Ni  Ni81  1  0.70561600  0.00326200  0.26362700  1
  Ni  Ni82  1  0.81764800  0.63529700  0.34256900  1
  Ni  Ni83  1  0.70561600  0.00326200  0.73637300  1
  Ni  Ni84  1  0.30841400  0.99825300  0.58129700  1
  Ni  Ni85  1  0.99673800  0.29438400  0.73637300  1
  Ni  Ni86  1  0.29764600  0.00326200  0.26362700  1
  Ni  Ni87  1  0.32841800  0.16420900  0.00000000  1
  Ni  Ni88  1  0.00000000  0.00000000  0.44912600  1
  Ni  Ni89  1  0.30841400  0.31016100  0.58129700  1
  Ni  Ni90  1  0.18199700  0.81800300  0.34193700  1
  Ni  Ni91  1  0.83579100  0.16420900  0.00000000  1
  Ni  Ni92  1  0.30841400  0.31016100  0.41870300  1
  Ni  Ni93  1  0.99902000  0.49951000  0.66024600  1
  Ni  Ni94  1  0.68983900  0.69158600  0.58129700  1
  Ni  Ni95  1  0.68983900  0.99825300  0.58129700  1
  Ni  Ni96  1  0.00174700  0.69158600  0.58129700  1
  Ni  Ni97  1  0.50049000  0.00098000  0.33975400  1
  Ni  Ni98  1  0.70561600  0.70235400  0.73637300  1
  Ni  Ni99  1  0.83579100  0.67158200  0.00000000  1
  Ni  Ni100  1  0.29764600  0.29438400  0.26362700  1
  Ni  Ni101  1  0.00174700  0.31016100  0.41870300  1
  Ni  Ni102  1  0.50049000  0.00098000  0.66024600  1
  Ni  Ni103  1  0.18199700  0.36399300  0.34193700  1
  Ni  Ni104  1  0.36470300  0.18235200  0.34256900  1
  Ni  Ni105  1  0.36470300  0.18235200  0.65743100  1
  Ni  Ni106  1  0.63600700  0.81800300  0.65806300  1
  Ni  Ni107  1  0.99673800  0.29438400  0.26362700  1
  Ni  Ni108  1  0.50049000  0.49951000  0.33975400  1
  Ni  Ni109  1  0.81764800  0.63529700  0.65743100  1
  Ni  Ni110  1  0.16973200  0.83026800  0.50000000  1
