# generated using pymatgen
data_HN
_symmetry_space_group_name_H-M   'P 1'
_cell_length_a   6.19714600
_cell_length_b   6.26284063
_cell_length_c   6.57281913
_cell_angle_alpha   87.86622496
_cell_angle_beta   114.97400088
_cell_angle_gamma   103.66384778
_symmetry_Int_Tables_number   1
_chemical_formula_structural   HN
_chemical_formula_sum   'H16 N16'
_cell_volume   224.13913027
_cell_formula_units_Z   16
loop_
 _symmetry_equiv_pos_site_id
 _symmetry_equiv_pos_as_xyz
  1  'x, y, z'
loop_
 _atom_site_type_symbol
 _atom_site_label
 _atom_site_symmetry_multiplicity
 _atom_site_fract_x
 _atom_site_fract_y
 _atom_site_fract_z
 _atom_site_occupancy
  H  H0  1  0.03806200  0.36428400  0.63157400  1
  H  H1  1  0.67025500  0.99360700  0.31695200  1
  H  H2  1  0.80189700  0.00827600  0.88182800  1
  H  H3  1  0.90213500  0.85251000  0.62480000  1
  H  H4  1  0.22926200  0.65083400  0.06721400  1
  H  H5  1  0.47417000  0.62271600  0.33842400  1
  H  H6  1  0.47425000  0.62141800  0.87269900  1
  H  H7  1  0.44508400  0.85389100  0.56772900  1
  H  H8  1  0.55491600  0.14610900  0.43227100  1
  H  H9  1  0.52575000  0.37858200  0.12730100  1
  H  H10  1  0.52583000  0.37728400  0.66157600  1
  H  H11  1  0.77073800  0.34916600  0.93278600  1
  H  H12  1  0.09786500  0.14749000  0.37520000  1
  H  H13  1  0.19810300  0.99172400  0.11817200  1
  H  H14  1  0.32974500  0.00639300  0.68304800  1
  H  H15  1  0.96193800  0.63571600  0.36842600  1
  N  N16  1  0.51814400  0.21204500  0.11850600  1
  N  N17  1  0.14201500  0.39794800  0.22797900  1
  N  N18  1  0.10380400  0.16370000  0.84902800  1
  N  N19  1  0.35176000  0.85265200  0.66619100  1
  N  N20  1  0.26818100  0.09146500  0.01908500  1
  N  N21  1  0.29098300  0.58227500  0.21958500  1
  N  N22  1  0.23742400  0.28260700  0.39134900  1
  N  N23  1  0.81149200  0.66387100  0.23119200  1
  N  N24  1  0.18850800  0.33612900  0.76880800  1
  N  N25  1  0.76257600  0.71739300  0.60865100  1
  N  N26  1  0.70901700  0.41772500  0.78041500  1
  N  N27  1  0.73181900  0.90853500  0.98091500  1
  N  N28  1  0.64824000  0.14734800  0.33380900  1
  N  N29  1  0.89619600  0.83630000  0.15097200  1
  N  N30  1  0.85798500  0.60205200  0.77202100  1
  N  N31  1  0.48185600  0.78795500  0.88149400  1
