# generated using pymatgen
data_KTeO4
_symmetry_space_group_name_H-M   'P 1'
_cell_length_a   6.82080900
_cell_length_b   7.84346400
_cell_length_c   17.20922613
_cell_angle_alpha   87.70130314
_cell_angle_beta   90.00000000
_cell_angle_gamma   90.00000000
_symmetry_Int_Tables_number   1
_chemical_formula_structural   KTeO4
_chemical_formula_sum   'K8 Te8 O32'
_cell_volume   919.93156997
_cell_formula_units_Z   8
loop_
 _symmetry_equiv_pos_site_id
 _symmetry_equiv_pos_as_xyz
  1  'x, y, z'
loop_
 _atom_site_type_symbol
 _atom_site_label
 _atom_site_symmetry_multiplicity
 _atom_site_fract_x
 _atom_site_fract_y
 _atom_site_fract_z
 _atom_site_occupancy
  K  K0  1  0.54581500  0.58479000  0.60057600  1
  K  K1  1  0.04581500  0.41521000  0.89942400  1
  K  K2  1  0.45418500  0.41521000  0.39942400  1
  K  K3  1  0.95418500  0.58479000  0.10057600  1
  K  K4  1  0.58839000  0.10808900  0.79399400  1
  K  K5  1  0.08839000  0.89191100  0.70600600  1
  K  K6  1  0.41161000  0.89191100  0.20600600  1
  K  K7  1  0.91161000  0.10808900  0.29399400  1
  Te  Te8  1  0.52346900  0.92700500  0.41277100  1
  Te  Te9  1  0.02346900  0.07299500  0.08722900  1
  Te  Te10  1  0.47653100  0.07299500  0.58722900  1
  Te  Te11  1  0.97653100  0.92700500  0.91277100  1
  Te  Te12  1  0.00255700  0.70137800  0.48731200  1
  Te  Te13  1  0.50255700  0.29862200  0.01268800  1
  Te  Te14  1  0.99744300  0.29862200  0.51268800  1
  Te  Te15  1  0.49744300  0.70137800  0.98731200  1
  O  O16  1  0.51284500  0.09389400  0.33284500  1
  O  O17  1  0.01284500  0.90610600  0.16715500  1
  O  O18  1  0.48715500  0.90610600  0.66715500  1
  O  O19  1  0.98715500  0.09389400  0.83284500  1
  O  O20  1  0.39911400  0.87054900  0.51384200  1
  O  O21  1  0.89911400  0.12945100  0.98615800  1
  O  O22  1  0.60088600  0.12945100  0.48615800  1
  O  O23  1  0.10088600  0.87054900  0.01384200  1
  O  O24  1  0.38914800  0.75394100  0.36483900  1
  O  O25  1  0.88914800  0.24605900  0.13516100  1
  O  O26  1  0.61085200  0.24605900  0.63516100  1
  O  O27  1  0.11085200  0.75394100  0.86483900  1
  O  O28  1  0.18202100  0.49152200  0.52153500  1
  O  O29  1  0.68202100  0.50847800  0.97846500  1
  O  O30  1  0.81797900  0.50847800  0.47846500  1
  O  O31  1  0.31797900  0.49152200  0.02153500  1
  O  O32  1  0.92173300  0.57010600  0.30967000  1
  O  O33  1  0.42173300  0.42989400  0.19033000  1
  O  O34  1  0.07826700  0.42989400  0.69033000  1
  O  O35  1  0.57826700  0.57010600  0.80967000  1
  O  O36  1  0.92197400  0.75913800  0.58484100  1
  O  O37  1  0.42197400  0.24086200  0.91515900  1
  O  O38  1  0.07802600  0.24086200  0.41515900  1
  O  O39  1  0.57802600  0.75913800  0.08484100  1
  O  O40  1  0.21425900  0.14895000  0.58688100  1
  O  O41  1  0.71425900  0.85105000  0.91311900  1
  O  O42  1  0.78574100  0.85105000  0.41311900  1
  O  O43  1  0.28574100  0.14895000  0.08688100  1
  O  O44  1  0.93580800  0.45583000  0.73239600  1
  O  O45  1  0.43580800  0.54417000  0.76760400  1
  O  O46  1  0.06419200  0.54417000  0.26760400  1
  O  O47  1  0.56419200  0.45583000  0.23239600  1
