# generated using pymatgen
data_K6Yb3(PS4)5
_symmetry_space_group_name_H-M   'P 1'
_cell_length_a   15.35018378
_cell_length_b   15.35018378
_cell_length_c   27.60874624
_cell_angle_alpha   59.38312485
_cell_angle_beta   59.38312485
_cell_angle_gamma   50.01529650
_symmetry_Int_Tables_number   1
_chemical_formula_structural   K6Yb3(PS4)5
_chemical_formula_sum   'K24 Yb12 P20 S80'
_cell_volume   4122.96712352
_cell_formula_units_Z   4
loop_
 _symmetry_equiv_pos_site_id
 _symmetry_equiv_pos_as_xyz
  1  'x, y, z'
loop_
 _atom_site_type_symbol
 _atom_site_label
 _atom_site_symmetry_multiplicity
 _atom_site_fract_x
 _atom_site_fract_y
 _atom_site_fract_z
 _atom_site_occupancy
  Yb  Yb0  1  0.85401000  0.37371300  0.12239900  1
  Yb  Yb1  1  0.17878400  0.69673900  0.43803900  1
  Yb  Yb2  1  0.37371300  0.85401000  0.62239900  1
  Yb  Yb3  1  0.97793100  0.54219600  0.25701700  1
  Yb  Yb4  1  0.14599000  0.62628700  0.87760100  1
  Yb  Yb5  1  0.54219600  0.97793100  0.75701700  1
  Yb  Yb6  1  0.82121600  0.30326100  0.56196100  1
  Yb  Yb7  1  0.45780400  0.02206900  0.24298300  1
  Yb  Yb8  1  0.62628700  0.14599000  0.37760100  1
  Yb  Yb9  1  0.69673900  0.17878400  0.93803900  1
  Yb  Yb10  1  0.30326100  0.82121600  0.06196100  1
  Yb  Yb11  1  0.02206900  0.45780400  0.74298300  1
  K  K12  1  0.66951000  0.81155000  0.97809300  1
  K  K13  1  0.94862100  0.87432200  0.26982000  1
  K  K14  1  0.78324300  0.08523600  0.13851200  1
  K  K15  1  0.54973000  0.63296800  0.23139500  1
  K  K16  1  0.64624900  0.56698900  0.92617800  1
  K  K17  1  0.18845000  0.33049000  0.52190700  1
  K  K18  1  0.24339300  0.07595900  0.42231600  1
  K  K19  1  0.75660700  0.92404100  0.57768400  1
  K  K20  1  0.63296800  0.54973000  0.73139500  1
  K  K21  1  0.21675700  0.91476400  0.86148800  1
  K  K22  1  0.87432200  0.94862100  0.76982000  1
  K  K23  1  0.07595900  0.24339300  0.92231600  1
  K  K24  1  0.36703200  0.45027000  0.26860500  1
  K  K25  1  0.43301100  0.35375100  0.57382200  1
  K  K26  1  0.91476400  0.21675700  0.36148800  1
  K  K27  1  0.45027000  0.36703200  0.76860500  1
  K  K28  1  0.05137900  0.12567800  0.73018000  1
  K  K29  1  0.12567800  0.05137900  0.23018000  1
  K  K30  1  0.92404100  0.75660700  0.07768400  1
  K  K31  1  0.35375100  0.43301100  0.07382200  1
  K  K32  1  0.08523600  0.78324300  0.63851200  1
  K  K33  1  0.56698900  0.64624900  0.42617800  1
  K  K34  1  0.33049000  0.18845000  0.02190700  1
  K  K35  1  0.81155000  0.66951000  0.47809300  1
  P  P36  1  0.10204900  0.52365100  0.81012500  1
  P  P37  1  0.43916900  0.41532800  0.40642600  1
  P  P38  1  0.07696500  0.10266900  0.09115500  1
  P  P39  1  0.10266900  0.07696500  0.59115500  1
  P  P40  1  0.68769100  0.13081900  0.66348300  1
  P  P41  1  0.41532800  0.43916900  0.90642600  1
  P  P42  1  0.92412100  0.42594400  0.40620300  1
  P  P43  1  0.57405600  0.07587900  0.09379700  1
  P  P44  1  0.89733100  0.92303500  0.40884500  1
  P  P45  1  0.86918100  0.31230900  0.83651700  1
  P  P46  1  0.89795100  0.47634900  0.18987500  1
  P  P47  1  0.42594400  0.92412100  0.90620300  1
  P  P48  1  0.13081900  0.68769100  0.16348300  1
  P  P49  1  0.31230900  0.86918100  0.33651700  1
  P  P50  1  0.52365100  0.10204900  0.31012500  1
  P  P51  1  0.47634900  0.89795100  0.68987500  1
  P  P52  1  0.56083100  0.58467200  0.59357400  1
  P  P53  1  0.92303500  0.89733100  0.90884500  1
  P  P54  1  0.07587900  0.57405600  0.59379700  1
  P  P55  1  0.58467200  0.56083100  0.09357400  1
  S  S56  1  0.39054300  0.98057400  0.96996600  1
  S  S57  1  0.74237700  0.52390400  0.02999600  1
  S  S58  1  0.79012100  0.55007000  0.25809400  1
  S  S59  1  0.33316000  0.06040000  0.84629800  1
  S  S60  1  0.49100100  0.79487500  0.29888500  1
  S  S61  1  0.01942600  0.60945700  0.53003400  1
  S  S62  1  0.93960000  0.66684000  0.65370200  1
  S  S63  1  0.82177700  0.57647100  0.12285300  1
  S  S64  1  0.38362300  0.56486500  0.82892200  1
  S  S65  1  0.43513500  0.61637700  0.67107800  1
  S  S66  1  0.66684000  0.93960000  0.15370200  1
  S  S67  1  0.92890900  0.96854200  0.95133700  1
  S  S68  1  0.72460800  0.17522200  0.57502100  1
  S  S69  1  0.06195600  0.87211100  0.83410200  1
  S  S70  1  0.05093100  0.23100400  0.80553600  1
  S  S71  1  0.06040000  0.33316000  0.34629800  1
  S  S72  1  0.80438600  0.25765700  0.81584200  1
  S  S73  1  0.47598300  0.56454100  0.07012700  1
  S  S74  1  0.96854200  0.92890900  0.45133700  1
  S  S75  1  0.50899900  0.20512500  0.70111500  1
  S  S76  1  0.05634600  0.46269400  0.16178900  1
  S  S77  1  0.19605000  0.62661100  0.55376500  1
  S  S78  1  0.93651600  0.73630600  0.96023100  1
  S  S79  1  0.52401700  0.43545900  0.92987300  1
  S  S80  1  0.93804400  0.12788900  0.16589800  1
  S  S81  1  0.74234300  0.19561400  0.68415800  1
  S  S82  1  0.82477800  0.27539200  0.92497900  1
  S  S83  1  0.79487500  0.49100100  0.79888500  1
  S  S84  1  0.06348400  0.26369400  0.03976900  1
  S  S85  1  0.91453200  0.31476600  0.21990300  1
  S  S86  1  0.53730600  0.94365400  0.33821100  1
  S  S87  1  0.42352900  0.17822300  0.37714700  1
  S  S88  1  0.60378200  0.84478100  0.86457500  1
  S  S89  1  0.47609600  0.25762300  0.47000400  1
  S  S90  1  0.23465900  0.99126500  0.11183400  1
  S  S91  1  0.84478100  0.60378200  0.36457500  1
  S  S92  1  0.57647100  0.82177700  0.62285300  1
  S  S93  1  0.46269400  0.05634600  0.66178900  1
  S  S94  1  0.20987900  0.44993000  0.74190600  1
  S  S95  1  0.43545900  0.52401700  0.42987300  1
  S  S96  1  0.68523400  0.08546800  0.28009700  1
  S  S97  1  0.17822300  0.42352900  0.87714700  1
  S  S98  1  0.94906900  0.76899600  0.19446400  1
  S  S99  1  0.07109100  0.03145800  0.04866300  1
  S  S100  1  0.31476600  0.91453200  0.71990300  1
  S  S101  1  0.23100400  0.05093100  0.30553600  1
  S  S102  1  0.25765700  0.80438600  0.31584200  1
  S  S103  1  0.87211100  0.06195600  0.33410200  1
  S  S104  1  0.03145800  0.07109100  0.54866300  1
  S  S105  1  0.56454100  0.47598300  0.57012700  1
  S  S106  1  0.60945700  0.01942600  0.03003400  1
  S  S107  1  0.27586100  0.49878900  0.39729100  1
  S  S108  1  0.25762300  0.47609600  0.97000400  1
  S  S109  1  0.56486500  0.38362300  0.32892200  1
  S  S110  1  0.55007000  0.79012100  0.75809400  1
  S  S111  1  0.20512500  0.50899900  0.20111500  1
  S  S112  1  0.99126500  0.23465900  0.61183400  1
  S  S113  1  0.49878900  0.27586100  0.89729100  1
  S  S114  1  0.62661100  0.19605000  0.05376500  1
  S  S115  1  0.19561400  0.74234300  0.18415800  1
  S  S116  1  0.37338900  0.80395000  0.94623500  1
  S  S117  1  0.39621800  0.15521900  0.13542500  1
  S  S118  1  0.76534100  0.00873500  0.88816600  1
  S  S119  1  0.61637700  0.43513500  0.17107800  1
  S  S120  1  0.72413900  0.50121100  0.60270900  1
  S  S121  1  0.76899600  0.94906900  0.69446400  1
  S  S122  1  0.17522200  0.72460800  0.07502100  1
  S  S123  1  0.00873500  0.76534100  0.38816600  1
  S  S124  1  0.73630600  0.93651600  0.46023100  1
  S  S125  1  0.12788900  0.93804400  0.66589800  1
  S  S126  1  0.50121100  0.72413900  0.10270900  1
  S  S127  1  0.15521900  0.39621800  0.63542500  1
  S  S128  1  0.94365400  0.53730600  0.83821100  1
  S  S129  1  0.26369400  0.06348400  0.53976900  1
  S  S130  1  0.08546800  0.68523400  0.78009700  1
  S  S131  1  0.80395000  0.37338900  0.44623500  1
  S  S132  1  0.52390400  0.74237700  0.52999600  1
  S  S133  1  0.98057400  0.39054300  0.46996600  1
  S  S134  1  0.44993000  0.20987900  0.24190600  1
  S  S135  1  0.27539200  0.82477800  0.42497900  1
