# generated using pymatgen
data_Na2MoC3SeN3
_symmetry_space_group_name_H-M   'P 1'
_cell_length_a   12.24974447
_cell_length_b   12.24974447
_cell_length_c   12.24974447
_cell_angle_alpha   101.87316784
_cell_angle_beta   101.87316784
_cell_angle_gamma   126.05121436
_symmetry_Int_Tables_number   1
_chemical_formula_structural   Na2MoC3SeN3
_chemical_formula_sum   'Na16 Mo8 C24 Se8 N24'
_cell_volume   1324.45178548
_cell_formula_units_Z   8
loop_
 _symmetry_equiv_pos_site_id
 _symmetry_equiv_pos_as_xyz
  1  'x, y, z'
loop_
 _atom_site_type_symbol
 _atom_site_label
 _atom_site_symmetry_multiplicity
 _atom_site_fract_x
 _atom_site_fract_y
 _atom_site_fract_z
 _atom_site_occupancy
  Na  Na0  1  0.62500000  0.51593500  0.39093500  1
  Na  Na1  1  0.39219000  0.25849900  0.86630900  1
  Na  Na2  1  0.47411800  0.60781000  0.86630900  1
  Na  Na3  1  0.76593500  0.87500000  0.39093500  1
  Na  Na4  1  0.74150100  0.60781000  0.13369100  1
  Na  Na5  1  0.50849900  0.14219000  0.36630900  1
  Na  Na6  1  0.85781000  0.49150100  0.63369100  1
  Na  Na7  1  0.62500000  0.23406500  0.10906500  1
  Na  Na8  1  0.39219000  0.52588200  0.13369100  1
  Na  Na9  1  0.12500000  0.51593500  0.89093500  1
  Na  Na10  1  0.77588200  0.14219000  0.63369100  1
  Na  Na11  1  0.12500000  0.23406500  0.60906500  1
  Na  Na12  1  0.48406500  0.37500000  0.60906500  1
  Na  Na13  1  0.85781000  0.22411800  0.36630900  1
  Na  Na14  1  0.76593500  0.37500000  0.89093500  1
  Na  Na15  1  0.48406500  0.87500000  0.10906500  1
  Mo  Mo16  1  0.34520600  0.74979700  0.40459100  1
  Mo  Mo17  1  0.99979700  0.09520600  0.90459100  1
  Mo  Mo18  1  0.90479400  0.80938500  0.90459100  1
  Mo  Mo19  1  0.34520600  0.94061500  0.59540900  1
  Mo  Mo20  1  0.25020300  0.65479400  0.59540900  1
  Mo  Mo21  1  0.19061500  0.09520600  0.09540900  1
  Mo  Mo22  1  0.05938500  0.65479400  0.40459100  1
  Mo  Mo23  1  0.90479400  0.00020300  0.09540900  1
  C  C24  1  0.31851300  0.20564800  0.28944600  1
  C  C25  1  0.97093300  0.68148700  0.88713600  1
  C  C26  1  0.53692100  0.14472900  0.60780800  1
  C  C27  1  0.79435200  0.08379700  0.11286400  1
  C  C28  1  0.91620300  0.20564800  0.88713600  1
  C  C29  1  0.97093300  0.08379700  0.28944600  1
  C  C30  1  0.39472900  0.28692100  0.10780800  1
  C  C31  1  0.71307900  0.60527100  0.89219200  1
  C  C32  1  0.31851300  0.02906700  0.11286400  1
  C  C33  1  0.79435200  0.68148700  0.71055400  1
  C  C34  1  0.85527100  0.46307900  0.39219200  1
  C  C35  1  0.93148700  0.72093300  0.38713600  1
  C  C36  1  0.91620300  0.02906700  0.71055400  1
  C  C37  1  0.45564800  0.06851300  0.78944600  1
  C  C38  1  0.33379700  0.72093300  0.78944600  1
  C  C39  1  0.71307900  0.82088700  0.10780800  1
  C  C40  1  0.93148700  0.54435200  0.21055400  1
  C  C41  1  0.27906700  0.06851200  0.61286400  1
  C  C42  1  0.17911300  0.28692100  0.89219200  1
  C  C43  1  0.07088700  0.46307900  0.60780800  1
  C  C44  1  0.45564800  0.66620300  0.38713600  1
  C  C45  1  0.27906700  0.66620300  0.21055400  1
  C  C46  1  0.53692100  0.92911300  0.39219200  1
  C  C47  1  0.33379700  0.54435200  0.61286400  1
  Se  Se48  1  0.12489100  0.49245400  0.36756400  1
  Se  Se49  1  0.12510900  0.99267300  0.86756400  1
  Se  Se50  1  0.00732700  0.87489100  0.13243600  1
  Se  Se51  1  0.12489100  0.75732700  0.63243600  1
  Se  Se52  1  0.24267300  0.87510900  0.36756400  1
  Se  Se53  1  0.12510900  0.25754600  0.13243600  1
  Se  Se54  1  0.74245400  0.87489100  0.86756400  1
  Se  Se55  1  0.50754600  0.87510900  0.63243600  1
  N  N56  1  0.98771000  0.59506100  0.86471300  1
  N  N57  1  0.37299700  0.73771000  0.89264900  1
  N  N58  1  0.40493900  0.26965200  0.39264900  1
  N  N59  1  0.64216400  0.26245400  0.62029000  1
  N  N60  1  0.87700300  0.01229000  0.60735100  1
  N  N61  1  0.51965200  0.62700300  0.36471300  1
  N  N62  1  0.73034800  0.59506100  0.60735100  1
  N  N63  1  0.60783600  0.72812500  0.12029000  1
  N  N64  1  0.73754600  0.35783600  0.37971000  1
  N  N65  1  0.64216400  0.02187500  0.37971000  1
  N  N66  1  0.27187500  0.39216400  0.87971000  1
  N  N67  1  0.40493900  0.01229000  0.13528700  1
  N  N68  1  0.73034800  0.12299700  0.13528700  1
  N  N69  1  0.26229000  0.62700300  0.10735100  1
  N  N70  1  0.97812500  0.35783600  0.62029000  1
  N  N71  1  0.84506100  0.73771000  0.36471300  1
  N  N72  1  0.51245400  0.39216400  0.12029000  1
  N  N73  1  0.51965200  0.15493900  0.89264900  1
  N  N74  1  0.37299700  0.48034800  0.63528700  1
  N  N75  1  0.87700300  0.26965200  0.86471300  1
  N  N76  1  0.98771000  0.12299700  0.39264900  1
  N  N77  1  0.60783600  0.48754600  0.87971000  1
  N  N78  1  0.26229000  0.15493900  0.63528700  1
  N  N79  1  0.84506100  0.48034800  0.10735100  1
