# generated using pymatgen
data_H2O
_symmetry_space_group_name_H-M   'P 1'
_cell_length_a   7.41270000
_cell_length_b   7.47937865
_cell_length_c   7.78460243
_cell_angle_alpha   73.01119656
_cell_angle_beta   69.54509084
_cell_angle_gamma   70.09977629
_symmetry_Int_Tables_number   1
_chemical_formula_structural   H2O
_chemical_formula_sum   'H28 O14'
_cell_volume   372.81357126
_cell_formula_units_Z   14
loop_
 _symmetry_equiv_pos_site_id
 _symmetry_equiv_pos_as_xyz
  1  'x, y, z'
loop_
 _atom_site_type_symbol
 _atom_site_label
 _atom_site_symmetry_multiplicity
 _atom_site_fract_x
 _atom_site_fract_y
 _atom_site_fract_z
 _atom_site_occupancy
  H  H0  1  0.71491300  0.87022000  0.90793800  1
  H  H1  1  0.67295000  0.79948900  0.31211500  1
  H  H2  1  0.68058000  0.29417800  0.19884000  1
  H  H3  1  0.46537800  0.38733200  0.76919600  1
  H  H4  1  0.61133500  0.20763000  0.99822800  1
  H  H5  1  0.48591300  0.95048000  0.40100800  1
  H  H6  1  0.59455800  0.47951400  0.46722600  1
  H  H7  1  0.32311500  0.75147600  0.82528000  1
  H  H8  1  0.46433500  0.10076200  0.70985600  1
  H  H9  1  0.48602800  0.98912600  0.73592200  1
  H  H10  1  0.12530200  0.94932300  0.98497300  1
  H  H11  1  0.20354200  0.85897800  0.67705700  1
  H  H12  1  0.27647900  0.51833900  0.71148000  1
  H  H13  1  0.91194800  0.88544000  0.92134000  1
  H  H14  1  0.96965900  0.95852700  0.51413900  1
  H  H15  1  0.21305300  0.94191200  0.14151700  1
  H  H16  1  0.81123100  0.87574000  0.50144000  1
  H  H17  1  0.41282400  0.37375200  0.05966500  1
  H  H18  1  0.77596700  0.49074400  0.81342600  1
  H  H19  1  0.44787600  0.99659100  0.11897600  1
  H  H20  1  0.27221700  0.17321600  0.55176100  1
  H  H21  1  0.19507800  0.60811600  0.39460600  1
  H  H22  1  0.09385900  0.36074500  0.25046400  1
  H  H23  1  0.28600200  0.53783000  0.34752700  1
  H  H24  1  0.36173100  0.06829400  0.16915700  1
  H  H25  1  0.03811800  0.54163300  0.10536800  1
  H  H26  1  0.06245300  0.20063500  0.53685200  1
  H  H27  1  0.89446800  0.16337800  0.20671800  1
  O  O28  1  0.76616500  0.93006600  0.97237600  1
  O  O29  1  0.90222300  0.42592600  0.72574900  1
  O  O30  1  0.84405300  0.33331900  0.64102500  1
  O  O31  1  0.54488300  0.74178400  0.86712400  1
  O  O32  1  0.60881700  0.85768900  0.42378500  1
  O  O33  1  0.76250200  0.22550900  0.28752400  1
  O  O34  1  0.72070200  0.50647400  0.37489900  1
  O  O35  1  0.39414400  0.41145100  0.67604000  1
  O  O36  1  0.19192800  0.77429600  0.80118500  1
  O  O37  1  0.20477800  0.12495300  0.49405100  1
  O  O38  1  0.56133000  0.34415200  0.01425900  1
  O  O39  1  0.91976400  0.84400700  0.56095500  1
  O  O40  1  0.14024200  0.41936600  0.11870600  1
  O  O41  1  0.08756000  0.97761200  0.11024600  1
