# generated using pymatgen
data_US2
_symmetry_space_group_name_H-M   'P 1'
_cell_length_a   7.89447997
_cell_length_b   7.89447997
_cell_length_c   5.19894970
_cell_angle_alpha   70.92536382
_cell_angle_beta   70.92536382
_cell_angle_gamma   83.89981541
_symmetry_Int_Tables_number   1
_chemical_formula_structural   US2
_chemical_formula_sum   'U5 S10'
_cell_volume   289.40918131
_cell_formula_units_Z   5
loop_
 _symmetry_equiv_pos_site_id
 _symmetry_equiv_pos_as_xyz
  1  'x, y, z'
loop_
 _atom_site_type_symbol
 _atom_site_label
 _atom_site_symmetry_multiplicity
 _atom_site_fract_x
 _atom_site_fract_y
 _atom_site_fract_z
 _atom_site_occupancy
  U  U0  1  0.49950400  0.82503200  0.58630400  1
  U  U1  1  0.00033900  0.99966100  0.00000000  1
  U  U2  1  0.17496800  0.50049600  0.41369600  1
  U  U3  1  0.82417300  0.49967600  0.08556500  1
  U  U4  1  0.50032400  0.17582700  0.91443500  1
  S  S5  1  0.86230300  0.30052000  0.67490800  1
  S  S6  1  0.86178900  0.69982600  0.46019000  1
  S  S7  1  0.50063900  0.49936100  0.50000000  1
  S  S8  1  0.30017400  0.13821100  0.53981000  1
  S  S9  1  0.69948000  0.13769700  0.32509200  1
  S  S10  1  0.30100100  0.86221800  0.16658800  1
  S  S11  1  0.70257400  0.86384500  0.96131300  1
  S  S12  1  0.49879600  0.50120400  0.00000000  1
  S  S13  1  0.13615500  0.29742600  0.03868700  1
  S  S14  1  0.13778200  0.69899900  0.83341200  1
