# generated using pymatgen
data_Yb2Se3
_symmetry_space_group_name_H-M   'P 1'
_cell_length_a   15.06458616
_cell_length_b   15.06458616
_cell_length_c   15.06458616
_cell_angle_alpha   145.96223719
_cell_angle_beta   145.96223719
_cell_angle_gamma   48.90285669
_symmetry_Int_Tables_number   1
_chemical_formula_structural   Yb2Se3
_chemical_formula_sum   'Yb16 Se24'
_cell_volume   1066.42048751
_cell_formula_units_Z   8
loop_
 _symmetry_equiv_pos_site_id
 _symmetry_equiv_pos_as_xyz
  1  'x, y, z'
loop_
 _atom_site_type_symbol
 _atom_site_label
 _atom_site_symmetry_multiplicity
 _atom_site_fract_x
 _atom_site_fract_y
 _atom_site_fract_z
 _atom_site_occupancy
  Yb  Yb0  1  0.23949500  0.34407100  0.66157300  1
  Yb  Yb1  1  0.68249800  0.57792200  0.33842700  1
  Yb  Yb2  1  0.40981400  0.90981400  0.50000000  1
  Yb  Yb3  1  0.73751900  0.12500000  0.11251900  1
  Yb  Yb4  1  0.51050500  0.67207800  0.60457600  1
  Yb  Yb5  1  0.34018600  0.34018600  0.00000000  1
  Yb  Yb6  1  0.06750200  0.90592900  0.39542400  1
  Yb  Yb7  1  0.01248100  0.62500000  0.88748100  1
  Yb  Yb8  1  0.09407100  0.48949500  0.16157300  1
  Yb  Yb9  1  0.87500000  0.98751900  0.61251900  1
  Yb  Yb10  1  0.65981400  0.65981400  0.00000000  1
  Yb  Yb11  1  0.37500000  0.26248100  0.38748100  1
  Yb  Yb12  1  0.32792200  0.93249800  0.83842700  1
  Yb  Yb13  1  0.09018600  0.59018600  0.50000000  1
  Yb  Yb14  1  0.42207800  0.76050500  0.10457600  1
  Yb  Yb15  1  0.65592900  0.31750200  0.89542400  1
  Se  Se16  1  0.34223100  0.61517700  0.09068800  1
  Se  Se17  1  0.07194300  0.02661200  0.30432300  1
  Se  Se18  1  0.52448900  0.25154300  0.90931200  1
  Se  Se19  1  0.40776900  0.99845700  0.77294600  1
  Se  Se20  1  0.22551100  0.63482300  0.22705400  1
  Se  Se21  1  0.72228900  0.76762000  0.69567700  1
  Se  Se22  1  0.02771100  0.22338800  0.54533100  1
  Se  Se23  1  0.71701400  0.89363500  0.07957900  1
  Se  Se24  1  0.67805700  0.48238000  0.45466900  1
  Se  Se25  1  0.36256500  0.28298600  0.17662100  1
  Se  Se26  1  0.81405600  0.63743500  0.92042100  1
  Se  Se27  1  0.77661200  0.32194300  0.80432300  1
  Se  Se28  1  0.51762000  0.97228900  0.19567700  1
  Se  Se29  1  0.10636500  0.18594400  0.82337900  1
  Se  Se30  1  0.36517700  0.59223100  0.59068800  1
  Se  Se31  1  0.97338800  0.27771100  0.04533100  1
  Se  Se32  1  0.00154300  0.77448900  0.40931200  1
  Se  Se33  1  0.74845700  0.65776900  0.27294600  1
  Se  Se34  1  0.23238000  0.92805700  0.95466900  1
  Se  Se35  1  0.03298600  0.61256500  0.67662100  1
  Se  Se36  1  0.93594400  0.35636500  0.32337900  1
  Se  Se37  1  0.38482300  0.47551100  0.72705400  1
  Se  Se38  1  0.64363500  0.96701400  0.57957900  1
  Se  Se39  1  0.38743500  0.06405600  0.42042100  1
