# generated using pymatgen
data_Yb43Se45
_symmetry_space_group_name_H-M   'P 1'
_cell_length_a   8.39524200
_cell_length_b   14.50228600
_cell_length_c   20.41396120
_cell_angle_alpha   89.88488049
_cell_angle_beta   90.00000000
_cell_angle_gamma   90.00000000
_symmetry_Int_Tables_number   1
_chemical_formula_structural   Yb43Se45
_chemical_formula_sum   'Yb43 Se45'
_cell_volume   2485.39885346
_cell_formula_units_Z   1
loop_
 _symmetry_equiv_pos_site_id
 _symmetry_equiv_pos_as_xyz
  1  'x, y, z'
loop_
 _atom_site_type_symbol
 _atom_site_label
 _atom_site_symmetry_multiplicity
 _atom_site_fract_x
 _atom_site_fract_y
 _atom_site_fract_z
 _atom_site_occupancy
  Yb  Yb0  1  0.76480400  0.25501800  0.99463400  1
  Yb  Yb1  1  0.50000000  0.34177500  0.17078900  1
  Yb  Yb2  1  0.26249100  0.57927500  0.17071600  1
  Yb  Yb3  1  0.23519600  0.25501800  0.99463400  1
  Yb  Yb4  1  0.26502100  0.75482900  0.99491300  1
  Yb  Yb5  1  0.26271100  0.42056200  0.32958600  1
  Yb  Yb6  1  0.00000000  0.49024200  0.99443100  1
  Yb  Yb7  1  0.00000000  0.84232200  0.17119000  1
  Yb  Yb8  1  0.00000000  0.33330400  0.16666700  1
  Yb  Yb9  1  0.76401400  0.07857700  0.17119400  1
  Yb  Yb10  1  0.73750900  0.57927500  0.17071600  1
  Yb  Yb11  1  0.73497900  0.75482900  0.99491300  1
  Yb  Yb12  1  0.75306600  0.74906300  0.49795600  1
  Yb  Yb13  1  0.73728900  0.42056200  0.32958600  1
  Yb  Yb14  1  0.74712900  0.91566100  0.33462600  1
  Yb  Yb15  1  0.50000000  0.99005200  0.99501400  1
  Yb  Yb16  1  0.50000000  0.66972600  0.33470200  1
  Yb  Yb17  1  0.50000000  0.83346100  0.16640000  1
  Yb  Yb18  1  0.50000000  0.83320000  0.66658500  1
  Yb  Yb19  1  0.50000000  0.00143800  0.49734800  1
  Yb  Yb20  1  0.26612200  0.24467600  0.50531600  1
  Yb  Yb21  1  0.23598600  0.07857700  0.17119400  1
  Yb  Yb22  1  0.24693400  0.74906300  0.49795600  1
  Yb  Yb23  1  0.25287100  0.91566100  0.33462600  1
  Yb  Yb24  1  0.24454800  0.91886300  0.83423800  1
  Yb  Yb25  1  0.24571300  0.08583000  0.66754700  1
  Yb  Yb26  1  0.00000000  0.15714400  0.32931500  1
  Yb  Yb27  1  0.00000000  0.51149100  0.50594700  1
  Yb  Yb28  1  0.00000000  0.83383900  0.66691500  1
  Yb  Yb29  1  0.00000000  0.00038400  0.49965900  1
  Yb  Yb30  1  0.00000000  0.16544500  0.83205400  1
  Yb  Yb31  1  0.74747500  0.41732700  0.83225500  1
  Yb  Yb32  1  0.75428700  0.08583000  0.66754700  1
  Yb  Yb33  1  0.73387800  0.24467600  0.50531600  1
  Yb  Yb34  1  0.75246000  0.58007000  0.66689200  1
  Yb  Yb35  1  0.75545200  0.91886300  0.83423800  1
  Yb  Yb36  1  0.50000000  0.33402500  0.66756600  1
  Yb  Yb37  1  0.50000000  0.49967100  0.49984800  1
  Yb  Yb38  1  0.50000000  0.66237300  0.83455400  1
  Yb  Yb39  1  0.50000000  0.16670000  0.83366600  1
  Yb  Yb40  1  0.25252500  0.41732700  0.83225500  1
  Yb  Yb41  1  0.24754000  0.58007000  0.66689200  1
  Yb  Yb42  1  0.00000000  0.66632400  0.83373800  1
  Se  Se43  1  0.24853200  0.41590700  0.08478400  1
  Se  Se44  1  0.00000000  0.49851600  0.24937600  1
  Se  Se45  1  0.00000000  0.16794800  0.08436800  1
  Se  Se46  1  0.74835400  0.91608800  0.08414500  1
  Se  Se47  1  0.75151000  0.25113600  0.24894200  1
  Se  Se48  1  0.75146800  0.41590700  0.08478400  1
  Se  Se49  1  0.75170400  0.74898100  0.24567900  1
  Se  Se50  1  0.75046600  0.57742000  0.41667200  1
  Se  Se51  1  0.50000000  0.00203300  0.24545900  1
  Se  Se52  1  0.50000000  0.66715700  0.58334000  1
  Se  Se53  1  0.50000000  0.66747500  0.08446500  1
  Se  Se54  1  0.50000000  0.83322700  0.41587400  1
  Se  Se55  1  0.50000000  0.50244100  0.25119500  1
  Se  Se56  1  0.24829600  0.74898100  0.24567900  1
  Se  Se57  1  0.25164600  0.91608800  0.08414500  1
  Se  Se58  1  0.24849000  0.25113600  0.24894200  1
  Se  Se59  1  0.24318700  0.08688300  0.41679800  1
  Se  Se60  1  0.24953400  0.57742000  0.41667200  1
  Se  Se61  1  0.25136000  0.91687300  0.58321300  1
  Se  Se62  1  0.00000000  0.16764300  0.57946800  1
  Se  Se63  1  0.00000000  0.83662800  0.41697700  1
  Se  Se64  1  0.00000000  0.99986700  0.75041900  1
  Se  Se65  1  0.00000000  0.66965600  0.58475500  1
  Se  Se66  1  0.00000000  0.99750800  0.25243200  1
  Se  Se67  1  0.74864000  0.91687300  0.58321300  1
  Se  Se68  1  0.75681300  0.08688300  0.41679800  1
  Se  Se69  1  0.75079900  0.41599900  0.57912700  1
  Se  Se70  1  0.74328400  0.08553800  0.91922100  1
  Se  Se71  1  0.74658200  0.24903200  0.75162000  1
  Se  Se72  1  0.50000000  0.33480500  0.41618200  1
  Se  Se73  1  0.50000000  0.32893500  0.91961700  1
  Se  Se74  1  0.50000000  0.50015400  0.75012700  1
  Se  Se75  1  0.50000000  0.99911700  0.75008100  1
  Se  Se76  1  0.50000000  0.16363700  0.58591700  1
  Se  Se77  1  0.25671600  0.08553800  0.91922100  1
  Se  Se78  1  0.25341800  0.24903200  0.75162000  1
  Se  Se79  1  0.24920100  0.41599900  0.57912700  1
  Se  Se80  1  0.24322700  0.58572700  0.91945600  1
  Se  Se81  1  0.25128800  0.75042700  0.75047700  1
  Se  Se82  1  0.00000000  0.82869900  0.91916000  1
  Se  Se83  1  0.00000000  0.50206400  0.75196700  1
  Se  Se84  1  0.00000000  0.33332600  0.91298300  1
  Se  Se85  1  0.75677300  0.58572700  0.91945600  1
  Se  Se86  1  0.74871200  0.75042700  0.75047700  1
  Se  Se87  1  0.50000000  0.83338700  0.91277400  1
