# generated using pymatgen
data_Fe2O3
_symmetry_space_group_name_H-M   'P 1'
_cell_length_a   8.47629187
_cell_length_b   8.45637823
_cell_length_c   25.29079095
_cell_angle_alpha   89.99913364
_cell_angle_beta   90.06765391
_cell_angle_gamma   90.00874698
_symmetry_Int_Tables_number   1
_chemical_formula_structural   Fe2O3
_chemical_formula_sum   'Fe64 O96'
_cell_volume   1812.81049128
_cell_formula_units_Z   32
loop_
 _symmetry_equiv_pos_site_id
 _symmetry_equiv_pos_as_xyz
  1  'x, y, z'
loop_
 _atom_site_type_symbol
 _atom_site_label
 _atom_site_symmetry_multiplicity
 _atom_site_fract_x
 _atom_site_fract_y
 _atom_site_fract_z
 _atom_site_occupancy
  Fe  Fe0  1  0.98896855  0.61655324  0.20756454  1
  Fe  Fe1  1  0.00058632  0.12516936  0.37474919  1
  Fe  Fe2  1  0.00222986  0.62068421  0.54029110  1
  Fe  Fe3  1  0.00991246  0.62446942  0.87288784  1
  Fe  Fe4  1  0.00142934  0.88579157  0.12155236  1
  Fe  Fe5  1  0.00857149  0.86356820  0.45862825  1
  Fe  Fe6  1  0.00387443  0.87417078  0.79125473  1
  Fe  Fe7  1  0.12392836  0.75159105  0.33172754  1
  Fe  Fe8  1  0.12892549  0.74218470  0.66761488  1
  Fe  Fe9  1  0.11966817  0.74944977  0.99954958  1
  Fe  Fe10  1  0.12523527  0.25094784  0.16843701  1
  Fe  Fe11  1  0.13032990  0.25242742  0.50119083  1
  Fe  Fe12  1  0.12385495  0.24052497  0.83452623  1
  Fe  Fe13  1  0.24308949  0.36512026  0.04112654  1
  Fe  Fe14  1  0.25055789  0.38368594  0.37675266  1
  Fe  Fe15  1  0.23882363  0.37597141  0.71128391  1
  Fe  Fe16  1  0.25194564  0.62524143  0.12420415  1
  Fe  Fe17  1  0.25192692  0.12619004  0.29201381  1
  Fe  Fe18  1  0.24195371  0.12259010  0.62684351  1
  Fe  Fe19  1  0.24839582  0.12008946  0.96043961  1
  Fe  Fe20  1  0.25677866  0.87458323  0.21146227  1
  Fe  Fe21  1  0.25186571  0.87212848  0.54118769  1
  Fe  Fe22  1  0.25593613  0.86820316  0.87528498  1
  Fe  Fe23  1  0.37646767  0.49142083  0.24949289  1
  Fe  Fe24  1  0.36481104  0.49926004  0.58289297  1
  Fe  Fe25  1  0.37967250  0.50077755  0.92004432  1
  Fe  Fe26  1  0.38726044  0.99739168  0.08204449  1
  Fe  Fe27  1  0.37251650  -0.00009255  0.41816286  1
  Fe  Fe28  1  0.37201730  0.00021936  0.75146658  1
  Fe  Fe29  1  0.50260045  0.62682636  0.04117765  1
  Fe  Fe30  1  0.49333310  0.63154877  0.37482939  1
  Fe  Fe31  1  0.49827098  0.62558515  0.70818323  1
  Fe  Fe32  1  0.49883735  0.87385104  0.62515139  1
  Fe  Fe33  1  0.50290331  0.37704458  0.12491903  1
  Fe  Fe34  1  0.49940605  0.38444179  0.46225481  1
  Fe  Fe35  1  0.48990520  0.38177416  0.79202409  1
  Fe  Fe36  1  0.50994438  0.12927432  0.21185819  1
  Fe  Fe37  1  0.49841371  0.12508651  0.54169023  1
  Fe  Fe38  1  0.50437719  0.11438345  0.87815075  1
  Fe  Fe39  1  0.62433923  0.25008356  0.00193157  1
  Fe  Fe40  1  0.62614483  0.25675336  0.33332882  1
  Fe  Fe41  1  0.62039089  0.25155127  0.66652085  1
  Fe  Fe42  1  0.62449667  0.75625331  0.16579724  1
  Fe  Fe43  1  0.62802847  0.75353674  0.49882581  1
  Fe  Fe44  1  0.62616123  0.74729928  0.83221291  1
  Fe  Fe45  1  0.74279330  0.61984423  0.28935742  1
  Fe  Fe46  1  0.74657153  0.61568836  0.62140930  1
  Fe  Fe47  1  0.74864183  0.62878455  0.95911524  1
  Fe  Fe48  1  0.74839882  0.87515884  0.03995922  1
  Fe  Fe49  1  0.73983506  0.87872740  0.37225587  1
  Fe  Fe50  1  0.76237778  0.87845768  0.70823927  1
  Fe  Fe51  1  0.74959348  0.37621910  0.87663274  1
  Fe  Fe52  1  0.75284446  0.13243654  0.12405010  1
  Fe  Fe53  1  0.75093564  0.13038547  0.46169622  1
  Fe  Fe54  1  0.75739205  0.12747456  0.78951258  1
  Fe  Fe55  1  0.87044190  0.49678719  0.08096353  1
  Fe  Fe56  1  0.86937580  0.49954605  0.41717146  1
  Fe  Fe57  1  0.87397472  0.50781825  0.74897250  1
  Fe  Fe58  1  0.87907053  0.99815818  0.24829007  1
  Fe  Fe59  1  0.87333148  0.99700650  0.58204981  1
  Fe  Fe60  1  0.88125023  0.99898836  0.91954518  1
  Fe  Fe61  1  0.99910291  0.37294865  0.29142063  1
  Fe  Fe62  1  0.99021723  0.36682731  0.62385380  1
  Fe  Fe63  1  0.99767548  0.37461819  0.95865660  1
  O  O64  1  0.00757849  0.62571077  0.12775862  1
  O  O65  1  0.98643343  0.63047196  0.46375424  1
  O  O66  1  0.98502636  0.64144332  0.79632426  1
  O  O67  1  0.01131454  0.39037532  0.03533562  1
  O  O68  1  0.00875645  0.36777640  0.37131439  1
  O  O69  1  0.01025274  0.39886600  0.70432005  1
  O  O70  1  0.01247862  0.13859058  0.29394951  1
  O  O71  1  0.00822364  0.13629756  0.61824449  1
  O  O72  1  0.00607383  0.14931517  0.95393765  1
  O  O73  1  0.01214162  0.86216404  0.20371155  1
  O  O74  1  0.01526145  0.86660406  0.53946979  1
  O  O75  1  0.00718070  0.86597599  0.87065017  1
  O  O76  1  0.23534210  0.36072647  0.29438829  1
  O  O77  1  0.23977072  0.36368490  0.62845230  1
  O  O78  1  0.23471584  0.36822172  0.96073114  1
  O  O79  1  0.24470813  0.63407743  0.20540639  1
  O  O80  1  0.24280158  0.64692392  0.54618906  1
  O  O81  1  0.24226871  0.63567399  0.88185844  1
  O  O82  1  0.24066057  0.86727616  0.12558578  1
  O  O83  1  0.23934168  0.88747000  0.46454016  1
  O  O84  1  0.23060060  0.89120881  0.79586447  1
  O  O85  1  0.26828144  0.13128557  0.03656871  1
  O  O86  1  0.24217460  0.13166986  0.36991942  1
  O  O87  1  0.27002253  0.13820259  0.70365002  1
  O  O88  1  0.23455943  0.89635236  0.28888152  1
  O  O89  1  0.25728974  0.88225519  0.62112263  1
  O  O90  1  0.22840584  0.89075487  0.95544794  1
  O  O91  1  0.26602008  0.61885289  0.04373378  1
  O  O92  1  0.26049128  0.61650679  0.36939152  1
  O  O93  1  0.27158260  0.61086421  0.70326157  1
  O  O94  1  0.26101364  0.38199161  0.12154473  1
  O  O95  1  0.26164466  0.35894835  0.45317709  1
  O  O96  1  0.25654144  0.35583533  0.78870300  1
  O  O97  1  0.25568297  0.11692811  0.21328981  1
  O  O98  1  0.26342113  0.10890236  0.54437644  1
  O  O99  1  0.26063772  0.11698751  0.88119498  1
  O  O100  1  0.49180676  0.39133450  0.04617895  1
  O  O101  1  0.48976674  0.38203436  0.37809568  1
  O  O102  1  0.49225031  0.38993949  0.71047137  1
  O  O103  1  0.48344047  0.14837413  0.28829614  1
  O  O104  1  0.49132019  0.11483925  0.61957035  1
  O  O105  1  0.49125069  0.14915323  0.95389858  1
  O  O106  1  0.48474512  0.89006218  0.20215875  1
  O  O107  1  0.48596232  0.88446169  0.54374420  1
  O  O108  1  0.48944481  0.88219759  0.86994210  1
  O  O109  1  0.49544434  0.61220519  0.12099684  1
  O  O110  1  0.51715534  0.61327818  0.45463455  1
  O  O111  1  0.51511124  0.61380996  0.78507400  1
  O  O112  1  0.48702238  0.36536615  0.20074867  1
  O  O113  1  0.48075684  0.35713657  0.53954884  1
  O  O114  1  0.50909936  0.37286724  0.87152951  1
  O  O115  1  0.50748816  0.63187319  0.62799339  1
  O  O116  1  0.51280715  0.60429372  0.29487347  1
  O  O117  1  0.51923130  0.61207533  0.96486725  1
  O  O118  1  0.51827210  0.85382064  0.04607112  1
  O  O119  1  0.50777654  0.86554506  0.37961286  1
  O  O120  1  0.50415523  0.85990832  0.70590938  1
  O  O121  1  0.50417538  0.14241570  0.12771028  1
  O  O122  1  0.50924620  0.13088110  0.46262507  1
  O  O123  1  0.51127916  0.13542463  0.79577109  1
  O  O124  1  0.73754724  0.63552775  0.03770797  1
  O  O125  1  0.74360818  0.63678740  0.37157695  1
  O  O126  1  0.73304887  0.63622284  0.70430383  1
  O  O127  1  0.73324126  0.36565208  0.11981080  1
  O  O128  1  0.73723672  0.35952973  0.45317346  1
  O  O129  1  0.74625847  0.36646206  0.79500905  1
  O  O130  1  0.73923248  0.10897355  0.20400451  1
  O  O131  1  0.72922389  0.10946691  0.53913134  1
  O  O132  1  0.74126928  0.13356031  0.87412625  1
  O  O133  1  0.74082294  0.86745497  0.62856889  1
  O  O134  1  0.77048536  0.86631578  0.29596368  1
  O  O135  1  0.76610149  0.85837910  0.96346721  1
  O  O136  1  0.73156322  0.10480278  0.04499203  1
  O  O137  1  0.75800365  0.11690882  0.37641118  1
  O  O138  1  0.73289686  0.11148916  0.71147709  1
  O  O139  1  0.76079188  0.38324005  0.62952708  1
  O  O140  1  0.76261050  0.38815646  0.95709859  1
  O  O141  1  0.77230080  0.38469049  0.29644759  1
  O  O142  1  0.75819566  0.64106549  0.21143953  1
  O  O143  1  0.75927440  0.64407593  0.54573667  1
  O  O144  1  0.75546030  0.61774788  0.88064603  1
  O  O145  1  0.75856573  0.88285338  0.11936723  1
  O  O146  1  0.76376274  0.88687177  0.45447620  1
  O  O147  1  0.76396189  0.88276223  0.78929978  1
  O  O148  1  0.99312217  0.60890101  0.28933221  1
  O  O149  1  0.99101403  0.61829465  0.61998362  1
  O  O150  1  0.98501175  0.61134984  0.95536975  1
  O  O151  1  0.98059805  0.85689202  0.04529099  1
  O  O152  1  0.99613688  0.88373793  0.37909095  1
  O  O153  1  0.99460316  0.85633418  0.71372288  1
  O  O154  1  0.98938429  0.11916567  0.12894937  1
  O  O155  1  0.99147411  0.12001143  0.45602416  1
  O  O156  1  0.98713169  0.10665324  0.79639576  1
  O  O157  1  0.01355520  0.38500446  0.21479064  1
  O  O158  1  0.02004305  0.39067795  0.54536636  1
  O  O159  1  0.99184187  0.38400915  0.87886354  1
