# generated using pymatgen
data_H2
_symmetry_space_group_name_H-M   'P 1'
_cell_length_a   7.17773900
_cell_length_b   7.19411800
_cell_length_c   7.21549700
_cell_angle_alpha   90.00000000
_cell_angle_beta   90.00000000
_cell_angle_gamma   90.00000000
_symmetry_Int_Tables_number   1
_chemical_formula_structural   H2
_chemical_formula_sum   H8
_cell_volume   372.59023600
_cell_formula_units_Z   4
loop_
 _symmetry_equiv_pos_site_id
 _symmetry_equiv_pos_as_xyz
  1  'x, y, z'
loop_
 _atom_site_type_symbol
 _atom_site_label
 _atom_site_symmetry_multiplicity
 _atom_site_fract_x
 _atom_site_fract_y
 _atom_site_fract_z
 _atom_site_occupancy
  H  H0  1  0.36560300  0.72221700  0.64677900  1
  H  H1  1  0.86560300  0.77778300  0.35322100  1
  H  H2  1  0.63439700  0.22221700  0.85322100  1
  H  H3  1  0.13439700  0.27778300  0.14677900  1
  H  H4  1  0.64459100  0.14877600  0.77978900  1
  H  H5  1  0.14459100  0.35122400  0.22021100  1
  H  H6  1  0.35540900  0.64877600  0.72021100  1
  H  H7  1  0.85540900  0.85122400  0.27978900  1
