# generated using pymatgen
data_SiO4
_symmetry_space_group_name_H-M   'P 1'
_cell_length_a   5.08275824
_cell_length_b   4.99579713
_cell_length_c   11.05065769
_cell_angle_alpha   105.55494713
_cell_angle_beta   73.18378623
_cell_angle_gamma   119.35024583
_symmetry_Int_Tables_number   1
_chemical_formula_structural   SiO4
_chemical_formula_sum   'Si3 O12'
_cell_volume   231.42523646
_cell_formula_units_Z   3
loop_
 _symmetry_equiv_pos_site_id
 _symmetry_equiv_pos_as_xyz
  1  'x, y, z'
loop_
 _atom_site_type_symbol
 _atom_site_label
 _atom_site_symmetry_multiplicity
 _atom_site_fract_x
 _atom_site_fract_y
 _atom_site_fract_z
 _atom_site_occupancy
  Si  Si0  1  0.34403500  0.58149000  0.65663000  1
  Si  Si1  1  0.38496400  0.73289000  0.00609300  1
  Si  Si2  1  0.39464200  0.96192600  0.54677500  1
  O  O3  1  0.28033000  0.96838600  0.41308700  1
  O  O4  1  0.17824100  0.63793700  0.82958300  1
  O  O5  1  0.63292900  0.90349400  0.61295700  1
  O  O6  1  0.71317200  0.80658400  0.01781100  1
  O  O7  1  0.37522800  0.27295400  0.64082400  1
  O  O8  1  0.67575400  0.57197400  0.28519700  1
  O  O9  1  0.78713400  0.56982100  0.17176000  1
  O  O10  1  0.17966000  0.74810100  0.15139500  1
  O  O11  1  0.39082800  0.93675900  0.89666600  1
  O  O12  1  0.59950600  0.02448300  0.39377600  1
  O  O13  1  0.10883500  0.61565600  0.59263700  1
  O  O14  1  0.16474000  0.41754500  0.90147700  1
