# generated using pymatgen
data_As24S25
_symmetry_space_group_name_H-M   'P 1'
_cell_length_a   6.87535900
_cell_length_b   9.33520101
_cell_length_c   24.39694188
_cell_angle_alpha   98.66776648
_cell_angle_beta   88.31426300
_cell_angle_gamma   102.36407920
_symmetry_Int_Tables_number   1
_chemical_formula_structural   As24S25
_chemical_formula_sum   'As24 S25'
_cell_volume   1512.07206810
_cell_formula_units_Z   1
loop_
 _symmetry_equiv_pos_site_id
 _symmetry_equiv_pos_as_xyz
  1  'x, y, z'
loop_
 _atom_site_type_symbol
 _atom_site_label
 _atom_site_symmetry_multiplicity
 _atom_site_fract_x
 _atom_site_fract_y
 _atom_site_fract_z
 _atom_site_occupancy
  As  As0  1  0.62554600  0.22594100  0.13933400  1
  As  As1  1  0.49669900  0.52511500  0.17541100  1
  As  As2  1  0.35641800  0.31677500  0.26774000  1
  As  As3  1  0.26215000  0.31664400  0.52191000  1
  As  As4  1  0.19563200  0.67730300  0.48443800  1
  As  As5  1  0.05579700  0.36811300  0.60938300  1
  As  As6  1  0.28195300  0.72020100  0.28647900  1
  As  As7  1  0.96215000  0.30656100  0.81240300  1
  As  As8  1  0.82482700  0.54700600  0.82445000  1
  As  As9  1  0.49212200  0.29364700  0.05361400  1
  As  As10  1  0.95789100  0.68543100  0.68568400  1
  As  As11  1  0.08258100  0.13951200  0.31888000  1
  As  As12  1  0.68316900  0.67565900  0.96398200  1
  As  As13  1  0.17306300  0.47648000  0.22587100  1
  As  As14  1  0.95245700  0.83627600  0.21216800  1
  As  As15  1  0.83762600  0.24614400  0.71069000  1
  As  As16  1  0.93430200  0.77203200  0.31059700  1
  As  As17  1  0.78925600  0.99565400  0.60911400  1
  As  As18  1  0.56702000  0.23663800  0.56014000  1
  As  As19  1  0.65509900  0.81302700  0.67869400  1
  As  As20  1  0.43958400  0.97171000  0.96488900  1
  As  As21  1  0.44818000  0.46708700  0.83842400  1
  As  As22  1  0.44843100  0.74247500  0.81590200  1
  As  As23  1  0.39654300  0.75925000  0.02328100  1
  S  S24  1  0.79786200  0.05570300  0.08274400  1
  S  S25  1  0.87628400  0.61038000  0.02882000  1
  S  S26  1  0.52490000  0.83005900  0.47094800  1
  S  S27  1  0.53127600  0.48190600  0.33783700  1
  S  S28  1  0.14267400  0.77337500  0.81891600  1
  S  S29  1  0.28409900  0.50561500  0.67281000  1
  S  S30  1  0.29321200  0.85232200  0.21316100  1
  S  S31  1  0.32057400  0.11983700  0.10396600  1
  S  S32  1  0.36421700  0.49831200  0.09030400  1
  S  S33  1  0.90127900  0.55999500  0.59723500  1
  S  S34  1  0.02579700  0.93095000  0.54124200  1
  S  S35  1  0.04027900  0.09500400  0.49188500  1
  S  S36  1  0.06381200  0.60346900  0.40729900  1
  S  S37  1  0.48944800  0.44555200  0.92811500  1
  S  S38  1  0.61673000  0.91109300  0.88544400  1
  S  S39  1  0.67906200  0.14054600  0.78000100  1
  S  S40  1  0.73562500  0.50970200  0.73139300  1
  S  S41  1  0.91324500  0.26963900  0.37054000  1
  S  S42  1  0.76606700  0.53239900  0.28256200  1
  S  S43  1  0.91832100  0.07440600  0.23190500  1
  S  S44  1  0.49442200  0.19773100  0.64477000  1
  S  S45  1  0.43969200  0.64654000  0.61930100  1
  S  S46  1  0.50637900  0.95498100  0.54561300  1
  S  S47  1  0.12271800  0.59333400  0.97801000  1
  S  S48  1  0.76256300  0.07877100  0.00236500  1
