# generated using pymatgen
data_KLaC4O11
_symmetry_space_group_name_H-M   'P 1'
_cell_length_a   12.38683167
_cell_length_b   7.76567780
_cell_length_c   6.60751638
_cell_angle_alpha   98.85068700
_cell_angle_beta   104.37349488
_cell_angle_gamma   104.86379720
_symmetry_Int_Tables_number   1
_chemical_formula_structural   KLaC4O11
_chemical_formula_sum   'K2 La2 C8 O22'
_cell_volume   578.80829059
_cell_formula_units_Z   2
loop_
 _symmetry_equiv_pos_site_id
 _symmetry_equiv_pos_as_xyz
  1  'x, y, z'
loop_
 _atom_site_type_symbol
 _atom_site_label
 _atom_site_symmetry_multiplicity
 _atom_site_fract_x
 _atom_site_fract_y
 _atom_site_fract_z
 _atom_site_occupancy
  K  K0  1  0.67444600  0.09326500  0.30510000  1
  K  K1  1  0.32555400  0.90673500  0.69490000  1
  La  La2  1  0.78593800  0.65605900  0.17794800  1
  La  La3  1  0.21406200  0.34394100  0.82205200  1
  C  C4  1  0.75693700  0.73906500  0.67358300  1
  C  C5  1  0.24306300  0.26093500  0.32641700  1
  C  C6  1  0.77574000  0.54554300  0.65282400  1
  C  C7  1  0.22426000  0.45445700  0.34717600  1
  C  C8  1  0.03000100  0.93202300  0.54662600  1
  C  C9  1  0.96999900  0.06797700  0.45337400  1
  C  C10  1  0.49709000  0.60052000  0.01180800  1
  C  C11  1  0.50291000  0.39948000  0.98819200  1
  O  O12  1  0.74708300  0.80533400  0.50978100  1
  O  O13  1  0.25291700  0.19466600  0.49021900  1
  O  O14  1  0.77394300  0.46801200  0.46821800  1
  O  O15  1  0.22605700  0.53198800  0.53178200  1
  O  O16  1  0.75132000  0.81005700  0.85472500  1
  O  O17  1  0.24868000  0.18994300  0.14527500  1
  O  O18  1  0.78797800  0.48336900  0.81989200  1
  O  O19  1  0.21202200  0.51663100  0.18010800  1
  O  O20  1  0.98512300  0.76465600  0.45115600  1
  O  O21  1  0.01487700  0.23534400  0.54884400  1
  O  O22  1  0.11901000  0.00070400  0.71156800  1
  O  O23  1  0.88099000  0.99929600  0.28843200  1
  O  O24  1  0.59316200  0.72697400  0.09944100  1
  O  O25  1  0.40683800  0.27302600  0.90055900  1
  O  O26  1  0.39731100  0.62039200  0.94149100  1
  O  O27  1  0.60268900  0.37960800  0.05850900  1
  O  O28  1  0.65381800  0.03335300  0.80439200  1
  O  O29  1  0.34618200  0.96664700  0.19560800  1
  O  O30  1  0.05351100  0.73842700  0.02097100  1
  O  O31  1  0.94648900  0.26157300  0.97902900  1
  O  O32  1  0.91960500  0.33504900  0.12914800  1
  O  O33  1  0.08039500  0.66495100  0.87085200  1
