# generated using pymatgen
data_CsTiNb(O2F)2
_symmetry_space_group_name_H-M   'P 1'
_cell_length_a   7.38996731
_cell_length_b   7.38996731
_cell_length_c   7.46333702
_cell_angle_alpha   61.05294226
_cell_angle_beta   61.05294226
_cell_angle_gamma   90.50626186
_symmetry_Int_Tables_number   1
_chemical_formula_structural   CsTiNb(O2F)2
_chemical_formula_sum   'Cs2 Ti2 Nb2 O8 F4'
_cell_volume   295.96047255
_cell_formula_units_Z   2
loop_
 _symmetry_equiv_pos_site_id
 _symmetry_equiv_pos_as_xyz
  1  'x, y, z'
loop_
 _atom_site_type_symbol
 _atom_site_label
 _atom_site_symmetry_multiplicity
 _atom_site_fract_x
 _atom_site_fract_y
 _atom_site_fract_z
 _atom_site_occupancy
  Cs  Cs0  1  0.87113600  0.12886400  0.50000000  1
  Cs  Cs1  1  0.12791900  0.87208100  0.00000000  1
  Ti  Ti2  1  0.00891700  0.49482900  0.73837400  1
  Ti  Ti3  1  0.50517100  0.99108300  0.26162600  1
  Nb  Nb4  1  0.50463000  0.52076500  0.73414000  1
  Nb  Nb5  1  0.47923500  0.49537000  0.26586000  1
  O  O6  1  0.17595800  0.43109000  0.50850400  1
  O  O7  1  0.18959100  0.44516500  0.85844600  1
  O  O8  1  0.55483500  0.81040900  0.14155400  1
  O  O9  1  0.43697300  0.56302700  0.00000000  1
  O  O10  1  0.56561600  0.43438400  0.50000000  1
  O  O11  1  0.56891000  0.82404200  0.49149600  1
  O  O12  1  0.45006400  0.19382900  0.34853100  1
  O  O13  1  0.80617100  0.54993600  0.65146900  1
  F  F14  1  0.18341600  0.81658400  0.50000000  1
  F  F15  1  0.42845600  0.17377300  0.00579100  1
  F  F16  1  0.82622700  0.57154400  0.99420900  1
  F  F17  1  0.81677600  0.18322400  0.00000000  1
