# generated using pymatgen
data_Ba3LaZnReWO12
_symmetry_space_group_name_H-M   'P 1'
_cell_length_a   9.82892874
_cell_length_b   9.82892874
_cell_length_c   9.82892891
_cell_angle_alpha   33.95260673
_cell_angle_beta   33.95260673
_cell_angle_gamma   33.95260744
_symmetry_Int_Tables_number   1
_chemical_formula_structural   Ba3LaZnReWO12
_chemical_formula_sum   'Ba3 La1 Zn1 Re1 W1 O12'
_cell_volume   263.99914259
_cell_formula_units_Z   1
loop_
 _symmetry_equiv_pos_site_id
 _symmetry_equiv_pos_as_xyz
  1  'x, y, z'
loop_
 _atom_site_type_symbol
 _atom_site_label
 _atom_site_symmetry_multiplicity
 _atom_site_fract_x
 _atom_site_fract_y
 _atom_site_fract_z
 _atom_site_occupancy
  Ba  Ba0  1  0.70845400  0.70845400  0.70845400  1
  Ba  Ba1  1  0.29117000  0.29117000  0.29117000  1
  Ba  Ba2  1  0.13096500  0.13096500  0.13096500  1
  La  La3  1  0.87267200  0.87267200  0.87267200  1
  Zn  Zn4  1  0.99931600  0.99931600  0.99931600  1
  Re  Re5  1  0.42204900  0.42204900  0.42204900  1
  W  W6  1  0.57784900  0.57784900  0.57784900  1
  O  O7  1  0.28994700  0.78479900  0.78479900  1
  O  O8  1  0.78479900  0.28994700  0.78479900  1
  O  O9  1  0.78479900  0.78479900  0.28994700  1
  O  O10  1  0.37899000  0.37899000  0.86929600  1
  O  O11  1  0.37899000  0.86929600  0.37899000  1
  O  O12  1  0.86929600  0.37899000  0.37899000  1
  O  O13  1  0.14007600  0.61648500  0.61648500  1
  O  O14  1  0.61648500  0.14007600  0.61648500  1
  O  O15  1  0.61648500  0.61648500  0.14007600  1
  O  O16  1  0.22228200  0.22228200  0.69309400  1
  O  O17  1  0.22228200  0.69309400  0.22228200  1
  O  O18  1  0.69309400  0.22228200  0.22228200  1
