# generated using pymatgen
data_K2NaNb(OF2)2
_symmetry_space_group_name_H-M   'P 1'
_cell_length_a   6.07810100
_cell_length_b   6.08342755
_cell_length_c   8.63949561
_cell_angle_alpha   89.81452900
_cell_angle_beta   89.94245549
_cell_angle_gamma   89.97564418
_symmetry_Int_Tables_number   1
_chemical_formula_structural   K2NaNb(OF2)2
_chemical_formula_sum   'K4 Na2 Nb2 O4 F8'
_cell_volume   319.44942292
_cell_formula_units_Z   2
loop_
 _symmetry_equiv_pos_site_id
 _symmetry_equiv_pos_as_xyz
  1  'x, y, z'
loop_
 _atom_site_type_symbol
 _atom_site_label
 _atom_site_symmetry_multiplicity
 _atom_site_fract_x
 _atom_site_fract_y
 _atom_site_fract_z
 _atom_site_occupancy
  K  K0  1  0.00067900  0.49739900  0.24741100  1
  K  K1  1  0.49806900  0.99561300  0.24779900  1
  K  K2  1  0.50473200  0.00126100  0.74633500  1
  K  K3  1  0.00256300  0.50070900  0.75383600  1
  Na  Na4  1  0.49984300  0.50484000  0.00154500  1
  Na  Na5  1  0.00057200  0.00253000  0.49885700  1
  Nb  Nb6  1  0.99982100  0.00363300  0.99890900  1
  Nb  Nb7  1  0.49777000  0.50277500  0.50007100  1
  O  O8  1  0.22238000  0.22349600  0.00213000  1
  O  O9  1  0.27779400  0.72534700  0.50001900  1
  O  O10  1  0.71646300  0.27801800  0.49811000  1
  O  O11  1  0.77695600  0.78279600  0.99984000  1
  F  F12  1  0.73666600  0.73757200  0.49673600  1
  F  F13  1  0.00221600  0.00651100  0.76405500  1
  F  F14  1  0.99846300  0.00169500  0.23517600  1
  F  F15  1  0.23369900  0.76448400  0.00217400  1
  F  F16  1  0.49519900  0.50480400  0.26340300  1
  F  F17  1  0.49646900  0.50167000  0.73513500  1
  F  F18  1  0.76291700  0.24099900  0.99717900  1
  F  F19  1  0.25881900  0.26822000  0.49780900  1
