# generated using pymatgen
data_Er2S3
_symmetry_space_group_name_H-M   'P 1'
_cell_length_a   13.65443409
_cell_length_b   13.65443409
_cell_length_c   13.65443409
_cell_angle_alpha   144.83350570
_cell_angle_beta   144.83350570
_cell_angle_gamma   50.58270816
_symmetry_Int_Tables_number   1
_chemical_formula_structural   Er2S3
_chemical_formula_sum   'Er16 S24'
_cell_volume   840.22623065
_cell_formula_units_Z   8
loop_
 _symmetry_equiv_pos_site_id
 _symmetry_equiv_pos_as_xyz
  1  'x, y, z'
loop_
 _atom_site_type_symbol
 _atom_site_label
 _atom_site_symmetry_multiplicity
 _atom_site_fract_x
 _atom_site_fract_y
 _atom_site_fract_z
 _atom_site_occupancy
  Er  Er0  1  0.40130300  0.28029200  0.60311400  1
  Er  Er1  1  0.08317600  0.58317600  0.50000000  1
  Er  Er2  1  0.37500000  0.00693900  0.13193900  1
  Er  Er3  1  0.66682400  0.66682400  0.00000000  1
  Er  Er4  1  0.07282200  0.96970800  0.62101100  1
  Er  Er5  1  0.34869700  0.45181100  0.37898900  1
  Er  Er6  1  0.87500000  0.24306100  0.86806100  1
  Er  Er7  1  0.03029200  0.65130300  0.10311400  1
  Er  Er8  1  0.75693900  0.62500000  0.63193900  1
  Er  Er9  1  0.33317600  0.33317600  0.00000000  1
  Er  Er10  1  0.54818900  0.92717800  0.89688600  1
  Er  Er11  1  0.99306100  0.12500000  0.36806100  1
  Er  Er12  1  0.41682400  0.91682400  0.50000000  1
  Er  Er13  1  0.71970800  0.32282200  0.12101100  1
  Er  Er14  1  0.20181100  0.59869700  0.87898900  1
  Er  Er15  1  0.67717800  0.79818900  0.39688600  1
  S  S16  1  0.74537600  0.49925400  0.11357500  1
  S  S17  1  0.17502400  0.28941600  0.25367800  1
  S  S18  1  0.38567900  0.63180100  0.88642500  1
  S  S19  1  0.36432100  0.75074600  0.74612200  1
  S  S20  1  0.00462400  0.61819900  0.25387800  1
  S  S21  1  0.03573800  0.92134600  0.74632200  1
  S  S22  1  0.40589700  0.15346500  0.09446900  1
  S  S23  1  0.71426200  0.96058400  0.38560800  1
  S  S24  1  0.84653500  0.94100300  0.25243100  1
  S  S25  1  0.05899700  0.31142800  0.90553100  1
  S  S26  1  0.57497600  0.32865400  0.61439200  1
  S  S27  1  0.03941600  0.42502400  0.75367800  1
  S  S28  1  0.67134600  0.28573800  0.24632200  1
  S  S29  1  0.68857200  0.59410300  0.74756900  1
  S  S30  1  0.07865400  0.82497600  0.11439200  1
  S  S31  1  0.38180100  0.63567900  0.38642500  1
  S  S32  1  0.50074600  0.61432100  0.24612200  1
  S  S33  1  0.71058400  0.96426200  0.88560800  1
  S  S34  1  0.24925400  0.99537500  0.61357500  1
  S  S35  1  0.69100300  0.09653500  0.75243100  1
  S  S36  1  0.34410300  0.93857200  0.24756900  1
  S  S37  1  0.36819900  0.25462400  0.75387800  1
  S  S38  1  0.06142800  0.30899700  0.40553100  1
  S  S39  1  0.90346500  0.65589700  0.59446900  1
