# generated using pymatgen
data_Fe7S12
_symmetry_space_group_name_H-M   'P 1'
_cell_length_a   5.40380700
_cell_length_b   5.40067600
_cell_length_c   37.80893896
_cell_angle_alpha   87.58488117
_cell_angle_beta   90.00000000
_cell_angle_gamma   90.00000000
_symmetry_Int_Tables_number   1
_chemical_formula_structural   Fe7S12
_chemical_formula_sum   'Fe28 S48'
_cell_volume   1102.44392236
_cell_formula_units_Z   4
loop_
 _symmetry_equiv_pos_site_id
 _symmetry_equiv_pos_as_xyz
  1  'x, y, z'
loop_
 _atom_site_type_symbol
 _atom_site_label
 _atom_site_symmetry_multiplicity
 _atom_site_fract_x
 _atom_site_fract_y
 _atom_site_fract_z
 _atom_site_occupancy
  Fe  Fe0  1  0.26464200  0.99323300  0.99529300  1
  Fe  Fe1  1  0.28069100  0.98782100  0.42895900  1
  Fe  Fe2  1  0.26246300  0.99348700  0.85269200  1
  Fe  Fe3  1  0.75794000  0.49161800  0.00093700  1
  Fe  Fe4  1  0.74496800  0.53394000  0.28775700  1
  Fe  Fe5  1  0.24356600  0.49556400  0.21532500  1
  Fe  Fe6  1  0.74903000  0.53146100  0.14527400  1
  Fe  Fe7  1  0.25081900  0.52457300  0.07371700  1
  Fe  Fe8  1  0.74476100  0.53398500  0.43055300  1
  Fe  Fe9  1  0.24383300  0.49343600  0.35807100  1
  Fe  Fe10  1  0.24206000  0.49161800  0.50093700  1
  Fe  Fe11  1  0.75616700  0.49343600  0.85807100  1
  Fe  Fe12  1  0.74918100  0.52457300  0.57371700  1
  Fe  Fe13  1  0.25097000  0.53146100  0.64527400  1
  Fe  Fe14  1  0.75643400  0.49556400  0.71532500  1
  Fe  Fe15  1  0.25503200  0.53394000  0.78775700  1
  Fe  Fe16  1  0.25523900  0.53398500  0.93055300  1
  Fe  Fe17  1  0.68466400  0.96559300  0.06941100  1
  Fe  Fe18  1  0.28423400  0.99843700  0.14213200  1
  Fe  Fe19  1  0.73553400  0.99296300  0.20986700  1
  Fe  Fe20  1  0.73753700  0.99348700  0.35269200  1
  Fe  Fe21  1  0.73535800  0.99323300  0.49529300  1
  Fe  Fe22  1  0.28086200  0.98770200  0.28608100  1
  Fe  Fe23  1  0.31533600  0.96559300  0.56941100  1
  Fe  Fe24  1  0.71576600  0.99843700  0.64213200  1
  Fe  Fe25  1  0.71913800  0.98770200  0.78608100  1
  Fe  Fe26  1  0.71930900  0.98782100  0.92895900  1
  Fe  Fe27  1  0.26446600  0.99296300  0.70986700  1
  S  S28  1  0.12230600  0.11774500  0.19780400  1
  S  S29  1  0.12551000  0.11483200  0.34078100  1
  S  S30  1  0.12271800  0.11583100  0.48346500  1
  S  S31  1  0.87769400  0.11774500  0.69780400  1
  S  S32  1  0.87449000  0.11483200  0.84078100  1
  S  S33  1  0.87728200  0.11583100  0.98346500  1
  S  S34  1  0.63162500  0.36030000  0.05566900  1
  S  S35  1  0.62285500  0.38481500  0.19849300  1
  S  S36  1  0.62322400  0.38590500  0.34105300  1
  S  S37  1  0.62384700  0.39302700  0.62683300  1
  S  S38  1  0.62111900  0.38603700  0.48386400  1
  S  S39  1  0.63564200  0.37655400  0.76959400  1
  S  S40  1  0.63545100  0.37654900  0.91240100  1
  S  S41  1  0.36435800  0.37655400  0.26959400  1
  S  S42  1  0.37615300  0.39302700  0.12683300  1
  S  S43  1  0.36454900  0.37654900  0.41240100  1
  S  S44  1  0.36837500  0.36030000  0.55566900  1
  S  S45  1  0.37677600  0.38590500  0.84105300  1
  S  S46  1  0.37714500  0.38481500  0.69849300  1
  S  S47  1  0.37888100  0.38603700  0.98386400  1
  S  S48  1  0.86592700  0.60509000  0.08972500  1
  S  S49  1  0.86518600  0.61121300  0.23196800  1
  S  S50  1  0.86241900  0.62115300  0.66086300  1
  S  S51  1  0.86449400  0.60937500  0.51793700  1
  S  S52  1  0.86566500  0.61033200  0.37469100  1
  S  S53  1  0.86567300  0.61542700  0.80338300  1
  S  S54  1  0.86645600  0.61593300  0.94637500  1
  S  S55  1  0.13550600  0.60937500  0.01793700  1
  S  S56  1  0.13758100  0.62115300  0.16086300  1
  S  S57  1  0.13354400  0.61593300  0.44637500  1
  S  S58  1  0.13407300  0.60509000  0.58972500  1
  S  S59  1  0.13432700  0.61542700  0.30338300  1
  S  S60  1  0.13481400  0.61121300  0.73196800  1
  S  S61  1  0.13433500  0.61033200  0.87469100  1
  S  S62  1  0.31651900  0.90143300  0.08671100  1
  S  S63  1  0.63062800  0.86751700  0.01565400  1
  S  S64  1  0.65084500  0.90100000  0.15677600  1
  S  S65  1  0.36352700  0.87439900  0.23040200  1
  S  S66  1  0.36462200  0.87333100  0.37339700  1
  S  S67  1  0.36937200  0.86751700  0.51565400  1
  S  S68  1  0.65157400  0.90243700  0.44252400  1
  S  S69  1  0.65173000  0.90235200  0.29979900  1
  S  S70  1  0.34915500  0.90100000  0.65677600  1
  S  S71  1  0.34827000  0.90235200  0.79979900  1
  S  S72  1  0.34842600  0.90243700  0.94252400  1
  S  S73  1  0.63647300  0.87439900  0.73040200  1
  S  S74  1  0.63537800  0.87333100  0.87339700  1
  S  S75  1  0.68348100  0.90143300  0.58671100  1
