# generated using pymatgen
data_Fe2CoO4
_symmetry_space_group_name_H-M   'P 1'
_cell_length_a   6.02870076
_cell_length_b   6.02870076
_cell_length_c   36.02235431
_cell_angle_alpha   60.29609853
_cell_angle_beta   60.29609854
_cell_angle_gamma   60.29211291
_symmetry_Int_Tables_number   1
_chemical_formula_structural   Fe2CoO4
_chemical_formula_sum   'Fe24 Co12 O48'
_cell_volume   931.94858321
_cell_formula_units_Z   12
loop_
 _symmetry_equiv_pos_site_id
 _symmetry_equiv_pos_as_xyz
  1  'x, y, z'
loop_
 _atom_site_type_symbol
 _atom_site_label
 _atom_site_symmetry_multiplicity
 _atom_site_fract_x
 _atom_site_fract_y
 _atom_site_fract_z
 _atom_site_occupancy
  Fe  Fe0  1  0.12371954  0.12371954  0.01986730  1
  Fe  Fe1  1  0.00099757  0.50287023  0.08218263  1
  Fe  Fe2  1  0.50297826  0.50297826  -0.00097357  1
  Fe  Fe3  1  0.12286690  0.12286690  0.18804053  1
  Fe  Fe4  1  0.50287023  0.00099757  0.08218263  1
  Fe  Fe5  1  0.99403449  0.50114294  0.25053603  1
  Fe  Fe6  1  0.11924126  0.11924126  0.35544199  1
  Fe  Fe7  1  0.50265219  0.50265219  0.16501146  1
  Fe  Fe8  1  0.99859668  0.49873236  0.41739257  1
  Fe  Fe9  1  0.49873236  0.99859668  0.41739257  1
  Fe  Fe10  1  0.11846870  0.11846870  0.52216358  1
  Fe  Fe11  1  0.50114294  0.99403449  0.25053603  1
  Fe  Fe12  1  -0.00052171  0.49890581  0.58366235  1
  Fe  Fe13  1  0.87897048  0.87897048  0.31274195  1
  Fe  Fe14  1  0.11923542  0.11923542  0.68890040  1
  Fe  Fe15  1  -0.00012194  0.49973658  0.75020119  1
  Fe  Fe16  1  0.87981875  0.87981875  0.47842902  1
  Fe  Fe17  1  0.11941732  0.11941732  0.85495825  1
  Fe  Fe18  1  0.49890581  -0.00052171  0.58366235  1
  Fe  Fe19  1  0.00281789  0.49843692  0.91625480  1
  Fe  Fe20  1  0.49973658  -0.00012194  0.75020119  1
  Fe  Fe21  1  0.88076625  0.88076625  0.64495100  1
  Fe  Fe22  1  0.88071821  0.88071821  0.81150793  1
  Fe  Fe23  1  0.49843692  0.00281789  0.91625480  1
  Co  Co24  1  0.49767937  0.49767937  0.08439057  1
  Co  Co25  1  0.49979862  0.49979862  0.25000624  1
  Co  Co26  1  0.49896276  0.49896276  0.33369040  1
  Co  Co27  1  0.87874890  0.87874890  0.14472020  1
  Co  Co28  1  0.49961156  0.49961156  0.41653784  1
  Co  Co29  1  0.49940881  0.49940881  0.50037491  1
  Co  Co30  1  0.49985446  0.49985446  0.58332648  1
  Co  Co31  1  0.50056091  0.50056091  0.66673158  1
  Co  Co32  1  0.50036744  0.50036744  0.74991381  1
  Co  Co33  1  0.50003604  0.50003604  0.83340980  1
  Co  Co34  1  0.50241315  0.50241315  0.91624190  1
  Co  Co35  1  0.87767716  0.87767716  0.97805633  1
  O  O36  1  0.26050430  0.26050430  0.04471275  1
  O  O37  1  0.26563670  0.70700289  0.04688955  1
  O  O38  1  0.26209986  0.26209986  0.12254180  1
  O  O39  1  0.70700289  0.26563670  0.04688955  1
  O  O40  1  0.28545747  0.73353283  0.12214789  1
  O  O41  1  0.25725054  0.25725054  0.20984207  1
  O  O42  1  0.24998161  0.73071750  0.20820311  1
  O  O43  1  0.25338924  0.25338924  0.28842680  1
  O  O44  1  0.73353283  0.28545747  0.12214789  1
  O  O45  1  0.72973957  0.72973957  0.04798955  1
  O  O46  1  0.73071750  0.24998161  0.20820311  1
  O  O47  1  0.73833523  0.73833523  0.12348721  1
  O  O48  1  0.26638945  0.75546270  0.28955736  1
  O  O49  1  0.25322160  0.25322160  0.37708634  1
  O  O50  1  0.24615640  0.73133708  0.37710887  1
  O  O51  1  0.75546270  0.26638945  0.28955736  1
  O  O52  1  0.24986195  0.24986195  0.45552513  1
  O  O53  1  0.74354886  0.74354886  0.21315233  1
  O  O54  1  0.73133708  0.24615640  0.37710887  1
  O  O55  1  0.74838258  0.74838258  0.28969565  1
  O  O56  1  0.26884802  0.75332149  0.45605587  1
  O  O57  1  0.25078772  0.25078772  0.54405745  1
  O  O58  1  0.74820127  0.74820127  0.37845957  1
  O  O59  1  0.25331112  0.25331112  0.62180920  1
  O  O60  1  0.75332149  0.26884802  0.45605587  1
  O  O61  1  0.24578964  0.73069825  0.54316667  1
  O  O62  1  0.73069825  0.24578964  0.54316667  1
  O  O63  1  0.74924832  0.74924832  0.45573871  1
  O  O64  1  0.26965465  0.75449069  0.62302242  1
  O  O65  1  0.25173836  0.25173836  0.71069312  1
  O  O66  1  0.25412832  0.25412832  0.78815569  1
  O  O67  1  0.24694051  0.73167965  0.70972286  1
  O  O68  1  0.74713470  0.74713470  0.54462160  1
  O  O69  1  0.75449069  0.26965465  0.62302242  1
  O  O70  1  0.73167965  0.24694051  0.70972286  1
  O  O71  1  0.75089072  0.75089072  0.62197255  1
  O  O72  1  0.26989844  0.75503323  0.78957953  1
  O  O73  1  0.24957041  0.24957041  0.87725813  1
  O  O74  1  0.75503323  0.26989844  0.78957953  1
  O  O75  1  0.74782009  0.74782009  0.71114198  1
  O  O76  1  0.24648589  0.73327928  0.87630301  1
  O  O77  1  0.26070161  0.26070161  0.95212733  1
  O  O78  1  0.75083074  0.75083074  0.78856269  1
  O  O79  1  0.73327928  0.24648589  0.87630301  1
  O  O80  1  0.27757596  0.74641233  0.95838715  1
  O  O81  1  0.74641233  0.27757596  0.95838715  1
  O  O82  1  0.74843970  0.74843970  0.87732571  1
  O  O83  1  0.73948024  0.73948024  0.95642898  1
