# generated using pymatgen
data_Fe24N11
_symmetry_space_group_name_H-M   'P 1'
_cell_length_a   6.96163995
_cell_length_b   6.96163995
_cell_length_c   14.15973502
_cell_angle_alpha   89.95777340
_cell_angle_beta   89.95777340
_cell_angle_gamma   103.42870027
_symmetry_Int_Tables_number   1
_chemical_formula_structural   Fe24N11
_chemical_formula_sum   'Fe48 N22'
_cell_volume   667.48090131
_cell_formula_units_Z   2
loop_
 _symmetry_equiv_pos_site_id
 _symmetry_equiv_pos_as_xyz
  1  'x, y, z'
loop_
 _atom_site_type_symbol
 _atom_site_label
 _atom_site_symmetry_multiplicity
 _atom_site_fract_x
 _atom_site_fract_y
 _atom_site_fract_z
 _atom_site_occupancy
  Fe  Fe0  1  0.18365600  0.06203500  0.97224400  1
  Fe  Fe1  1  0.19101400  0.06481300  0.63825700  1
  Fe  Fe2  1  0.19373200  0.06870100  0.30373500  1
  Fe  Fe3  1  0.68800400  0.06626800  0.86108900  1
  Fe  Fe4  1  0.56485700  0.18641600  0.69426600  1
  Fe  Fe5  1  0.68536900  0.06229700  0.52724200  1
  Fe  Fe6  1  0.56498400  0.18561100  0.35904000  1
  Fe  Fe7  1  0.68603800  0.06701100  0.19814800  1
  Fe  Fe8  1  0.56610300  0.18976700  0.02987300  1
  Fe  Fe9  1  0.43703400  0.31829900  0.85976300  1
  Fe  Fe10  1  0.43555300  0.31426100  0.52737900  1
  Fe  Fe11  1  0.44944900  0.31280500  0.19519900  1
  Fe  Fe12  1  0.68573900  0.56444700  0.97262100  1
  Fe  Fe13  1  0.06870100  0.19373200  0.80373500  1
  Fe  Fe14  1  0.68170100  0.56296600  0.64023700  1
  Fe  Fe15  1  0.06203500  0.18365600  0.47224400  1
  Fe  Fe16  1  0.68719500  0.55055100  0.30480100  1
  Fe  Fe17  1  0.06481300  0.19101400  0.13825700  1
  Fe  Fe18  1  0.93770300  0.31463100  0.97275800  1
  Fe  Fe19  1  0.81358400  0.43514300  0.80573400  1
  Fe  Fe20  1  0.93373200  0.31199600  0.63891100  1
  Fe  Fe21  1  0.81023300  0.43389700  0.47012700  1
  Fe  Fe22  1  0.93298900  0.31396200  0.30185200  1
  Fe  Fe23  1  0.81438900  0.43501600  0.14096000  1
  Fe  Fe24  1  0.06701100  0.68603800  0.69814800  1
  Fe  Fe25  1  0.18561100  0.56498400  0.85904000  1
  Fe  Fe26  1  0.18976700  0.56610300  0.52987300  1
  Fe  Fe27  1  0.06626800  0.68800400  0.36108900  1
  Fe  Fe28  1  0.18641600  0.56485700  0.19426600  1
  Fe  Fe29  1  0.06229700  0.68536900  0.02724200  1
  Fe  Fe30  1  0.93518700  0.80898600  0.86174300  1
  Fe  Fe31  1  0.93796500  0.81634400  0.52775600  1
  Fe  Fe32  1  0.31280500  0.44944900  0.69519900  1
  Fe  Fe33  1  0.31829900  0.43703400  0.35976300  1
  Fe  Fe34  1  0.93129900  0.80626800  0.19626500  1
  Fe  Fe35  1  0.31426100  0.43555300  0.02737900  1
  Fe  Fe36  1  0.55055100  0.68719500  0.80480100  1
  Fe  Fe37  1  0.56444700  0.68573900  0.47262100  1
  Fe  Fe38  1  0.56296600  0.68170100  0.14023700  1
  Fe  Fe39  1  0.43389700  0.81023300  0.97012700  1
  Fe  Fe40  1  0.31396200  0.93298900  0.80185200  1
  Fe  Fe41  1  0.43501600  0.81438900  0.64096000  1
  Fe  Fe42  1  0.31463100  0.93770300  0.47275800  1
  Fe  Fe43  1  0.31199600  0.93373200  0.13891100  1
  Fe  Fe44  1  0.43514300  0.81358400  0.30573400  1
  Fe  Fe45  1  0.80626800  0.93129900  0.69626500  1
  Fe  Fe46  1  0.80898600  0.93518700  0.36174300  1
  Fe  Fe47  1  0.81634400  0.93796500  0.02775600  1
  N  N48  1  0.31921800  0.18377600  0.74847900  1
  N  N49  1  0.31807600  0.18358900  0.41617900  1
  N  N50  1  0.31847900  0.17804400  0.08222900  1
  N  N51  1  0.67900000  0.31961500  0.91784700  1
  N  N52  1  0.82106500  0.17893500  0.75000000  1
  N  N53  1  0.68038500  0.32100000  0.58215300  1
  N  N54  1  0.81546400  0.18079500  0.08722600  1
  N  N55  1  0.81920500  0.18453600  0.41277400  1
  N  N56  1  0.81622400  0.68078200  0.75152100  1
  N  N57  1  0.81641100  0.68192400  0.08382100  1
  N  N58  1  0.82195600  0.68152100  0.41777100  1
  N  N59  1  0.18358900  0.31807600  0.91617900  1
  N  N60  1  0.17804400  0.31847900  0.58222900  1
  N  N61  1  0.18377600  0.31921800  0.24847900  1
  N  N62  1  0.31961500  0.67900000  0.41784700  1
  N  N63  1  0.32100000  0.68038500  0.08215300  1
  N  N64  1  0.18453600  0.81920500  0.91277400  1
  N  N65  1  0.18079500  0.81546400  0.58722600  1
  N  N66  1  0.17893500  0.82106500  0.25000000  1
  N  N67  1  0.68152100  0.82195600  0.91777100  1
  N  N68  1  0.68192400  0.81641100  0.58382100  1
  N  N69  1  0.68078200  0.81622400  0.25152100  1
