# generated using pymatgen
data_Yb16S29
_symmetry_space_group_name_H-M   'P 1'
_cell_length_a   11.13139100
_cell_length_b   11.14658823
_cell_length_c   11.61831442
_cell_angle_alpha   114.78366889
_cell_angle_beta   118.40523856
_cell_angle_gamma   90.15006340
_symmetry_Int_Tables_number   1
_chemical_formula_structural   Yb16S29
_chemical_formula_sum   'Yb16 S29'
_cell_volume   1113.77241614
_cell_formula_units_Z   1
loop_
 _symmetry_equiv_pos_site_id
 _symmetry_equiv_pos_as_xyz
  1  'x, y, z'
loop_
 _atom_site_type_symbol
 _atom_site_label
 _atom_site_symmetry_multiplicity
 _atom_site_fract_x
 _atom_site_fract_y
 _atom_site_fract_z
 _atom_site_occupancy
  Yb  Yb0  1  0.70434800  0.94680600  0.65218800  1
  Yb  Yb1  1  0.78658800  0.79141000  0.31562700  1
  Yb  Yb2  1  0.95566000  0.69777100  0.65692000  1
  Yb  Yb3  1  0.21494200  0.95268900  0.67282700  1
  Yb  Yb4  1  0.04325600  0.55067300  0.34093300  1
  Yb  Yb5  1  0.29213000  0.79884400  0.33166200  1
  Yb  Yb6  1  0.20699400  0.44721300  0.66211900  1
  Yb  Yb7  1  0.44968800  0.69260200  0.64687200  1
  Yb  Yb8  1  0.29984400  0.30380000  0.34902100  1
  Yb  Yb9  1  0.54442000  0.55224100  0.33845600  1
  Yb  Yb10  1  0.45715900  0.19623600  0.66226700  1
  Yb  Yb11  1  0.70318700  0.44611200  0.65191300  1
  Yb  Yb12  1  0.54733700  0.05216500  0.34076600  1
  Yb  Yb13  1  0.80158300  0.30500900  0.34860900  1
  Yb  Yb14  1  0.96198900  0.20112300  0.67057100  1
  Yb  Yb15  1  0.05616200  0.05722900  0.35515800  1
  S  S16  1  0.07722600  0.05751000  0.01454000  1
  S  S17  1  0.19675600  0.96826200  0.93954000  1
  S  S18  1  0.52594100  0.92284600  0.95413200  1
  S  S19  1  0.54946800  0.80568700  0.34255800  1
  S  S20  1  0.53154900  0.82435100  0.06704400  1
  S  S21  1  0.73156100  0.02770600  0.03954900  1
  S  S22  1  0.43472100  0.52810100  0.98188700  1
  S  S23  1  0.94183400  0.93348400  0.62658000  1
  S  S24  1  0.79625300  0.55365500  0.34257900  1
  S  S25  1  0.79387800  0.52735600  0.04800000  1
  S  S26  1  0.05632500  0.81090400  0.35983800  1
  S  S27  1  0.00233200  0.74024400  0.05024100  1
  S  S28  1  0.70087100  0.20607500  0.01208400  1
  S  S29  1  0.20275900  0.69477200  0.65337800  1
  S  S30  1  0.93499100  0.54865600  0.99371700  1
  S  S31  1  0.44772900  0.93507600  0.63649400  1
  S  S32  1  0.05179000  0.30452000  0.35029100  1
  S  S33  1  0.99406700  0.18942200  0.94565700  1
  S  S34  1  0.28977400  0.54724800  0.33272500  1
  S  S35  1  0.29223200  0.49492800  0.02306200  1
  S  S36  1  0.45710500  0.44749500  0.65979800  1
  S  S37  1  0.70396800  0.69782200  0.65420100  1
  S  S38  1  0.30078000  0.05513500  0.34861600  1
  S  S39  1  0.54620700  0.30245900  0.33992400  1
  S  S40  1  0.50915500  0.22693600  0.95590300  1
  S  S41  1  0.70543700  0.19647700  0.65568300  1
  S  S42  1  0.95616700  0.44772000  0.65892300  1
  S  S43  1  0.80908000  0.06082900  0.35953500  1
  S  S44  1  0.20607200  0.19503900  0.66100900  1
