# generated using pymatgen
data_Nb8P15O56
_symmetry_space_group_name_H-M   'P 1'
_cell_length_a   11.95277981
_cell_length_b   11.95277981
_cell_length_c   11.95278032
_cell_angle_alpha   59.55510093
_cell_angle_beta   59.55510093
_cell_angle_gamma   59.55510257
_symmetry_Int_Tables_number   1
_chemical_formula_structural   Nb8P15O56
_chemical_formula_sum   'Nb8 P15 O56'
_cell_volume   1195.29914974
_cell_formula_units_Z   1
loop_
 _symmetry_equiv_pos_site_id
 _symmetry_equiv_pos_as_xyz
  1  'x, y, z'
loop_
 _atom_site_type_symbol
 _atom_site_label
 _atom_site_symmetry_multiplicity
 _atom_site_fract_x
 _atom_site_fract_y
 _atom_site_fract_z
 _atom_site_occupancy
  Nb  Nb0  1  0.00903300  0.48588300  0.00761500  1
  Nb  Nb1  1  0.00374100  0.49775600  0.49697900  1
  Nb  Nb2  1  0.49697900  0.00374100  0.49775600  1
  Nb  Nb3  1  0.00018000  0.00018000  0.00018000  1
  Nb  Nb4  1  0.00761500  0.00903300  0.48588300  1
  Nb  Nb5  1  0.48588300  0.00761500  0.00903300  1
  Nb  Nb6  1  0.49957900  0.49957900  0.49957900  1
  Nb  Nb7  1  0.49775600  0.49697900  0.00374100  1
  P  P8  1  0.19468400  0.41435400  0.69360500  1
  P  P9  1  0.30046700  0.30046700  0.30046700  1
  P  P10  1  0.80407700  0.30425000  0.08717600  1
  P  P11  1  0.91239000  0.19619700  0.69588300  1
  P  P12  1  0.58595100  0.30528800  0.80477600  1
  P  P13  1  0.69360500  0.19468400  0.41435400  1
  P  P14  1  0.69588300  0.91239000  0.19619700  1
  P  P15  1  0.80467800  0.80467800  0.80467800  1
  P  P16  1  0.30425000  0.08717600  0.80407700  1
  P  P17  1  0.30528800  0.80477600  0.58595100  1
  P  P18  1  0.41435400  0.69360500  0.19468400  1
  P  P19  1  0.08717600  0.80407700  0.30425000  1
  P  P20  1  0.19619700  0.69588300  0.91239000  1
  P  P21  1  0.69574000  0.69574000  0.69574000  1
  P  P22  1  0.80477600  0.58595100  0.30528800  1
  O  O23  1  0.74813500  0.25043900  0.25038800  1
  O  O24  1  0.32050500  0.45992200  0.59508900  1
  O  O25  1  0.40240600  0.38334900  0.18263800  1
  O  O26  1  0.12104300  0.46165500  0.81617700  1
  O  O27  1  0.18263800  0.40240600  0.38334900  1
  O  O28  1  0.38334900  0.18263800  0.40240600  1
  O  O29  1  0.09796700  0.46092400  0.61931600  1
  O  O30  1  0.25043900  0.25038800  0.74813500  1
  O  O31  1  0.25059900  0.25059900  0.25059900  1
  O  O32  1  0.87445800  0.40385200  0.03830300  1
  O  O33  1  0.96090500  0.32008500  0.62099700  1
  O  O34  1  0.95540700  0.12164100  0.60235200  1
  O  O35  1  0.90055200  0.17858800  0.04095400  1
  O  O36  1  0.95990500  0.10003400  0.82076200  1
  O  O37  1  0.67872700  0.37526900  0.04159400  1
  O  O38  1  0.74931300  0.25590200  0.75177300  1
  O  O39  1  0.25590200  0.75177300  0.74931300  1
  O  O40  1  0.81617700  0.12104300  0.46165500  1
  O  O41  1  0.54040300  0.40211900  0.67899300  1
  O  O42  1  0.53676700  0.38034700  0.90188800  1
  O  O43  1  0.59508900  0.32050500  0.45992200  1
  O  O44  1  0.90102800  0.87738900  0.67768700  1
  O  O45  1  0.82076200  0.95990500  0.10003400  1
  O  O46  1  0.61931600  0.09796700  0.46092400  1
  O  O47  1  0.54390800  0.17916500  0.87654900  1
  O  O48  1  0.62099700  0.96090500  0.32008500  1
  O  O49  1  0.67768700  0.90102800  0.87738900  1
  O  O50  1  0.87738900  0.67768700  0.90102800  1
  O  O51  1  0.60235200  0.95540700  0.12164100  1
  O  O52  1  0.75177300  0.74931300  0.25590200  1
  O  O53  1  0.74826800  0.74826800  0.74826800  1
  O  O54  1  0.11300200  0.32957100  0.08641800  1
  O  O55  1  0.40385200  0.03830300  0.87445800  1
  O  O56  1  0.32957100  0.08641800  0.11300200  1
  O  O57  1  0.37526900  0.04159400  0.67872700  1
  O  O58  1  0.38034700  0.90188800  0.53676700  1
  O  O59  1  0.46165500  0.81617700  0.12104300  1
  O  O60  1  0.08641800  0.11300200  0.32957100  1
  O  O61  1  0.17858800  0.04095400  0.90055200  1
  O  O62  1  0.40211900  0.67899300  0.54040300  1
  O  O63  1  0.46092400  0.61931600  0.09796700  1
  O  O64  1  0.17916500  0.87654900  0.54390800  1
  O  O65  1  0.45992200  0.59508900  0.32050500  1
  O  O66  1  0.25038800  0.74813500  0.25043900  1
  O  O67  1  0.04095400  0.90055200  0.17858800  1
  O  O68  1  0.32008500  0.62099700  0.96090500  1
  O  O69  1  0.03830300  0.87445800  0.40385200  1
  O  O70  1  0.10003400  0.82076200  0.95990500  1
  O  O71  1  0.04159400  0.67872700  0.37526900  1
  O  O72  1  0.12164100  0.60235200  0.95540700  1
  O  O73  1  0.61566900  0.82084300  0.59975400  1
  O  O74  1  0.90188800  0.53676700  0.38034700  1
  O  O75  1  0.82084300  0.59975400  0.61566900  1
  O  O76  1  0.87654900  0.54390800  0.17916500  1
  O  O77  1  0.67899300  0.54040300  0.40211900  1
  O  O78  1  0.59975400  0.61566900  0.82084300  1
