# generated using pymatgen
data_Tl3In2Se5
_symmetry_space_group_name_H-M   'P 1'
_cell_length_a   6.79883880
_cell_length_b   6.79883880
_cell_length_c   58.15381800
_cell_angle_alpha   90.00000000
_cell_angle_beta   90.00000000
_cell_angle_gamma   117.97630144
_symmetry_Int_Tables_number   1
_chemical_formula_structural   Tl3In2Se5
_chemical_formula_sum   'Tl24 In16 Se40'
_cell_volume   2373.98577447
_cell_formula_units_Z   8
loop_
 _symmetry_equiv_pos_site_id
 _symmetry_equiv_pos_as_xyz
  1  'x, y, z'
loop_
 _atom_site_type_symbol
 _atom_site_label
 _atom_site_symmetry_multiplicity
 _atom_site_fract_x
 _atom_site_fract_y
 _atom_site_fract_z
 _atom_site_occupancy
  Tl  Tl0  1  0.75001700  0.75007500  0.79996700  1
  Tl  Tl1  1  0.24993300  0.25003300  0.89999200  1
  Tl  Tl2  1  0.25007500  0.25001700  0.79996700  1
  Tl  Tl3  1  0.74998100  0.74998100  0.00000000  1
  Tl  Tl4  1  0.75003300  0.74993300  0.89999200  1
  Tl  Tl5  1  0.25003300  0.24993300  0.10000800  1
  Tl  Tl6  1  0.24998100  0.24998100  0.00000000  1
  Tl  Tl7  1  0.74993300  0.75003300  0.10000800  1
  Tl  Tl8  1  0.75007500  0.75001700  0.20003300  1
  Tl  Tl9  1  0.49984200  0.99984200  0.34998100  1
  Tl  Tl10  1  0.24976800  0.25018200  0.30000800  1
  Tl  Tl11  1  0.25001700  0.25007500  0.20003300  1
  Tl  Tl12  1  0.99979900  0.49979900  0.44999800  1
  Tl  Tl13  1  0.74995800  0.74999800  0.40000900  1
  Tl  Tl14  1  0.75018200  0.74976800  0.30000800  1
  Tl  Tl15  1  0.49979900  0.99979900  0.55000200  1
  Tl  Tl16  1  0.25007900  0.25007900  0.50000000  1
  Tl  Tl17  1  0.24999800  0.24995800  0.40000900  1
  Tl  Tl18  1  0.99984200  0.49984200  0.65001900  1
  Tl  Tl19  1  0.74999800  0.74995800  0.59999100  1
  Tl  Tl20  1  0.75007900  0.75007900  0.50000000  1
  Tl  Tl21  1  0.25018200  0.24976800  0.69999200  1
  Tl  Tl22  1  0.24995800  0.24999800  0.59999100  1
  Tl  Tl23  1  0.74976800  0.75018200  0.69999200  1
  In  In24  1  0.49967900  0.99967900  0.75000400  1
  In  In25  1  0.99971100  0.49971100  0.85001700  1
  In  In26  1  0.49953900  0.99953900  0.95001000  1
  In  In27  1  0.00031000  0.50031000  0.74999700  1
  In  In28  1  0.99953900  0.49953900  0.04999000  1
  In  In29  1  0.50041100  0.00041100  0.84999100  1
  In  In30  1  0.49971100  0.99971100  0.14998300  1
  In  In31  1  0.00031800  0.50031800  0.95003400  1
  In  In32  1  0.99967900  0.49967900  0.24999600  1
  In  In33  1  0.50031800  0.00031800  0.04996600  1
  In  In34  1  0.00041100  0.50041100  0.15000900  1
  In  In35  1  0.50031000  0.00031000  0.25000300  1
  In  In36  1  0.00029400  0.50029400  0.35000200  1
  In  In37  1  0.50009400  0.00009400  0.44999400  1
  In  In38  1  0.00009400  0.50009400  0.55000600  1
  In  In39  1  0.50029400  0.00029400  0.64999800  1
  Se  Se40  1  0.42111000  0.57903000  0.75000400  1
  Se  Se41  1  0.74993900  0.24993900  0.78432700  1
  Se  Se42  1  0.92106200  0.07902700  0.84999500  1
  Se  Se43  1  0.25006000  0.75006000  0.88433800  1
  Se  Se44  1  0.74968900  0.24968900  0.71565100  1
  Se  Se45  1  0.07903000  0.92111000  0.75000400  1
  Se  Se46  1  0.42101900  0.57893700  0.95000500  1
  Se  Se47  1  0.75003500  0.25003500  0.98435200  1
  Se  Se48  1  0.24993800  0.74993800  0.81568100  1
  Se  Se49  1  0.57902700  0.42106200  0.84999500  1
  Se  Se50  1  0.92101900  0.07893700  0.04999500  1
  Se  Se51  1  0.24994300  0.74994300  0.08431700  1
  Se  Se52  1  0.74994300  0.24994300  0.91568300  1
  Se  Se53  1  0.07893700  0.92101900  0.95000500  1
  Se  Se54  1  0.42106200  0.57902700  0.15000500  1
  Se  Se55  1  0.74993800  0.24993800  0.18431900  1
  Se  Se56  1  0.25003500  0.75003500  0.01564800  1
  Se  Se57  1  0.57893700  0.42101900  0.04999500  1
  Se  Se58  1  0.92111000  0.07903000  0.24999600  1
  Se  Se59  1  0.24968900  0.74968900  0.28434900  1
  Se  Se60  1  0.75006000  0.25006000  0.11566200  1
  Se  Se61  1  0.07902700  0.92106200  0.15000500  1
  Se  Se62  1  0.41688500  0.56626800  0.34999900  1
  Se  Se63  1  0.75830300  0.25830300  0.38516600  1
  Se  Se64  1  0.24993900  0.74993900  0.21567300  1
  Se  Se65  1  0.57903000  0.42111000  0.24999600  1
  Se  Se66  1  0.91695500  0.06633900  0.45000100  1
  Se  Se67  1  0.25835000  0.75835000  0.48517300  1
  Se  Se68  1  0.75877600  0.25877600  0.31484000  1
  Se  Se69  1  0.06626800  0.91688500  0.34999900  1
  Se  Se70  1  0.41695500  0.56633900  0.54999900  1
  Se  Se71  1  0.75831300  0.25831300  0.58516900  1
  Se  Se72  1  0.25831300  0.75831300  0.41483100  1
  Se  Se73  1  0.56633900  0.41695500  0.45000100  1
  Se  Se74  1  0.91688500  0.06626800  0.65000100  1
  Se  Se75  1  0.25877600  0.75877600  0.68516000  1
  Se  Se76  1  0.75835000  0.25835000  0.51482700  1
  Se  Se77  1  0.06633900  0.91695500  0.54999900  1
  Se  Se78  1  0.25830300  0.75830300  0.61483400  1
  Se  Se79  1  0.56626800  0.41688500  0.65000100  1
