# generated using pymatgen
data_Ti4P8S29
_symmetry_space_group_name_H-M   'P 1'
_cell_length_a   13.45245190
_cell_length_b   13.45245190
_cell_length_c   12.89469555
_cell_angle_alpha   83.95885636
_cell_angle_beta   83.95885636
_cell_angle_gamma   82.01297445
_symmetry_Int_Tables_number   1
_chemical_formula_structural   Ti4P8S29
_chemical_formula_sum   'Ti8 P16 S58'
_cell_volume   2288.31365774
_cell_formula_units_Z   2
loop_
 _symmetry_equiv_pos_site_id
 _symmetry_equiv_pos_as_xyz
  1  'x, y, z'
loop_
 _atom_site_type_symbol
 _atom_site_label
 _atom_site_symmetry_multiplicity
 _atom_site_fract_x
 _atom_site_fract_y
 _atom_site_fract_z
 _atom_site_occupancy
  Ti  Ti0  1  0.74524700  0.44531800  0.92598200  1
  Ti  Ti1  1  0.81361400  0.89112400  0.84997300  1
  Ti  Ti2  1  0.10896800  0.18606200  0.64999500  1
  Ti  Ti3  1  0.55541900  0.25667800  0.57481900  1
  Ti  Ti4  1  0.44531800  0.74524700  0.42598200  1
  Ti  Ti5  1  0.89112400  0.81361400  0.34997300  1
  Ti  Ti6  1  0.18606200  0.10896800  0.14999500  1
  Ti  Ti7  1  0.25667800  0.55541900  0.07481900  1
  P  P8  1  0.59862700  0.98190600  0.94035200  1
  P  P9  1  0.80755800  0.66191300  0.88451100  1
  P  P10  1  0.25033000  0.68051600  0.85991800  1
  P  P11  1  0.97526700  0.02472800  0.75014600  1
  P  P12  1  0.65425300  0.34636300  0.75064600  1
  P  P13  1  0.33431800  0.76147300  0.64936500  1
  P  P14  1  0.33927900  0.19195800  0.61480500  1
  P  P15  1  0.01716200  0.39976200  0.55840200  1
  P  P16  1  0.98190600  0.59862700  0.44035200  1
  P  P17  1  0.66191300  0.80755800  0.38451100  1
  P  P18  1  0.68051600  0.25033000  0.35991800  1
  P  P19  1  0.34636300  0.65425300  0.25064600  1
  P  P20  1  0.02472800  0.97526700  0.25014600  1
  P  P21  1  0.76147300  0.33431800  0.14936500  1
  P  P22  1  0.19195800  0.33927900  0.11480500  1
  P  P23  1  0.39976200  0.01716200  0.05840200  1
  S  S24  1  0.81510400  0.75870700  0.99517400  1
  S  S25  1  0.16083300  0.71328600  0.98980200  1
  S  S26  1  0.73118400  0.01315900  0.97966000  1
  S  S27  1  0.98506500  0.91454400  0.87285300  1
  S  S28  1  0.89754800  0.52696100  0.90789100  1
  S  S29  1  0.47784300  0.10252300  0.93365600  1
  S  S30  1  0.66765800  0.61557900  0.88845700  1
  S  S31  1  0.58471300  0.39713900  0.88771300  1
  S  S32  1  0.33015900  0.54459700  0.88927700  1
  S  S33  1  0.63123000  0.90986300  0.80956400  1
  S  S34  1  0.98801100  0.16189000  0.79967400  1
  S  S35  1  0.32989000  0.80761000  0.80309300  1
  S  S36  1  0.84027900  0.74742600  0.74700600  1
  S  S37  1  0.80033700  0.37007600  0.76236600  1
  S  S38  1  0.62696700  0.20119000  0.74042400  1
  S  S39  1  0.25345300  0.15895000  0.75223600  1
  S  S40  1  0.19553500  0.68427700  0.69078400  1
  S  S41  1  0.83785200  0.01228200  0.70086000  1
  S  S42  1  0.08800700  0.36721700  0.69030500  1
  S  S43  1  0.22735000  0.55768400  0.63109400  1
  S  S44  1  0.46005600  0.67039400  0.61101900  1
  S  S45  1  0.60643900  0.41549600  0.61143100  1
  S  S46  1  0.38449900  0.33220700  0.61158800  1
  S  S47  1  0.89499800  0.51901800  0.56271700  1
  S  S48  1  0.47497100  0.10270000  0.59150500  1
  S  S49  1  0.08492700  0.01480200  0.62707900  1
  S  S50  1  0.75870700  0.81510400  0.49517400  1
  S  S51  1  0.98634100  0.26684200  0.51992300  1
  S  S52  1  0.29991700  0.85242300  0.52069900  1
  S  S53  1  0.71328600  0.16083300  0.48980200  1
  S  S54  1  0.01315900  0.73118400  0.47966000  1
  S  S55  1  0.24163600  0.18531700  0.50463900  1
  S  S56  1  0.91454400  0.98506500  0.37285300  1
  S  S57  1  0.52696100  0.89754800  0.40789100  1
  S  S58  1  0.10252300  0.47784300  0.43365600  1
  S  S59  1  0.61557900  0.66765800  0.38845700  1
  S  S60  1  0.39713900  0.58471300  0.38771300  1
  S  S61  1  0.54459700  0.33015900  0.38927700  1
  S  S62  1  0.90986300  0.63123000  0.30956400  1
  S  S63  1  0.16189000  0.98801100  0.29967400  1
  S  S64  1  0.80761000  0.32989000  0.30309300  1
  S  S65  1  0.74742600  0.84027900  0.24700600  1
  S  S66  1  0.37007600  0.80033700  0.26236600  1
  S  S67  1  0.20119000  0.62696700  0.24042400  1
  S  S68  1  0.15895000  0.25345300  0.25223600  1
  S  S69  1  0.68427700  0.19553500  0.19078400  1
  S  S70  1  0.01228200  0.83785200  0.20086000  1
  S  S71  1  0.36721700  0.08800700  0.19030500  1
  S  S72  1  0.55768400  0.22735000  0.13109400  1
  S  S73  1  0.67039400  0.46005600  0.11101900  1
  S  S74  1  0.41549600  0.60643900  0.11143100  1
  S  S75  1  0.33220700  0.38449900  0.11158800  1
  S  S76  1  0.51901800  0.89499800  0.06271700  1
  S  S77  1  0.10270000  0.47497100  0.09150500  1
  S  S78  1  0.01480200  0.08492700  0.12707900  1
  S  S79  1  0.26684200  0.98634100  0.01992300  1
  S  S80  1  0.85242300  0.29991700  0.02069900  1
  S  S81  1  0.18531700  0.24163600  0.00463900  1
