# generated using pymatgen
data_Nd6MnS10
_symmetry_space_group_name_H-M   'P 1'
_cell_length_a   7.38743900
_cell_length_b   7.42725946
_cell_length_c   30.36387929
_cell_angle_alpha   94.51535868
_cell_angle_beta   94.93284443
_cell_angle_gamma   108.41327420
_symmetry_Int_Tables_number   1
_chemical_formula_structural   Nd6MnS10
_chemical_formula_sum   'Nd24 Mn4 S40'
_cell_volume   1564.95661120
_cell_formula_units_Z   4
loop_
 _symmetry_equiv_pos_site_id
 _symmetry_equiv_pos_as_xyz
  1  'x, y, z'
loop_
 _atom_site_type_symbol
 _atom_site_label
 _atom_site_symmetry_multiplicity
 _atom_site_fract_x
 _atom_site_fract_y
 _atom_site_fract_z
 _atom_site_occupancy
  Nd  Nd0  1  0.82505700  0.19717800  0.02845300  1
  Nd  Nd1  1  0.99496500  0.63395900  0.12721600  1
  Nd  Nd2  1  0.43449100  0.79731900  0.22447700  1
  Nd  Nd3  1  0.46802400  0.60895800  0.07516600  1
  Nd  Nd4  1  0.60272900  0.23611800  0.32652400  1
  Nd  Nd5  1  0.02408500  0.38179200  0.43140500  1
  Nd  Nd6  1  0.06235200  0.19601300  0.27085000  1
  Nd  Nd7  1  0.40595600  0.26560800  0.17266100  1
  Nd  Nd8  1  0.18620500  0.82620600  0.52446400  1
  Nd  Nd9  1  0.63374000  0.00711300  0.62402900  1
  Nd  Nd10  1  0.01252700  0.87899800  0.37345900  1
  Nd  Nd11  1  0.67725200  0.80994800  0.47299500  1
  Nd  Nd12  1  0.42089000  0.66964800  0.34874400  1
  Nd  Nd13  1  0.80282900  0.42974900  0.72443700  1
  Nd  Nd14  1  0.22466600  0.59853000  0.82651800  1
  Nd  Nd15  1  0.59720600  0.45800100  0.56990900  1
  Nd  Nd16  1  0.26866700  0.39619800  0.66980300  1
  Nd  Nd17  1  0.40280500  0.02006800  0.92468800  1
  Nd  Nd18  1  0.18919700  0.07629200  0.77944500  1
  Nd  Nd19  1  0.62887400  0.87579900  0.75407800  1
  Nd  Nd20  1  0.07993900  0.82264700  0.64853900  1
  Nd  Nd21  1  0.80498400  0.68519900  0.97358400  1
  Nd  Nd22  1  0.21304700  0.45532400  0.94952200  1
  Nd  Nd23  1  0.68290600  0.42807200  0.85309400  1
  Mn  Mn24  1  0.82674900  0.07686300  0.14806700  1
  Mn  Mn25  1  0.27755200  0.03231000  0.05088700  1
  Mn  Mn26  1  0.87729600  0.61852200  0.24731300  1
  Mn  Mn27  1  0.47209000  0.23934300  0.45751600  1
  S  S28  1  0.76116100  0.88291600  0.29744000  1
  S  S29  1  0.66446700  0.64243500  0.17718900  1
  S  S30  1  0.27205900  0.91415900  0.29980700  1
  S  S31  1  0.08569500  0.97462600  0.19501600  1
  S  S32  1  0.84211600  0.86920400  0.07870600  1
  S  S33  1  0.37237000  0.49328800  0.49482600  1
  S  S34  1  0.07584900  0.57828200  0.02985700  1
  S  S35  1  0.37215700  0.88847100  0.12481600  1
  S  S36  1  0.26534300  0.26505800  0.37245500  1
  S  S37  1  0.84805000  0.50900500  0.49837200  1
  S  S38  1  0.71096800  0.57015100  0.39560900  1
  S  S39  1  0.17463000  0.29278700  0.09791600  1
  S  S40  1  0.44339300  0.44686400  0.27023900  1
  S  S41  1  0.69040400  0.16774700  0.22290600  1
  S  S42  1  0.09163200  0.48335700  0.20365100  1
  S  S43  1  0.67873100  0.29181900  0.10549200  1
  S  S44  1  0.98060700  0.49705900  0.31968600  1
  S  S45  1  0.84716000  0.83955000  0.57173400  1
  S  S46  1  0.30315700  0.14223400  0.60024200  1
  S  S47  1  0.05887100  0.04898400  0.46690500  1
  S  S48  1  0.89084500  0.39732400  0.63141800  1
  S  S49  1  0.27526200  0.75675100  0.42636800  1
  S  S50  1  0.68155000  0.06298700  0.40101300  1
  S  S51  1  0.56227600  0.08420900  0.52216200  1
  S  S52  1  0.45931800  0.45588200  0.77116400  1
  S  S53  1  0.90213900  0.74180400  0.79903000  1
  S  S54  1  0.65382300  0.66644200  0.67284100  1
  S  S55  1  0.31555300  0.66742500  0.60034300  1
  S  S56  1  0.19308500  0.68658900  0.72854100  1
  S  S57  1  0.08420700  0.05931000  0.98211100  1
  S  S58  1  0.51260300  0.37632900  0.00155700  1
  S  S59  1  0.95911200  0.09913000  0.69924400  1
  S  S60  1  0.26769100  0.26306100  0.87015000  1
  S  S61  1  0.47388300  0.98238300  0.82899100  1
  S  S62  1  0.90033500  0.25970000  0.79828000  1
  S  S63  1  0.46032000  0.10055400  0.70167100  1
  S  S64  1  0.78787000  0.28929700  0.93246700  1
  S  S65  1  0.54190700  0.69705600  0.90147100  1
  S  S66  1  0.48584700  0.86717700  0.00353600  1
  S  S67  1  0.05647300  0.69181600  0.90193100  1
