# generated using pymatgen
data_Mg2Fe2O5
_symmetry_space_group_name_H-M   'P 1'
_cell_length_a   6.17100139
_cell_length_b   5.99269454
_cell_length_c   30.03245542
_cell_angle_alpha   59.83970171
_cell_angle_beta   60.56196094
_cell_angle_gamma   60.69839855
_symmetry_Int_Tables_number   1
_chemical_formula_structural   Mg2Fe2O5
_chemical_formula_sum   'Mg16 Fe16 O40'
_cell_volume   791.74525472
_cell_formula_units_Z   8
loop_
 _symmetry_equiv_pos_site_id
 _symmetry_equiv_pos_as_xyz
  1  'x, y, z'
loop_
 _atom_site_type_symbol
 _atom_site_label
 _atom_site_symmetry_multiplicity
 _atom_site_fract_x
 _atom_site_fract_y
 _atom_site_fract_z
 _atom_site_occupancy
  Mg  Mg0  1  0.98615900  0.98693800  0.00405000  1
  Mg  Mg1  1  0.12192600  0.62572500  0.12558700  1
  Mg  Mg2  1  0.62419200  0.12278800  0.12589000  1
  Mg  Mg3  1  0.12390700  0.62434700  0.32505700  1
  Mg  Mg4  1  0.62750600  0.12281600  0.32461700  1
  Mg  Mg5  1  0.13904000  0.62031500  0.52344500  1
  Mg  Mg6  1  0.65290300  0.12484000  0.51800300  1
  Mg  Mg7  1  0.62662500  0.62731100  0.42242700  1
  Mg  Mg8  1  0.63395200  0.12090500  0.62432600  1
  Mg  Mg9  1  0.12447700  0.62598500  0.72474400  1
  Mg  Mg10  1  0.62573300  0.12444400  0.72519900  1
  Mg  Mg11  1  0.63165800  0.62323700  0.62343500  1
  Mg  Mg12  1  0.10713100  0.63234000  0.92640200  1
  Mg  Mg13  1  0.61750000  0.12770200  0.82634300  1
  Mg  Mg14  1  0.59724100  0.12581700  0.93182500  1
  Mg  Mg15  1  0.61652300  0.62767500  0.82714700  1
  Fe  Fe16  1  0.24223100  0.25572300  0.05239700  1
  Fe  Fe17  1  0.25318700  0.26025200  0.24873400  1
  Fe  Fe18  1  0.62920300  0.62744300  0.02537600  1
  Fe  Fe19  1  0.62684200  0.62838300  0.12588400  1
  Fe  Fe20  1  0.99816600  0.98944400  0.20174700  1
  Fe  Fe21  1  0.26082400  0.26033700  0.44775700  1
  Fe  Fe22  1  0.10024100  0.97649300  0.58537200  1
  Fe  Fe23  1  0.62578800  0.62563200  0.22535100  1
  Fe  Fe24  1  0.62796200  0.62467500  0.32467000  1
  Fe  Fe25  1  0.01144600  0.99670600  0.39530600  1
  Fe  Fe26  1  0.16850700  0.28991300  0.65523900  1
  Fe  Fe27  1  0.65963900  0.63442800  0.51586900  1
  Fe  Fe28  1  0.15203400  0.27841100  0.86196700  1
  Fe  Fe29  1  0.62627000  0.62506400  0.72501800  1
  Fe  Fe30  1  0.08201600  0.96195500  0.79366300  1
  Fe  Fe31  1  0.59283100  0.61681200  0.93413100  1
  O  O32  1  0.38626500  0.38683500  0.07436700  1
  O  O33  1  0.38536900  0.38772700  0.17077100  1
  O  O34  1  0.38716300  0.85868500  0.07509200  1
  O  O35  1  0.85411600  0.38711500  0.07533600  1
  O  O36  1  0.38658700  0.38599600  0.27482500  1
  O  O37  1  0.39106800  0.86374300  0.17525900  1
  O  O38  1  0.86244400  0.38980500  0.17535600  1
  O  O39  1  0.38595400  0.38241500  0.37115800  1
  O  O40  1  0.85485200  0.85569900  0.08337200  1
  O  O41  1  0.38909200  0.85663300  0.27541500  1
  O  O42  1  0.85673300  0.38781100  0.27518600  1
  O  O43  1  0.86526900  0.86547800  0.17550200  1
  O  O44  1  0.38270600  0.37021400  0.47881200  1
  O  O45  1  0.39425700  0.86391000  0.37282300  1
  O  O46  1  0.37834400  0.36700000  0.57930100  1
  O  O47  1  0.86493200  0.38901900  0.37319900  1
  O  O48  1  0.86559300  0.86237400  0.27936300  1
  O  O49  1  0.38466000  0.85417000  0.48024400  1
  O  O50  1  0.86558300  0.37894100  0.47684800  1
  O  O51  1  0.86878900  0.86700300  0.37399000  1
  O  O52  1  0.37610400  0.36858900  0.67532400  1
  O  O53  1  0.45775700  0.84532700  0.56903900  1
  O  O54  1  0.87881800  0.35702600  0.57727600  1
  O  O55  1  0.37448800  0.38057500  0.77643300  1
  O  O56  1  0.88940500  0.85539700  0.47740100  1
  O  O57  1  0.37713700  0.88164900  0.67623100  1
  O  O58  1  0.80646700  0.39866600  0.67970000  1
  O  O59  1  0.87759500  0.87090100  0.57737800  1
  O  O60  1  0.37061900  0.37891500  0.87274300  1
  O  O61  1  0.44429800  0.85037000  0.77038200  1
  O  O62  1  0.87290900  0.36865400  0.77377400  1
  O  O63  1  0.35830200  0.39554300  0.97244600  1
  O  O64  1  0.36964900  0.89592300  0.87267000  1
  O  O65  1  0.87593300  0.86968800  0.67338900  1
  O  O66  1  0.79448100  0.40303800  0.88127200  1
  O  O67  1  0.87400800  0.88065700  0.77476400  1
  O  O68  1  0.39311400  0.86456200  0.97377600  1
  O  O69  1  0.85478500  0.40568500  0.97093800  1
  O  O70  1  0.87641600  0.88437900  0.86931200  1
  O  O71  1  0.85427600  0.86902800  0.97255600  1
