# generated using pymatgen
data_K2YbTi(PO4)3
_symmetry_space_group_name_H-M   'P 1'
_cell_length_a   10.31628400
_cell_length_b   10.39145536
_cell_length_c   20.68917465
_cell_angle_alpha   90.04092530
_cell_angle_beta   90.02077297
_cell_angle_gamma   90.18360784
_symmetry_Int_Tables_number   1
_chemical_formula_structural   K2YbTi(PO4)3
_chemical_formula_sum   'K16 Yb8 Ti8 P24 O96'
_cell_volume   2217.89234425
_cell_formula_units_Z   8
loop_
 _symmetry_equiv_pos_site_id
 _symmetry_equiv_pos_as_xyz
  1  'x, y, z'
loop_
 _atom_site_type_symbol
 _atom_site_label
 _atom_site_symmetry_multiplicity
 _atom_site_fract_x
 _atom_site_fract_y
 _atom_site_fract_z
 _atom_site_occupancy
  Yb  Yb0  1  0.90215200  0.39676400  0.69940200  1
  Yb  Yb1  1  0.90458800  0.39378200  0.20147400  1
  Yb  Yb2  1  0.82778100  0.16020600  0.41312600  1
  Yb  Yb3  1  0.59160000  0.60778800  0.94907900  1
  Yb  Yb4  1  0.33313200  0.32704300  0.08111900  1
  Yb  Yb5  1  0.33470200  0.33014200  0.58457800  1
  Yb  Yb6  1  0.16656600  0.67274400  0.83170600  1
  Yb  Yb7  1  0.16761600  0.66890500  0.33052500  1
  K  K8  1  0.95544600  0.54291800  0.52368800  1
  K  K9  1  0.95156100  0.54646600  0.02397100  1
  K  K10  1  0.81961300  0.81311800  0.84192400  1
  K  K11  1  0.82446400  0.81917800  0.34077300  1
  K  K12  1  0.68180100  0.18494900  0.59044100  1
  K  K13  1  0.68020700  0.18740000  0.09117600  1
  K  K14  1  0.54717200  0.45350100  0.77357400  1
  K  K15  1  0.54739900  0.45175000  0.27252900  1
  K  K16  1  0.45285600  0.95275000  0.97633700  1
  K  K17  1  0.45422700  0.95681000  0.47634700  1
  K  K18  1  0.31570100  0.67489100  0.66012300  1
  K  K19  1  0.31708800  0.67550900  0.16009800  1
  K  K20  1  0.17718600  0.32243400  0.40993400  1
  K  K21  1  0.18372400  0.32518700  0.90975600  1
  K  K22  1  0.04704600  0.04771600  0.72686800  1
  K  K23  1  0.04602300  0.04796400  0.22735300  1
  Ti  Ti24  1  0.83546600  0.16607000  0.91653900  1
  Ti  Ti25  1  0.66507500  0.83463400  0.66723500  1
  Ti  Ti26  1  0.66375400  0.83386300  0.16634500  1
  Ti  Ti27  1  0.60468900  0.60881400  0.44737300  1
  Ti  Ti28  1  0.39397000  0.10302700  0.80339100  1
  Ti  Ti29  1  0.39642400  0.10488600  0.30362800  1
  Ti  Ti30  1  0.10899400  0.89584200  0.55319000  1
  Ti  Ti31  1  0.10572400  0.89692200  0.05345800  1
  P  P32  1  0.97912100  0.72114400  0.68035300  1
  P  P33  1  0.97829900  0.72129100  0.18070200  1
  P  P34  1  0.86910100  0.47434400  0.85856200  1
  P  P35  1  0.86456800  0.49173600  0.35889800  1
  P  P36  1  0.78888900  0.86704900  0.51218600  1
  P  P37  1  0.79504600  0.88259700  0.01087000  1
  P  P38  1  0.70462600  0.11706700  0.76090900  1
  P  P39  1  0.70084100  0.11212300  0.25513800  1
  P  P40  1  0.62603500  0.52909200  0.60340900  1
  P  P41  1  0.62990800  0.52508300  0.10837200  1
  P  P42  1  0.52176200  0.27855800  0.93056800  1
  P  P43  1  0.51273100  0.29436100  0.43450600  1
  P  P44  1  0.48750500  0.79742600  0.80625700  1
  P  P45  1  0.49294900  0.79365000  0.31083200  1
  P  P46  1  0.37878900  0.00846700  0.64712600  1
  P  P47  1  0.37867100  0.00805600  0.14790800  1
  P  P48  1  0.28061100  0.63638200  0.99664100  1
  P  P49  1  0.29114200  0.63115500  0.49315900  1
  P  P50  1  0.21775400  0.36398200  0.74698200  1
  P  P51  1  0.21887700  0.36288500  0.24609500  1
  P  P52  1  0.13194300  0.98771000  0.39612700  1
  P  P53  1  0.12112500  0.99156700  0.89712600  1
  P  P54  1  0.01840100  0.20115900  0.55975000  1
  P  P55  1  0.01191500  0.20319000  0.05666900  1
  O  O56  1  0.99948200  0.54518200  0.86810100  1
  O  O57  1  0.98034500  0.58173900  0.36924900  1
  O  O58  1  0.98618000  0.58308600  0.65580200  1
  O  O59  1  0.98454500  0.58295600  0.15648200  1
  O  O60  1  0.95862200  0.27020000  0.61778000  1
  O  O61  1  0.94638500  0.27848700  0.11055100  1
  O  O62  1  0.93609500  0.83103600  0.51245900  1
  O  O63  1  0.94153600  0.84350300  0.01250300  1
  O  O64  1  0.92624600  0.22570100  0.50327900  1
  O  O65  1  0.91929600  0.21538000  0.99615900  1
  O  O66  1  0.88704600  0.32874700  0.87904600  1
  O  O67  1  0.90047300  0.35529100  0.37861300  1
  O  O68  1  0.83501300  0.76457400  0.69076700  1
  O  O69  1  0.83415600  0.76556800  0.19013400  1
  O  O70  1  0.81930000  0.48380000  0.78942300  1
  O  O71  1  0.81301700  0.49715000  0.28982300  1
  O  O72  1  0.77966600  0.22273700  0.72603700  1
  O  O73  1  0.77647300  0.22130600  0.22371800  1
  O  O74  1  0.78035900  0.00820400  0.96999000  1
  O  O75  1  0.76087500  0.98657600  0.47235800  1
  O  O76  1  0.77461800  0.54166300  0.90457700  1
  O  O77  1  0.75449600  0.54551300  0.40538600  1
  O  O78  1  0.75885100  0.09354900  0.83054000  1
  O  O79  1  0.75240700  0.07330800  0.32100600  1
  O  O80  1  0.73817700  0.88820900  0.58270600  1
  O  O81  1  0.74085100  0.90406700  0.08065800  1
  O  O82  1  0.73795800  0.46146900  0.63682900  1
  O  O83  1  0.72563700  0.45879700  0.15350400  1
  O  O84  1  0.71935500  0.99180300  0.71912700  1
  O  O85  1  0.71106600  0.99356600  0.20841400  1
  O  O86  1  0.71938500  0.77838800  0.97593500  1
  O  O87  1  0.71008200  0.75500500  0.47979100  1
  O  O88  1  0.65442900  0.52956900  0.52884400  1
  O  O89  1  0.67773200  0.51751700  0.03877100  1
  O  O90  1  0.66618100  0.23427500  0.93981000  1
  O  O91  1  0.64708100  0.24625300  0.45293400  1
  O  O92  1  0.61147500  0.67000000  0.12960100  1
  O  O93  1  0.60964300  0.67031100  0.62841600  1
  O  O94  1  0.57996000  0.78377900  0.74595400  1
  O  O95  1  0.58802400  0.78021700  0.25184800  1
  O  O96  1  0.55816800  0.15617500  0.76253100  1
  O  O97  1  0.55489700  0.15334100  0.25923400  1
  O  O98  1  0.55381000  0.72281300  0.86017100  1
  O  O99  1  0.55538200  0.71410800  0.36747000  1
  O  O100  1  0.51575400  0.41688000  0.90588900  1
  O  O101  1  0.51735000  0.44165100  0.41623700  1
  O  O102  1  0.50044700  0.45361000  0.11831200  1
  O  O103  1  0.50202300  0.45408300  0.61705000  1
  O  O104  1  0.49585900  0.91225000  0.14160400  1
  O  O105  1  0.49812800  0.91598800  0.64045000  1
  O  O106  1  0.47830000  0.94150900  0.82787900  1
  O  O107  1  0.48513700  0.93759500  0.33249300  1
  O  O108  1  0.45750000  0.18594400  0.87967100  1
  O  O109  1  0.45866800  0.21429600  0.37573000  1
  O  O110  1  0.41842100  0.69154400  0.00044900  1
  O  O111  1  0.43865400  0.67048000  0.48917100  1
  O  O112  1  0.44723400  0.25733800  0.99334900  1
  O  O113  1  0.41761100  0.26968500  0.48985700  1
  O  O114  1  0.41616000  0.13897300  0.12166900  1
  O  O115  1  0.41681900  0.13981000  0.62092800  1
  O  O116  1  0.35372000  0.74642500  0.78770200  1
  O  O117  1  0.36119900  0.74113400  0.29192600  1
  O  O118  1  0.33404300  0.01551700  0.71927900  1
  O  O119  1  0.33506100  0.01456100  0.22050000  1
  O  O120  1  0.31128700  0.25574400  0.77331800  1
  O  O121  1  0.31036100  0.25267500  0.27245300  1
  O  O122  1  0.26933900  0.52028800  0.54024100  1
  O  O123  1  0.26268600  0.51885700  0.04062400  1
  O  O124  1  0.26681600  0.94649800  0.10662700  1
  O  O125  1  0.26703400  0.94623100  0.60609100  1
  O  O126  1  0.25638200  0.40237600  0.67842300  1
  O  O127  1  0.25666000  0.39863600  0.17735100  1
  O  O128  1  0.24373900  0.60084000  0.92744200  1
  O  O129  1  0.24209800  0.59742500  0.42613000  1
  O  O130  1  0.23222800  0.05395800  0.85602500  1
  O  O131  1  0.25189900  0.04403000  0.35782800  1
  O  O132  1  0.23634400  0.48093600  0.79162900  1
  O  O133  1  0.23920800  0.47833400  0.29086500  1
  O  O134  1  0.21339400  0.74834800  0.52240600  1
  O  O135  1  0.18685900  0.74407600  0.02338900  1
  O  O136  1  0.16537400  0.98480300  0.96945100  1
  O  O137  1  0.16858800  0.98092200  0.46975500  1
  O  O138  1  0.15340500  0.24926100  0.54301100  1
  O  O139  1  0.14524900  0.25328500  0.03761500  1
  O  O140  1  0.08418600  0.85977300  0.87136800  1
  O  O141  1  0.09695300  0.85429200  0.37187300  1
  O  O142  1  0.05434400  0.74361000  0.74286900  1
  O  O143  1  0.05377100  0.74336900  0.24309700  1
  O  O144  1  0.07930000  0.31055200  0.74931700  1
  O  O145  1  0.08065900  0.30943300  0.24956700  1
  O  O146  1  0.04376100  0.81154300  0.62819400  1
  O  O147  1  0.04215200  0.81387700  0.12962400  1
  O  O148  1  0.02487900  0.05323100  0.57747300  1
  O  O149  1  0.02111900  0.05885600  0.07819200  1
  O  O150  1  0.00109700  0.08358000  0.89056500  1
  O  O151  1  0.02161100  0.08212300  0.38451300  1
