# generated using pymatgen
data_Er14Ti10O41
_symmetry_space_group_name_H-M   'P 1'
_cell_length_a   7.27886577
_cell_length_b   7.27886577
_cell_length_c   17.45291790
_cell_angle_alpha   89.52850929
_cell_angle_beta   89.52850929
_cell_angle_gamma   60.12474588
_symmetry_Int_Tables_number   1
_chemical_formula_structural   Er14Ti10O41
_chemical_formula_sum   'Er14 Ti10 O41'
_cell_volume   801.77223744
_cell_formula_units_Z   1
loop_
 _symmetry_equiv_pos_site_id
 _symmetry_equiv_pos_as_xyz
  1  'x, y, z'
loop_
 _atom_site_type_symbol
 _atom_site_label
 _atom_site_symmetry_multiplicity
 _atom_site_fract_x
 _atom_site_fract_y
 _atom_site_fract_z
 _atom_site_occupancy
  Er  Er0  1  0.16145600  0.16145600  0.81782700  1
  Er  Er1  1  0.67076000  0.67076000  0.83260100  1
  Er  Er2  1  0.99079900  0.99079900  0.99947500  1
  Er  Er3  1  0.51743300  0.51743300  0.00789900  1
  Er  Er4  1  0.15342600  0.66910000  0.83171000  1
  Er  Er5  1  0.00870300  0.00870300  0.49715500  1
  Er  Er6  1  0.66910000  0.15342600  0.83171000  1
  Er  Er7  1  0.83431500  0.83431500  0.67081300  1
  Er  Er8  1  0.01005800  0.48288700  0.49660100  1
  Er  Er9  1  0.16626300  0.16626300  0.33062200  1
  Er  Er10  1  0.83367800  0.32585900  0.17033900  1
  Er  Er11  1  0.48288700  0.01005800  0.49660100  1
  Er  Er12  1  0.32585900  0.83367800  0.17033900  1
  Er  Er13  1  0.33482700  0.33482700  0.16854200  1
  Ti  Ti14  1  0.00655300  0.48520800  0.99846100  1
  Ti  Ti15  1  0.48520800  0.00655300  0.99846100  1
  Ti  Ti16  1  0.34999100  0.80215800  0.66023400  1
  Ti  Ti17  1  0.80215800  0.34999100  0.66023400  1
  Ti  Ti18  1  0.34787200  0.34787200  0.66189200  1
  Ti  Ti19  1  0.66619600  0.16517000  0.33582300  1
  Ti  Ti20  1  0.83495000  0.83495000  0.16761600  1
  Ti  Ti21  1  0.16517000  0.66619600  0.33582300  1
  Ti  Ti22  1  0.49935700  0.49935700  0.51332700  1
  Ti  Ti23  1  0.66678600  0.66678600  0.33610800  1
  O  O24  1  0.34556200  0.81505900  0.78101400  1
  O  O25  1  0.69576700  0.69576700  0.97233000  1
  O  O26  1  0.18692000  0.64297800  0.96167400  1
  O  O27  1  0.81505900  0.34556200  0.78101400  1
  O  O28  1  0.49903200  0.49903200  0.62522900  1
  O  O29  1  0.65271500  0.19521000  0.45244500  1
  O  O30  1  0.03150200  0.03150200  0.63519600  1
  O  O31  1  0.00697300  0.00697300  0.87578300  1
  O  O32  1  0.66134700  0.17768900  0.69127600  1
  O  O33  1  0.64297800  0.18692000  0.96167400  1
  O  O34  1  0.33466300  0.33466300  0.77933300  1
  O  O35  1  0.43712100  0.03156900  0.63578500  1
  O  O36  1  0.45124600  0.01482000  0.89003200  1
  O  O37  1  0.19521000  0.65271500  0.45244500  1
  O  O38  1  0.82794300  0.82794300  0.79178100  1
  O  O39  1  0.17768900  0.66134700  0.69127600  1
  O  O40  1  0.36377300  0.36377300  0.31488600  1
  O  O41  1  0.97544000  0.59011400  0.10600900  1
  O  O42  1  0.34738500  0.34738500  0.54538100  1
  O  O43  1  0.97100900  0.55524600  0.36103300  1
  O  O44  1  0.03156900  0.43712100  0.63578500  1
  O  O45  1  0.64905400  0.64905400  0.45091200  1
  O  O46  1  0.01482000  0.45124600  0.89003200  1
  O  O47  1  0.66074400  0.66074400  0.68845500  1
  O  O48  1  0.80380400  0.34774200  0.54526100  1
  O  O49  1  0.77219500  0.36437500  0.31047900  1
  O  O50  1  0.59011400  0.97544000  0.10600900  1
  O  O51  1  0.16728600  0.16728600  0.45513300  1
  O  O52  1  0.16980300  0.16980300  0.20681200  1
  O  O53  1  0.55524600  0.97100900  0.36103300  1
  O  O54  1  0.69847500  0.69847500  0.22579300  1
  O  O55  1  0.32256500  0.88379000  0.03707300  1
  O  O56  1  0.36437500  0.77219500  0.31047900  1
  O  O57  1  0.97349600  0.97349600  0.35978000  1
  O  O58  1  0.98105900  0.98105900  0.12694900  1
  O  O59  1  0.34774200  0.80380400  0.54526100  1
  O  O60  1  0.11572700  0.68338500  0.22760200  1
  O  O61  1  0.50053100  0.50053100  0.12935000  1
  O  O62  1  0.88379000  0.32256500  0.03707300  1
  O  O63  1  0.68338500  0.11572700  0.22760200  1
  O  O64  1  0.27774900  0.27774900  0.03565200  1
