# generated using pymatgen
data_K2UF6
_symmetry_space_group_name_H-M   'P 1'
_cell_length_a   7.29681069
_cell_length_b   7.29681069
_cell_length_c   7.31219005
_cell_angle_alpha   81.53615177
_cell_angle_beta   81.53615177
_cell_angle_gamma   120.20294680
_symmetry_Int_Tables_number   1
_chemical_formula_structural   K2UF6
_chemical_formula_sum   'K4 U2 F12'
_cell_volume   321.47191611
_cell_formula_units_Z   2
loop_
 _symmetry_equiv_pos_site_id
 _symmetry_equiv_pos_as_xyz
  1  'x, y, z'
loop_
 _atom_site_type_symbol
 _atom_site_label
 _atom_site_symmetry_multiplicity
 _atom_site_fract_x
 _atom_site_fract_y
 _atom_site_fract_z
 _atom_site_occupancy
  K  K0  1  0.91172200  0.08827800  0.75000000  1
  K  K1  1  0.24403400  0.75596600  0.75000000  1
  K  K2  1  0.08827800  0.91172200  0.25000000  1
  K  K3  1  0.75596600  0.24403400  0.25000000  1
  U  U4  1  0.58019300  0.41980700  0.75000000  1
  U  U5  1  0.41980700  0.58019300  0.25000000  1
  F  F6  1  0.89375800  0.74037000  0.63261300  1
  F  F7  1  0.10624200  0.25963000  0.36738700  1
  F  F8  1  0.62332400  0.17847500  0.62360200  1
  F  F9  1  0.47301200  0.33666000  0.11011600  1
  F  F10  1  0.66334000  0.52698800  0.38988400  1
  F  F11  1  0.33666000  0.47301200  0.61011600  1
  F  F12  1  0.52698800  0.66334000  0.88988400  1
  F  F13  1  0.17847500  0.62332400  0.12360200  1
  F  F14  1  0.37667600  0.82152500  0.37639800  1
  F  F15  1  0.25963000  0.10624200  0.86738700  1
  F  F16  1  0.74037000  0.89375800  0.13261300  1
  F  F17  1  0.82152500  0.37667600  0.87639800  1
