# generated using pymatgen
data_Na16Be8H15
_symmetry_space_group_name_H-M   'P 1'
_cell_length_a   8.35055700
_cell_length_b   8.75055897
_cell_length_c   27.51651913
_cell_angle_alpha   91.21424417
_cell_angle_beta   90.00876620
_cell_angle_gamma   107.34256947
_symmetry_Int_Tables_number   1
_chemical_formula_structural   Na16Be8H15
_chemical_formula_sum   'Na48 Be24 H45'
_cell_volume   1918.80644472
_cell_formula_units_Z   3
loop_
 _symmetry_equiv_pos_site_id
 _symmetry_equiv_pos_as_xyz
  1  'x, y, z'
loop_
 _atom_site_type_symbol
 _atom_site_label
 _atom_site_symmetry_multiplicity
 _atom_site_fract_x
 _atom_site_fract_y
 _atom_site_fract_z
 _atom_site_occupancy
  Na  Na0  1  0.77659200  0.97039200  0.85857200  1
  Na  Na1  1  0.77111600  0.99017500  0.52473000  1
  Na  Na2  1  0.77304700  0.98752700  0.18877900  1
  Na  Na3  1  0.61971800  0.61826700  0.92702000  1
  Na  Na4  1  0.63727000  0.63951500  0.59467100  1
  Na  Na5  1  0.47252100  0.76565900  0.36014500  1
  Na  Na6  1  0.37531400  0.87199000  0.90732600  1
  Na  Na7  1  0.46740400  0.76694800  0.69200400  1
  Na  Na8  1  0.63553200  0.63800600  0.26259500  1
  Na  Na9  1  0.48668600  0.76322400  0.02808700  1
  Na  Na10  1  0.38606500  0.88486700  0.57315200  1
  Na  Na11  1  0.38625400  0.88353900  0.24084000  1
  Na  Na12  1  0.27939400  0.46494100  0.52562400  1
  Na  Na13  1  0.27142200  0.48747600  0.85635900  1
  Na  Na14  1  0.11952000  0.62620500  0.76066700  1
  Na  Na15  1  0.02008800  0.74381800  0.97332500  1
  Na  Na16  1  0.02803300  0.72920600  0.63851400  1
  Na  Na17  1  0.87352600  0.87436100  0.73475100  1
  Na  Na18  1  0.87637100  0.87656200  0.40579000  1
  Na  Na19  1  0.27704000  0.47195500  0.19384300  1
  Na  Na20  1  0.12657200  0.62382100  0.42792300  1
  Na  Na21  1  0.12777600  0.62828700  0.09587500  1
  Na  Na22  1  0.02582800  0.73011300  0.30685500  1
  Na  Na23  1  0.87733700  0.87337600  0.07400100  1
  Na  Na24  1  0.73483100  0.52153700  0.80715100  1
  Na  Na25  1  0.73497600  0.52285600  0.47481000  1
  Na  Na26  1  0.73640400  0.52396100  0.14282200  1
  Na  Na27  1  0.13509300  0.13740800  0.92820000  1
  Na  Na28  1  0.11919300  0.11635200  0.59457000  1
  Na  Na29  1  0.12112300  0.11838300  0.25979000  1
  Na  Na30  1  0.98586500  0.26277000  0.69494000  1
  Na  Na31  1  0.98479000  0.27112000  0.35662600  1
  Na  Na32  1  0.88606900  0.38353500  0.90618500  1
  Na  Na33  1  0.87453200  0.37157900  0.57353300  1
  Na  Na34  1  0.87591500  0.37327100  0.23969000  1
  Na  Na35  1  0.96917000  0.26767100  0.02597100  1
  Na  Na36  1  0.62796200  0.12859700  0.76177300  1
  Na  Na37  1  0.62437900  0.12782700  0.42834700  1
  Na  Na38  1  0.62019900  0.12688800  0.09401700  1
  Na  Na39  1  0.52733300  0.22985600  0.97231400  1
  Na  Na40  1  0.51994200  0.24483100  0.64016400  1
  Na  Na41  1  0.51975600  0.24441700  0.30525300  1
  Na  Na42  1  0.37668700  0.37340600  0.74080800  1
  Na  Na43  1  0.37528500  0.37380200  0.40327800  1
  Na  Na44  1  0.37383900  0.37397300  0.06901800  1
  Na  Na45  1  0.23669500  0.02353000  0.80916800  1
  Na  Na46  1  0.23574700  0.01877700  0.47402600  1
  Na  Na47  1  0.23497900  0.01986400  0.14106400  1
  Be  Be48  1  0.73065300  0.98251400  0.96912100  1
  Be  Be49  1  0.73366400  0.99613900  0.63863800  1
  Be  Be50  1  0.73180400  0.99286500  0.30361300  1
  Be  Be51  1  0.48997900  0.74004100  0.80167700  1
  Be  Be52  1  0.49560500  0.75097100  0.47525600  1
  Be  Be53  1  0.49522100  0.75066100  0.14039400  1
  Be  Be54  1  0.23550000  0.49636900  0.97223600  1
  Be  Be55  1  0.22908500  0.48078200  0.63509100  1
  Be  Be56  1  0.24149000  0.48980400  0.30413900  1
  Be  Be57  1  0.01928000  0.75490300  0.86199500  1
  Be  Be58  1  0.01025100  0.76417500  0.53001600  1
  Be  Be59  1  0.01044900  0.76176400  0.19772600  1
  Be  Be60  1  0.98931800  0.23515000  0.46715900  1
  Be  Be61  1  0.99427600  0.24301200  0.13576200  1
  Be  Be62  1  0.76698200  0.50434400  0.36348200  1
  Be  Be63  1  0.99324600  0.24754500  0.80695400  1
  Be  Be64  1  0.77508900  0.50164100  0.69549400  1
  Be  Be65  1  0.75582500  0.51814700  0.02879200  1
  Be  Be66  1  0.51236100  0.26403900  0.86392700  1
  Be  Be67  1  0.52150600  0.24910800  0.52905300  1
  Be  Be68  1  0.51760400  0.25354700  0.19475400  1
  Be  Be69  1  0.25660800  0.01788100  0.69529100  1
  Be  Be70  1  0.25912100  0.01635600  0.36165100  1
  Be  Be71  1  0.27455400  0.00195900  0.02938000  1
  H  H72  1  0.64184100  0.88227600  0.93138700  1
  H  H73  1  0.62442800  0.86002400  0.78038000  1
  H  H74  1  0.60876100  0.85519000  0.44326400  1
  H  H75  1  0.61731600  0.85951500  0.11234100  1
  H  H76  1  0.34346100  0.62220300  0.94483000  1
  H  H77  1  0.33714200  0.62780100  0.61800100  1
  H  H78  1  0.09786300  0.87824000  0.89605400  1
  H  H79  1  0.11014700  0.86429500  0.56641700  1
  H  H80  1  0.34342800  0.62719200  0.28044700  1
  H  H81  1  0.11088000  0.86255700  0.23399300  1
  H  H82  1  0.39295700  0.63434300  0.76558200  1
  H  H83  1  0.16310200  0.86283500  0.71087900  1
  H  H84  1  0.39936700  0.60516600  0.45314000  1
  H  H85  1  0.39500000  0.61613600  0.11356900  1
  H  H86  1  0.15609900  0.86876600  0.38004000  1
  H  H87  1  0.15351500  0.87004300  0.05040100  1
  H  H88  1  0.14207100  0.38051100  0.59701500  1
  H  H89  1  0.13596500  0.38205200  0.27051700  1
  H  H90  1  0.11665500  0.35862400  0.77980000  1
  H  H91  1  0.85913700  0.61565300  0.73113700  1
  H  H92  1  0.86051900  0.61711100  0.39824100  1
  H  H93  1  0.86862300  0.60588800  0.06471400  1
  H  H94  1  0.12984200  0.35793500  0.45026700  1
  H  H95  1  0.12479900  0.36140300  0.11256300  1
  H  H96  1  0.86905600  0.64950500  0.88032000  1
  H  H97  1  0.88870500  0.63096900  0.54965400  1
  H  H98  1  0.88706000  0.63253500  0.21875500  1
  H  H99  1  0.59492600  0.38491800  0.55950900  1
  H  H100  1  0.83712700  0.12965900  0.95189800  1
  H  H101  1  0.84235400  0.11936700  0.61052100  1
  H  H102  1  0.84599600  0.12973000  0.28191000  1
  H  H103  1  0.61132400  0.36296800  0.90079700  1
  H  H104  1  0.59739100  0.37906900  0.22808400  1
  H  H105  1  0.89421500  0.11652100  0.77855400  1
  H  H106  1  0.89612700  0.14012200  0.42821800  1
  H  H107  1  0.89431200  0.13345000  0.10091900  1
  H  H108  1  0.65469000  0.36966300  0.38593100  1
  H  H109  1  0.65396500  0.36988100  0.71653000  1
  H  H110  1  0.66210700  0.36313000  0.04424200  1
  H  H111  1  0.36920500  0.10751900  0.39772400  1
  H  H112  1  0.35926100  0.11542900  0.06497000  1
  H  H113  1  0.36887800  0.10613200  0.73130200  1
  H  H114  1  0.38838800  0.13294400  0.88396700  1
  H  H115  1  0.36412200  0.15525200  0.54654600  1
  H  H116  1  0.37071100  0.14771600  0.21460400  1
