# generated using pymatgen
data_Ir(N3O4)3
_symmetry_space_group_name_H-M   'P 1'
_cell_length_a   8.30277282
_cell_length_b   8.97463492
_cell_length_c   8.53398953
_cell_angle_alpha   53.89420147
_cell_angle_beta   56.40662702
_cell_angle_gamma   62.88917489
_symmetry_Int_Tables_number   1
_chemical_formula_structural   Ir(N3O4)3
_chemical_formula_sum   'Ir1 N9 O12'
_cell_volume   419.94130059
_cell_formula_units_Z   1
loop_
 _symmetry_equiv_pos_site_id
 _symmetry_equiv_pos_as_xyz
  1  'x, y, z'
loop_
 _atom_site_type_symbol
 _atom_site_label
 _atom_site_symmetry_multiplicity
 _atom_site_fract_x
 _atom_site_fract_y
 _atom_site_fract_z
 _atom_site_occupancy
  Ir  Ir0  1  0.82343300  0.17574400  0.99572100  1
  N  N1  1  0.20436200  0.75404800  0.89523600  1
  N  N2  1  0.25293400  0.13335000  0.75665700  1
  N  N3  1  0.21832400  0.89016000  0.11424400  1
  N  N4  1  0.92764900  0.19801500  0.26971200  1
  N  N5  1  0.98337400  0.65297000  0.16905500  1
  N  N6  1  0.76228600  0.10694000  0.84387800  1
  N  N7  1  0.50504000  0.52172700  0.49233500  1
  N  N8  1  0.78882400  0.62064800  0.79493700  1
  N  N9  1  0.27666100  0.24310500  0.25581700  1
  O  O10  1  0.39496600  0.17692900  0.59422200  1
  O  O11  1  0.34910200  0.85293000  0.14929000  1
  O  O12  1  0.31534900  0.63987700  0.84190500  1
  O  O13  1  0.67416100  0.02764000  0.24434900  1
  O  O14  1  0.00968200  0.62944100  0.31088600  1
  O  O15  1  0.00144100  0.03049000  0.32423100  1
  O  O16  1  0.86939400  0.29224400  0.11697100  1
  O  O17  1  0.07666100  0.23603100  0.74451000  1
  O  O18  1  0.73711400  0.51749900  0.79930200  1
  O  O19  1  0.84550200  0.62729600  0.17905400  1
  O  O20  1  0.58911400  0.15701700  0.86182400  1
  O  O21  1  0.89462600  0.01589700  0.74586600  1
