# generated using pymatgen
data_Sr6Nb2O11
_symmetry_space_group_name_H-M   'P 1'
_cell_length_a   5.99701543
_cell_length_b   6.01942953
_cell_length_c   24.21587309
_cell_angle_alpha   59.00684608
_cell_angle_beta   60.04177538
_cell_angle_gamma   60.33734491
_symmetry_Int_Tables_number   1
_chemical_formula_structural   Sr6Nb2O11
_chemical_formula_sum   'Sr12 Nb4 O22'
_cell_volume   615.06901822
_cell_formula_units_Z   2
loop_
 _symmetry_equiv_pos_site_id
 _symmetry_equiv_pos_as_xyz
  1  'x, y, z'
loop_
 _atom_site_type_symbol
 _atom_site_label
 _atom_site_symmetry_multiplicity
 _atom_site_fract_x
 _atom_site_fract_y
 _atom_site_fract_z
 _atom_site_occupancy
  Sr  Sr0  1  0.15910000  0.33211800  0.06974100  1
  Sr  Sr1  1  0.46145000  0.57429100  0.11675700  1
  Sr  Sr2  1  0.22718100  0.26288400  0.29670700  1
  Sr  Sr3  1  0.40438300  0.50002400  0.37710600  1
  Sr  Sr4  1  0.64266500  0.80461500  0.19822100  1
  Sr  Sr5  1  0.21336300  0.22116800  0.57481900  1
  Sr  Sr6  1  0.48442600  0.51291900  0.61640600  1
  Sr  Sr7  1  0.22753100  0.27621300  0.79933300  1
  Sr  Sr8  1  0.65315500  0.77785300  0.42471200  1
  Sr  Sr9  1  0.44306300  0.49998300  0.88333100  1
  Sr  Sr10  1  0.64579200  0.75778100  0.70369800  1
  Sr  Sr11  1  0.69811200  0.77428000  0.92263300  1
  Nb  Nb12  1  0.98644700  0.05478500  0.99693500  1
  Nb  Nb13  1  0.93472900  0.03272000  0.24822600  1
  Nb  Nb14  1  0.92879400  0.00280100  0.50025600  1
  Nb  Nb15  1  0.94767700  0.03548000  0.74869600  1
  O  O16  1  0.21118900  0.24633000  0.18459900  1
  O  O17  1  0.22550700  0.72776700  0.21289900  1
  O  O18  1  0.76965200  0.37595600  0.02758900  1
  O  O19  1  0.80222200  0.80891400  0.07873000  1
  O  O20  1  0.78910300  0.18945400  0.17147600  1
  O  O21  1  0.66235400  0.33980600  0.28302800  1
  O  O22  1  0.19408500  0.15304400  0.41406200  1
  O  O23  1  0.06517100  0.87574200  0.32877800  1
  O  O24  1  0.66177000  0.82379400  0.30773300  1
  O  O25  1  0.63302400  0.30415200  0.45970700  1
  O  O26  1  0.67605900  0.09886300  0.58162000  1
  O  O27  1  0.21075900  0.78905900  0.69279700  1
  O  O28  1  0.22625600  0.84653900  0.53819500  1
  O  O29  1  0.31235500  0.06614800  0.99594000  1
  O  O30  1  0.91170900  0.68324800  0.50420700  1
  O  O31  1  0.81242500  0.32784100  0.66967200  1
  O  O32  1  0.22987300  0.22103500  0.70693800  1
  O  O33  1  0.64303000  0.28460000  0.80317900  1
  O  O34  1  0.23945000  0.73876200  0.96324700  1
  O  O35  1  0.10709000  0.80989500  0.82537700  1
  O  O36  1  0.67960600  0.82963900  0.79556800  1
  O  O37  1  0.87494400  0.27099200  0.91730400  1
