# generated using pymatgen
data_Ti14O7F60
_symmetry_space_group_name_H-M   'P 1'
_cell_length_a   7.02918400
_cell_length_b   10.44286853
_cell_length_c   17.99226164
_cell_angle_alpha   89.84252136
_cell_angle_beta   89.89876890
_cell_angle_gamma   89.73401446
_symmetry_Int_Tables_number   1
_chemical_formula_structural   Ti14O7F60
_chemical_formula_sum   'Ti14 O7 F60'
_cell_volume   1320.69791369
_cell_formula_units_Z   1
loop_
 _symmetry_equiv_pos_site_id
 _symmetry_equiv_pos_as_xyz
  1  'x, y, z'
loop_
 _atom_site_type_symbol
 _atom_site_label
 _atom_site_symmetry_multiplicity
 _atom_site_fract_x
 _atom_site_fract_y
 _atom_site_fract_z
 _atom_site_occupancy
  Ti  Ti0  1  0.14110600  0.23174300  0.88265100  1
  Ti  Ti1  1  0.14781800  0.57162800  0.67610900  1
  Ti  Ti2  1  0.14301000  0.69295300  0.94380200  1
  Ti  Ti3  1  0.15343200  0.73211500  0.37312600  1
  Ti  Ti4  1  0.84457000  0.80622400  0.55032700  1
  Ti  Ti5  1  0.84866400  0.92188200  0.81662100  1
  Ti  Ti6  1  0.50173700  0.00117300  0.99804900  1
  Ti  Ti7  1  0.16242500  0.04943100  0.17740000  1
  Ti  Ti8  1  0.15411100  0.19391800  0.44805500  1
  Ti  Ti9  1  0.84409300  0.26606500  0.62305700  1
  Ti  Ti10  1  0.83781900  0.29221500  0.06381500  1
  Ti  Ti11  1  0.84729000  0.42872800  0.32217300  1
  Ti  Ti12  1  0.49761600  0.49870100  0.49765900  1
  Ti  Ti13  1  0.84265400  0.75441100  0.12730200  1
  O  O14  1  0.62381500  0.50653500  0.99275400  1
  O  O15  1  0.64778000  0.53330600  0.67409900  1
  O  O16  1  0.36510100  0.79495100  0.57307100  1
  O  O17  1  0.63721000  0.03580200  0.31020500  1
  O  O18  1  0.38748200  0.25451400  0.74135900  1
  O  O19  1  0.38312300  0.25007900  0.25653100  1
  O  O20  1  0.35119800  0.76258400  0.11097700  1
  F  F21  1  0.33709500  0.10934500  0.93840800  1
  F  F22  1  0.00572200  0.24695000  0.97179400  1
  F  F23  1  0.71257700  0.33503900  0.70352800  1
  F  F24  1  0.99482500  0.32647800  0.82627700  1
  F  F25  1  0.31911500  0.34734900  0.90017700  1
  F  F26  1  0.70733900  0.38876700  0.96877200  1
  F  F27  1  0.02013600  0.42207500  0.63598700  1
  F  F28  1  0.31120700  0.47113100  0.72807200  1
  F  F29  1  0.33838500  0.53537100  0.58236600  1
  F  F30  1  0.98524000  0.56830200  0.92139600  1
  F  F31  1  0.98979500  0.59728800  0.75203300  1
  F  F32  1  0.34124200  0.60263900  0.43868600  1
  F  F33  1  0.65518200  0.64092600  0.52137200  1
  F  F34  1  0.98092800  0.66319300  0.60522100  1
  F  F35  1  0.31083300  0.67831300  0.87114300  1
  F  F36  1  0.28635300  0.71938500  0.68289300  1
  F  F37  1  0.01727700  0.73884400  0.47150700  1
  F  F38  1  0.71375900  0.78011600  0.81298300  1
  F  F39  1  0.71910400  0.83613800  0.19936500  1
  F  F40  1  0.68311800  0.81835300  0.62909800  1
  F  F41  1  0.98999300  0.83208400  0.32431600  1
  F  F42  1  0.01495500  0.83931100  0.89629300  1
  F  F43  1  0.34341800  0.86648800  0.97951700  1
  F  F44  1  0.31089100  0.85486000  0.40373200  1
  F  F45  1  0.71101500  0.89102000  0.48279800  1
  F  F46  1  0.01679000  0.90323400  0.74567500  1
  F  F47  1  0.02237900  0.92351400  0.13500400  1
  F  F48  1  0.01023700  0.92381700  0.57868800  1
  F  F49  1  0.65824200  0.96884700  0.91901300  1
  F  F50  1  0.32838600  0.96383900  0.23003600  1
  F  F51  1  0.68990800  0.03634200  0.77754800  1
  F  F52  1  0.33676500  0.05227800  0.08567700  1
  F  F53  1  0.98891800  0.07553300  0.42138100  1
  F  F54  1  0.00329800  0.07701000  0.86266200  1
  F  F55  1  0.00551300  0.09920600  0.24765600  1
  F  F56  1  0.28205900  0.11122600  0.51833800  1
  F  F57  1  0.68533900  0.14259800  0.59843100  1
  F  F58  1  0.66345800  0.15503600  0.02220500  1
  F  F59  1  0.98954200  0.16935300  0.10924900  1
  F  F60  1  0.00654200  0.17193400  0.67557300  1
  F  F61  1  0.31975900  0.17315200  0.37181900  1
  F  F62  1  0.29409900  0.15646700  0.78230100  1
  F  F63  1  0.29479900  0.24284800  0.18488300  1
  F  F64  1  0.97885200  0.26144400  0.52950400  1
  F  F65  1  0.71564000  0.28050700  0.31239800  1
  F  F66  1  0.66964100  0.32872500  0.13228200  1
  F  F67  1  0.02060800  0.33471100  0.39436400  1
  F  F68  1  0.34278600  0.35613200  0.47887400  1
  F  F69  1  0.66017500  0.39699600  0.56254400  1
  F  F70  1  0.00874900  0.40068400  0.24691000  1
  F  F71  1  0.99284100  0.42216400  0.07484600  1
  F  F72  1  0.66028200  0.45779400  0.41759600  1
  F  F73  1  0.68875800  0.53202100  0.27275600  1
  F  F74  1  0.98114000  0.57611400  0.36509800  1
  F  F75  1  0.27853500  0.61624800  0.01634900  1
  F  F76  1  0.68106500  0.63344800  0.10314900  1
  F  F77  1  0.01565300  0.66511000  0.17497500  1
  F  F78  1  0.28497600  0.67130900  0.29612500  1
  F  F79  1  0.96988400  0.76078300  0.03024300  1
  F  F80  1  0.65522800  0.90770600  0.06101900  1
