# generated using pymatgen
data_Mg11(Fe15O28)2
_symmetry_space_group_name_H-M   'P 1'
_cell_length_a   6.01951500
_cell_length_b   6.02406819
_cell_length_c   34.58633018
_cell_angle_alpha   85.08342474
_cell_angle_beta   85.01700373
_cell_angle_gamma   60.03193310
_symmetry_Int_Tables_number   1
_chemical_formula_structural   Mg11(Fe15O28)2
_chemical_formula_sum   'Mg11 Fe30 O56'
_cell_volume   1081.08273348
_cell_formula_units_Z   1
loop_
 _symmetry_equiv_pos_site_id
 _symmetry_equiv_pos_as_xyz
  1  'x, y, z'
loop_
 _atom_site_type_symbol
 _atom_site_label
 _atom_site_symmetry_multiplicity
 _atom_site_fract_x
 _atom_site_fract_y
 _atom_site_fract_z
 _atom_site_occupancy
  Mg  Mg0  1  0.57166300  0.57079400  0.78620600  1
  Mg  Mg1  1  0.07129000  0.57074600  0.78622900  1
  Mg  Mg2  1  0.00015600  0.00034800  0.49998600  1
  Mg  Mg3  1  0.49950900  0.00034500  0.49998700  1
  Mg  Mg4  1  0.78573600  0.28593600  0.64292200  1
  Mg  Mg5  1  0.28542700  0.28590400  0.64292000  1
  Mg  Mg6  1  0.71434500  0.71448100  0.35696600  1
  Mg  Mg7  1  0.42855700  0.42853500  0.21425800  1
  Mg  Mg8  1  0.21421600  0.71446600  0.35695200  1
  Mg  Mg9  1  0.14058900  0.14514000  0.07012700  1
  Mg  Mg10  1  0.92838600  0.42841100  0.21419600  1
  Fe  Fe11  1  0.50168200  0.00052800  0.99733700  1
  Fe  Fe12  1  0.54953500  0.06232400  0.83859900  1
  Fe  Fe13  1  0.36139500  0.34798400  0.93035200  1
  Fe  Fe14  1  0.36167400  0.85873000  0.93044400  1
  Fe  Fe15  1  0.21458600  0.71384100  0.85739200  1
  Fe  Fe16  1  0.26198700  0.77863300  0.69743300  1
  Fe  Fe17  1  0.85050300  0.85865600  0.93037100  1
  Fe  Fe18  1  0.07067400  0.07280500  0.78584100  1
  Fe  Fe19  1  0.97622400  0.49313100  0.55451300  1
  Fe  Fe20  1  0.87603800  0.37220900  0.87596300  1
  Fe  Fe21  1  0.92768500  0.43005300  0.71463000  1
  Fe  Fe22  1  0.78594700  0.78524400  0.64286600  1
  Fe  Fe23  1  0.69053700  0.20756700  0.41145600  1
  Fe  Fe24  1  0.64327200  0.14208400  0.57137400  1
  Fe  Fe25  1  0.59473200  0.07914700  0.73123000  1
  Fe  Fe26  1  0.50002500  0.49975800  0.50017700  1
  Fe  Fe27  1  0.30937000  0.79275900  0.58859300  1
  Fe  Fe28  1  0.35714000  0.85719400  0.42849400  1
  Fe  Fe29  1  0.40518000  0.92145700  0.26865500  1
  Fe  Fe30  1  0.21406000  0.21503100  0.35688800  1
  Fe  Fe31  1  0.11486000  0.63125900  0.12639700  1
  Fe  Fe32  1  0.07134700  0.57148700  0.28556200  1
  Fe  Fe33  1  0.02374600  0.50691100  0.44550500  1
  Fe  Fe34  1  0.92904800  0.92770500  0.21430600  1
  Fe  Fe35  1  0.73798700  0.22146500  0.30254100  1
  Fe  Fe36  1  0.78559000  0.28615600  0.14280600  1
  Fe  Fe37  1  0.64518400  0.63778500  0.06988000  1
  Fe  Fe38  1  0.45242200  0.93689700  0.15939700  1
  Fe  Fe39  1  0.64511300  0.14836900  0.06971400  1
  Fe  Fe40  1  0.16984100  0.65650400  0.01732900  1
  O  O41  1  0.66445400  0.71226300  0.96099200  1
  O  O42  1  0.53512700  0.03563300  0.89402600  1
  O  O43  1  0.66421200  0.16144200  0.96083800  1
  O  O44  1  0.21554900  0.16138600  0.96108500  1
  O  O45  1  0.51502400  0.54669400  0.89322400  1
  O  O46  1  0.38151100  0.41545300  0.82168800  1
  O  O47  1  0.04559600  0.54640300  0.89321100  1
  O  O48  1  0.18144400  0.67833200  0.96062600  1
  O  O49  1  0.24502000  0.75700100  0.75291900  1
  O  O50  1  0.37871200  0.88993800  0.82097000  1
  O  O51  1  0.91055300  0.88985200  0.82099500  1
  O  O52  1  0.04693000  0.01347000  0.89361400  1
  O  O53  1  0.23264500  0.25440600  0.75078700  1
  O  O54  1  0.09523600  0.13101400  0.67864300  1
  O  O55  1  0.76209100  0.25433000  0.75076900  1
  O  O56  1  0.89717400  0.38562900  0.81984100  1
  O  O57  1  0.95984000  0.47032800  0.61008100  1
  O  O58  1  0.09426800  0.60427300  0.67821400  1
  O  O59  1  0.62334900  0.60418000  0.67820400  1
  O  O60  1  0.76075900  0.72777200  0.75063300  1
  O  O61  1  0.94814100  0.96736200  0.60783100  1
  O  O62  1  0.81026000  0.84393300  0.53565800  1
  O  O63  1  0.47671200  0.96723500  0.60781700  1
  O  O64  1  0.61147200  0.10114000  0.67585400  1
  O  O65  1  0.67357600  0.18572900  0.46717400  1
  O  O66  1  0.80869100  0.31717900  0.53554700  1
  O  O67  1  0.47583500  0.44075900  0.60745800  1
  O  O68  1  0.33868300  0.31710100  0.53553400  1
  O  O69  1  0.66115300  0.68231100  0.46486500  1
  O  O70  1  0.52458000  0.55819700  0.39271700  1
  O  O71  1  0.19165100  0.68224600  0.46484900  1
  O  O72  1  0.32617700  0.81438600  0.53318900  1
  O  O73  1  0.38793900  0.90000200  0.32421900  1
  O  O74  1  0.52274600  0.03202900  0.39233700  1
  O  O75  1  0.05298300  0.03195100  0.39231900  1
  O  O76  1  0.18956200  0.15637000  0.46440000  1
  O  O77  1  0.37545800  0.39696900  0.32185900  1
  O  O78  1  0.23892200  0.27210900  0.24992200  1
  O  O79  1  0.90561900  0.39693800  0.32186800  1
  O  O80  1  0.04052900  0.52895600  0.38993100  1
  O  O81  1  0.23751600  0.74561300  0.24958100  1
  O  O82  1  0.10162300  0.61322300  0.18187300  1
  O  O83  1  0.90379400  0.87080800  0.32143900  1
  O  O84  1  0.76756900  0.74550000  0.24957100  1
  O  O85  1  0.09023400  0.10965300  0.17887600  1
  O  O86  1  0.94995000  0.98345400  0.10718200  1
  O  O87  1  0.62014000  0.11006800  0.17921300  1
  O  O88  1  0.80678200  0.32553200  0.04379700  1
  O  O89  1  0.75525700  0.24305600  0.24707700  1
  O  O90  1  0.95135700  0.45827900  0.10759000  1
  O  O91  1  0.61687300  0.58595700  0.17838600  1
  O  O92  1  0.47677000  0.45690900  0.10734100  1
  O  O93  1  0.80761700  0.82792000  0.03672300  1
  O  O94  1  0.33410100  0.82775900  0.03611300  1
  O  O95  1  0.46968400  0.96296500  0.10359400  1
  O  O96  1  0.33400800  0.30254300  0.03600000  1
