# generated using pymatgen
data_Ca28(Yb5S16)3
_symmetry_space_group_name_H-M   'P 1'
_cell_length_a   8.03523100
_cell_length_b   8.03901974
_cell_length_c   39.46273252
_cell_angle_alpha   89.90635731
_cell_angle_beta   89.92878594
_cell_angle_gamma   60.09945557
_symmetry_Int_Tables_number   1
_chemical_formula_structural   Ca28(Yb5S16)3
_chemical_formula_sum   'Ca28 Yb15 S48'
_cell_volume   2209.80007404
_cell_formula_units_Z   1
loop_
 _symmetry_equiv_pos_site_id
 _symmetry_equiv_pos_as_xyz
  1  'x, y, z'
loop_
 _atom_site_type_symbol
 _atom_site_label
 _atom_site_symmetry_multiplicity
 _atom_site_fract_x
 _atom_site_fract_y
 _atom_site_fract_z
 _atom_site_occupancy
  Yb  Yb0  1  0.49500300  0.00528700  0.12509800  1
  Yb  Yb1  1  0.16695000  0.66622900  0.29163700  1
  Yb  Yb2  1  0.83366000  0.83359100  0.20818200  1
  Yb  Yb3  1  0.00181000  0.00180600  0.12262400  1
  Yb  Yb4  1  0.50007600  0.50008400  0.37488500  1
  Yb  Yb5  1  0.83342900  0.33312600  0.45835500  1
  Yb  Yb6  1  0.66665500  0.66665700  0.29165000  1
  Yb  Yb7  1  0.50005300  0.99990400  0.62502400  1
  Yb  Yb8  1  0.16642900  0.16644400  0.54171500  1
  Yb  Yb9  1  0.33332800  0.33333000  0.45828600  1
  Yb  Yb10  1  0.83241000  0.83271800  0.70836300  1
  Yb  Yb11  1  0.00000800  0.99997800  0.62500000  1
  Yb  Yb12  1  0.49974700  0.49974000  0.87511400  1
  Yb  Yb13  1  0.66667200  0.66668200  0.79296600  1
  Yb  Yb14  1  0.33173200  0.33175700  0.95966800  1
  Ca  Ca15  1  0.66701300  0.66728000  0.04170000  1
  Ca  Ca16  1  0.66554300  0.16688800  0.04175100  1
  Ca  Ca17  1  0.00609400  0.49427200  0.12503000  1
  Ca  Ca18  1  0.16698600  0.66565600  0.04187300  1
  Ca  Ca19  1  0.49791200  0.49796500  0.12760400  1
  Ca  Ca20  1  0.33268400  0.83441100  0.20819000  1
  Ca  Ca21  1  0.66628500  0.16691500  0.29166400  1
  Ca  Ca22  1  0.16687100  0.16685300  0.29167800  1
  Ca  Ca23  1  0.83444300  0.33266700  0.20818900  1
  Ca  Ca24  1  0.99985000  0.50009500  0.37491700  1
  Ca  Ca25  1  0.33312100  0.83343600  0.45835100  1
  Ca  Ca26  1  0.50009600  0.99984300  0.37492200  1
  Ca  Ca27  1  0.83341800  0.83342700  0.45835000  1
  Ca  Ca28  1  0.66710300  0.16644000  0.54169300  1
  Ca  Ca29  1  0.99989500  0.50008100  0.62503900  1
  Ca  Ca30  1  0.16885000  0.66233900  0.79028100  1
  Ca  Ca31  1  0.50002200  0.50007800  0.62503700  1
  Ca  Ca32  1  0.16643600  0.66710100  0.54169200  1
  Ca  Ca33  1  0.33486800  0.83263700  0.70837100  1
  Ca  Ca34  1  0.66230400  0.16888200  0.79028600  1
  Ca  Ca35  1  0.00012000  0.00013500  0.87504600  1
  Ca  Ca36  1  0.83735300  0.33179000  0.95972900  1
  Ca  Ca37  1  0.83252600  0.33480800  0.70825100  1
  Ca  Ca38  1  0.16892700  0.16896500  0.79019500  1
  Ca  Ca39  1  0.00065300  0.49958500  0.87507200  1
  Ca  Ca40  1  0.33179700  0.83732000  0.95970600  1
  Ca  Ca41  1  0.49959200  0.00065000  0.87507200  1
  Ca  Ca42  1  0.83353600  0.83351200  0.95723400  1
  S  S43  1  0.99490500  0.99462300  0.99907500  1
  S  S44  1  0.66778100  0.66957900  0.16683300  1
  S  S45  1  0.33953000  0.33731200  0.08453200  1
  S  S46  1  0.33330600  0.33489900  0.33337100  1
  S  S47  1  0.83136600  0.83343900  0.08366300  1
  S  S48  1  0.15692200  0.68126900  0.16562100  1
  S  S49  1  0.34153100  0.82171700  0.08483700  1
  S  S50  1  0.99998000  0.99852900  0.25006100  1
  S  S51  1  0.00000100  0.00158200  0.50000800  1
  S  S52  1  0.68047100  0.15624400  0.16544600  1
  S  S53  1  0.82084600  0.34064900  0.08459500  1
  S  S54  1  0.16206600  0.16022300  0.16531300  1
  S  S55  1  0.50340700  0.50568100  0.25144200  1
  S  S56  1  0.82733900  0.34314500  0.33236400  1
  S  S57  1  0.99048000  0.50718600  0.25126000  1
  S  S58  1  0.66666200  0.66515500  0.41665200  1
  S  S59  1  0.66657100  0.66849100  0.66647400  1
  S  S60  1  0.34227100  0.82668200  0.33218400  1
  S  S61  1  0.50654400  0.98959200  0.25109800  1
  S  S62  1  0.83026600  0.82798000  0.33198700  1
  S  S63  1  0.16984200  0.17215900  0.41808600  1
  S  S64  1  0.49372800  0.01020500  0.49896400  1
  S  S65  1  0.33331300  0.33189800  0.58326500  1
  S  S66  1  0.65738900  0.17357300  0.41787600  1
  S  S67  1  0.33383000  0.33386400  0.83353500  1
  S  S68  1  0.00931500  0.49307000  0.49879200  1
  S  S69  1  0.17289800  0.65651000  0.41770000  1
  S  S70  1  0.49675500  0.49447000  0.49857600  1
  S  S71  1  0.83644200  0.83870500  0.58466800  1
  S  S72  1  0.16029300  0.67713000  0.66552200  1
  S  S73  1  0.32428800  0.84008900  0.58446300  1
  S  S74  1  0.99934400  0.99968100  0.74979700  1
  S  S75  1  0.67607000  0.15960300  0.66527900  1
  S  S76  1  0.83943500  0.32344000  0.58428900  1
  S  S77  1  0.16350800  0.16096600  0.66508100  1
  S  S78  1  0.50598100  0.50573800  0.75110600  1
  S  S79  1  0.83286900  0.33270800  0.83362000  1
  S  S80  1  0.98772000  0.50702900  0.75090300  1
  S  S81  1  0.66516200  0.66511600  0.91640800  1
  S  S82  1  0.33268000  0.83286900  0.83362000  1
  S  S83  1  0.50706700  0.98785900  0.75097100  1
  S  S84  1  0.83397900  0.83394100  0.83351900  1
  S  S85  1  0.16734900  0.16739500  0.91689200  1
  S  S86  1  0.51039300  0.99588700  0.99889500  1
  S  S87  1  0.66413900  0.17055300  0.91656600  1
  S  S88  1  0.99596900  0.51054200  0.99897200  1
  S  S89  1  0.49959900  0.49993900  0.99986900  1
  S  S90  1  0.17053500  0.66412000  0.91656000  1
