# generated using pymatgen
data_Mg(BO4)4
_symmetry_space_group_name_H-M   'P 1'
_cell_length_a   15.28203400
_cell_length_b   7.15304700
_cell_length_c   11.38271745
_cell_angle_alpha   82.82944503
_cell_angle_beta   90.00000000
_cell_angle_gamma   90.00000000
_symmetry_Int_Tables_number   1
_chemical_formula_structural   Mg(BO4)4
_chemical_formula_sum   'Mg4 B16 O64'
_cell_volume   1234.54867650
_cell_formula_units_Z   4
loop_
 _symmetry_equiv_pos_site_id
 _symmetry_equiv_pos_as_xyz
  1  'x, y, z'
loop_
 _atom_site_type_symbol
 _atom_site_label
 _atom_site_symmetry_multiplicity
 _atom_site_fract_x
 _atom_site_fract_y
 _atom_site_fract_z
 _atom_site_occupancy
  Mg  Mg0  1  0.65799400  0.57720700  0.60886800  1
  Mg  Mg1  1  0.15799400  0.42279300  0.89113200  1
  Mg  Mg2  1  0.34200600  0.42279300  0.39113200  1
  Mg  Mg3  1  0.84200600  0.57720700  0.10886800  1
  B  B4  1  0.63959500  0.28248900  0.84473200  1
  B  B5  1  0.13959500  0.71751100  0.65526800  1
  B  B6  1  0.36040500  0.71751100  0.15526800  1
  B  B7  1  0.86040500  0.28248900  0.34473200  1
  B  B8  1  0.01407600  0.13196700  0.81975500  1
  B  B9  1  0.51407600  0.86803300  0.68024500  1
  B  B10  1  0.98592400  0.86803300  0.18024500  1
  B  B11  1  0.48592400  0.13196700  0.31975500  1
  B  B12  1  0.55373100  0.20101400  0.66794500  1
  B  B13  1  0.05373100  0.79898600  0.83205500  1
  B  B14  1  0.44626900  0.79898600  0.33205500  1
  B  B15  1  0.94626900  0.20101400  0.16794500  1
  B  B16  1  0.74738600  0.54636000  0.86483400  1
  B  B17  1  0.24738600  0.45364000  0.63516600  1
  B  B18  1  0.25261400  0.45364000  0.13516600  1
  B  B19  1  0.75261400  0.54636000  0.36483400  1
  O  O20  1  0.57989100  0.76016800  0.66187700  1
  O  O21  1  0.07989100  0.23983200  0.83812300  1
  O  O22  1  0.42010900  0.23983200  0.33812300  1
  O  O23  1  0.92010900  0.76016800  0.16187600  1
  O  O24  1  0.69051200  0.43443800  0.80216800  1
  O  O25  1  0.19051200  0.56556200  0.69783200  1
  O  O26  1  0.30948800  0.56556200  0.19783200  1
  O  O27  1  0.80948800  0.43443800  0.30216800  1
  O  O28  1  0.77167000  0.71310300  0.67062900  1
  O  O29  1  0.27167000  0.28689700  0.82937100  1
  O  O30  1  0.22833000  0.28689700  0.32937100  1
  O  O31  1  0.72833000  0.71310300  0.17062900  1
  O  O32  1  0.78450600  0.08559300  0.08758300  1
  O  O33  1  0.28450600  0.91440700  0.41241700  1
  O  O34  1  0.21549400  0.91440700  0.91241700  1
  O  O35  1  0.71549400  0.08559300  0.58758300  1
  O  O36  1  0.73052600  0.53004300  0.47471600  1
  O  O37  1  0.23052600  0.46995700  0.02528400  1
  O  O38  1  0.26947400  0.46995700  0.52528400  1
  O  O39  1  0.76947400  0.53004300  0.97471600  1
  O  O40  1  0.70162800  0.01582800  0.49556000  1
  O  O41  1  0.20162800  0.98417200  0.00444000  1
  O  O42  1  0.29837200  0.98417200  0.50444000  1
  O  O43  1  0.79837200  0.01582800  0.99556000  1
  O  O44  1  0.59318900  0.17301700  0.78106800  1
  O  O45  1  0.09318900  0.82698300  0.71893200  1
  O  O46  1  0.40681100  0.82698300  0.21893200  1
  O  O47  1  0.90681100  0.17301700  0.28106800  1
  O  O48  1  0.50688100  0.54282500  0.84597800  1
  O  O49  1  0.00688100  0.45717500  0.65402200  1
  O  O50  1  0.49311900  0.45717500  0.15402200  1
  O  O51  1  0.99311900  0.54282500  0.34597800  1
  O  O52  1  0.63735000  0.23517000  0.97293300  1
  O  O53  1  0.13735000  0.76483000  0.52706700  1
  O  O54  1  0.36265000  0.76483000  0.02706700  1
  O  O55  1  0.86265000  0.23517000  0.47293300  1
  O  O56  1  0.41008700  0.91616200  0.98904100  1
  O  O57  1  0.91008700  0.08383800  0.51095900  1
  O  O58  1  0.58991300  0.08383800  0.01095900  1
  O  O59  1  0.08991300  0.91616200  0.48904100  1
  O  O60  1  0.93608900  0.19353000  0.75065000  1
  O  O61  1  0.43608900  0.80647000  0.74935000  1
  O  O62  1  0.06391100  0.80647000  0.24935000  1
  O  O63  1  0.56391100  0.19353000  0.25065000  1
  O  O64  1  0.93529900  0.39764800  0.70914300  1
  O  O65  1  0.43529900  0.60235200  0.79085700  1
  O  O66  1  0.06470100  0.60235200  0.29085700  1
  O  O67  1  0.56470100  0.39764800  0.20914300  1
  O  O68  1  0.00310800  0.94077100  0.86303700  1
  O  O69  1  0.50310800  0.05922900  0.63696300  1
  O  O70  1  0.99689200  0.05922900  0.13696300  1
  O  O71  1  0.49689200  0.94077100  0.36303700  1
  O  O72  1  0.92837600  0.36814900  0.10085700  1
  O  O73  1  0.42837600  0.63185100  0.39914300  1
  O  O74  1  0.07162400  0.63185100  0.89914300  1
  O  O75  1  0.57162400  0.36814900  0.60085700  1
  O  O76  1  0.78939800  0.70065800  0.78700000  1
  O  O77  1  0.28939800  0.29934200  0.71300000  1
  O  O78  1  0.21060200  0.29934200  0.21300000  1
  O  O79  1  0.71060200  0.70065800  0.28700000  1
  O  O80  1  0.50000000  0.50000000  0.00000000  1
  O  O81  1  0.00000000  0.50000000  0.50000000  1
  O  O82  1  0.00000000  0.50000000  0.00000000  1
  O  O83  1  0.50000000  0.50000000  0.50000000  1
