# generated using pymatgen
data_Nd4Mo31O56
_symmetry_space_group_name_H-M   'P 1'
_cell_length_a   15.12717845
_cell_length_b   10.11621762
_cell_length_c   11.96454383
_cell_angle_alpha   65.23711089
_cell_angle_beta   50.86371339
_cell_angle_gamma   48.29566747
_symmetry_Int_Tables_number   1
_chemical_formula_structural   Nd4Mo31O56
_chemical_formula_sum   'Nd4 Mo31 O56'
_cell_volume   1060.27004163
_cell_formula_units_Z   1
loop_
 _symmetry_equiv_pos_site_id
 _symmetry_equiv_pos_as_xyz
  1  'x, y, z'
loop_
 _atom_site_type_symbol
 _atom_site_label
 _atom_site_symmetry_multiplicity
 _atom_site_fract_x
 _atom_site_fract_y
 _atom_site_fract_z
 _atom_site_occupancy
  Nd  Nd0  1  0.26065100  0.99067200  0.49198800  1
  Nd  Nd1  1  0.50462200  0.49992400  0.00354800  1
  Nd  Nd2  1  0.75032400  0.99931400  0.49952400  1
  Nd  Nd3  1  0.98644200  0.50378400  0.00567200  1
  Mo  Mo4  1  0.01684200  0.00610800  0.12441200  1
  Mo  Mo5  1  0.00451500  0.14081500  0.37959200  1
  Mo  Mo6  1  0.27810400  0.23607500  0.12101700  1
  Mo  Mo7  1  0.13230600  0.64372100  0.12096200  1
  Mo  Mo8  1  0.02704400  0.19128100  0.87680000  1
  Mo  Mo9  1  0.52150400  0.00404900  0.11985700  1
  Mo  Mo10  1  0.02780100  0.58863200  0.62199000  1
  Mo  Mo11  1  0.27174300  0.37774200  0.38103300  1
  Mo  Mo12  1  0.14953200  0.73286700  0.38034900  1
  Mo  Mo13  1  0.26710300  0.33690300  0.62552400  1
  Mo  Mo14  1  0.50725600  0.13975900  0.37786400  1
  Mo  Mo15  1  0.14996000  0.69856200  0.62127200  1
  Mo  Mo16  1  0.40099400  0.50058000  0.36995600  1
  Mo  Mo17  1  0.40310500  0.88206600  0.11985100  1
  Mo  Mo18  1  0.39924000  0.08836700  0.87938300  1
  Mo  Mo19  1  0.38124700  0.47016800  0.62257300  1
  Mo  Mo20  1  0.77642300  0.24974000  0.11852100  1
  Mo  Mo21  1  0.14221000  0.83450300  0.87552400  1
  Mo  Mo22  1  0.51993100  0.20068200  0.87944400  1
  Mo  Mo23  1  0.52966000  0.58779700  0.61984100  1
  Mo  Mo24  1  0.25639800  0.96976900  0.87734100  1
  Mo  Mo25  1  0.77302900  0.37805000  0.38120400  1
  Mo  Mo26  1  0.65224500  0.72944300  0.37512700  1
  Mo  Mo27  1  0.76804700  0.33388300  0.62711000  1
  Mo  Mo28  1  0.65091200  0.70075800  0.61937700  1
  Mo  Mo29  1  0.89272100  0.50589500  0.37589700  1
  Mo  Mo30  1  0.89821200  0.88477700  0.12065400  1
  Mo  Mo31  1  0.89794800  0.08966800  0.87982100  1
  Mo  Mo32  1  0.88276000  0.47197800  0.62227900  1
  Mo  Mo33  1  0.64231500  0.83905300  0.87902600  1
  Mo  Mo34  1  0.74868600  0.97137600  0.88183600  1
  O  O35  1  0.06739300  0.18992400  0.01240200  1
  O  O36  1  0.21119600  0.28944500  0.99960100  1
  O  O37  1  0.20429000  0.08528300  0.25259700  1
  O  O38  1  0.08201100  0.47243400  0.23901600  1
  O  O39  1  0.32326900  0.41479800  0.01126400  1
  O  O40  1  0.07481400  0.42785100  0.51103700  1
  O  O41  1  0.32049400  0.19718800  0.27139600  1
  O  O42  1  0.22576300  0.77550400  0.00005600  1
  O  O43  1  0.21742100  0.98927800  0.73128700  1
  O  O44  1  0.21230700  0.58405600  0.24351200  1
  O  O45  1  0.07316800  0.38810400  0.76841300  1
  O  O46  1  0.07088600  0.97174600  0.26158400  1
  O  O47  1  0.31639500  0.16383400  0.51429800  1
  O  O48  1  0.56398300  0.19585500  0.01273600  1
  O  O49  1  0.46134000  0.34265500  0.23497800  1
  O  O50  1  0.08690700  0.91180900  0.48930400  1
  O  O51  1  0.32103500  0.12564200  0.76082100  1
  O  O52  1  0.34264000  0.69588000  0.23088000  1
  O  O53  1  0.19275300  0.49863700  0.76731900  1
  O  O54  1  0.71118100  0.29027200  0.99980600  1
  O  O55  1  0.47584400  0.26965200  0.50436400  1
  O  O56  1  0.09020300  0.88866000  0.73263200  1
  O  O57  1  0.07548600  0.66702800  0.98772000  1
  O  O58  1  0.70549800  0.08290400  0.25916400  1
  O  O59  1  0.33001800  0.68948000  0.48741600  1
  O  O60  1  0.58123400  0.44417100  0.25020500  1
  O  O61  1  0.46108500  0.24970300  0.74219200  1
  O  O62  1  0.44504200  0.85048300  0.25415600  1
  O  O63  1  0.33236000  0.62475600  0.73921200  1
  O  O64  1  0.83687200  0.39976000  0.00873800  1
  O  O65  1  0.57490100  0.42734900  0.51194700  1
  O  O66  1  0.82316000  0.19683200  0.27034200  1
  O  O67  1  0.46389800  0.78638200  0.49772200  1
  O  O68  1  0.71215200  0.77810400  0.00780900  1
  O  O69  1  0.70790900  0.00054100  0.73328700  1
  O  O70  1  0.72757300  0.57926700  0.24016100  1
  O  O71  1  0.57196500  0.39047200  0.76852500  1
  O  O72  1  0.57183200  0.97022300  0.26139100  1
  O  O73  1  0.81654200  0.16089000  0.51533300  1
  O  O74  1  0.45551900  0.74870000  0.75692300  1
  O  O75  1  0.96252500  0.34474100  0.23623700  1
  O  O76  1  0.58805500  0.91189900  0.48802700  1
  O  O77  1  0.33219200  0.93169100  0.99226500  1
  O  O78  1  0.82213800  0.13220900  0.75933900  1
  O  O79  1  0.84306900  0.69957000  0.23263500  1
  O  O80  1  0.69491900  0.50089700  0.76580900  1
  O  O81  1  0.97724300  0.27452400  0.49877600  1
  O  O82  1  0.58976300  0.88887600  0.73185100  1
  O  O83  1  0.57036300  0.68090900  0.99409000  1
  O  O84  1  0.82980100  0.69197300  0.48693600  1
  O  O85  1  0.96213600  0.24923300  0.74337500  1
  O  O86  1  0.94638600  0.84739400  0.26427900  1
  O  O87  1  0.83180000  0.62537500  0.74024700  1
  O  O88  1  0.96126000  0.78804800  0.50103400  1
  O  O89  1  0.95312100  0.74672600  0.76048600  1
  O  O90  1  0.83346400  0.93015300  0.99061400  1
