# generated using pymatgen
data_Ti4(Fe2O5)3
_symmetry_space_group_name_H-M   'P 1'
_cell_length_a   5.21373900
_cell_length_b   5.52706068
_cell_length_c   21.41535622
_cell_angle_alpha   94.10799510
_cell_angle_beta   90.15075393
_cell_angle_gamma   118.08288810
_symmetry_Int_Tables_number   1
_chemical_formula_structural   Ti4(Fe2O5)3
_chemical_formula_sum   'Ti8 Fe12 O30'
_cell_volume   542.60147589
_cell_formula_units_Z   2
loop_
 _symmetry_equiv_pos_site_id
 _symmetry_equiv_pos_as_xyz
  1  'x, y, z'
loop_
 _atom_site_type_symbol
 _atom_site_label
 _atom_site_symmetry_multiplicity
 _atom_site_fract_x
 _atom_site_fract_y
 _atom_site_fract_z
 _atom_site_occupancy
  Ti  Ti0  1  0.76908500  0.57991900  0.96993900  1
  Ti  Ti1  1  0.10397400  0.21756400  0.73048600  1
  Ti  Ti2  1  0.08326600  0.18913300  0.87295900  1
  Ti  Ti3  1  0.98508900  0.98876500  0.57421200  1
  Ti  Ti4  1  0.60138000  0.19776900  0.37057400  1
  Ti  Ti5  1  0.29918800  0.59008800  0.47465100  1
  Ti  Ti6  1  0.20515000  0.39436800  0.17215400  1
  Ti  Ti7  1  0.92248500  0.82245200  0.12702200  1
  Fe  Fe8  1  0.49443300  0.99791100  0.92605200  1
  Fe  Fe9  1  0.39856100  0.80077000  0.77153400  1
  Fe  Fe10  1  0.79829200  0.60926300  0.82666600  1
  Fe  Fe11  1  0.69479200  0.39954700  0.52745600  1
  Fe  Fe12  1  0.70376000  0.39096900  0.67089000  1
  Fe  Fe13  1  0.40198000  0.79943600  0.62994100  1
  Fe  Fe14  1  0.30960200  0.61498500  0.33076900  1
  Fe  Fe15  1  0.00101400  0.99758400  0.42744700  1
  Fe  Fe16  1  0.89450500  0.78721900  0.27111800  1
  Fe  Fe17  1  0.60325000  0.19514600  0.22997200  1
  Fe  Fe18  1  0.49341100  0.99518700  0.06963600  1
  Fe  Fe19  1  0.20205500  0.40519100  0.02999200  1
  O  O20  1  0.03860600  0.82367300  0.91006600  1
  O  O21  1  0.66326000  0.90409100  0.84820300  1
  O  O22  1  0.56007000  0.75753500  0.98928200  1
  O  O23  1  0.05404600  0.42328500  0.81328400  1
  O  O24  1  0.97707500  0.31986300  0.94350100  1
  O  O25  1  0.70812500  0.05548600  0.71082800  1
  O  O26  1  0.50616600  0.36433300  0.88596400  1
  O  O27  1  0.23605500  0.11333400  0.64948800  1
  O  O28  1  0.11969000  0.97106400  0.78695800  1
  O  O29  1  0.70293700  0.64221100  0.61072800  1
  O  O30  1  0.55155300  0.48075500  0.74848600  1
  O  O31  1  0.23130200  0.22834400  0.51386300  1
  O  O32  1  0.12555400  0.55630700  0.69197300  1
  O  O33  1  0.83777500  0.31067500  0.44311200  1
  O  O34  1  0.75043500  0.15281800  0.59066300  1
  O  O35  1  0.28956200  0.82495300  0.41339200  1
  O  O36  1  0.16843100  0.71468500  0.54235600  1
  O  O37  1  0.86950900  0.44171700  0.31558100  1
  O  O38  1  0.69715600  0.76162100  0.49157300  1
  O  O39  1  0.43341900  0.50421700  0.24861400  1
  O  O40  1  0.35844400  0.36262600  0.38790000  1
  O  O41  1  0.88459500  0.04012600  0.21191000  1
  O  O42  1  0.74558400  0.90553900  0.34522200  1
  O  O43  1  0.48840900  0.64021500  0.11954500  1
  O  O44  1  0.30828200  0.95177200  0.29541000  1
  O  O45  1  0.01376400  0.69627300  0.04974600  1
  O  O46  1  0.95768800  0.57327500  0.18545400  1
  O  O47  1  0.48909000  0.24635700  0.00664200  1
  O  O48  1  0.33199600  0.10182000  0.15128500  1
  O  O49  1  0.93614700  0.15776600  0.09550200  1
