# generated using pymatgen
data_Ba6Nb5S17
_symmetry_space_group_name_H-M   'P 1'
_cell_length_a   8.93876300
_cell_length_b   8.99025480
_cell_length_c   9.07391745
_cell_angle_alpha   83.66242286
_cell_angle_beta   83.92819082
_cell_angle_gamma   82.06333966
_symmetry_Int_Tables_number   1
_chemical_formula_structural   Ba6Nb5S17
_chemical_formula_sum   'Ba6 Nb5 S17'
_cell_volume   714.75539593
_cell_formula_units_Z   1
loop_
 _symmetry_equiv_pos_site_id
 _symmetry_equiv_pos_as_xyz
  1  'x, y, z'
loop_
 _atom_site_type_symbol
 _atom_site_label
 _atom_site_symmetry_multiplicity
 _atom_site_fract_x
 _atom_site_fract_y
 _atom_site_fract_z
 _atom_site_occupancy
  Ba  Ba0  1  0.24707500  0.90817900  0.59147200  1
  Ba  Ba1  1  0.09440400  0.41510500  0.74079400  1
  Ba  Ba2  1  0.57848000  0.26049400  0.89692000  1
  Ba  Ba3  1  0.41519400  0.72660300  0.08480400  1
  Ba  Ba4  1  0.91280600  0.58827100  0.26116900  1
  Ba  Ba5  1  0.76001200  0.08812000  0.42579700  1
  Nb  Nb6  1  0.00221900  0.98782200  0.00177100  1
  Nb  Nb7  1  0.13419100  0.20012700  0.16530800  1
  Nb  Nb8  1  0.66479300  0.66736500  0.65914000  1
  Nb  Nb9  1  0.48077000  0.48063100  0.48153500  1
  Nb  Nb10  1  0.82588100  0.83729700  0.83467600  1
  S  S11  1  0.08871700  0.23505600  0.41684900  1
  S  S12  1  0.10623000  0.92177200  0.24735600  1
  S  S13  1  0.24499200  0.59251400  0.41859500  1
  S  S14  1  0.08387000  0.73596200  0.92386000  1
  S  S15  1  0.41648200  0.58662300  0.74909800  1
  S  S16  1  0.25967200  0.40550600  0.07599100  1
  S  S17  1  0.42307000  0.24517500  0.58867900  1
  S  S18  1  0.25930500  0.07343000  0.93768100  1
  S  S19  1  0.57505100  0.92504300  0.75416800  1
  S  S20  1  0.73888100  0.93056100  0.08901500  1
  S  S21  1  0.57426500  0.76670700  0.41645500  1
  S  S22  1  0.75414200  0.58275600  0.91713500  1
  S  S23  1  0.59700600  0.41623300  0.25104800  1
  S  S24  1  0.89962400  0.25571800  0.07591700  1
  S  S25  1  0.75801900  0.41899600  0.57941000  1
  S  S26  1  0.92392400  0.08617800  0.74991200  1
  S  S27  1  0.92099000  0.75502100  0.58211300  1
