# generated using pymatgen
data_BaNb8O14
_symmetry_space_group_name_H-M   'P 1'
_cell_length_a   9.67372200
_cell_length_b   10.45045900
_cell_length_c   13.16461752
_cell_angle_alpha   66.83483473
_cell_angle_beta   90.00000000
_cell_angle_gamma   90.00000000
_symmetry_Int_Tables_number   1
_chemical_formula_structural   BaNb8O14
_chemical_formula_sum   'Ba4 Nb32 O56'
_cell_volume   1223.57262616
_cell_formula_units_Z   4
loop_
 _symmetry_equiv_pos_site_id
 _symmetry_equiv_pos_as_xyz
  1  'x, y, z'
loop_
 _atom_site_type_symbol
 _atom_site_label
 _atom_site_symmetry_multiplicity
 _atom_site_fract_x
 _atom_site_fract_y
 _atom_site_fract_z
 _atom_site_occupancy
  Ba  Ba0  1  0.98580700  0.62039000  0.72808100  1
  Ba  Ba1  1  0.01419300  0.37961000  0.27191900  1
  Ba  Ba2  1  0.51419300  0.12039000  0.72808100  1
  Ba  Ba3  1  0.48580700  0.87961000  0.27191900  1
  Nb  Nb4  1  0.11651600  0.66153200  0.99734200  1
  Nb  Nb5  1  0.11643600  0.04101600  0.24104600  1
  Nb  Nb6  1  0.11842300  0.28785300  0.75773600  1
  Nb  Nb7  1  0.11192200  0.72514200  0.36586500  1
  Nb  Nb8  1  0.12306800  0.11086500  0.63735700  1
  Nb  Nb9  1  0.12489700  0.99142700  0.86791100  1
  Nb  Nb10  1  0.12226100  0.85319300  0.13427200  1
  Nb  Nb11  1  0.15402800  0.91899700  0.50695700  1
  Nb  Nb12  1  0.34597200  0.41899700  0.50695700  1
  Nb  Nb13  1  0.37510300  0.49142700  0.86791100  1
  Nb  Nb14  1  0.37773900  0.35319300  0.13427200  1
  Nb  Nb15  1  0.37693200  0.61086500  0.63735700  1
  Nb  Nb16  1  0.38807800  0.22514200  0.36586500  1
  Nb  Nb17  1  0.38157700  0.78785300  0.75773600  1
  Nb  Nb18  1  0.38356400  0.54101600  0.24104600  1
  Nb  Nb19  1  0.38348400  0.16153200  0.99734200  1
  Nb  Nb20  1  0.61651600  0.83846800  0.00265800  1
  Nb  Nb21  1  0.61643600  0.45898400  0.75895400  1
  Nb  Nb22  1  0.61842300  0.21214700  0.24226400  1
  Nb  Nb23  1  0.61192200  0.77485800  0.63413500  1
  Nb  Nb24  1  0.62306800  0.38913500  0.36264300  1
  Nb  Nb25  1  0.62226100  0.64680700  0.86572800  1
  Nb  Nb26  1  0.62489700  0.50857300  0.13208900  1
  Nb  Nb27  1  0.65402800  0.58100300  0.49304300  1
  Nb  Nb28  1  0.84597200  0.08100300  0.49304300  1
  Nb  Nb29  1  0.87510300  0.00857300  0.13208900  1
  Nb  Nb30  1  0.87773900  0.14680700  0.86572800  1
  Nb  Nb31  1  0.87693200  0.88913500  0.36264300  1
  Nb  Nb32  1  0.88807800  0.27485800  0.63413500  1
  Nb  Nb33  1  0.88157700  0.71214700  0.24226400  1
  Nb  Nb34  1  0.88356400  0.95898400  0.75895400  1
  Nb  Nb35  1  0.88348400  0.33846800  0.00265800  1
  O  O36  1  0.00000000  0.00000000  0.00000000  1
  O  O37  1  0.00000000  0.50000000  0.00000000  1
  O  O38  1  0.98706600  0.22905200  0.50743100  1
  O  O39  1  0.01293400  0.77094800  0.49256900  1
  O  O40  1  0.99970100  0.56972500  0.36223800  1
  O  O41  1  0.00097100  0.94812500  0.61731400  1
  O  O42  1  0.00697900  0.81093100  0.87438900  1
  O  O43  1  0.00631200  0.68293800  0.12368600  1
  O  O44  1  0.22813400  0.81914300  0.00126000  1
  O  O45  1  0.24682400  0.46876400  0.75121200  1
  O  O46  1  0.24445900  0.21792600  0.25012800  1
  O  O47  1  0.24560300  0.52169500  0.12669500  1
  O  O48  1  0.24165000  0.64501400  0.87991700  1
  O  O49  1  0.25590300  0.27559200  0.63159600  1
  O  O50  1  0.23825100  0.90276200  0.37749800  1
  O  O51  1  0.25721300  0.58533000  0.49772000  1
  O  O52  1  0.24278700  0.08533000  0.49772000  1
  O  O53  1  0.24409700  0.77559200  0.63159600  1
  O  O54  1  0.26174900  0.40276200  0.37749800  1
  O  O55  1  0.25835000  0.14501400  0.87991700  1
  O  O56  1  0.25439700  0.02169500  0.12669500  1
  O  O57  1  0.25317600  0.96876400  0.75121200  1
  O  O58  1  0.25554100  0.71792600  0.25012800  1
  O  O59  1  0.27186600  0.31914300  0.00126000  1
  O  O60  1  0.49368800  0.18293800  0.12368600  1
  O  O61  1  0.49302100  0.31093100  0.87438900  1
  O  O62  1  0.50029900  0.06972500  0.36223800  1
  O  O63  1  0.49902900  0.44812500  0.61731400  1
  O  O64  1  0.50000000  0.50000000  0.00000000  1
  O  O65  1  0.50000000  0.00000000  0.00000000  1
  O  O66  1  0.48706600  0.27094800  0.49256900  1
  O  O67  1  0.51293400  0.72905200  0.50743100  1
  O  O68  1  0.50097100  0.55187500  0.38268600  1
  O  O69  1  0.49970100  0.93027500  0.63776200  1
  O  O70  1  0.50697900  0.68906900  0.12561100  1
  O  O71  1  0.50631200  0.81706200  0.87631400  1
  O  O72  1  0.72813400  0.68085700  0.99874000  1
  O  O73  1  0.74682400  0.03123600  0.24878800  1
  O  O74  1  0.74445900  0.28207400  0.74987200  1
  O  O75  1  0.74560300  0.97830500  0.87330500  1
  O  O76  1  0.74165000  0.85498600  0.12008300  1
  O  O77  1  0.73825100  0.59723800  0.62250200  1
  O  O78  1  0.75590300  0.22440800  0.36840400  1
  O  O79  1  0.75721300  0.91467000  0.50228000  1
  O  O80  1  0.74278700  0.41467000  0.50228000  1
  O  O81  1  0.76174900  0.09723800  0.62250200  1
  O  O82  1  0.74409700  0.72440800  0.36840400  1
  O  O83  1  0.75439700  0.47830500  0.87330500  1
  O  O84  1  0.75835000  0.35498600  0.12008300  1
  O  O85  1  0.75317600  0.53123600  0.24878800  1
  O  O86  1  0.75554100  0.78207400  0.74987200  1
  O  O87  1  0.77186600  0.18085700  0.99874000  1
  O  O88  1  0.99302100  0.18906900  0.12561100  1
  O  O89  1  0.99368800  0.31706200  0.87631400  1
  O  O90  1  0.99902900  0.05187500  0.38268600  1
  O  O91  1  0.00029900  0.43027500  0.63776200  1
