# generated using pymatgen
data_Bi15PO25
_symmetry_space_group_name_H-M   'P 1'
_cell_length_a   17.15308432
_cell_length_b   17.15308432
_cell_length_c   17.15308518
_cell_angle_alpha   50.47160449
_cell_angle_beta   50.47160449
_cell_angle_gamma   50.47160481
_symmetry_Int_Tables_number   1
_chemical_formula_structural   Bi15PO25
_chemical_formula_sum   'Bi60 P4 O100'
_cell_volume   2766.11614003
_cell_formula_units_Z   4
loop_
 _symmetry_equiv_pos_site_id
 _symmetry_equiv_pos_as_xyz
  1  'x, y, z'
loop_
 _atom_site_type_symbol
 _atom_site_label
 _atom_site_symmetry_multiplicity
 _atom_site_fract_x
 _atom_site_fract_y
 _atom_site_fract_z
 _atom_site_occupancy
  Bi  Bi0  1  0.27292900  0.11764300  0.42086600  1
  Bi  Bi1  1  0.20009700  0.02278400  0.72243800  1
  Bi  Bi2  1  0.51603000  0.17340300  0.32106600  1
  Bi  Bi3  1  0.41265100  0.11250700  0.60718900  1
  Bi  Bi4  1  0.20729000  0.07657700  0.90783900  1
  Bi  Bi5  1  0.69619600  0.20098900  0.35341900  1
  Bi  Bi6  1  0.50512300  0.01309000  0.81255000  1
  Bi  Bi7  1  0.47273600  0.31828500  0.61845300  1
  Bi  Bi8  1  0.97653300  0.11230600  0.31760000  1
  Bi  Bi9  1  0.75077600  0.09479900  0.59976900  1
  Bi  Bi10  1  0.40974200  0.20799300  0.91542500  1
  Bi  Bi11  1  0.71765500  0.01746000  0.87078500  1
  Bi  Bi12  1  0.71924400  0.37365800  0.51848900  1
  Bi  Bi13  1  0.99416300  0.15468400  0.50379700  1
  Bi  Bi14  1  0.61258700  0.30883700  0.81682100  1
  Bi  Bi15  1  0.42086600  0.27292900  0.11764300  1
  Bi  Bi16  1  0.92191400  0.09876400  0.79043400  1
  Bi  Bi17  1  0.89764700  0.39348400  0.55632700  1
  Bi  Bi18  1  0.72243800  0.20009700  0.02278400  1
  Bi  Bi19  1  0.67916900  0.51482200  0.81566000  1
  Bi  Bi20  1  0.17340300  0.32106600  0.51603000  1
  Bi  Bi21  1  0.96959400  0.27940300  0.80193800  1
  Bi  Bi22  1  0.60718900  0.41265100  0.11250700  1
  Bi  Bi23  1  0.90783900  0.20729000  0.07657700  1
  Bi  Bi24  1  0.91736100  0.56912200  0.71806100  1
  Bi  Bi25  1  0.20098900  0.35341900  0.69619600  1
  Bi  Bi26  1  0.81255000  0.50512300  0.01309000  1
  Bi  Bi27  1  0.61845300  0.47273600  0.31828500  1
  Bi  Bi28  1  0.11230600  0.31760000  0.97653300  1
  Bi  Bi29  1  0.09479900  0.59976900  0.75077600  1
  Bi  Bi30  1  0.91542500  0.40974200  0.20799300  1
  Bi  Bi31  1  0.87078500  0.71765500  0.01746000  1
  Bi  Bi32  1  0.37365800  0.51848900  0.71924400  1
  Bi  Bi33  1  0.15468400  0.50379700  0.99416300  1
  Bi  Bi34  1  0.81682100  0.61258700  0.30883700  1
  Bi  Bi35  1  0.11764300  0.42086600  0.27292900  1
  Bi  Bi36  1  0.09876400  0.79043400  0.92191400  1
  Bi  Bi37  1  0.39348400  0.55632700  0.89764700  1
  Bi  Bi38  1  0.02278400  0.72243800  0.20009700  1
  Bi  Bi39  1  0.81566000  0.67916900  0.51482200  1
  Bi  Bi40  1  0.32106600  0.51603000  0.17340300  1
  Bi  Bi41  1  0.27940300  0.80193800  0.96959400  1
  Bi  Bi42  1  0.11250700  0.60718900  0.41265100  1
  Bi  Bi43  1  0.07657700  0.90783900  0.20729000  1
  Bi  Bi44  1  0.56912200  0.71806100  0.91736100  1
  Bi  Bi45  1  0.35341900  0.69619600  0.20098900  1
  Bi  Bi46  1  0.01309000  0.81255000  0.50512300  1
  Bi  Bi47  1  0.31828500  0.61845300  0.47273600  1
  Bi  Bi48  1  0.31760000  0.97653300  0.11230600  1
  Bi  Bi49  1  0.59976900  0.75077600  0.09479900  1
  Bi  Bi50  1  0.20799300  0.91542500  0.40974200  1
  Bi  Bi51  1  0.01746000  0.87078500  0.71765500  1
  Bi  Bi52  1  0.51848900  0.71924400  0.37365800  1
  Bi  Bi53  1  0.50379700  0.99416300  0.15468400  1
  Bi  Bi54  1  0.30883700  0.81682100  0.61258700  1
  Bi  Bi55  1  0.79043400  0.92191400  0.09876400  1
  Bi  Bi56  1  0.55632700  0.89764700  0.39348400  1
  Bi  Bi57  1  0.51482200  0.81566000  0.67916900  1
  Bi  Bi58  1  0.80193800  0.96959400  0.27940300  1
  Bi  Bi59  1  0.71806100  0.91736100  0.56912200  1
  P  P60  1  0.20014300  0.20014300  0.20014300  1
  P  P61  1  0.40017900  0.40017900  0.40017900  1
  P  P62  1  0.59998400  0.59998400  0.59998400  1
  P  P63  1  0.79954400  0.79954400  0.79954400  1
  O  O64  1  0.07453500  0.07453500  0.07453500  1
  O  O65  1  0.16484000  0.16484000  0.16484000  1
  O  O66  1  0.03707000  0.03975800  0.44348200  1
  O  O67  1  0.44348200  0.03707000  0.03975800  1
  O  O68  1  0.26839800  0.09460900  0.27183800  1
  O  O69  1  0.28117400  0.28117400  0.28117400  1
  O  O70  1  0.44551600  0.07047200  0.33046300  1
  O  O71  1  0.27391300  0.16018500  0.51794000  1
  O  O72  1  0.65039900  0.03097100  0.27523100  1
  O  O73  1  0.83813800  0.10800500  0.10831500  1
  O  O74  1  0.10800500  0.10831500  0.83813800  1
  O  O75  1  0.36515100  0.36515100  0.36515100  1
  O  O76  1  0.24384500  0.24389200  0.63430300  1
  O  O77  1  0.63430300  0.24384500  0.24389200  1
  O  O78  1  0.67160700  0.05765900  0.42764600  1
  O  O79  1  0.47046200  0.29510300  0.47016300  1
  O  O80  1  0.86752500  0.12999400  0.24835300  1
  O  O81  1  0.38220800  0.12639600  0.73943700  1
  O  O82  1  0.63734200  0.04190000  0.63852400  1
  O  O83  1  0.32313200  0.07419400  0.95163000  1
  O  O84  1  0.82853300  0.07455100  0.45283600  1
  O  O85  1  0.48036400  0.48036400  0.48036400  1
  O  O86  1  0.64532100  0.26892400  0.53062700  1
  O  O87  1  0.52158500  0.14391100  0.78296100  1
  O  O88  1  0.47171400  0.35820800  0.71771500  1
  O  O89  1  0.85271200  0.22945100  0.47588000  1
  O  O90  1  0.09460900  0.27183800  0.26839800  1
  O  O91  1  0.27183800  0.26839800  0.09460900  1
  O  O92  1  0.92840100  0.04265800  0.67280000  1
  O  O93  1  0.54520200  0.18124200  0.92184600  1
  O  O94  1  0.56493200  0.56493200  0.56493200  1
  O  O95  1  0.43938200  0.43796100  0.84203600  1
  O  O96  1  0.84203600  0.43938200  0.43796100  1
  O  O97  1  0.75573000  0.11646800  0.87400400  1
  O  O98  1  0.87584200  0.25038100  0.62697100  1
  O  O99  1  0.67047900  0.49458000  0.66974600  1
  O  O100  1  0.07047200  0.33046300  0.44551600  1
  O  O101  1  0.58020800  0.32040300  0.94990700  1
  O  O102  1  0.85014500  0.22441800  0.85044700  1
  O  O103  1  0.51794000  0.27391300  0.16018500  1
  O  O104  1  0.03097100  0.27523100  0.65039900  1
  O  O105  1  0.68079100  0.68079100  0.68079100  1
  O  O106  1  0.84977700  0.47052500  0.72979300  1
  O  O107  1  0.72157000  0.34535700  0.98446600  1
  O  O108  1  0.67152400  0.55662900  0.91981700  1
  O  O109  1  0.05765900  0.42764600  0.67160700  1
  O  O110  1  0.29510300  0.47016300  0.47046200  1
  O  O111  1  0.47016300  0.47046200  0.29510300  1
  O  O112  1  0.12999400  0.24835300  0.86752500  1
  O  O113  1  0.73943700  0.38220800  0.12639600  1
  O  O114  1  0.76477900  0.76477900  0.76477900  1
  O  O115  1  0.63852400  0.63734200  0.04190000  1
  O  O116  1  0.04190000  0.63852400  0.63734200  1
  O  O117  1  0.95163000  0.32313200  0.07419400  1
  O  O118  1  0.07455100  0.45283600  0.82853300  1
  O  O119  1  0.87148800  0.69465500  0.86862600  1
  O  O120  1  0.26892400  0.53062700  0.64532100  1
  O  O121  1  0.78296100  0.52158500  0.14391100  1
  O  O122  1  0.03975800  0.44348200  0.03707000  1
  O  O123  1  0.71771500  0.47171400  0.35820800  1
  O  O124  1  0.22945100  0.47588000  0.85271200  1
  O  O125  1  0.87819600  0.87819600  0.87819600  1
  O  O126  1  0.04265800  0.67280000  0.92840100  1
  O  O127  1  0.92184600  0.54520200  0.18124200  1
  O  O128  1  0.87400400  0.75573000  0.11646800  1
  O  O129  1  0.25038100  0.62697100  0.87584200  1
  O  O130  1  0.49458000  0.66974600  0.67047900  1
  O  O131  1  0.66974600  0.67047900  0.49458000  1
  O  O132  1  0.33046300  0.44551600  0.07047200  1
  O  O133  1  0.94990700  0.58020800  0.32040300  1
  O  O134  1  0.94598100  0.94598100  0.94598100  1
  O  O135  1  0.85044700  0.85014500  0.22441800  1
  O  O136  1  0.22441800  0.85044700  0.85014500  1
  O  O137  1  0.16018500  0.51794000  0.27391300  1
  O  O138  1  0.27523100  0.65039900  0.03097100  1
  O  O139  1  0.10831500  0.83813800  0.10800500  1
  O  O140  1  0.47052500  0.72979300  0.84977700  1
  O  O141  1  0.98446600  0.72157000  0.34535700  1
  O  O142  1  0.24389200  0.63430300  0.24384500  1
  O  O143  1  0.91981700  0.67152400  0.55662900  1
  O  O144  1  0.42764600  0.67160700  0.05765900  1
  O  O145  1  0.24835300  0.86752500  0.12999400  1
  O  O146  1  0.12639600  0.73943700  0.38220800  1
  O  O147  1  0.07419400  0.95163000  0.32313200  1
  O  O148  1  0.45283600  0.82853300  0.07455100  1
  O  O149  1  0.69465500  0.86862600  0.87148800  1
  O  O150  1  0.86862600  0.87148800  0.69465500  1
  O  O151  1  0.53062700  0.64532100  0.26892400  1
  O  O152  1  0.14391100  0.78296100  0.52158500  1
  O  O153  1  0.35820800  0.71771500  0.47171400  1
  O  O154  1  0.47588000  0.85271200  0.22945100  1
  O  O155  1  0.67280000  0.92840100  0.04265800  1
  O  O156  1  0.18124200  0.92184600  0.54520200  1
  O  O157  1  0.43796100  0.84203600  0.43938200  1
  O  O158  1  0.11646800  0.87400400  0.75573000  1
  O  O159  1  0.62697100  0.87584200  0.25038100  1
  O  O160  1  0.32040300  0.94990700  0.58020800  1
  O  O161  1  0.72979300  0.84977700  0.47052500  1
  O  O162  1  0.34535700  0.98446600  0.72157000  1
  O  O163  1  0.55662900  0.91981700  0.67152400  1
