# generated using pymatgen
data_Gd5AgSe8
_symmetry_space_group_name_H-M   'P 1'
_cell_length_a   7.61331895
_cell_length_b   7.61331895
_cell_length_c   7.61331895
_cell_angle_alpha   109.76909722
_cell_angle_beta   109.76909722
_cell_angle_gamma   108.87709608
_symmetry_Int_Tables_number   1
_chemical_formula_structural   Gd5AgSe8
_chemical_formula_sum   'Gd5 Ag1 Se8'
_cell_volume   339.67626493
_cell_formula_units_Z   1
loop_
 _symmetry_equiv_pos_site_id
 _symmetry_equiv_pos_as_xyz
  1  'x, y, z'
loop_
 _atom_site_type_symbol
 _atom_site_label
 _atom_site_symmetry_multiplicity
 _atom_site_fract_x
 _atom_site_fract_y
 _atom_site_fract_z
 _atom_site_occupancy
  Gd  Gd0  1  0.36723900  0.98872000  0.11609500  1
  Gd  Gd1  1  0.01128000  0.12737500  0.37851900  1
  Gd  Gd2  1  0.87262500  0.25114400  0.88390500  1
  Gd  Gd3  1  0.50000000  0.50000000  0.00000000  1
  Gd  Gd4  1  0.74885600  0.63276100  0.62148100  1
  Ag  Ag5  1  0.25000000  0.75000000  0.50000000  1
  Se  Se6  1  0.61830300  0.86909500  0.88900900  1
  Se  Se7  1  0.13090500  0.01991400  0.74920800  1
  Se  Se8  1  0.27070600  0.38169700  0.25079200  1
  Se  Se9  1  0.49042800  0.24798500  0.60837900  1
  Se  Se10  1  0.11795000  0.50957200  0.75755700  1
  Se  Se11  1  0.75201500  0.36039400  0.24244300  1
  Se  Se12  1  0.98008600  0.72929400  0.11099100  1
  Se  Se13  1  0.63960600  0.88205000  0.39162100  1
