# generated using pymatgen
data_Pr3(ZnAs3)2
_symmetry_space_group_name_H-M   'P 1'
_cell_length_a   5.74612300
_cell_length_b   7.78428400
_cell_length_c   12.43290137
_cell_angle_alpha   74.50368414
_cell_angle_beta   90.00000000
_cell_angle_gamma   90.00000000
_symmetry_Int_Tables_number   1
_chemical_formula_structural   Pr3(ZnAs3)2
_chemical_formula_sum   'Pr6 Zn4 As12'
_cell_volume   535.90071767
_cell_formula_units_Z   2
loop_
 _symmetry_equiv_pos_site_id
 _symmetry_equiv_pos_as_xyz
  1  'x, y, z'
loop_
 _atom_site_type_symbol
 _atom_site_label
 _atom_site_symmetry_multiplicity
 _atom_site_fract_x
 _atom_site_fract_y
 _atom_site_fract_z
 _atom_site_occupancy
  Pr  Pr0  1  0.25000000  0.05560000  0.89509700  1
  Pr  Pr1  1  0.25000000  0.28896600  0.15940400  1
  Pr  Pr2  1  0.25000000  0.72741500  0.51358000  1
  Pr  Pr3  1  0.75000000  0.71103400  0.84059600  1
  Pr  Pr4  1  0.75000000  0.94440000  0.10490300  1
  Pr  Pr5  1  0.75000000  0.27258500  0.48642000  1
  Zn  Zn6  1  0.25000000  0.45304400  0.87120800  1
  Zn  Zn7  1  0.25000000  0.08102300  0.63117900  1
  Zn  Zn8  1  0.75000000  0.54695600  0.12879200  1
  Zn  Zn9  1  0.75000000  0.91897700  0.36882100  1
  As  As10  1  0.25000000  0.78250900  0.75888100  1
  As  As11  1  0.25000000  0.68877700  0.04636900  1
  As  As12  1  0.25000000  0.88933100  0.17374500  1
  As  As13  1  0.25000000  0.48888300  0.35006000  1
  As  As14  1  0.25000000  0.15884500  0.42508000  1
  As  As15  1  0.25000000  0.37339800  0.67824200  1
  As  As16  1  0.75000000  0.84115500  0.57492000  1
  As  As17  1  0.75000000  0.11066900  0.82625500  1
  As  As18  1  0.75000000  0.31122300  0.95363100  1
  As  As19  1  0.75000000  0.62660200  0.32175800  1
  As  As20  1  0.75000000  0.21749100  0.24111900  1
  As  As21  1  0.75000000  0.51111700  0.64994000  1
