# generated using pymatgen
data_Tm10Ti6O27
_symmetry_space_group_name_H-M   'P 1'
_cell_length_a   7.24676479
_cell_length_b   7.24676479
_cell_length_c   23.96132633
_cell_angle_alpha   81.83883706
_cell_angle_beta   81.83883706
_cell_angle_gamma   59.97163853
_symmetry_Int_Tables_number   1
_chemical_formula_structural   Tm10Ti6O27
_chemical_formula_sum   'Tm20 Ti12 O54'
_cell_volume   1074.71398354
_cell_formula_units_Z   2
loop_
 _symmetry_equiv_pos_site_id
 _symmetry_equiv_pos_as_xyz
  1  'x, y, z'
loop_
 _atom_site_type_symbol
 _atom_site_label
 _atom_site_symmetry_multiplicity
 _atom_site_fract_x
 _atom_site_fract_y
 _atom_site_fract_z
 _atom_site_occupancy
  Tm  Tm0  1  0.98836000  0.98836000  0.99743500  1
  Tm  Tm1  1  0.23627400  0.23627400  0.25498400  1
  Tm  Tm2  1  0.11812600  0.63066000  0.12426600  1
  Tm  Tm3  1  0.63342300  0.63342300  0.11277900  1
  Tm  Tm4  1  0.73082300  0.73082300  0.24474500  1
  Tm  Tm5  1  0.34978400  0.87694800  0.37654200  1
  Tm  Tm6  1  0.11230100  0.11230100  0.13432500  1
  Tm  Tm7  1  0.63066000  0.11812600  0.12426600  1
  Tm  Tm8  1  0.86736900  0.86736900  0.39273600  1
  Tm  Tm9  1  0.01160900  0.01160900  0.50482400  1
  Tm  Tm10  1  0.35977000  0.35977000  0.38949900  1
  Tm  Tm11  1  0.62151000  0.11412400  0.63019900  1
  Tm  Tm12  1  0.87694800  0.34978400  0.37654200  1
  Tm  Tm13  1  0.11743600  0.11743600  0.63477500  1
  Tm  Tm14  1  0.87444200  0.35781000  0.86703500  1
  Tm  Tm15  1  0.26805200  0.26805200  0.74998400  1
  Tm  Tm16  1  0.37349800  0.37349800  0.88013300  1
  Tm  Tm17  1  0.11412400  0.62151000  0.63019900  1
  Tm  Tm18  1  0.52206100  0.52206100  0.99071700  1
  Tm  Tm19  1  0.35781000  0.87444200  0.86703500  1
  Ti  Ti20  1  0.48134800  0.00907400  0.99980600  1
  Ti  Ti21  1  0.00907400  0.48134800  0.99980600  1
  Ti  Ti22  1  0.74483400  0.24442700  0.25487700  1
  Ti  Ti23  1  0.24442700  0.74483400  0.25487700  1
  Ti  Ti24  1  0.50167800  0.50167800  0.49959900  1
  Ti  Ti25  1  0.98903300  0.50122400  0.50227600  1
  Ti  Ti26  1  0.50122400  0.98903300  0.50227600  1
  Ti  Ti27  1  0.74328700  0.74328700  0.75131000  1
  Ti  Ti28  1  0.24538900  0.74758900  0.74927900  1
  Ti  Ti29  1  0.74758900  0.24538900  0.74927900  1
  Ti  Ti30  1  0.61944800  0.61944800  0.62435000  1
  Ti  Ti31  1  0.87935900  0.87935900  0.87624100  1
  O  O32  1  0.28518400  0.28518400  0.16135700  1
  O  O33  1  0.63670600  0.19159600  0.02952900  1
  O  O34  1  0.74687700  0.31257500  0.15521200  1
  O  O35  1  0.19159600  0.63670600  0.02952900  1
  O  O36  1  0.53381700  0.53381700  0.41004600  1
  O  O37  1  0.99695200  0.41895500  0.07735500  1
  O  O38  1  0.52979100  0.52979100  0.24544000  1
  O  O39  1  0.88615600  0.41352200  0.28557000  1
  O  O40  1  0.68912200  0.68912200  0.01754800  1
  O  O41  1  0.31257500  0.74687700  0.15521200  1
  O  O42  1  0.41352200  0.88615600  0.28557000  1
  O  O43  1  0.41895500  0.99695200  0.07735500  1
  O  O44  1  0.76796200  0.76796200  0.15478200  1
  O  O45  1  0.08319900  0.62990100  0.23839200  1
  O  O46  1  0.99830100  0.52758800  0.41581300  1
  O  O47  1  0.74341600  0.74341600  0.66868700  1
  O  O48  1  0.18603400  0.70551200  0.33577400  1
  O  O49  1  0.81618000  0.81618000  0.49055600  1
  O  O50  1  0.20883000  0.56687300  0.50093100  1
  O  O51  1  0.06000900  0.06000900  0.23206600  1
  O  O52  1  0.62990100  0.08319900  0.23839200  1
  O  O53  1  0.97345600  0.97345600  0.09010800  1
  O  O54  1  0.52758800  0.99830100  0.41581300  1
  O  O55  1  0.33818500  0.75213300  0.66554500  1
  O  O56  1  0.70551200  0.18603400  0.33577400  1
  O  O57  1  0.02409500  0.02409500  0.41486200  1
  O  O58  1  0.96483300  0.96483300  0.59748600  1
  O  O59  1  0.37460800  0.80618400  0.49539200  1
  O  O60  1  0.56687300  0.20883000  0.50093100  1
  O  O61  1  0.02289900  0.02289900  0.89889400  1
  O  O62  1  0.49823500  0.92824700  0.58507500  1
  O  O63  1  0.05489900  0.05489900  0.72883600  1
  O  O64  1  0.44017700  0.85397000  0.76879300  1
  O  O65  1  0.19827900  0.19827900  0.50491300  1
  O  O66  1  0.80618400  0.37460800  0.49539200  1
  O  O67  1  0.22490200  0.22490200  0.34619600  1
  O  O68  1  0.75213300  0.33818500  0.66554500  1
  O  O69  1  0.92824700  0.49823500  0.58507500  1
  O  O70  1  0.22873000  0.22873000  0.84148300  1
  O  O71  1  0.27823700  0.27823700  0.65863700  1
  O  O72  1  0.64814200  0.06184900  0.72694300  1
  O  O73  1  0.64808000  0.01910400  0.92736600  1
  O  O74  1  0.85397000  0.44017700  0.76879300  1
  O  O75  1  0.72802700  0.18262400  0.82914800  1
  O  O76  1  0.29466700  0.29466700  0.96947700  1
  O  O77  1  0.44403700  0.44403700  0.75904500  1
  O  O78  1  0.06184900  0.64814200  0.72694300  1
  O  O79  1  0.48725400  0.48725400  0.58541900  1
  O  O80  1  0.01910400  0.64808000  0.92736600  1
  O  O81  1  0.18262400  0.72802700  0.82914800  1
  O  O82  1  0.53587200  0.53587200  0.90035600  1
  O  O83  1  0.90211700  0.33405700  0.96645200  1
  O  O84  1  0.33405700  0.90211700  0.96645200  1
  O  O85  1  0.75847700  0.75847700  0.83273300  1
