# generated using pymatgen
data_Cr2Bi28O47
_symmetry_space_group_name_H-M   'P 1'
_cell_length_a   8.86324900
_cell_length_b   8.87671661
_cell_length_c   17.12937181
_cell_angle_alpha   90.10120184
_cell_angle_beta   90.43196589
_cell_angle_gamma   90.31671016
_symmetry_Int_Tables_number   1
_chemical_formula_structural   Cr2Bi28O47
_chemical_formula_sum   'Cr2 Bi28 O47'
_cell_volume   1347.61877969
_cell_formula_units_Z   1
loop_
 _symmetry_equiv_pos_site_id
 _symmetry_equiv_pos_as_xyz
  1  'x, y, z'
loop_
 _atom_site_type_symbol
 _atom_site_label
 _atom_site_symmetry_multiplicity
 _atom_site_fract_x
 _atom_site_fract_y
 _atom_site_fract_z
 _atom_site_occupancy
  Cr  Cr0  1  0.00197100  0.95274800  0.97851900  1
  Cr  Cr1  1  0.53847800  0.45091600  0.47856600  1
  Bi  Bi2  1  0.70376900  0.10705700  0.83333200  1
  Bi  Bi3  1  0.61134200  0.79639500  0.66725800  1
  Bi  Bi4  1  0.49807200  0.49061900  0.83999700  1
  Bi  Bi5  1  0.39317300  0.19780800  0.66614600  1
  Bi  Bi6  1  0.28335000  0.94760300  0.49954700  1
  Bi  Bi7  1  0.30174300  0.88702500  0.82889700  1
  Bi  Bi8  1  0.20645900  0.61058900  0.33052900  1
  Bi  Bi9  1  0.10993900  0.29551300  0.16712300  1
  Bi  Bi10  1  0.20278100  0.60878800  0.66769200  1
  Bi  Bi11  1  0.05664400  0.28468900  0.49821200  1
  Bi  Bi12  1  0.11126500  0.29247200  0.82861600  1
  Bi  Bi13  1  0.99956300  0.99456400  0.33926800  1
  Bi  Bi14  1  0.00261500  0.00035200  0.66015800  1
  Bi  Bi15  1  0.89238400  0.70014600  0.16622800  1
  Bi  Bi16  1  0.93960700  0.70952200  0.50055500  1
  Bi  Bi17  1  0.78458700  0.44587100  0.00041800  1
  Bi  Bi18  1  0.80282000  0.39115600  0.33023300  1
  Bi  Bi19  1  0.89134800  0.69245400  0.82977000  1
  Bi  Bi20  1  0.79907600  0.38770300  0.66426300  1
  Bi  Bi21  1  0.70154200  0.10806400  0.16711700  1
  Bi  Bi22  1  0.71416100  0.05479000  0.49842000  1
  Bi  Bi23  1  0.55641300  0.78446700  0.99886700  1
  Bi  Bi24  1  0.60846600  0.79482500  0.32902900  1
  Bi  Bi25  1  0.49781800  0.49713300  0.15994300  1
  Bi  Bi26  1  0.44267100  0.21066500  0.00121200  1
  Bi  Bi27  1  0.39152600  0.19955500  0.33024500  1
  Bi  Bi28  1  0.29586400  0.88964200  0.16493000  1
  Bi  Bi29  1  0.21220400  0.55366600  0.99813000  1
  O  O30  1  0.83571400  0.01204300  0.01078700  1
  O  O31  1  0.74639200  0.57805600  0.74633500  1
  O  O32  1  0.68210200  0.62067600  0.91981900  1
  O  O33  1  0.62255500  0.31672300  0.92057900  1
  O  O34  1  0.57899800  0.24784100  0.75413500  1
  O  O35  1  0.49993400  0.99674000  0.61621100  1
  O  O36  1  0.50549000  0.99483000  0.88440000  1
  O  O37  1  0.41877600  0.74582500  0.74760400  1
  O  O38  1  0.37613800  0.67943200  0.91936200  1
  O  O39  1  0.24652800  0.07922500  0.24839300  1
  O  O40  1  0.32150500  0.37266300  0.91884700  1
  O  O41  1  0.24900200  0.07716400  0.74554000  1
  O  O42  1  0.25290400  0.41993300  0.75138000  1
  O  O43  1  0.17924800  0.12084200  0.41986400  1
  O  O44  1  0.17943300  0.11841000  0.58028200  1
  O  O45  1  0.12292300  0.81867600  0.41979600  1
  O  O46  1  0.07916600  0.75396400  0.25072200  1
  O  O47  1  0.12484800  0.81596400  0.58093500  1
  O  O48  1  0.99844200  0.49648400  0.11669600  1
  O  O49  1  0.08496400  0.74485600  0.74800500  1
  O  O50  1  0.00678800  0.49575100  0.38541200  1
  O  O51  1  0.99984700  0.50045400  0.61647500  1
  O  O52  1  0.92113400  0.24703600  0.25060700  1
  O  O53  1  0.00702000  0.98288900  0.88168400  1
  O  O54  1  0.99916600  0.48983200  0.88055800  1
  O  O55  1  0.87769800  0.18238500  0.41978700  1
  O  O56  1  0.92359300  0.24632000  0.74375400  1
  O  O57  1  0.88160000  0.17912800  0.57813700  1
  O  O58  1  0.81837700  0.87798700  0.42028400  1
  O  O59  1  0.81624400  0.87655800  0.57937400  1
  O  O60  1  0.75413100  0.58150800  0.24725300  1
  O  O61  1  0.75233100  0.91871100  0.24955800  1
  O  O62  1  0.68006200  0.61957300  0.07918900  1
  O  O63  1  0.74664500  0.91708700  0.74871200  1
  O  O64  1  0.62236700  0.31842900  0.07986100  1
  O  O65  1  0.70974500  0.51683600  0.51213700  1
  O  O66  1  0.58115000  0.24772400  0.24748900  1
  O  O67  1  0.49766000  0.99964800  0.11492400  1
  O  O68  1  0.48522200  0.51648600  0.38492400  1
  O  O69  1  0.50052900  0.99704700  0.38276500  1
  O  O70  1  0.44399800  0.29773300  0.51102800  1
  O  O71  1  0.41798200  0.75014900  0.24519100  1
  O  O72  1  0.37734700  0.67895200  0.07845800  1
  O  O73  1  0.31984100  0.37239100  0.08140600  1
  O  O74  1  0.24919800  0.41856000  0.24695400  1
  O  O75  1  0.14683700  0.04218400  0.02192900  1
  O  O76  1  0.01477100  0.76649600  0.99304000  1
