# generated using pymatgen
data_K3Ag2(PO4)5
_symmetry_space_group_name_H-M   'P 1'
_cell_length_a   7.35470200
_cell_length_b   10.52334704
_cell_length_c   13.97825266
_cell_angle_alpha   102.04795559
_cell_angle_beta   87.56873625
_cell_angle_gamma   104.64467558
_symmetry_Int_Tables_number   1
_chemical_formula_structural   K3Ag2(PO4)5
_chemical_formula_sum   'K6 Ag4 P10 O40'
_cell_volume   1023.59781362
_cell_formula_units_Z   2
loop_
 _symmetry_equiv_pos_site_id
 _symmetry_equiv_pos_as_xyz
  1  'x, y, z'
loop_
 _atom_site_type_symbol
 _atom_site_label
 _atom_site_symmetry_multiplicity
 _atom_site_fract_x
 _atom_site_fract_y
 _atom_site_fract_z
 _atom_site_occupancy
  K  K0  1  0.60447500  0.95303500  0.10409500  1
  K  K1  1  0.39552500  0.04696500  0.89590500  1
  K  K2  1  0.34236200  0.37180800  0.75042200  1
  K  K3  1  0.65763800  0.62819200  0.24957800  1
  K  K4  1  0.27672400  0.80699100  0.48121900  1
  K  K5  1  0.72327600  0.19300900  0.51878100  1
  Ag  Ag6  1  0.70117000  0.53867000  0.94550300  1
  Ag  Ag7  1  0.29883000  0.46133000  0.05449700  1
  Ag  Ag8  1  0.20483400  0.16128600  0.15313200  1
  Ag  Ag9  1  0.79516600  0.83871400  0.84686800  1
  P  P10  1  0.68086200  0.32622200  0.09656600  1
  P  P11  1  0.31913800  0.67377800  0.90343400  1
  P  P12  1  0.06106300  0.80355300  0.04395900  1
  P  P13  1  0.93893700  0.19644700  0.95604100  1
  P  P14  1  0.80039600  0.26296200  0.78121900  1
  P  P15  1  0.19960400  0.73703800  0.21878100  1
  P  P16  1  0.81252000  0.50391700  0.71022200  1
  P  P17  1  0.18748000  0.49608300  0.28977800  1
  P  P18  1  0.16466900  0.71986200  0.72584600  1
  P  P19  1  0.83533100  0.28013800  0.27415400  1
  O  O20  1  0.35750100  0.54481700  0.91902300  1
  O  O21  1  0.64249900  0.45518300  0.08097700  1
  O  O22  1  0.13339800  0.69007500  0.96527700  1
  O  O23  1  0.86660200  0.30992500  0.03472300  1
  O  O24  1  0.75480000  0.36727400  0.20872200  1
  O  O25  1  0.24520000  0.63272600  0.79127800  1
  O  O26  1  0.47057000  0.80208300  0.92050300  1
  O  O27  1  0.52943000  0.19791700  0.07949700  1
  O  O28  1  0.86340200  0.79446800  0.01210600  1
  O  O29  1  0.13659800  0.20553200  0.98789400  1
  O  O30  1  0.79310500  0.06505600  0.93943700  1
  O  O31  1  0.20689500  0.93494400  0.06056300  1
  O  O32  1  0.96200600  0.26097100  0.85879500  1
  O  O33  1  0.03799400  0.73902900  0.14120500  1
  O  O34  1  0.62195500  0.27945100  0.83409600  1
  O  O35  1  0.37804500  0.72054900  0.16590400  1
  O  O36  1  0.20496000  0.84581600  0.30699600  1
  O  O37  1  0.79504000  0.15418400  0.69300400  1
  O  O38  1  0.08429500  0.59308200  0.24587800  1
  O  O39  1  0.91570500  0.40691800  0.75412200  1
  O  O40  1  0.72854200  0.58691700  0.79414900  1
  O  O41  1  0.27145800  0.41308300  0.20585100  1
  O  O42  1  0.68548600  0.42187900  0.62719400  1
  O  O43  1  0.31451400  0.57812100  0.37280600  1
  O  O44  1  0.09618500  0.82757700  0.79597600  1
  O  O45  1  0.90381500  0.17242300  0.20402400  1
  O  O46  1  0.69872000  0.24319000  0.35092100  1
  O  O47  1  0.30128000  0.75681000  0.64907900  1
  O  O48  1  0.99273200  0.59957200  0.66955600  1
  O  O49  1  0.00726800  0.40042800  0.33044400  1
  O  O50  1  0.27701000  0.13056300  0.28437600  1
  O  O51  1  0.72299000  0.86943700  0.71562400  1
  O  O52  1  0.74749400  0.91424400  0.40519100  1
  O  O53  1  0.25250600  0.08575600  0.59480900  1
  O  O54  1  0.82593000  0.93926000  0.32814000  1
  O  O55  1  0.17407000  0.06074000  0.67186000  1
  O  O56  1  0.70785300  0.60928800  0.46101700  1
  O  O57  1  0.29214700  0.39071200  0.53898300  1
  O  O58  1  0.77344200  0.71869800  0.51523300  1
  O  O59  1  0.22655800  0.28130200  0.48476700  1
