# generated using pymatgen
data_Sr2La14Mg2Ga14O45
_symmetry_space_group_name_H-M   'P 1'
_cell_length_a   5.53838796
_cell_length_b   5.60051934
_cell_length_c   44.87651463
_cell_angle_alpha   59.99177239
_cell_angle_beta   59.49143938
_cell_angle_gamma   59.99445421
_symmetry_Int_Tables_number   1
_chemical_formula_structural   Sr2La14Mg2Ga14O45
_chemical_formula_sum   'Sr2 La14 Mg2 Ga14 O45'
_cell_volume   980.33361547
_cell_formula_units_Z   1
loop_
 _symmetry_equiv_pos_site_id
 _symmetry_equiv_pos_as_xyz
  1  'x, y, z'
loop_
 _atom_site_type_symbol
 _atom_site_label
 _atom_site_symmetry_multiplicity
 _atom_site_fract_x
 _atom_site_fract_y
 _atom_site_fract_z
 _atom_site_occupancy
  Sr  Sr0  1  0.24958900  0.75594400  0.09276600  1
  Sr  Sr1  1  0.25476100  0.75383600  0.21788100  1
  La  La2  1  0.75003400  0.24384800  0.03297700  1
  La  La3  1  0.77070200  0.25522900  0.15508200  1
  La  La4  1  0.25492700  0.74617900  0.34378100  1
  La  La5  1  0.77266400  0.25253700  0.27919300  1
  La  La6  1  0.25194900  0.74549400  0.46914100  1
  La  La7  1  0.75018500  0.25407200  0.40659200  1
  La  La8  1  0.25111000  0.74471200  0.59430900  1
  La  La9  1  0.74969900  0.25554600  0.53052300  1
  La  La10  1  0.25094400  0.74489700  0.71929900  1
  La  La11  1  0.74959200  0.25522800  0.65559900  1
  La  La12  1  0.24945400  0.74399500  0.84450100  1
  La  La13  1  0.74909300  0.25534500  0.78061500  1
  La  La14  1  0.24791100  0.73204200  0.96885200  1
  La  La15  1  0.74521300  0.25087900  0.90599100  1
  Mg  Mg16  1  0.99178200  0.48978900  0.06439000  1
  Mg  Mg17  1  0.97582800  0.47695400  0.19073500  1
  Ga  Ga18  1  0.51148700  0.01133900  0.99919900  1
  Ga  Ga19  1  0.52121300  0.02935300  0.12287400  1
  Ga  Ga20  1  0.51655500  0.01406800  0.24687000  1
  Ga  Ga21  1  0.50319100  0.00014900  0.37488500  1
  Ga  Ga22  1  0.49985800  0.99973200  0.50015900  1
  Ga  Ga23  1  0.99087600  0.48803800  0.31410500  1
  Ga  Ga24  1  0.50017700  0.00005500  0.62496600  1
  Ga  Ga25  1  0.00135000  0.50064800  0.43725800  1
  Ga  Ga26  1  0.99999900  0.50022900  0.56245800  1
  Ga  Ga27  1  0.49988400  0.99987800  0.75004200  1
  Ga  Ga28  1  0.49952900  0.99992700  0.87478500  1
  Ga  Ga29  1  0.00005700  0.50007200  0.68748600  1
  Ga  Ga30  1  0.99975900  0.49996500  0.81252200  1
  Ga  Ga31  1  0.99822700  0.49542100  0.93718700  1
  O  O32  1  0.25372900  0.20115600  0.03569600  1
  O  O33  1  0.25440400  0.27593800  0.09520600  1
  O  O34  1  0.22989200  0.19243500  0.16266500  1
  O  O35  1  0.78526500  0.70671200  0.02552500  1
  O  O36  1  0.24234100  0.28911500  0.22075600  1
  O  O37  1  0.73423900  0.27093200  0.10302900  1
  O  O38  1  0.22468000  0.17623500  0.29127000  1
  O  O39  1  0.76161600  0.82823900  0.08431000  1
  O  O40  1  0.73308500  0.69185400  0.15514900  1
  O  O41  1  0.24476900  0.31506300  0.34452500  1
  O  O42  1  0.71972700  0.26106300  0.23075200  1
  O  O43  1  0.24541200  0.17258000  0.41613700  1
  O  O44  1  0.77515500  0.82661900  0.20794200  1
  O  O45  1  0.27041500  0.73305100  0.39785600  1
  O  O46  1  0.73316600  0.68808100  0.28248000  1
  O  O47  1  0.23354700  0.31392300  0.47086100  1
  O  O48  1  0.72905400  0.26571900  0.35389900  1
  O  O49  1  0.24920500  0.17189000  0.54107600  1
  O  O50  1  0.76875900  0.82687400  0.33338900  1
  O  O51  1  0.26861000  0.73095500  0.52316400  1
  O  O52  1  0.76489400  0.68537000  0.40460700  1
  O  O53  1  0.23179900  0.31414700  0.59605300  1
  O  O54  1  0.73075800  0.26852300  0.47696100  1
  O  O55  1  0.24969900  0.17209400  0.66599600  1
  O  O56  1  0.75096100  0.82565200  0.45936100  1
  O  O57  1  0.26887700  0.73075900  0.64815800  1
  O  O58  1  0.76722300  0.68526200  0.52916900  1
  O  O59  1  0.23180300  0.31418900  0.72105100  1
  O  O60  1  0.73091000  0.26909600  0.60189600  1
  O  O61  1  0.24928800  0.17102500  0.79109100  1
  O  O62  1  0.75006800  0.82795300  0.58404300  1
  O  O63  1  0.26853400  0.73091400  0.77316400  1
  O  O64  1  0.76750400  0.68577000  0.65404800  1
  O  O65  1  0.23181400  0.31437000  0.84584300  1
  O  O66  1  0.73080000  0.26932700  0.72685600  1
  O  O67  1  0.24866100  0.16619900  0.91568900  1
  O  O68  1  0.75000300  0.82799500  0.70902500  1
  O  O69  1  0.26480200  0.73004500  0.89901100  1
  O  O70  1  0.76802000  0.68560500  0.77897100  1
  O  O71  1  0.23544500  0.30542600  0.96971700  1
  O  O72  1  0.72986700  0.27059500  0.85188200  1
  O  O73  1  0.74757200  0.82857600  0.83400000  1
  O  O74  1  0.77113300  0.68510400  0.90309500  1
  O  O75  1  0.73121900  0.27976900  0.97535400  1
  O  O76  1  0.73217900  0.82190100  0.96018200  1
