# generated using pymatgen
data_BaNa2Al4(SiO4)4
_symmetry_space_group_name_H-M   'P 1'
_cell_length_a   10.73497896
_cell_length_b   10.73497896
_cell_length_c   10.07509731
_cell_angle_alpha   62.09484681
_cell_angle_beta   62.09484681
_cell_angle_gamma   47.54565893
_symmetry_Int_Tables_number   1
_chemical_formula_structural   BaNa2Al4(SiO4)4
_chemical_formula_sum   'Ba2 Na4 Al8 Si8 O32'
_cell_volume   736.14858504
_cell_formula_units_Z   2
loop_
 _symmetry_equiv_pos_site_id
 _symmetry_equiv_pos_as_xyz
  1  'x, y, z'
loop_
 _atom_site_type_symbol
 _atom_site_label
 _atom_site_symmetry_multiplicity
 _atom_site_fract_x
 _atom_site_fract_y
 _atom_site_fract_z
 _atom_site_occupancy
  Ba  Ba0  1  0.75169900  0.24673700  0.25005100  1
  Ba  Ba1  1  0.24673700  0.75169900  0.75005100  1
  Na  Na2  1  0.96420600  0.53743100  0.82258300  1
  Na  Na3  1  0.53743100  0.96420600  0.32258300  1
  Na  Na4  1  0.46299400  0.03764900  0.67518800  1
  Na  Na5  1  0.03764900  0.46299400  0.17518800  1
  Al  Al6  1  0.73354800  0.08469200  0.65266800  1
  Al  Al7  1  0.58756600  0.22856000  0.02875500  1
  Al  Al8  1  0.68584400  0.62519000  0.64795700  1
  Al  Al9  1  0.62519000  0.68584400  0.14795700  1
  Al  Al10  1  0.22856000  0.58756600  0.52875500  1
  Al  Al11  1  0.08469200  0.73354800  0.15266800  1
  Al  Al12  1  0.18792800  0.12557200  0.03862600  1
  Al  Al13  1  0.12557200  0.18792800  0.53862600  1
  Si  Si14  1  0.86242100  0.82118400  0.46600800  1
  Si  Si15  1  0.82118400  0.86242100  0.96600800  1
  Si  Si16  1  0.91951100  0.26271900  0.85324800  1
  Si  Si17  1  0.76217400  0.41973200  0.46468900  1
  Si  Si18  1  0.36251600  0.32342100  0.84764700  1
  Si  Si19  1  0.32342100  0.36251600  0.34764700  1
  Si  Si20  1  0.41973200  0.76217400  0.96468900  1
  Si  Si21  1  0.26271900  0.91951100  0.35324800  1
  O  O22  1  0.93051600  0.87351700  0.27802500  1
  O  O23  1  0.87351700  0.93051600  0.77802500  1
  O  O24  1  0.00035300  0.23974900  0.97428400  1
  O  O25  1  0.75116900  0.99558800  0.52883200  1
  O  O26  1  0.95457600  0.35969300  0.44751100  1
  O  O27  1  0.66376400  0.01529300  0.05466700  1
  O  O28  1  0.75314500  0.25470500  0.52969800  1
  O  O29  1  0.75848800  0.24700800  0.96128800  1
  O  O30  1  0.85314300  0.45812400  0.74369900  1
  O  O31  1  0.52001400  0.16209800  0.76429200  1
  O  O32  1  0.74059000  0.50020100  0.28533000  1
  O  O33  1  0.50283600  0.24498900  0.22404900  1
  O  O34  1  0.78349500  0.72199000  0.00418800  1
  O  O35  1  0.61981700  0.56269000  0.57202400  1
  O  O36  1  0.72199000  0.78349500  0.50418800  1
  O  O37  1  0.43164100  0.37471400  0.91549400  1
  O  O38  1  0.56269000  0.61981700  0.07202400  1
  O  O39  1  0.37471400  0.43164100  0.41549400  1
  O  O40  1  0.50020100  0.74059000  0.78533000  1
  O  O41  1  0.24498900  0.50283600  0.72404900  1
  O  O42  1  0.45812400  0.85314300  0.24369900  1
  O  O43  1  0.16209800  0.52001400  0.26429200  1
  O  O44  1  0.25470500  0.75314500  0.02969800  1
  O  O45  1  0.24700800  0.75848800  0.46128800  1
  O  O46  1  0.35969300  0.95457600  0.94751100  1
  O  O47  1  0.01529300  0.66376400  0.55466700  1
  O  O48  1  0.23974900  0.00035300  0.47428400  1
  O  O49  1  0.99558800  0.75116900  0.02883200  1
  O  O50  1  0.28392500  0.22402700  0.48818700  1
  O  O51  1  0.12114300  0.06422000  0.24276600  1
  O  O52  1  0.22402700  0.28392500  0.98818700  1
  O  O53  1  0.06422000  0.12114300  0.74276600  1
