# generated using pymatgen
data_Nd4AlSi5(NO)7
_symmetry_space_group_name_H-M   'P 1'
_cell_length_a   6.85603900
_cell_length_b   6.95948685
_cell_length_c   20.56315899
_cell_angle_alpha   94.13357079
_cell_angle_beta   92.44594387
_cell_angle_gamma   91.40416354
_symmetry_Int_Tables_number   1
_chemical_formula_structural   Nd4AlSi5(NO)7
_chemical_formula_sum   'Nd12 Al3 Si15 N21 O21'
_cell_volume   977.34268851
_cell_formula_units_Z   3
loop_
 _symmetry_equiv_pos_site_id
 _symmetry_equiv_pos_as_xyz
  1  'x, y, z'
loop_
 _atom_site_type_symbol
 _atom_site_label
 _atom_site_symmetry_multiplicity
 _atom_site_fract_x
 _atom_site_fract_y
 _atom_site_fract_z
 _atom_site_occupancy
  Nd  Nd0  1  0.27587300  0.39232600  0.72373300  1
  Nd  Nd1  1  0.29720400  0.41107800  0.41568900  1
  Nd  Nd2  1  0.67372200  0.37860800  0.91087500  1
  Nd  Nd3  1  0.71886200  0.41822000  0.58051000  1
  Nd  Nd4  1  0.36358900  0.36311200  0.09771500  1
  Nd  Nd5  1  0.73263700  0.32748600  0.27111400  1
  Nd  Nd6  1  0.17044000  0.62763500  0.88715000  1
  Nd  Nd7  1  0.18433200  0.62296500  0.57833300  1
  Nd  Nd8  1  0.81542100  0.67611900  0.42549100  1
  Nd  Nd9  1  0.76292600  0.63009200  0.73594100  1
  Nd  Nd10  1  0.82158900  0.58273500  0.11183600  1
  Nd  Nd11  1  0.25004300  0.63494300  0.25305600  1
  Al  Al12  1  0.01401500  0.92934000  0.66736300  1
  Al  Al13  1  0.64643800  0.80389800  0.99540000  1
  Al  Al14  1  0.62306300  0.79917200  0.30246900  1
  Si  Si15  1  0.03388700  0.02857200  0.98686900  1
  Si  Si16  1  0.54629200  0.92505200  0.86210900  1
  Si  Si17  1  0.98161100  0.04448700  0.34827000  1
  Si  Si18  1  0.36687700  0.84753500  0.70303600  1
  Si  Si19  1  0.35879100  0.86809100  0.38275100  1
  Si  Si20  1  0.58601000  0.83410200  0.60465700  1
  Si  Si21  1  0.29159800  0.85203800  0.02080800  1
  Si  Si22  1  0.16054500  0.15046000  0.86362900  1
  Si  Si23  1  0.07595500  0.16571000  0.55401100  1
  Si  Si24  1  0.89012200  0.18128400  0.79514000  1
  Si  Si25  1  0.09765900  0.14270100  0.20028200  1
  Si  Si26  1  0.87870900  0.24034800  0.45989200  1
  Si  Si27  1  0.85277500  0.09727100  0.11624400  1
  Si  Si28  1  0.49962200  0.09042900  0.50308100  1
  Si  Si29  1  0.46020700  0.93418600  0.16081000  1
  N  N30  1  0.51484600  0.49044700  0.66305900  1
  N  N31  1  0.56288700  0.55023400  0.33487000  1
  N  N32  1  0.45777700  0.62260000  0.80527500  1
  N  N33  1  0.53768700  0.18500300  0.18021600  1
  N  N34  1  0.62453300  0.26441100  0.46698200  1
  N  N35  1  0.68749100  0.27474000  0.14148200  1
  N  N36  1  0.08053600  0.68436400  0.01359100  1
  N  N37  1  0.14981700  0.71025800  0.69720600  1
  N  N38  1  0.54340600  0.67256200  0.87196000  1
  N  N39  1  0.48967000  0.70652600  0.52264600  1
  N  N40  1  0.50044200  0.80916800  0.77779800  1
  N  N41  1  0.81191600  0.75451800  0.62624200  1
  N  N42  1  0.92556900  0.79295900  0.97154000  1
  N  N43  1  0.00682600  0.78155100  0.32561800  1
  N  N44  1  0.15626200  0.69412500  0.36905300  1
  N  N45  1  0.60244100  0.77367600  0.20843800  1
  N  N46  1  0.47772000  0.85526500  0.46664600  1
  N  N47  1  0.47185300  0.66432700  0.15379400  1
  N  N48  1  0.91474100  0.42519800  0.81703100  1
  N  N49  1  0.98937500  0.47673000  0.49105200  1
  N  N50  1  0.11977400  0.37766100  0.17695900  1
  O  O51  1  0.63997700  0.53916300  0.01463300  1
  O  O52  1  0.02218200  0.18903800  0.93035500  1
  O  O53  1  0.87090500  0.07852400  0.72110000  1
  O  O54  1  0.32570500  0.32748900  0.87303400  1
  O  O55  1  0.05759100  0.32814900  0.61852600  1
  O  O56  1  0.94187000  0.29542200  0.38100700  1
  O  O57  1  0.29446000  0.21394500  0.51893500  1
  O  O58  1  0.04947000  0.17147800  0.27781800  1
  O  O59  1  0.95571400  0.17530000  0.04957200  1
  O  O60  1  0.68234900  0.10978400  0.83067500  1
  O  O61  1  0.90789800  0.00067900  0.42860400  1
  O  O62  1  0.72312700  0.90204500  0.08574100  1
  O  O63  1  0.29179800  0.95527100  0.86957200  1
  O  O64  1  0.11417300  0.95982000  0.58609700  1
  O  O65  1  0.25369600  0.95704600  0.20578600  1
  O  O66  1  0.62257900  0.00674200  0.94003100  1
  O  O67  1  0.59995600  0.05982600  0.57691000  1
  O  O68  1  0.74339900  0.02745500  0.31207900  1
  O  O69  1  0.26941800  0.06313000  0.70881600  1
  O  O70  1  0.23810900  0.07752500  0.38030300  1
  O  O71  1  0.33924100  0.99585100  0.09068400  1
