# generated using pymatgen
data_Ca16MgAl14Si9O56
_symmetry_space_group_name_H-M   'P 1'
_cell_length_a   6.89535500
_cell_length_b   7.03268608
_cell_length_c   26.95534600
_cell_angle_alpha   91.64007104
_cell_angle_beta   91.84449417
_cell_angle_gamma   90.50120594
_symmetry_Int_Tables_number   1
_chemical_formula_structural   Ca16MgAl14Si9O56
_chemical_formula_sum   'Ca16 Mg1 Al14 Si9 O56'
_cell_volume   1305.86837669
_cell_formula_units_Z   1
loop_
 _symmetry_equiv_pos_site_id
 _symmetry_equiv_pos_as_xyz
  1  'x, y, z'
loop_
 _atom_site_type_symbol
 _atom_site_label
 _atom_site_symmetry_multiplicity
 _atom_site_fract_x
 _atom_site_fract_y
 _atom_site_fract_z
 _atom_site_occupancy
  Ca  Ca0  1  0.20256700  0.09785500  0.17341000  1
  Ca  Ca1  1  0.31891800  0.33120500  0.42145900  1
  Ca  Ca2  1  0.30401700  0.68448500  0.02545900  1
  Ca  Ca3  1  0.28687000  0.69595700  0.77732400  1
  Ca  Ca4  1  0.47666600  0.12974000  0.73109900  1
  Ca  Ca5  1  0.22871900  0.54834700  0.29798200  1
  Ca  Ca6  1  0.47796700  0.10745600  0.97084400  1
  Ca  Ca7  1  0.28589600  0.62980000  0.53895800  1
  Ca  Ca8  1  0.74247800  0.30075400  0.09704200  1
  Ca  Ca9  1  0.58489600  0.09026000  0.32585800  1
  Ca  Ca10  1  0.62410000  0.78271600  0.44889100  1
  Ca  Ca11  1  0.70581600  0.18592000  0.84997700  1
  Ca  Ca12  1  0.53236500  0.60212900  0.65558700  1
  Ca  Ca13  1  0.51010200  0.66133000  0.19635100  1
  Ca  Ca14  1  0.51773400  0.61976800  0.89028100  1
  Ca  Ca15  1  0.70129300  0.19846300  0.59473200  1
  Mg  Mg16  1  0.95606100  0.91473400  0.24932900  1
  Al  Al17  1  0.97258300  0.01853900  0.98785400  1
  Al  Al18  1  0.10338600  0.62195000  0.13001600  1
  Al  Al19  1  0.05649600  0.94229000  0.48777300  1
  Al  Al20  1  0.97964300  0.00973800  0.74696800  1
  Al  Al21  1  0.01568300  0.51042900  0.87989300  1
  Al  Al22  1  0.80763300  0.29898300  0.47120500  1
  Al  Al23  1  0.80979600  0.37815800  0.72251900  1
  Al  Al24  1  0.78917500  0.39578000  0.97064600  1
  Al  Al25  1  0.51441500  0.93246300  0.11500600  1
  Al  Al26  1  0.19389600  0.88078100  0.90420200  1
  Al  Al27  1  0.24425600  0.81472800  0.39830800  1
  Al  Al28  1  0.21604200  0.88727100  0.65750700  1
  Al  Al29  1  0.92046100  0.46462600  0.38602300  1
  Al  Al30  1  0.03252700  0.50356500  0.64039600  1
  Si  Si31  1  0.78573200  0.71866500  0.04995400  1
  Si  Si32  1  0.91986700  0.39143800  0.21159100  1
  Si  Si33  1  0.72226100  0.63143600  0.29522800  1
  Si  Si34  1  0.78896800  0.62940500  0.55127700  1
  Si  Si35  1  0.74597700  0.69584300  0.79681100  1
  Si  Si36  1  0.19367400  0.22389100  0.06927000  1
  Si  Si37  1  0.09206700  0.10750200  0.34667100  1
  Si  Si38  1  0.25259400  0.19751900  0.83089200  1
  Si  Si39  1  0.24571700  0.19890700  0.57963900  1
  O  O40  1  0.68376400  0.53293700  0.01967600  1
  O  O41  1  0.53223200  0.50861800  0.27591000  1
  O  O42  1  0.78709200  0.40394500  0.53182200  1
  O  O43  1  0.66504600  0.56148600  0.74965600  1
  O  O44  1  0.22027900  0.81941700  0.21934700  1
  O  O45  1  0.08794000  0.90998500  0.31532400  1
  O  O46  1  0.16016500  0.58707000  0.37647100  1
  O  O47  1  0.19257800  0.13829200  0.01078800  1
  O  O48  1  0.39307500  0.83693500  0.70496300  1
  O  O49  1  0.17304000  0.45454700  0.07131800  1
  O  O50  1  0.31884400  0.75489900  0.11583300  1
  O  O51  1  0.25273300  0.78856600  0.46498600  1
  O  O52  1  0.28398800  0.23994800  0.33549800  1
  O  O53  1  0.42436000  0.34458300  0.81605700  1
  O  O54  1  0.19756200  0.67444500  0.86397100  1
  O  O55  1  0.20559900  0.06847400  0.77916000  1
  O  O56  1  0.41439700  0.36157600  0.57564200  1
  O  O57  1  0.21673500  0.66405700  0.62457400  1
  O  O58  1  0.18842400  0.11235100  0.52453200  1
  O  O59  1  0.37064900  0.81260800  0.95000100  1
  O  O60  1  0.02287200  0.12814400  0.10048400  1
  O  O61  1  0.04452200  0.80774500  0.18252300  1
  O  O62  1  0.89640100  0.24557800  0.34657300  1
  O  O63  1  0.05040000  0.28686300  0.60574500  1
  O  O64  1  0.11840400  0.03648900  0.40555200  1
  O  O65  1  0.04894800  0.29213000  0.84752200  1
  O  O66  1  0.00643900  0.97430900  0.68383100  1
  O  O67  1  0.97055100  0.96614000  0.92362500  1
  O  O68  1  0.96921700  0.80243500  0.02001300  1
  O  O69  1  0.11827100  0.44165100  0.17816000  1
  O  O70  1  0.01340900  0.40042700  0.44550300  1
  O  O71  1  0.91472100  0.54787600  0.26160900  1
  O  O72  1  0.97106400  0.74789100  0.52818400  1
  O  O73  1  0.03440200  0.46723600  0.70478200  1
  O  O74  1  0.94495700  0.80035500  0.78033900  1
  O  O75  1  0.99346600  0.48497200  0.94318100  1
  O  O76  1  0.78771300  0.17681600  0.00246900  1
  O  O77  1  0.97328000  0.18445400  0.23218300  1
  O  O78  1  0.77697200  0.63001200  0.35383600  1
  O  O79  1  0.86105400  0.64134200  0.10358700  1
  O  O80  1  0.72294100  0.41529700  0.17849900  1
  O  O81  1  0.69248000  0.84596300  0.27267500  1
  O  O82  1  0.79858000  0.17634300  0.76144000  1
  O  O83  1  0.79695800  0.56541100  0.84591100  1
  O  O84  1  0.60784400  0.34617600  0.92391500  1
  O  O85  1  0.57518100  0.83746700  0.81518500  1
  O  O86  1  0.60284200  0.86698000  0.05306300  1
  O  O87  1  0.82059300  0.04461700  0.47475300  1
  O  O88  1  0.81737300  0.61005200  0.61269900  1
  O  O89  1  0.63328400  0.41356700  0.43233600  1
  O  O90  1  0.64401100  0.30780100  0.67367500  1
  O  O91  1  0.59097100  0.74043000  0.53764800  1
  O  O92  1  0.40814900  0.16689800  0.09445200  1
  O  O93  1  0.47491500  0.88896400  0.38127000  1
  O  O94  1  0.33768400  0.03711500  0.61662000  1
  O  O95  1  0.33131300  0.06449400  0.87640100  1
