# generated using pymatgen
data_Mn2NiO4
_symmetry_space_group_name_H-M   'P 1'
_cell_length_a   6.00116995
_cell_length_b   6.00116995
_cell_length_c   10.33141781
_cell_angle_alpha   73.92031394
_cell_angle_beta   73.92031394
_cell_angle_gamma   61.02249564
_symmetry_Int_Tables_number   1
_chemical_formula_structural   Mn2NiO4
_chemical_formula_sum   'Mn8 Ni4 O16'
_cell_volume   308.21616959
_cell_formula_units_Z   4
loop_
 _symmetry_equiv_pos_site_id
 _symmetry_equiv_pos_as_xyz
  1  'x, y, z'
loop_
 _atom_site_type_symbol
 _atom_site_label
 _atom_site_symmetry_multiplicity
 _atom_site_fract_x
 _atom_site_fract_y
 _atom_site_fract_z
 _atom_site_occupancy
  Mn  Mn0  1  0.43125700  0.43125700  0.68794400  1
  Mn  Mn1  1  0.50564400  0.99905500  0.49947500  1
  Mn  Mn2  1  0.24786200  0.24786200  0.24840300  1
  Mn  Mn3  1  0.99905500  0.50564400  0.49947500  1
  Mn  Mn4  1  0.06983400  0.06983400  0.81344000  1
  Mn  Mn5  1  0.99634000  0.50060500  0.00011200  1
  Mn  Mn6  1  0.50060500  0.99634000  0.00011200  1
  Mn  Mn7  1  0.56685800  0.56685800  0.31377100  1
  Ni  Ni8  1  0.92845900  0.92845900  0.18438900  1
  Ni  Ni9  1  0.00024000  0.00024000  0.49883500  1
  Ni  Ni10  1  0.75087200  0.75087200  0.75079500  1
  Ni  Ni11  1  0.50081000  0.50081000  0.00041200  1
  O  O12  1  0.86524400  0.40908400  0.88704300  1
  O  O13  1  0.86236600  0.86236600  0.88678200  1
  O  O14  1  0.36404800  0.91851000  0.37681800  1
  O  O15  1  0.35667500  0.35667500  0.89827600  1
  O  O16  1  0.40908400  0.86524400  0.88704300  1
  O  O17  1  0.35750900  0.35750900  0.38029000  1
  O  O18  1  0.09635500  0.63704400  0.61168300  1
  O  O19  1  0.86103800  0.86103800  0.38926500  1
  O  O20  1  0.14514200  0.14514200  0.60265300  1
  O  O21  1  0.91851000  0.36404800  0.37681800  1
  O  O22  1  0.63927300  0.63927300  0.60988300  1
  O  O23  1  0.58030700  0.13797100  0.12564600  1
  O  O24  1  0.64026200  0.64026200  0.10719100  1
  O  O25  1  0.63704400  0.09635500  0.61168300  1
  O  O26  1  0.13133900  0.13133900  0.12611600  1
  O  O27  1  0.13797100  0.58030700  0.12564600  1
