# generated using pymatgen
data_K4Mg2H16S4O23
_symmetry_space_group_name_H-M   'P 1'
_cell_length_a   7.74878100
_cell_length_b   7.91794964
_cell_length_c   9.93595857
_cell_angle_alpha   83.72368114
_cell_angle_beta   84.39348530
_cell_angle_gamma   80.58496171
_symmetry_Int_Tables_number   1
_chemical_formula_structural   K4Mg2H16S4O23
_chemical_formula_sum   'K4 Mg2 H16 S4 O23'
_cell_volume   595.81540379
_cell_formula_units_Z   1
loop_
 _symmetry_equiv_pos_site_id
 _symmetry_equiv_pos_as_xyz
  1  'x, y, z'
loop_
 _atom_site_type_symbol
 _atom_site_label
 _atom_site_symmetry_multiplicity
 _atom_site_fract_x
 _atom_site_fract_y
 _atom_site_fract_z
 _atom_site_occupancy
  K  K0  1  0.38655600  0.92107700  0.72147900  1
  K  K1  1  0.91247800  0.41892600  0.71969200  1
  K  K2  1  0.08058900  0.60911100  0.29527900  1
  K  K3  1  0.58368800  0.10057000  0.24241700  1
  Mg  Mg4  1  0.99759900  0.99639100  0.94904200  1
  Mg  Mg5  1  0.51256700  0.50624900  0.49950500  1
  H  H6  1  0.91338700  0.92636800  0.27091000  1
  H  H7  1  0.97256700  0.89093600  0.68959700  1
  H  H8  1  0.34280200  0.82531900  0.38099100  1
  H  H9  1  0.32440400  0.79277900  0.02217900  1
  H  H10  1  0.45076600  0.72838400  0.26300900  1
  H  H11  1  0.20824500  0.66760600  0.97259400  1
  H  H12  1  0.18258300  0.65440500  0.62079500  1
  H  H13  1  0.28624600  0.55230300  0.73778300  1
  H  H14  1  0.72612000  0.44560800  0.25942600  1
  H  H15  1  0.82498100  0.34252600  0.37998100  1
  H  H16  1  0.79885200  0.32630300  0.02068400  1
  H  H17  1  0.54952400  0.26663200  0.74294300  1
  H  H18  1  0.66511700  0.22223100  0.96570700  1
  H  H19  1  0.66215600  0.18565800  0.61988700  1
  H  H20  1  0.04056200  0.06601300  0.27373900  1
  H  H21  1  0.05386600  0.07056900  0.68309400  1
  S  S22  1  0.74343600  0.76923300  0.61033300  1
  S  S23  1  0.72888800  0.73650400  0.10296700  1
  S  S24  1  0.26076800  0.26265700  0.89493400  1
  S  S25  1  0.24270500  0.24575500  0.40425700  1
  O  O26  1  0.99502600  0.99108200  0.74645500  1
  O  O27  1  0.82402700  0.83408600  0.99117100  1
  O  O28  1  0.77120600  0.78741700  0.23470600  1
  O  O29  1  0.94872700  0.75195400  0.61225200  1
  O  O30  1  0.53446300  0.78280300  0.09562400  1
  O  O31  1  0.20806700  0.78786600  0.99023700  1
  O  O32  1  0.67661600  0.71318000  0.75345900  1
  O  O33  1  0.72088700  0.62268800  0.52568300  1
  O  O34  1  0.39167600  0.70852400  0.35602600  1
  O  O35  1  0.30408600  0.62057400  0.64914500  1
  O  O36  1  0.78441700  0.54736500  0.09941100  1
  O  O37  1  0.21234500  0.44991300  0.90883500  1
  O  O38  1  0.70581700  0.37399000  0.34713400  1
  O  O39  1  0.61926700  0.29629600  0.65581800  1
  O  O40  1  0.78709800  0.21357600  0.99217200  1
  O  O41  1  0.33773400  0.35448000  0.47602100  1
  O  O42  1  0.27462500  0.29025200  0.25525500  1
  O  O43  1  0.45430600  0.20673100  0.90473400  1
  O  O44  1  0.05141300  0.28692700  0.44593000  1
  O  O45  1  0.21731900  0.22774300  0.75911000  1
  O  O46  1  0.15917800  0.15745500  0.99975600  1
  O  O47  1  0.31231400  0.06071700  0.44155100  1
  O  O48  1  0.00803400  0.95837100  0.31718900  1
