# generated using pymatgen
data_AlPO4
_symmetry_space_group_name_H-M   'P 1'
_cell_length_a   9.07327400
_cell_length_b   18.87555397
_cell_length_c   19.08231049
_cell_angle_alpha   119.58647875
_cell_angle_beta   93.76999259
_cell_angle_gamma   89.87493637
_symmetry_Int_Tables_number   1
_chemical_formula_structural   AlPO4
_chemical_formula_sum   'Al18 P18 O72'
_cell_volume   2834.09585549
_cell_formula_units_Z   18
loop_
 _symmetry_equiv_pos_site_id
 _symmetry_equiv_pos_as_xyz
  1  'x, y, z'
loop_
 _atom_site_type_symbol
 _atom_site_label
 _atom_site_symmetry_multiplicity
 _atom_site_fract_x
 _atom_site_fract_y
 _atom_site_fract_z
 _atom_site_occupancy
  Al  Al0  1  0.41811800  0.82454400  0.49171600  1
  Al  Al1  1  0.91178000  0.66624400  0.49187600  1
  Al  Al2  1  0.56305500  0.41911300  0.41571000  1
  Al  Al3  1  0.59370200  0.49600500  0.65694200  1
  Al  Al4  1  0.06599100  0.32821600  0.50018400  1
  Al  Al5  1  0.43621400  0.32685200  0.48968000  1
  Al  Al6  1  0.93926100  0.59102200  0.98981800  1
  Al  Al7  1  0.58003400  0.59183800  0.99844200  1
  Al  Al8  1  0.07780100  0.49724900  0.81866400  1
  Al  Al9  1  0.45624600  0.50528900  0.82206100  1
  Al  Al10  1  0.55343000  0.33639800  0.84421100  1
  Al  Al11  1  0.93748500  0.33553400  0.83243600  1
  Al  Al12  1  0.06293300  0.43822900  0.02546800  1
  Al  Al13  1  0.42756000  0.43027000  0.02131900  1
  Al  Al14  1  0.56141900  0.15930500  0.49688200  1
  Al  Al15  1  0.93196400  0.16003500  0.49481400  1
  Al  Al16  1  0.05666600  0.16893100  0.67270500  1
  Al  Al17  1  0.43027400  0.17156100  0.66789400  1
  P  P18  1  0.90105300  0.83535800  0.34564800  1
  P  P19  1  0.57564400  0.82787100  0.34429800  1
  P  P20  1  0.06152300  0.82280100  0.49111900  1
  P  P21  1  0.06602200  0.64210000  0.13155800  1
  P  P22  1  0.46957100  0.62087500  0.12773700  1
  P  P23  1  0.93548800  0.50367400  0.18865200  1
  P  P24  1  0.60470600  0.51356600  0.18199700  1
  P  P25  1  0.55697700  0.66788000  0.49449700  1
  P  P26  1  0.47095800  0.50547400  0.31594600  1
  P  P27  1  0.00138300  0.50384100  0.33878800  1
  P  P28  1  0.08205200  0.57584700  0.56965500  1
  P  P29  1  0.42995300  0.57323200  0.56455700  1
  P  P30  1  0.91500000  0.42431300  0.42753000  1
  P  P31  1  0.94660600  0.49628900  0.65460200  1
  P  P32  1  0.09246700  0.99232200  0.42167400  1
  P  P33  1  0.41811600  0.98357200  0.41591200  1
  P  P34  1  0.52102500  0.99525600  0.58521300  1
  P  P35  1  0.96508100  0.00093100  0.56727200  1
  O  O36  1  0.11705200  0.99201700  0.50165700  1
  O  O37  1  0.42943900  0.97885100  0.49374900  1
  O  O38  1  0.49172400  0.90596100  0.34785500  1
  O  O39  1  0.98463600  0.91674700  0.36031500  1
  O  O40  1  0.68110100  0.99876700  0.57783900  1
  O  O41  1  0.74320900  0.86878400  0.37897900  1
  O  O42  1  0.46134000  0.91548300  0.58001300  1
  O  O43  1  0.03585300  0.90574200  0.56448000  1
  O  O44  1  0.90677300  0.76889100  0.26343800  1
  O  O45  1  0.56991800  0.75983600  0.26259100  1
  O  O46  1  0.01075600  0.68409000  0.08282700  1
  O  O47  1  0.55067600  0.67400200  0.10172900  1
  O  O48  1  0.97215400  0.81527100  0.41269600  1
  O  O49  1  0.51630000  0.81521200  0.41094300  1
  O  O50  1  0.22290100  0.80815000  0.47084600  1
  O  O51  1  0.32223500  0.63988900  0.16066000  1
  O  O52  1  0.98497900  0.59003200  0.23357800  1
  O  O53  1  0.57617800  0.59865400  0.18891800  1
  O  O54  1  0.48889700  0.74537900  0.50680500  1
  O  O55  1  0.99595200  0.75434300  0.50224800  1
  O  O56  1  0.76350300  0.49040200  0.15343200  1
  O  O57  1  0.72431700  0.67746500  0.51570500  1
  O  O58  1  0.91390900  0.57903000  0.39602100  1
  O  O59  1  0.51839400  0.59654400  0.40947500  1
  O  O60  1  0.00779900  0.44012800  0.11557700  1
  O  O61  1  0.49781400  0.44684000  0.12265600  1
  O  O62  1  0.92821600  0.46681800  0.24905300  1
  O  O63  1  0.61202100  0.52507300  0.26896500  1
  O  O64  1  0.48282800  0.65204900  0.56054300  1
  O  O65  1  0.01440800  0.64701600  0.56499500  1
  O  O66  1  0.16289300  0.51411300  0.35084000  1
  O  O67  1  0.25442400  0.58768700  0.57495200  1
  O  O68  1  0.93969700  0.42784900  0.34861900  1
  O  O69  1  0.54253000  0.44139800  0.33441000  1
  O  O70  1  0.03592500  0.49553300  0.49047700  1
  O  O71  1  0.44832900  0.50070600  0.48341000  1
  O  O72  1  0.50262300  0.57799400  0.63931200  1
  O  O73  1  0.03979600  0.56963200  0.64326800  1
  O  O74  1  0.75954900  0.45050800  0.45173200  1
  O  O75  1  0.78661000  0.52040900  0.65375100  1
  O  O76  1  0.96652300  0.34614600  0.42012500  1
  O  O77  1  0.50177900  0.33063800  0.40591000  1
  O  O78  1  0.01106400  0.51095400  0.73448100  1
  O  O79  1  0.54435000  0.51189400  0.74758000  1
  O  O80  1  0.48726100  0.59293800  0.91787600  1
  O  O81  1  0.01522500  0.57581400  0.90522600  1
  O  O82  1  0.98109500  0.41721100  0.58219500  1
  O  O83  1  0.54109200  0.40778900  0.57107800  1
  O  O84  1  0.24956400  0.34851200  0.50242000  1
  O  O85  1  0.75944600  0.56941700  0.98975000  1
  O  O86  1  0.26535400  0.49428300  0.80987400  1
  O  O87  1  0.47428800  0.53606800  0.04283900  1
  O  O88  1  0.03660400  0.54816900  0.05406200  1
  O  O89  1  0.00058100  0.40763300  0.80754300  1
  O  O90  1  0.50706400  0.41674000  0.82571900  1
  O  O91  1  0.99980100  0.23894100  0.48646000  1
  O  O92  1  0.47768500  0.23072800  0.47763500  1
  O  O93  1  0.74334600  0.33552700  0.83152900  1
  O  O94  1  0.24498700  0.42388400  0.02510400  1
  O  O95  1  0.74318700  0.14138800  0.47349500  1
  O  O96  1  0.97556700  0.15239800  0.58063000  1
  O  O97  1  0.50692700  0.16644100  0.58484900  1
  O  O98  1  0.52167300  0.36418400  0.94262000  1
  O  O99  1  0.96683300  0.37244000  0.93607300  1
  O  O100  1  0.99045000  0.23929600  0.76282100  1
  O  O101  1  0.49660200  0.23978300  0.76610000  1
  O  O102  1  0.47158800  0.05841300  0.41735100  1
  O  O103  1  0.03780000  0.06622600  0.42055300  1
  O  O104  1  0.24178000  0.18863700  0.66967000  1
  O  O105  1  0.24703200  0.96410100  0.38145200  1
  O  O106  1  0.03391200  0.06120100  0.65120200  1
  O  O107  1  0.44432300  0.06708100  0.64894000  1
