# generated using pymatgen
data_Zr25Sc6O59
_symmetry_space_group_name_H-M   'P 1'
_cell_length_a   13.08281400
_cell_length_b   13.07842360
_cell_length_c   13.08596620
_cell_angle_alpha   99.87979788
_cell_angle_beta   99.91683037
_cell_angle_gamma   100.04025973
_symmetry_Int_Tables_number   1
_chemical_formula_structural   Zr25Sc6O59
_chemical_formula_sum   'Zr50 Sc12 O118'
_cell_volume   2124.38150928
_cell_formula_units_Z   2
loop_
 _symmetry_equiv_pos_site_id
 _symmetry_equiv_pos_as_xyz
  1  'x, y, z'
loop_
 _atom_site_type_symbol
 _atom_site_label
 _atom_site_symmetry_multiplicity
 _atom_site_fract_x
 _atom_site_fract_y
 _atom_site_fract_z
 _atom_site_occupancy
  Zr  Zr0  1  0.14839200  0.77373000  0.81868300  1
  Zr  Zr1  1  0.08508200  0.38692000  0.82853200  1
  Zr  Zr2  1  0.08841600  0.51127200  0.61547500  1
  Zr  Zr3  1  0.16600300  0.91095100  0.61387100  1
  Zr  Zr4  1  0.03227000  0.11299100  0.60355500  1
  Zr  Zr5  1  0.05516200  0.27654800  0.41888900  1
  Zr  Zr6  1  0.13479700  0.67320600  0.43717800  1
  Zr  Zr7  1  0.08535300  0.44782600  0.23198000  1
  Zr  Zr8  1  0.00892800  0.01993800  0.20401800  1
  Zr  Zr9  1  0.01599500  0.19670600  0.01402600  1
  Zr  Zr10  1  0.17688500  0.84578000  0.22277500  1
  Zr  Zr11  1  0.11115000  0.60807000  0.03949900  1
  Zr  Zr12  1  0.22228700  0.17839100  0.84468200  1
  Zr  Zr13  1  0.39368900  0.95949600  0.88716300  1
  Zr  Zr14  1  0.32574100  0.56304600  0.85942900  1
  Zr  Zr15  1  0.26177300  0.32859100  0.65593200  1
  Zr  Zr16  1  0.34155800  0.73553000  0.67024600  1
  Zr  Zr17  1  0.22768100  0.09019300  0.44685500  1
  Zr  Zr18  1  0.30200800  0.48818400  0.46956900  1
  Zr  Zr19  1  0.38335200  0.90542100  0.48948600  1
  Zr  Zr20  1  0.23441900  0.23699400  0.23773300  1
  Zr  Zr21  1  0.32755200  0.65889500  0.26273600  1
  Zr  Zr22  1  0.27219600  0.41876100  0.06661500  1
  Zr  Zr23  1  0.19426300  0.01092800  0.01823000  1
  Zr  Zr24  1  0.55355200  0.77013400  0.91075100  1
  Zr  Zr25  1  0.49214100  0.38408600  0.90565200  1
  Zr  Zr26  1  0.58532400  0.93506800  0.72451400  1
  Zr  Zr27  1  0.43819600  0.14159400  0.67437500  1
  Zr  Zr28  1  0.51437400  0.53028000  0.69683600  1
  Zr  Zr29  1  0.53304800  0.69567800  0.51180600  1
  Zr  Zr30  1  0.47241700  0.30398700  0.48864900  1
  Zr  Zr31  1  0.49228400  0.47223000  0.30614600  1
  Zr  Zr32  1  0.56408200  0.85979400  0.32524800  1
  Zr  Zr33  1  0.41935200  0.06405100  0.27313500  1
  Zr  Zr34  1  0.51132600  0.61771500  0.09569100  1
  Zr  Zr35  1  0.44693200  0.23108000  0.09098200  1
  Zr  Zr36  1  0.61780500  0.16991000  0.91103200  1
  Zr  Zr37  1  0.80421100  0.98534600  0.97768400  1
  Zr  Zr38  1  0.73126700  0.58334900  0.93368000  1
  Zr  Zr39  1  0.68108900  0.34387500  0.73191000  1
  Zr  Zr40  1  0.77072500  0.76173200  0.76258800  1
  Zr  Zr41  1  0.62298700  0.09546900  0.51058400  1
  Zr  Zr42  1  0.70555500  0.51043000  0.53028700  1
  Zr  Zr43  1  0.77529400  0.91002700  0.55344300  1
  Zr  Zr44  1  0.66509500  0.26375700  0.33132300  1
  Zr  Zr45  1  0.74405400  0.67201400  0.34331700  1
  Zr  Zr46  1  0.67888500  0.43892900  0.14312800  1
  Zr  Zr47  1  0.60941500  0.03962700  0.11643500  1
  Zr  Zr48  1  0.77948700  0.82028000  0.15639000  1
  Zr  Zr49  1  0.88549200  0.39395200  0.96297800  1
  Sc  Sc50  1  0.38285200  0.82836800  0.08744900  1
  Sc  Sc51  1  0.82264800  0.15262400  0.77351100  1
  Sc  Sc52  1  0.97739200  0.80033300  0.98540100  1
  Sc  Sc53  1  0.98405000  0.97800700  0.80034500  1
  Sc  Sc54  1  0.90797500  0.55455700  0.76907300  1
  Sc  Sc55  1  0.85923300  0.32491500  0.56335000  1
  Sc  Sc56  1  0.93370800  0.72345200  0.57840000  1
  Sc  Sc57  1  0.95968600  0.88389100  0.39402900  1
  Sc  Sc58  1  0.83012700  0.08742800  0.38317700  1
  Sc  Sc59  1  0.90386800  0.48815200  0.38327400  1
  Sc  Sc60  1  0.91330600  0.61744400  0.17440000  1
  Sc  Sc61  1  0.84745500  0.22567600  0.18181100  1
  O  O62  1  0.07906500  0.89598100  0.89632300  1
  O  O63  1  0.08877400  0.70859000  0.93564600  1
  O  O64  1  0.06624400  0.82036200  0.68872700  1
  O  O65  1  0.04316800  0.62622700  0.72295600  1
  O  O66  1  0.01405100  0.59971200  0.51022900  1
  O  O67  1  0.05621600  0.79791800  0.48272500  1
  O  O68  1  0.06601500  0.91201400  0.29252100  1
  O  O69  1  0.01633100  0.58480300  0.30500600  1
  O  O70  1  0.03990500  0.71854900  0.12686300  1
  O  O71  1  0.00117400  0.50402700  0.09970000  1
  O  O72  1  0.10053100  0.92341000  0.10510200  1
  O  O73  1  0.10645200  0.10252200  0.92364400  1
  O  O74  1  0.20353800  0.51640500  0.94528200  1
  O  O75  1  0.12805400  0.25346300  0.72740200  1
  O  O76  1  0.17980100  0.31042800  0.93218500  1
  O  O77  1  0.28136000  0.87738300  0.96306200  1
  O  O78  1  0.19903200  0.45823100  0.73850700  1
  O  O79  1  0.27314500  0.87217600  0.74689600  1
  O  O80  1  0.12852300  0.03954200  0.71763300  1
  O  O81  1  0.26168300  0.67918500  0.78731700  1
  O  O82  1  0.09999800  0.00289700  0.50564400  1
  O  O83  1  0.21610800  0.61068300  0.56515700  1
  O  O84  1  0.18545600  0.40504500  0.53753100  1
  O  O85  1  0.15378700  0.20740000  0.53207500  1
  O  O86  1  0.26136700  0.80195000  0.54299700  1
  O  O87  1  0.21449900  0.74059700  0.32281900  1
  O  O88  1  0.12550700  0.13340300  0.32737800  1
  O  O89  1  0.20564700  0.54797000  0.35788000  1
  O  O90  1  0.28067300  0.95918000  0.37410300  1
  O  O91  1  0.16736300  0.34263200  0.33057500  1
  O  O92  1  0.13505100  0.32947300  0.12347800  1
  O  O93  1  0.12298100  0.12449700  0.12369600  1
  O  O94  1  0.20605200  0.53293000  0.15302000  1
  O  O95  1  0.25303900  0.72628800  0.12827600  1
  O  O96  1  0.30905400  0.93296200  0.17882400  1
  O  O97  1  0.29299800  0.06542100  0.91054900  1
  O  O98  1  0.41539700  0.69346000  0.98540000  1
  O  O99  1  0.39995100  0.49022600  0.98653300  1
  O  O100  1  0.37313200  0.27973600  0.95844500  1
  O  O101  1  0.32262700  0.21372900  0.73942500  1
  O  O102  1  0.49565900  0.90015300  0.99807800  1
  O  O103  1  0.38905500  0.43472600  0.78478600  1
  O  O104  1  0.46756300  0.84637900  0.79297200  1
  O  O105  1  0.45175300  0.64203200  0.79411100  1
  O  O106  1  0.30615500  0.01389500  0.58561700  1
  O  O107  1  0.41348800  0.61116600  0.58887700  1
  O  O108  1  0.38897000  0.41122200  0.58665300  1
  O  O109  1  0.46269800  0.81455000  0.59566300  1
  O  O110  1  0.35732200  0.20468600  0.54710500  1
  O  O111  1  0.43442200  0.78467500  0.38902700  1
  O  O112  1  0.32964700  0.16633400  0.34168200  1
  O  O113  1  0.41130800  0.58664900  0.38869300  1
  O  O114  1  0.38239400  0.38289600  0.38287300  1
  O  O115  1  0.49058400  0.98718800  0.40125600  1
  O  O116  1  0.34178700  0.32861000  0.16609600  1
  O  O117  1  0.40287300  0.53566200  0.18467400  1
  O  O118  1  0.32804700  0.12324600  0.13308000  1
  O  O119  1  0.45702400  0.73776400  0.19834300  1
  O  O120  1  0.51795700  0.94755300  0.20545900  1
  O  O121  1  0.48325100  0.05488600  0.79691300  1
  O  O122  1  0.54180200  0.26133000  0.80175700  1
  O  O123  1  0.67004800  0.87795900  0.86718800  1
  O  O124  1  0.59648300  0.46488300  0.81580800  1
  O  O125  1  0.65589200  0.67089000  0.83231100  1
  O  O126  1  0.50878800  0.01356000  0.60033300  1
  O  O127  1  0.61653200  0.61587800  0.61669300  1
  O  O128  1  0.58784800  0.41286700  0.61161700  1
  O  O129  1  0.66868000  0.83038900  0.65774900  1
  O  O130  1  0.56361800  0.21558700  0.60950300  1
  O  O131  1  0.64126000  0.79646900  0.45366700  1
  O  O132  1  0.53665400  0.18515300  0.40336800  1
  O  O133  1  0.61101600  0.58940200  0.41427500  1
  O  O134  1  0.58529400  0.38904200  0.41106000  1
  O  O135  1  0.69333400  0.98590400  0.41385700  1
  O  O136  1  0.54621900  0.35952000  0.20351600  1
  O  O137  1  0.53130500  0.15428300  0.20612500  1
  O  O138  1  0.61024100  0.56519700  0.21675700  1
  O  O139  1  0.50460500  0.09966000  0.00225800  1
  O  O140  1  0.67602200  0.78650700  0.25895500  1
  O  O141  1  0.62636800  0.72058100  0.04155600  1
  O  O142  1  0.59935800  0.50997200  0.01449300  1
  O  O143  1  0.58493500  0.30544300  0.01405600  1
  O  O144  1  0.70836000  0.93457100  0.08896100  1
  O  O145  1  0.68987900  0.06631900  0.82032100  1
  O  O146  1  0.74633300  0.27479900  0.87405900  1
  O  O147  1  0.79553400  0.46814600  0.84636300  1
  O  O148  1  0.87552600  0.87756100  0.87698900  1
  O  O149  1  0.86250200  0.67225900  0.87558300  1
  O  O150  1  0.83157200  0.65473100  0.66781400  1
  O  O151  1  0.71647200  0.03728100  0.62621900  1
  O  O152  1  0.79146300  0.44797900  0.64381200  1
  O  O153  1  0.87415600  0.86568900  0.67394000  1
  O  O154  1  0.78417800  0.25728400  0.67740600  1
  O  O155  1  0.73958000  0.19791200  0.45780800  1
  O  O156  1  0.84527500  0.79397300  0.46625700  1
  O  O157  1  0.81539900  0.59700700  0.46323300  1
  O  O158  1  0.78218300  0.39105700  0.43472800  1
  O  O159  1  0.89956400  0.99849900  0.49539100  1
  O  O160  1  0.73860900  0.32150000  0.21269100  1
  O  O161  1  0.87725300  0.96155400  0.27862100  1
  O  O162  1  0.72578600  0.12829100  0.25306900  1
  O  O163  1  0.80262000  0.54343200  0.26167100  1
  O  O164  1  0.71664700  0.12234600  0.03439700  1
  O  O165  1  0.82049000  0.68928500  0.06827300  1
  O  O166  1  0.87040700  0.74735900  0.27252200  1
  O  O167  1  0.79421600  0.48101200  0.05190600  1
  O  O168  1  0.89471600  0.89835700  0.07643500  1
  O  O169  1  0.89737000  0.08057800  0.89698000  1
  O  O170  1  0.99868000  0.49520000  0.90177200  1
  O  O171  1  0.96570900  0.28302000  0.87742700  1
  O  O172  1  0.98719500  0.41336500  0.69336000  1
  O  O173  1  0.93549500  0.08803600  0.70837700  1
  O  O174  1  0.94858700  0.20543700  0.51635100  1
  O  O175  1  0.98516800  0.39983900  0.48975900  1
  O  O176  1  0.96110600  0.37104500  0.28257600  1
  O  O177  1  0.93460000  0.17474900  0.30809400  1
  O  O178  1  0.91197800  0.29195700  0.06519100  1
  O  O179  1  0.92174400  0.10481000  0.10131200  1
