# generated using pymatgen
data_Ca5Mg5P5O21F4
_symmetry_space_group_name_H-M   'P 1'
_cell_length_a   5.51042379
_cell_length_b   5.51042379
_cell_length_c   65.32242131
_cell_angle_alpha   89.61521031
_cell_angle_beta   89.61521031
_cell_angle_gamma   106.81330671
_symmetry_Int_Tables_number   1
_chemical_formula_structural   Ca5Mg5P5O21F4
_chemical_formula_sum   'Ca20 Mg20 P20 O84 F16'
_cell_volume   1898.58984304
_cell_formula_units_Z   4
loop_
 _symmetry_equiv_pos_site_id
 _symmetry_equiv_pos_as_xyz
  1  'x, y, z'
loop_
 _atom_site_type_symbol
 _atom_site_label
 _atom_site_symmetry_multiplicity
 _atom_site_fract_x
 _atom_site_fract_y
 _atom_site_fract_z
 _atom_site_occupancy
  Ca  Ca0  1  0.13776400  0.05977500  0.89972700  1
  Ca  Ca1  1  0.74078700  0.65920300  0.79999800  1
  Ca  Ca2  1  0.33860000  0.26125800  0.69994900  1
  Ca  Ca3  1  0.93861300  0.86141800  0.59999800  1
  Ca  Ca4  1  0.53858000  0.46142000  0.50000000  1
  Ca  Ca5  1  0.26222500  0.54022400  0.85028000  1
  Ca  Ca6  1  0.13858200  0.06138700  0.40000200  1
  Ca  Ca7  1  0.85974000  0.13758000  0.74967200  1
  Ca  Ca8  1  0.73874200  0.66140000  0.30005100  1
  Ca  Ca9  1  0.46138500  0.73858100  0.64999200  1
  Ca  Ca10  1  0.34079700  0.25921300  0.20000200  1
  Ca  Ca11  1  0.06144300  0.33860000  0.54999600  1
  Ca  Ca12  1  0.94022500  0.86223600  0.10027300  1
  Ca  Ca13  1  0.66140000  0.93855700  0.45000400  1
  Ca  Ca14  1  0.53926000  0.46074000  0.00000000  1
  Ca  Ca15  1  0.26141900  0.53861500  0.35000800  1
  Ca  Ca16  1  0.86242000  0.14026000  0.25032800  1
  Ca  Ca17  1  0.45977600  0.73777500  0.14972000  1
  Ca  Ca18  1  0.05928200  0.34106500  0.05004400  1
  Ca  Ca19  1  0.65893500  0.94071800  0.94995600  1
  Mg  Mg20  1  0.69996300  0.30002500  0.87499900  1
  Mg  Mg21  1  0.49759600  0.09788600  0.82548900  1
  Mg  Mg22  1  0.30197100  0.90236300  0.77447200  1
  Mg  Mg23  1  0.09958200  0.69918300  0.72484900  1
  Mg  Mg24  1  0.89987200  0.49994300  0.67495900  1
  Mg  Mg25  1  0.70000700  0.29995400  0.62499300  1
  Mg  Mg26  1  0.49996500  0.09997900  0.57499700  1
  Mg  Mg27  1  0.29998800  0.89997500  0.52499800  1
  Mg  Mg28  1  0.10002500  0.70001200  0.47500200  1
  Mg  Mg29  1  0.90002100  0.50003500  0.42500300  1
  Mg  Mg30  1  0.70004600  0.29999300  0.37500700  1
  Mg  Mg31  1  0.50005700  0.10012800  0.32504100  1
  Mg  Mg32  1  0.30081700  0.90041800  0.27515100  1
  Mg  Mg33  1  0.09763700  0.69802900  0.22552800  1
  Mg  Mg34  1  0.90211400  0.50240400  0.17451100  1
  Mg  Mg35  1  0.69997500  0.30003700  0.12500100  1
  Mg  Mg36  1  0.49804000  0.09765000  0.07550900  1
  Mg  Mg37  1  0.30273300  0.90274500  0.02461800  1
  Mg  Mg38  1  0.09725500  0.69726700  0.97538200  1
  Mg  Mg39  1  0.90235000  0.50196000  0.92449100  1
  P  P40  1  0.92043100  0.87814600  0.85030700  1
  P  P41  1  0.52145900  0.47939500  0.74962800  1
  P  P42  1  0.12111900  0.07887400  0.64998800  1
  P  P43  1  0.72110900  0.67886900  0.54996900  1
  P  P44  1  0.47954100  0.72179800  0.89968700  1
  P  P45  1  0.32113100  0.27889100  0.45003100  1
  P  P46  1  0.07930700  0.32068800  0.79999400  1
  P  P47  1  0.92112600  0.87888100  0.35001200  1
  P  P48  1  0.67845700  0.92082900  0.69990800  1
  P  P49  1  0.52060500  0.47854100  0.25037200  1
  P  P50  1  0.27888600  0.52112700  0.59998000  1
  P  P51  1  0.12185400  0.07956900  0.14969300  1
  P  P52  1  0.87889800  0.12110200  0.50000000  1
  P  P53  1  0.72105600  0.67951000  0.05005500  1
  P  P54  1  0.47887300  0.72111400  0.40002000  1
  P  P55  1  0.32049000  0.27894400  0.94994500  1
  P  P56  1  0.07917100  0.32154300  0.30009200  1
  P  P57  1  0.67931200  0.92069300  0.20000600  1
  P  P58  1  0.27820200  0.52045900  0.10031300  1
  P  P59  1  0.87900300  0.12099700  0.00000000  1
  O  O60  1  0.26879500  0.72321300  0.91576600  1
  O  O61  1  0.97676000  0.13606300  0.86175300  1
  O  O62  1  0.86482700  0.31987400  0.81580200  1
  O  O63  1  0.92533700  0.66647100  0.86611500  1
  O  O64  1  0.66193000  0.82293800  0.83913500  1
  O  O65  1  0.57681500  0.73795000  0.76081300  1
  O  O66  1  0.46580200  0.92212000  0.71577700  1
  O  O67  1  0.48681400  0.91313200  0.79998700  1
  O  O68  1  0.52304900  0.26868700  0.76571100  1
  O  O69  1  0.26350200  0.42293500  0.73820800  1
  O  O70  1  0.73811700  0.77713900  0.91085700  1
  O  O71  1  0.17552100  0.33569800  0.66157100  1
  O  O72  1  0.47459700  0.93359100  0.88389100  1
  O  O73  1  0.06629600  0.52245400  0.61584600  1
  O  O74  1  0.12244600  0.86634000  0.66584000  1
  O  O75  1  0.42320100  0.46405300  0.88825400  1
  O  O76  1  0.86430500  0.02444900  0.63840700  1
  O  O77  1  0.33469500  0.37837200  0.81170200  1
  O  O78  1  0.77551700  0.93578100  0.56159200  1
  O  O79  1  0.08006500  0.53525100  0.78419600  1
  O  O80  1  0.13122800  0.87678200  0.83424400  1
  O  O81  1  0.66630100  0.12247000  0.51584300  1
  O  O82  1  0.72246500  0.46622000  0.56585100  1
  O  O83  1  0.02160600  0.06533000  0.78827900  1
  O  O84  1  0.46439400  0.62448800  0.53842000  1
  O  O85  1  0.93533300  0.97519100  0.71154000  1
  O  O86  1  0.37551200  0.53560600  0.46158000  1
  O  O87  1  0.67730600  0.13347100  0.68411000  1
  O  O88  1  0.73298700  0.47429400  0.73382100  1
  O  O89  1  0.26645600  0.72249900  0.41583700  1
  O  O90  1  0.32251700  0.06646000  0.46583400  1
  O  O91  1  0.62423900  0.66423800  0.68836400  1
  O  O92  1  0.06421900  0.22448300  0.43840800  1
  O  O93  1  0.53575500  0.57548800  0.61159000  1
  O  O94  1  0.97555100  0.13569500  0.36159300  1
  O  O95  1  0.27750100  0.73354400  0.58416300  1
  O  O96  1  0.33366500  0.07745300  0.63415100  1
  O  O97  1  0.86652900  0.32269400  0.31589000  1
  O  O98  1  0.92254700  0.66633500  0.36584900  1
  O  O99  1  0.22449800  0.26433600  0.58841600  1
  O  O100  1  0.66430200  0.82447900  0.33842900  1
  O  O101  1  0.13568900  0.17551200  0.51158700  1
  O  O102  1  0.57706500  0.73649800  0.26179200  1
  O  O103  1  0.87753000  0.33369900  0.48415700  1
  O  O104  1  0.93354000  0.67748300  0.53416600  1
  O  O105  1  0.46474900  0.91993500  0.21580400  1
  O  O106  1  0.52570600  0.26701300  0.26617900  1
  O  O107  1  0.82448800  0.86431100  0.48841300  1
  O  O108  1  0.26205000  0.42318500  0.23918700  1
  O  O109  1  0.73566400  0.77550200  0.41158400  1
  O  O110  1  0.17706200  0.33807000  0.16086500  1
  O  O111  1  0.47754600  0.93370400  0.38415400  1
  O  O112  1  0.53378000  0.27753500  0.43414900  1
  O  O113  1  0.06640900  0.52540300  0.11610900  1
  O  O114  1  0.08686800  0.51318600  0.20001300  1
  O  O115  1  0.12321800  0.86877200  0.16575600  1
  O  O116  1  0.42451200  0.46424500  0.38841000  1
  O  O117  1  0.86393700  0.02324000  0.13824700  1
  O  O118  1  0.33576200  0.37576100  0.31163600  1
  O  O119  1  0.77872100  0.93484900  0.06174800  1
  O  O120  1  0.07788000  0.53419800  0.28422300  1
  O  O121  1  0.13366000  0.87755400  0.33416000  1
  O  O122  1  0.66923500  0.12637900  0.01605100  1
  O  O123  1  0.72008700  0.46495600  0.06585400  1
  O  O124  1  0.02480900  0.06466700  0.28846000  1
  O  O125  1  0.46577800  0.62191800  0.03832500  1
  O  O126  1  0.93467000  0.97839400  0.21172100  1
  O  O127  1  0.37808200  0.53422200  0.96167500  1
  O  O128  1  0.68012600  0.13517300  0.18419800  1
  O  O129  1  0.73131300  0.47695100  0.23428900  1
  O  O130  1  0.31970300  0.06430500  0.96574400  1
  O  O131  1  0.62162800  0.66530500  0.18829800  1
  O  O132  1  0.06515100  0.22127900  0.93825200  1
  O  O133  1  0.53594700  0.57679900  0.11174600  1
  O  O134  1  0.27678700  0.73120500  0.08423400  1
  O  O135  1  0.31309300  0.08694200  0.05005800  1
  O  O136  1  0.33352900  0.07466300  0.13388500  1
  O  O137  1  0.22286100  0.26188300  0.08914300  1
  O  O138  1  0.13869900  0.17848600  0.01101300  1
  O  O139  1  0.87362100  0.33076500  0.98394900  1
  O  O140  1  0.91305800  0.68690700  0.94994200  1
  O  O141  1  0.93569500  0.68029700  0.03425600  1
  O  O142  1  0.82151400  0.86130100  0.98898700  1
  O  O143  1  0.53504400  0.27991300  0.93414600  1
  F  F144  1  0.88492600  0.31274800  0.89986600  1
  F  F145  1  0.51505700  0.28715400  0.85009800  1
  F  F146  1  0.08534800  0.51463000  0.69992200  1
  F  F147  1  0.11311300  0.88482200  0.74982700  1
  F  F148  1  0.68516600  0.11481400  0.59999400  1
  F  F149  1  0.71476800  0.48520300  0.64997900  1
  F  F150  1  0.28520800  0.71479200  0.50000000  1
  F  F151  1  0.31479400  0.08515100  0.54999200  1
  F  F152  1  0.88518600  0.31483400  0.40000600  1
  F  F153  1  0.91484900  0.68520600  0.45000800  1
  F  F154  1  0.48537000  0.91465200  0.30007800  1
  F  F155  1  0.51479700  0.28523200  0.35002100  1
  F  F156  1  0.11517800  0.88688700  0.25017300  1
  F  F157  1  0.68725200  0.11507400  0.10013400  1
  F  F158  1  0.71284600  0.48494300  0.14990200  1
  F  F159  1  0.28656000  0.71344000  0.00000000  1
