# generated using pymatgen
data_Na3MgZr(PO4)3
_symmetry_space_group_name_H-M   'P 1'
_cell_length_a   9.06982700
_cell_length_b   9.07946233
_cell_length_c   22.20520136
_cell_angle_alpha   90.13218532
_cell_angle_beta   90.09148409
_cell_angle_gamma   119.86107991
_symmetry_Int_Tables_number   1
_chemical_formula_structural   Na3MgZr(PO4)3
_chemical_formula_sum   'Na18 Mg6 Zr6 P18 O72'
_cell_volume   1585.79628857
_cell_formula_units_Z   6
loop_
 _symmetry_equiv_pos_site_id
 _symmetry_equiv_pos_as_xyz
  1  'x, y, z'
loop_
 _atom_site_type_symbol
 _atom_site_label
 _atom_site_symmetry_multiplicity
 _atom_site_fract_x
 _atom_site_fract_y
 _atom_site_fract_z
 _atom_site_occupancy
  Na  Na0  1  0.66509400  0.32488500  0.67265500  1
  Na  Na1  1  0.11950000  0.22219800  0.87113700  1
  Na  Na2  1  0.33909500  0.68320700  0.83232000  1
  Na  Na3  1  0.54525600  0.08592300  0.79395000  1
  Na  Na4  1  0.34365300  0.66764400  0.33903900  1
  Na  Na5  1  0.08168800  0.54256500  0.70839300  1
  Na  Na6  1  0.03804700  0.72497200  0.91775200  1
  Na  Na7  1  0.78385000  0.56830400  0.53483800  1
  Na  Na8  1  0.00673600  0.01779100  0.49865300  1
  Na  Na9  1  0.21099400  0.41614400  0.45992500  1
  Na  Na10  1  0.74978100  0.88379300  0.37239400  1
  Na  Na11  1  0.70938000  0.03874800  0.58411800  1
  Na  Na12  1  0.90432800  0.43165100  0.29659700  1
  Na  Na13  1  0.46607900  0.91546800  0.20429200  1
  Na  Na14  1  0.68602900  0.32342500  0.16513500  1
  Na  Na15  1  0.89587400  0.77878200  0.12063600  1
  Na  Na16  1  0.40191500  0.18591000  0.03638800  1
  Na  Na17  1  0.36478000  0.35529200  0.25652500  1
  Mg  Mg18  1  0.12951100  0.86683000  0.78152700  1
  Mg  Mg19  1  0.86899900  0.12870100  0.71596600  1
  Mg  Mg20  1  0.86749200  0.13761700  0.21409800  1
  Mg  Mg21  1  0.79518500  0.19810600  0.44899500  1
  Mg  Mg22  1  0.53191600  0.46085100  0.38364600  1
  Mg  Mg23  1  0.19760200  0.80127100  0.04889700  1
  Zr  Zr24  1  0.80580900  0.18021400  0.95484600  1
  Zr  Zr25  1  0.53388800  0.47936200  0.88041500  1
  Zr  Zr26  1  0.47055800  0.52302800  0.62152200  1
  Zr  Zr27  1  0.19949900  0.81533800  0.54852200  1
  Zr  Zr28  1  0.14142200  0.86894500  0.28722300  1
  Zr  Zr29  1  0.46378200  0.53128500  0.11637500  1
  P  P30  1  0.80286800  0.90194600  0.84400000  1
  P  P31  1  0.28925800  0.28800000  0.75061300  1
  P  P32  1  0.23353700  0.47901800  0.98263200  1
  P  P33  1  0.43381800  0.86659900  0.68322600  1
  P  P34  1  0.37116700  0.03731600  0.91511500  1
  P  P35  1  0.47356000  0.23840900  0.51341800  1
  P  P36  1  0.87057200  0.42993000  0.81909700  1
  P  P37  1  0.95577300  0.62261900  0.41652500  1
  P  P38  1  0.90223200  0.80420600  0.65171300  1
  P  P39  1  0.09360700  0.20655500  0.34863300  1
  P  P40  1  0.03301500  0.37218600  0.58272800  1
  P  P41  1  0.12690200  0.56888900  0.18110800  1
  P  P42  1  0.53481900  0.76364200  0.48497600  1
  P  P43  1  0.62188800  0.96588500  0.08595600  1
  P  P44  1  0.57155600  0.13749200  0.31778900  1
  P  P45  1  0.76674300  0.52562100  0.01551100  1
  P  P46  1  0.70166000  0.70649500  0.25015800  1
  P  P47  1  0.19691400  0.09733900  0.15233700  1
  O  O48  1  0.71479200  0.45403800  0.83414300  1
  O  O49  1  0.67113200  0.54507500  0.96067500  1
  O  O50  1  0.83917800  0.01075600  0.90295300  1
  O  O51  1  0.38697400  0.21500100  0.90286900  1
  O  O52  1  0.77266000  0.99209500  0.79165900  1
  O  O53  1  0.63377400  0.73103000  0.85524600  1
  O  O54  1  0.41854100  0.37320400  0.69747200  1
  O  O55  1  0.36632100  0.41269500  0.80627300  1
  O  O56  1  0.33643800  0.50365100  0.92341200  1
  O  O57  1  0.45996300  0.71279500  0.66893200  1
  O  O58  1  0.60323000  0.03490100  0.68791000  1
  O  O59  1  0.55635100  0.07372900  0.92518700  1
  O  O60  1  0.11892400  0.27796600  0.73763700  1
  O  O61  1  0.37944700  0.78667300  0.50059600  1
  O  O62  1  0.06711700  0.30664700  0.97406100  1
  O  O63  1  0.20570400  0.62746700  0.99274000  1
  O  O64  1  0.32689300  0.82411200  0.74079500  1
  O  O65  1  0.33706100  0.88024100  0.62706100  1
  O  O66  1  0.29925100  0.91816500  0.85994200  1
  O  O67  1  0.51140300  0.34342400  0.57400000  1
  O  O68  1  0.05162000  0.54928000  0.56852800  1
  O  O69  1  0.25946400  0.96120200  0.97070300  1
  O  O70  1  0.44634700  0.33462800  0.46253600  1
  O  O71  1  0.30240000  0.06778500  0.52314900  1
  O  O72  1  0.03541500  0.60270400  0.81237000  1
  O  O73  1  0.89177700  0.33528400  0.87343200  1
  O  O74  1  0.07844400  0.70031400  0.36102100  1
  O  O75  1  0.28043100  0.12009300  0.76527900  1
  O  O76  1  0.82450200  0.32511700  0.76006800  1
  O  O77  1  0.03654700  0.74769000  0.47128700  1
  O  O78  1  0.99766100  0.77588800  0.70274000  1
  O  O79  1  0.99847700  0.83159600  0.58935600  1
  O  O80  1  0.11892100  0.05012300  0.33303700  1
  O  O81  1  0.26899400  0.36939500  0.35680000  1
  O  O82  1  0.95616600  0.87573500  0.83709400  1
  O  O83  1  0.21688400  0.40627600  0.59558400  1
  O  O84  1  0.78426300  0.61093500  0.40431500  1
  O  O85  1  0.04504500  0.11905400  0.16607800  1
  O  O86  1  0.73224300  0.62924500  0.64050200  1
  O  O87  1  0.86610700  0.95037000  0.65871600  1
  O  O88  1  0.99182800  0.15921000  0.40807000  1
  O  O89  1  0.00238800  0.23115800  0.29488500  1
  O  O90  1  0.96440500  0.25095500  0.52801900  1
  O  O91  1  0.17843900  0.67752100  0.24139800  1
  O  O92  1  0.72035200  0.87967400  0.23685800  1
  O  O93  1  0.91635900  0.29974900  0.63803300  1
  O  O94  1  0.11023900  0.66888400  0.12964900  1
  O  O95  1  0.96316800  0.40161000  0.19355500  1
  O  O96  1  0.70079600  0.93571400  0.47942900  1
  O  O97  1  0.55609300  0.66678700  0.53924700  1
  O  O98  1  0.74219700  0.03557200  0.03117500  1
  O  O99  1  0.94421600  0.45146300  0.42890600  1
  O  O100  1  0.49073400  0.66003300  0.42599800  1
  O  O101  1  0.69927800  0.07975600  0.14145600  1
  O  O102  1  0.66516800  0.10986900  0.37014200  1
  O  O103  1  0.67038500  0.17151000  0.25750800  1
  O  O104  1  0.77833000  0.36377000  0.00458100  1
  O  O105  1  0.93670900  0.68706800  0.02365300  1
  O  O106  1  0.62516700  0.21004600  0.50553800  1
  O  O107  1  0.88144300  0.72605200  0.26193500  1
  O  O108  1  0.44720200  0.94472000  0.07353500  1
  O  O109  1  0.39840500  0.96293800  0.30813000  1
  O  O110  1  0.53704700  0.28549300  0.32751400  1
  O  O111  1  0.65454800  0.48890600  0.07380000  1
  O  O112  1  0.62794100  0.58141900  0.19447500  1
  O  O113  1  0.58105400  0.62475000  0.30421300  1
  O  O114  1  0.36706100  0.27377900  0.14555700  1
  O  O115  1  0.23366100  0.01527100  0.20895000  1
  O  O116  1  0.60196000  0.78545200  0.09956500  1
  O  O117  1  0.17063200  0.99323000  0.09544900  1
  O  O118  1  0.33080100  0.45308700  0.03664900  1
  O  O119  1  0.28416700  0.54111300  0.17032200  1
