# generated using pymatgen
data_Na7AlSn11(PO4)18
_symmetry_space_group_name_H-M   'P 1'
_cell_length_a   8.66417700
_cell_length_b   9.05622047
_cell_length_c   21.39993600
_cell_angle_alpha   92.06532851
_cell_angle_beta   89.89818183
_cell_angle_gamma   118.54669687
_symmetry_Int_Tables_number   1
_chemical_formula_structural   Na7AlSn11(PO4)18
_chemical_formula_sum   'Na7 Al1 Sn11 P18 O72'
_cell_volume   1473.81668458
_cell_formula_units_Z   1
loop_
 _symmetry_equiv_pos_site_id
 _symmetry_equiv_pos_as_xyz
  1  'x, y, z'
loop_
 _atom_site_type_symbol
 _atom_site_label
 _atom_site_symmetry_multiplicity
 _atom_site_fract_x
 _atom_site_fract_y
 _atom_site_fract_z
 _atom_site_occupancy
  Na  Na0  1  0.00274000  0.99909800  0.00206500  1
  Na  Na1  1  0.33291300  0.66686600  0.16626900  1
  Na  Na2  1  0.66666300  0.33326500  0.33318800  1
  Na  Na3  1  0.99997500  0.99993800  0.49987100  1
  Na  Na4  1  0.33309500  0.66685400  0.66683100  1
  Na  Na5  1  0.66072400  0.33127400  0.83389500  1
  Na  Na6  1  0.88801100  0.11639800  0.86922700  1
  Al  Al7  1  0.46191500  0.93506400  0.88322400  1
  Sn  Sn8  1  0.80770600  0.61239600  0.04735800  1
  Sn  Sn9  1  0.52976300  0.05962500  0.11700200  1
  Sn  Sn10  1  0.47257400  0.94506500  0.38175400  1
  Sn  Sn11  1  0.19710500  0.39412800  0.45063500  1
  Sn  Sn12  1  0.13614600  0.27267100  0.21588300  1
  Sn  Sn13  1  0.13930400  0.27922600  0.71556400  1
  Sn  Sn14  1  0.86085700  0.72145600  0.28470400  1
  Sn  Sn15  1  0.86386700  0.72576600  0.78440200  1
  Sn  Sn16  1  0.80303000  0.60612500  0.54914300  1
  Sn  Sn17  1  0.52684700  0.05482500  0.61767300  1
  Sn  Sn18  1  0.20079100  0.39607900  0.95291100  1
  P  P19  1  0.80584900  0.90265100  0.15244900  1
  P  P20  1  0.29250900  0.00063200  0.25020100  1
  P  P21  1  0.24103900  0.77026300  0.01101300  1
  P  P22  1  0.43111600  0.56897700  0.31933500  1
  P  P23  1  0.37499000  0.33318000  0.08320600  1
  P  P24  1  0.47244500  0.23632400  0.48567400  1
  P  P25  1  0.86020600  0.43009900  0.18063900  1
  P  P26  1  0.95902300  0.33388400  0.58350100  1
  P  P27  1  0.90226000  0.09753200  0.34728400  1
  P  P28  1  0.09732100  0.90232800  0.65284500  1
  P  P29  1  0.04083900  0.66615300  0.41641600  1
  P  P30  1  0.14678500  0.57699900  0.82053900  1
  P  P31  1  0.52733500  0.76375400  0.51413800  1
  P  P32  1  0.62478400  0.67568200  0.91595800  1
  P  P33  1  0.56905300  0.43078200  0.68051300  1
  P  P34  1  0.75796900  0.23092200  0.98457400  1
  P  P35  1  0.70021600  0.99595100  0.75061600  1
  P  P36  1  0.20306300  0.09512300  0.84797500  1
  O  O37  1  0.68969800  0.26051100  0.17433300  1
  O  O38  1  0.70074800  0.13254800  0.04501900  1
  O  O39  1  0.81796000  0.82810900  0.08760400  1
  O  O40  1  0.39141700  0.17145100  0.08483000  1
  O  O41  1  0.63791200  0.92215700  0.15502200  1
  O  O42  1  0.78434100  0.78207200  0.20443200  1
  O  O43  1  0.43632200  0.04127800  0.30061600  1
  O  O44  1  0.34848800  0.95426400  0.18698100  1
  O  O45  1  0.37030400  0.83841400  0.06813900  1
  O  O46  1  0.46834900  0.75183000  0.32954800  1
  O  O47  1  0.60017400  0.56112600  0.30176300  1
  O  O48  1  0.54640200  0.49002600  0.06715100  1
  O  O49  1  0.12102200  0.84370700  0.26613300  1
  O  O50  1  0.06959200  0.77531400  0.02942800  1
  O  O51  1  0.35672300  0.59434400  0.50788900  1
  O  O52  1  0.19780800  0.58382100  0.00420100  1
  O  O53  1  0.36730100  0.46505700  0.37843600  1
  O  O54  1  0.29655300  0.49684000  0.26432100  1
  O  O55  1  0.31831300  0.37937300  0.14634600  1
  O  O56  1  0.48434500  0.16159600  0.42095100  1
  O  O57  1  0.05815900  0.50470500  0.41818600  1
  O  O58  1  0.23033100  0.29196600  0.03275800  1
  O  O59  1  0.30448500  0.25571500  0.48827800  1
  O  O60  1  0.88185400  0.55137700  0.12872400  1
  O  O61  1  0.45067500  0.11540200  0.53758500  1
  O  O62  1  0.02860600  0.41106900  0.17845000  1
  O  O63  1  0.10292600  0.37446500  0.63400700  1
  O  O64  1  0.27493400  0.16201500  0.24859000  1
  O  O65  1  0.84881500  0.50471300  0.24560400  1
  O  O66  1  0.01502700  0.28753400  0.52027500  1
  O  O67  1  0.03663900  0.16965000  0.40241700  1
  O  O68  1  0.96630000  0.20171200  0.28829800  1
  O  O69  1  0.13475500  0.08554500  0.66296300  1
  O  O70  1  0.97661100  0.07211200  0.15877700  1
  O  O71  1  0.26633700  0.89451600  0.63502600  1
  O  O72  1  0.21251200  0.82308300  0.40071800  1
  O  O73  1  0.78765900  0.17695100  0.59957900  1
  O  O74  1  0.73328600  0.10554900  0.36499600  1
  O  O75  1  0.02204200  0.93185600  0.84104000  1
  O  O76  1  0.86497600  0.91465900  0.33714200  1
  O  O77  1  0.03355400  0.79849200  0.71191700  1
  O  O78  1  0.96314400  0.83024700  0.59766600  1
  O  O79  1  0.98505200  0.71253800  0.47974100  1
  O  O80  1  0.15592200  0.49923400  0.75537400  1
  O  O81  1  0.72584000  0.83872600  0.75168800  1
  O  O82  1  0.89693800  0.62561800  0.36611700  1
  O  O83  1  0.97409900  0.59035100  0.82160200  1
  O  O84  1  0.54884100  0.88462900  0.46226200  1
  O  O85  1  0.11470800  0.44409900  0.87051300  1
  O  O86  1  0.69541400  0.74448500  0.51175600  1
  O  O87  1  0.76825600  0.71298100  0.96677300  1
  O  O88  1  0.94156500  0.49522800  0.58188200  1
  O  O89  1  0.51557700  0.83833500  0.57896500  1
  O  O90  1  0.68261500  0.62363000  0.85367700  1
  O  O91  1  0.70332200  0.50225200  0.73565800  1
  O  O92  1  0.63298100  0.53490300  0.62148000  1
  O  O93  1  0.79732300  0.41503000  0.99488400  1
  O  O94  1  0.64322800  0.40547100  0.49215700  1
  O  O95  1  0.93323000  0.22859800  0.96723300  1
  O  O96  1  0.87719400  0.15557100  0.73785400  1
  O  O97  1  0.45700000  0.51358300  0.93228700  1
  O  O98  1  0.40014400  0.43899000  0.69817900  1
  O  O99  1  0.53139400  0.24771700  0.67031100  1
  O  O100  1  0.62981600  0.14844100  0.92866800  1
  O  O101  1  0.63650400  0.03297600  0.81381400  1
  O  O102  1  0.56205400  0.95823400  0.69868900  1
  O  O103  1  0.21791600  0.21530100  0.79604000  1
  O  O104  1  0.36284500  0.06710200  0.84871300  1
  O  O105  1  0.60131900  0.83245700  0.91076700  1
  O  O106  1  0.17880200  0.17241300  0.91136100  1
  O  O107  1  0.31271300  0.86827500  0.95192700  1
  O  O108  1  0.31249500  0.74497300  0.83167800  1
