# generated using pymatgen
data_Cr(PO3)4
_symmetry_space_group_name_H-M   'P 1'
_cell_length_a   7.33081977
_cell_length_b   7.33173010
_cell_length_c   9.79990039
_cell_angle_alpha   83.53047136
_cell_angle_beta   67.85308867
_cell_angle_gamma   110.21624691
_symmetry_Int_Tables_number   1
_chemical_formula_structural   Cr(PO3)4
_chemical_formula_sum   'Cr2 P8 O24'
_cell_volume   439.55716427
_cell_formula_units_Z   2
loop_
 _symmetry_equiv_pos_site_id
 _symmetry_equiv_pos_as_xyz
  1  'x, y, z'
loop_
 _atom_site_type_symbol
 _atom_site_label
 _atom_site_symmetry_multiplicity
 _atom_site_fract_x
 _atom_site_fract_y
 _atom_site_fract_z
 _atom_site_occupancy
  Cr  Cr0  1  0.00000000  0.50000000  0.00000000  1
  Cr  Cr1  1  0.00000000  0.00000000  0.50000000  1
  P  P2  1  0.73638100  0.27176300  0.53015800  1
  P  P3  1  0.48528800  0.30567200  0.19658600  1
  P  P4  1  0.30189700  0.26651400  0.96984200  1
  P  P5  1  0.00222900  0.68189800  0.30341500  1
  P  P6  1  0.51471200  0.69432800  0.80341400  1
  P  P7  1  0.69810300  0.73348600  0.03015800  1
  P  P8  1  0.99777100  0.31810200  0.69658500  1
  P  P9  1  0.26361900  0.72823700  0.46984200  1
  O  O10  1  0.29548100  0.68926300  0.83505900  1
  O  O11  1  0.19871900  0.66757000  0.33457900  1
  O  O12  1  0.58177300  0.78141100  0.92966900  1
  O  O13  1  0.30697300  0.18941500  0.35451400  1
  O  O14  1  0.04394300  0.66153500  0.14545000  1
  O  O15  1  0.80128100  0.33243000  0.66542100  1
  O  O16  1  0.76309900  0.90573900  0.09563700  1
  O  O17  1  0.21108400  0.51138600  0.57033800  1
  O  O18  1  0.50114200  0.85841600  0.40435900  1
  O  O19  1  0.78891600  0.48861400  0.42966200  1
  O  O20  1  0.50224700  0.53338000  0.16540400  1
  O  O21  1  0.70451900  0.31073700  0.16494100  1
  O  O22  1  0.41822700  0.21858900  0.07033100  1
  O  O23  1  0.49885800  0.14158400  0.59564100  1
  O  O24  1  0.12902300  0.33160500  0.06541300  1
  O  O25  1  0.95605700  0.33846500  0.85455000  1
  O  O26  1  0.97563000  0.86943800  0.33505100  1
  O  O27  1  0.10292300  0.80538700  0.56535800  1
  O  O28  1  0.23690100  0.09426100  0.90436300  1
  O  O29  1  0.02437000  0.13056200  0.66494900  1
  O  O30  1  0.49775300  0.46662000  0.83459600  1
  O  O31  1  0.69302700  0.81058500  0.64548600  1
  O  O32  1  0.87097700  0.66839500  0.93458700  1
  O  O33  1  0.89707700  0.19461300  0.43464200  1
