# generated using pymatgen
data_H(WO3)2
_symmetry_space_group_name_H-M   'P 1'
_cell_length_a   5.47393068
_cell_length_b   5.47393068
_cell_length_c   5.47393068
_cell_angle_alpha   119.90230282
_cell_angle_beta   119.81371945
_cell_angle_gamma   90.24612542
_symmetry_Int_Tables_number   1
_chemical_formula_structural   H(WO3)2
_chemical_formula_sum   'H1 W2 O6'
_cell_volume   116.22760434
_cell_formula_units_Z   1
loop_
 _symmetry_equiv_pos_site_id
 _symmetry_equiv_pos_as_xyz
  1  'x, y, z'
loop_
 _atom_site_type_symbol
 _atom_site_label
 _atom_site_symmetry_multiplicity
 _atom_site_fract_x
 _atom_site_fract_y
 _atom_site_fract_z
 _atom_site_occupancy
  H  H0  1  0.99772700  0.00000000  0.99772700  1
  W  W1  1  0.24228500  0.75229300  0.48999300  1
  W  W2  1  0.73770000  0.24770700  0.48999300  1
  O  O3  1  0.50454600  0.49507400  0.50291900  1
  O  O4  1  0.51378000  0.00000000  0.51378000  1
  O  O5  1  0.50454600  0.00162700  0.00947100  1
  O  O6  1  0.00784500  0.99837300  0.50291900  1
  O  O7  1  0.00692200  0.50000000  0.50692200  1
  O  O8  1  0.00784500  0.50492600  0.00947100  1
