# generated using pymatgen
data_Rb2YbTi(PO4)3
_symmetry_space_group_name_H-M   'P 1'
_cell_length_a   10.38589100
_cell_length_b   10.42533800
_cell_length_c   20.73047035
_cell_angle_alpha   89.98946146
_cell_angle_beta   90.00000000
_cell_angle_gamma   90.00000000
_symmetry_Int_Tables_number   1
_chemical_formula_structural   Rb2YbTi(PO4)3
_chemical_formula_sum   'Rb16 Yb8 Ti8 P24 O96'
_cell_volume   2244.62116164
_cell_formula_units_Z   8
loop_
 _symmetry_equiv_pos_site_id
 _symmetry_equiv_pos_as_xyz
  1  'x, y, z'
loop_
 _atom_site_type_symbol
 _atom_site_label
 _atom_site_symmetry_multiplicity
 _atom_site_fract_x
 _atom_site_fract_y
 _atom_site_fract_z
 _atom_site_occupancy
  Yb  Yb0  1  0.91370300  0.83426600  0.04289100  1
  Yb  Yb1  1  0.85269400  0.39026300  0.42141700  1
  Yb  Yb2  1  0.58677200  0.66681600  0.78896900  1
  Yb  Yb3  1  0.58706100  0.66846400  0.29610100  1
  Yb  Yb4  1  0.41370300  0.16573400  0.95710900  1
  Yb  Yb5  1  0.35269400  0.60973700  0.57858300  1
  Yb  Yb6  1  0.08706100  0.33153600  0.70389900  1
  Yb  Yb7  1  0.08677200  0.33318400  0.21103100  1
  Rb  Rb8  1  0.93263000  0.67038400  0.71519800  1
  Rb  Rb9  1  0.92578100  0.67475800  0.21504500  1
  Rb  Rb10  1  0.79035400  0.03951400  0.85395400  1
  Rb  Rb11  1  0.79595400  0.04199700  0.35400800  1
  Rb  Rb12  1  0.70814500  0.45544900  0.60201800  1
  Rb  Rb13  1  0.70900900  0.45942500  0.10311000  1
  Rb  Rb14  1  0.57445800  0.82503300  0.96215100  1
  Rb  Rb15  1  0.56939700  0.80900400  0.46418700  1
  Rb  Rb16  1  0.42578100  0.32524200  0.78495500  1
  Rb  Rb17  1  0.43263000  0.32961600  0.28480200  1
  Rb  Rb18  1  0.29595400  0.95800300  0.64599200  1
  Rb  Rb19  1  0.29035400  0.96048600  0.14604600  1
  Rb  Rb20  1  0.20814500  0.54455100  0.39798200  1
  Rb  Rb21  1  0.20900900  0.54057500  0.89689000  1
  Rb  Rb22  1  0.06939700  0.19099600  0.53581300  1
  Rb  Rb23  1  0.07445800  0.17496700  0.03784900  1
  Ti  Ti24  1  0.91979700  0.83958600  0.54210800  1
  Ti  Ti25  1  0.85665400  0.39427100  0.92810900  1
  Ti  Ti26  1  0.64448200  0.09966900  0.67943000  1
  Ti  Ti27  1  0.64257500  0.10700900  0.17500800  1
  Ti  Ti28  1  0.41979700  0.16041400  0.45789200  1
  Ti  Ti29  1  0.35665400  0.60572900  0.07189100  1
  Ti  Ti30  1  0.14257500  0.89299100  0.82499200  1
  Ti  Ti31  1  0.14448200  0.90033100  0.32057000  1
  P  P32  1  0.95635200  0.00629500  0.68753800  1
  P  P33  1  0.95261100  0.01349700  0.19184800  1
  P  P34  1  0.89141300  0.72133400  0.38704600  1
  P  P35  1  0.88246900  0.70414000  0.88157000  1
  P  P36  1  0.76201200  0.36138800  0.77268700  1
  P  P37  1  0.75530000  0.36166200  0.26609900  1
  P  P38  1  0.72740200  0.11677700  0.52366600  1
  P  P39  1  0.73963100  0.13514400  0.02090500  1
  P  P40  1  0.64098900  0.79765600  0.62974800  1
  P  P41  1  0.61217000  0.79549500  0.13214500  1
  P  P42  1  0.54690300  0.49006300  0.94218100  1
  P  P43  1  0.53242900  0.46730900  0.44006500  1
  P  P44  1  0.45261100  0.98650300  0.80815200  1
  P  P45  1  0.45635200  0.99370500  0.31246200  1
  P  P46  1  0.39141300  0.27866600  0.61295400  1
  P  P47  1  0.38246900  0.29586000  0.11843000  1
  P  P48  1  0.25530000  0.63833800  0.73390100  1
  P  P49  1  0.26201200  0.63861200  0.22731300  1
  P  P50  1  0.23963100  0.86485600  0.97909500  1
  P  P51  1  0.22740200  0.88322300  0.47633400  1
  P  P52  1  0.14098900  0.20234400  0.37025200  1
  P  P53  1  0.11217000  0.20450500  0.86785500  1
  P  P54  1  0.03242900  0.53269100  0.55993500  1
  P  P55  1  0.04690300  0.50993700  0.05781900  1
  O  O56  1  0.99542900  0.67925500  0.56583800  1
  O  O57  1  0.99243000  0.64178900  0.07371500  1
  O  O58  1  0.99669100  0.80567600  0.35293100  1
  O  O59  1  0.00252800  0.78041900  0.85545000  1
  O  O60  1  0.97008700  0.91823300  0.62619200  1
  O  O61  1  0.97914000  0.91718400  0.13811400  1
  O  O62  1  0.94178600  0.46693000  0.51196700  1
  O  O63  1  0.97852400  0.45472000  0.99572000  1
  O  O64  1  0.93447500  0.58137500  0.38469800  1
  O  O65  1  0.91538500  0.55649300  0.88339200  1
  O  O66  1  0.89568900  0.38756800  0.74675500  1
  O  O67  1  0.89349500  0.39579000  0.24752300  1
  O  O68  1  0.87798100  0.77002700  0.45830600  1
  O  O69  1  0.84860000  0.75385200  0.94836600  1
  O  O70  1  0.80919300  0.99146300  0.51559000  1
  O  O71  1  0.83632400  0.02766700  0.00731500  1
  O  O72  1  0.81098200  0.01411900  0.70719100  1
  O  O73  1  0.80411100  0.01751500  0.20720500  1
  O  O74  1  0.79477200  0.26076700  0.98854500  1
  O  O75  1  0.79437100  0.22199500  0.48581700  1
  O  O76  1  0.76654600  0.33545700  0.84779000  1
  O  O77  1  0.74252000  0.30865200  0.33459500  1
  O  O78  1  0.77437800  0.72920700  0.83318600  1
  O  O79  1  0.76341500  0.74533000  0.35272600  1
  O  O80  1  0.76156000  0.78206700  0.58451600  1
  O  O81  1  0.72026500  0.77056400  0.08404200  1
  O  O82  1  0.72460400  0.15483300  0.59689400  1
  O  O83  1  0.73268500  0.16091000  0.09556300  1
  O  O84  1  0.70315700  0.23841200  0.73908400  1
  O  O85  1  0.70578000  0.25308500  0.21899600  1
  O  O86  1  0.69577400  0.48316900  0.95702100  1
  O  O87  1  0.67203400  0.47850000  0.46167300  1
  O  O88  1  0.66952100  0.47224100  0.75930000  1
  O  O89  1  0.66829100  0.47864100  0.25390900  1
  O  O90  1  0.67320000  0.74382400  0.69594100  1
  O  O91  1  0.64475900  0.74216700  0.19852700  1
  O  O92  1  0.60699300  0.10439600  0.99421900  1
  O  O93  1  0.58843000  0.09258300  0.49681100  1
  O  O94  1  0.60282700  0.94297900  0.63388000  1
  O  O95  1  0.58060900  0.94363900  0.13636200  1
  O  O96  1  0.52523100  0.03791000  0.74665700  1
  O  O97  1  0.53249300  0.05825500  0.25602200  1
  O  O98  1  0.52261700  0.58506600  0.88702000  1
  O  O99  1  0.50710800  0.53178700  0.37443300  1
  O  O100  1  0.48913500  0.72670900  0.10371500  1
  O  O101  1  0.53007100  0.72697400  0.59734900  1
  O  O102  1  0.50473500  0.85374900  0.82430500  1
  O  O103  1  0.51011800  0.86241000  0.32902700  1
  O  O104  1  0.49243000  0.35821100  0.92628500  1
  O  O105  1  0.49542900  0.32074500  0.43416200  1
  O  O106  1  0.49669100  0.19432400  0.64706900  1
  O  O107  1  0.50252800  0.21958100  0.14455000  1
  O  O108  1  0.47914000  0.08281600  0.86188600  1
  O  O109  1  0.47008700  0.08176700  0.37380800  1
  O  O110  1  0.47852400  0.54528000  0.00428000  1
  O  O111  1  0.44178600  0.53307000  0.48803300  1
  O  O112  1  0.43447500  0.41862500  0.61530200  1
  O  O113  1  0.41538500  0.44350700  0.11660800  1
  O  O114  1  0.39349500  0.60421000  0.75247700  1
  O  O115  1  0.39568900  0.61243200  0.25324500  1
  O  O116  1  0.37798100  0.22997300  0.54169400  1
  O  O117  1  0.34860000  0.24614800  0.05163400  1
  O  O118  1  0.33632400  0.97233300  0.99268500  1
  O  O119  1  0.30919300  0.00853700  0.48441000  1
  O  O120  1  0.30411100  0.98248500  0.79279500  1
  O  O121  1  0.31098200  0.98588100  0.29280900  1
  O  O122  1  0.29437100  0.77800500  0.51418300  1
  O  O123  1  0.29477200  0.73923300  0.01145500  1
  O  O124  1  0.24252000  0.69134800  0.66540500  1
  O  O125  1  0.26654600  0.66454300  0.15221000  1
  O  O126  1  0.26341500  0.25467000  0.64727400  1
  O  O127  1  0.27437800  0.27079300  0.16681500  1
  O  O128  1  0.22026500  0.22943600  0.91595800  1
  O  O129  1  0.26156000  0.21793300  0.41548400  1
  O  O130  1  0.23268500  0.83909000  0.90443700  1
  O  O131  1  0.22460400  0.84516700  0.40310600  1
  O  O132  1  0.20578000  0.74691500  0.78100400  1
  O  O133  1  0.20315700  0.76158800  0.26091600  1
  O  O134  1  0.17203400  0.52150000  0.53832700  1
  O  O135  1  0.19577400  0.51683100  0.04297900  1
  O  O136  1  0.16829100  0.52135900  0.74609100  1
  O  O137  1  0.16952100  0.52775900  0.24070000  1
  O  O138  1  0.17320000  0.25617600  0.30405900  1
  O  O139  1  0.14475900  0.25783300  0.80147300  1
  O  O140  1  0.08843000  0.90741700  0.50318900  1
  O  O141  1  0.10699300  0.89560400  0.00578100  1
  O  O142  1  0.10282700  0.05702100  0.36612000  1
  O  O143  1  0.08060900  0.05636100  0.86363800  1
  O  O144  1  0.03249300  0.94174500  0.74397800  1
  O  O145  1  0.02523100  0.96209000  0.25334300  1
  O  O146  1  0.00710800  0.46821300  0.62556700  1
  O  O147  1  0.02261700  0.41493400  0.11298000  1
  O  O148  1  0.03007100  0.27302600  0.40265100  1
  O  O149  1  0.98913500  0.27329100  0.89628500  1
  O  O150  1  0.01011800  0.13759000  0.67097300  1
  O  O151  1  0.00473500  0.14625100  0.17569500  1
