# generated using pymatgen
data_Ca2Al2Si(HO4)2
_symmetry_space_group_name_H-M   'P 1'
_cell_length_a   7.72294527
_cell_length_b   7.72294527
_cell_length_c   12.58672900
_cell_angle_alpha   90.00000000
_cell_angle_beta   90.00000000
_cell_angle_gamma   109.27028098
_symmetry_Int_Tables_number   1
_chemical_formula_structural   Ca2Al2Si(HO4)2
_chemical_formula_sum   'Ca8 Al8 Si4 H8 O32'
_cell_volume   708.66017648
_cell_formula_units_Z   4
loop_
 _symmetry_equiv_pos_site_id
 _symmetry_equiv_pos_as_xyz
  1  'x, y, z'
loop_
 _atom_site_type_symbol
 _atom_site_label
 _atom_site_symmetry_multiplicity
 _atom_site_fract_x
 _atom_site_fract_y
 _atom_site_fract_z
 _atom_site_occupancy
  Ca  Ca0  1  0.86104800  0.85641200  0.85695300  1
  Ca  Ca1  1  0.28420500  0.99847300  0.00061900  1
  Ca  Ca2  1  0.36104800  0.35641200  0.64304700  1
  Ca  Ca3  1  0.85641200  0.86104800  0.14304700  1
  Ca  Ca4  1  0.49847300  0.78420500  0.50061900  1
  Ca  Ca5  1  0.78420500  0.49847300  0.49938100  1
  Ca  Ca6  1  0.99847300  0.28420500  0.99938100  1
  Ca  Ca7  1  0.35641200  0.36104800  0.35695300  1
  Al  Al8  1  0.99978600  0.50041600  0.75264800  1
  Al  Al9  1  0.62439700  0.37519700  0.87898200  1
  Al  Al10  1  0.87519700  0.12439700  0.37898200  1
  Al  Al11  1  0.50041600  0.99978600  0.24735200  1
  Al  Al12  1  0.49978600  0.00041600  0.74735200  1
  Al  Al13  1  0.12439700  0.87519700  0.62101800  1
  Al  Al14  1  0.37519700  0.62439700  0.12101800  1
  Al  Al15  1  0.00041600  0.49978600  0.25264800  1
  Si  Si16  1  0.37637800  0.62447200  0.87224600  1
  Si  Si17  1  0.87637800  0.12447200  0.62775400  1
  Si  Si18  1  0.12447200  0.87637800  0.37224600  1
  Si  Si19  1  0.62447200  0.37637800  0.12775400  1
  H  H20  1  0.69053000  0.67435900  0.67383900  1
  H  H21  1  0.19053000  0.17435900  0.82616100  1
  H  H22  1  0.49124300  0.14332400  0.50699000  1
  H  H23  1  0.67435900  0.69053000  0.32616100  1
  H  H24  1  0.99124300  0.64332400  0.99301000  1
  H  H25  1  0.14332400  0.49124300  0.49301000  1
  H  H26  1  0.17435900  0.19053000  0.17383900  1
  H  H27  1  0.64332400  0.99124300  0.00699000  1
  O  O28  1  0.41910000  0.84682200  0.85721000  1
  O  O29  1  0.22982000  0.50703800  0.78161700  1
  O  O30  1  0.61299800  0.61410100  0.61498000  1
  O  O31  1  0.91910000  0.34682200  0.64279000  1
  O  O32  1  0.57188100  0.58310800  0.86157300  1
  O  O33  1  0.92631300  0.36319600  0.36666100  1
  O  O34  1  0.78490200  0.06045900  0.50976500  1
  O  O35  1  0.34682200  0.91910000  0.35721000  1
  O  O36  1  0.86319600  0.42631300  0.86666100  1
  O  O37  1  0.50111200  0.27094800  0.49811700  1
  O  O38  1  0.71647400  0.99147300  0.28607900  1
  O  O39  1  0.72982000  0.00703800  0.71838300  1
  O  O40  1  0.11299800  0.11410100  0.88502000  1
  O  O41  1  0.11410100  0.11299800  0.11498000  1
  O  O42  1  0.49147300  0.21647400  0.78607900  1
  O  O43  1  0.07188100  0.08310800  0.63842700  1
  O  O44  1  0.08310800  0.07188100  0.36157300  1
  O  O45  1  0.42631300  0.86319600  0.13333900  1
  O  O46  1  0.36319600  0.92631300  0.63333900  1
  O  O47  1  0.28490200  0.56045900  0.99023500  1
  O  O48  1  0.00111200  0.77094800  0.00188300  1
  O  O49  1  0.06045900  0.78490200  0.49023500  1
  O  O50  1  0.21647400  0.49147300  0.21392100  1
  O  O51  1  0.61410100  0.61299800  0.38502000  1
  O  O52  1  0.00703800  0.72982000  0.28161700  1
  O  O53  1  0.99147300  0.71647400  0.71392100  1
  O  O54  1  0.58310800  0.57188100  0.13842700  1
  O  O55  1  0.84682200  0.41910000  0.14279000  1
  O  O56  1  0.56045900  0.28490200  0.00976500  1
  O  O57  1  0.27094800  0.50111200  0.50188300  1
  O  O58  1  0.50703800  0.22982000  0.21838300  1
  O  O59  1  0.77094800  0.00111200  0.99811700  1
