# generated using pymatgen
data_H2
_symmetry_space_group_name_H-M   'P 1'
_cell_length_a   6.06151100
_cell_length_b   6.50749400
_cell_length_c   9.08318300
_cell_angle_alpha   90.00000000
_cell_angle_beta   90.00000000
_cell_angle_gamma   90.00000000
_symmetry_Int_Tables_number   1
_chemical_formula_structural   H2
_chemical_formula_sum   H16
_cell_volume   358.28839211
_cell_formula_units_Z   8
loop_
 _symmetry_equiv_pos_site_id
 _symmetry_equiv_pos_as_xyz
  1  'x, y, z'
loop_
 _atom_site_type_symbol
 _atom_site_label
 _atom_site_symmetry_multiplicity
 _atom_site_fract_x
 _atom_site_fract_y
 _atom_site_fract_z
 _atom_site_occupancy
  H  H0  1  0.75000000  0.11425100  0.81770800  1
  H  H1  1  0.75000000  0.38574900  0.31770800  1
  H  H2  1  0.25000000  0.88574900  0.18229200  1
  H  H3  1  0.25000000  0.61425100  0.68229200  1
  H  H4  1  0.75000000  0.20423700  0.04908900  1
  H  H5  1  0.75000000  0.29576300  0.54908900  1
  H  H6  1  0.25000000  0.79576300  0.95091100  1
  H  H7  1  0.25000000  0.70423700  0.45091100  1
  H  H8  1  0.90366400  0.20561600  0.04475800  1
  H  H9  1  0.59633600  0.29438400  0.54475800  1
  H  H10  1  0.40366400  0.79438400  0.95524200  1
  H  H11  1  0.09633600  0.70561600  0.45524200  1
  H  H12  1  0.09633600  0.79438400  0.95524200  1
  H  H13  1  0.40366400  0.70561600  0.45524200  1
  H  H14  1  0.59633600  0.20561600  0.04475800  1
  H  H15  1  0.90366400  0.29438400  0.54475800  1
