# generated using pymatgen
data_NaMgFe(SO4)3
_symmetry_space_group_name_H-M   'P 1'
_cell_length_a   8.62830309
_cell_length_b   8.62830309
_cell_length_c   8.93705821
_cell_angle_alpha   61.15212293
_cell_angle_beta   61.15212293
_cell_angle_gamma   59.81398301
_symmetry_Int_Tables_number   1
_chemical_formula_structural   NaMgFe(SO4)3
_chemical_formula_sum   'Na2 Mg2 Fe2 S6 O24'
_cell_volume   477.79684180
_cell_formula_units_Z   2
loop_
 _symmetry_equiv_pos_site_id
 _symmetry_equiv_pos_as_xyz
  1  'x, y, z'
loop_
 _atom_site_type_symbol
 _atom_site_label
 _atom_site_symmetry_multiplicity
 _atom_site_fract_x
 _atom_site_fract_y
 _atom_site_fract_z
 _atom_site_occupancy
  Na  Na0  1  0.00128800  0.50073100  0.99711000  1
  Na  Na1  1  0.50073100  0.00128800  0.49711000  1
  Mg  Mg2  1  0.14605100  0.65105900  0.55760700  1
  Mg  Mg3  1  0.65105900  0.14605100  0.05760700  1
  Fe  Fe4  1  0.34783000  0.85251300  0.94729200  1
  Fe  Fe5  1  0.85251300  0.34783000  0.44729200  1
  S  S6  1  0.24785400  0.45769800  0.25205600  1
  S  S7  1  0.04636700  0.95257900  0.75291100  1
  S  S8  1  0.54134700  0.74942500  0.25263400  1
  S  S9  1  0.45769800  0.24785400  0.75205600  1
  S  S10  1  0.95257900  0.04636700  0.25291100  1
  S  S11  1  0.74942500  0.54134700  0.75263400  1
  O  O12  1  0.07965300  0.43569200  0.26423500  1
  O  O13  1  0.28049800  0.61900700  0.08339900  1
  O  O14  1  0.01338500  0.11088900  0.58504000  1
  O  O15  1  0.11088900  0.01338500  0.08504000  1
  O  O16  1  0.41225700  0.28249900  0.23778000  1
  O  O17  1  0.22681400  0.93558200  0.75620700  1
  O  O18  1  0.07119600  0.77527400  0.74319100  1
  O  O19  1  0.56912000  0.91406700  0.23300400  1
  O  O20  1  0.38544200  0.71362200  0.41614500  1
  O  O21  1  0.21099500  0.49648700  0.41020300  1
  O  O22  1  0.50445700  0.78373400  0.08950400  1
  O  O23  1  0.28249900  0.41225700  0.73778000  1
  O  O24  1  0.72107300  0.58159200  0.25854900  1
  O  O25  1  0.49648700  0.21099500  0.91020300  1
  O  O26  1  0.78373400  0.50445700  0.58950400  1
  O  O27  1  0.61900700  0.28049800  0.58339900  1
  O  O28  1  0.43569200  0.07965300  0.76423500  1
  O  O29  1  0.93558200  0.22681400  0.25620700  1
  O  O30  1  0.77527400  0.07119600  0.24319100  1
  O  O31  1  0.58159200  0.72107300  0.75854900  1
  O  O32  1  0.89210600  0.98912900  0.91461600  1
  O  O33  1  0.98912900  0.89210600  0.41461600  1
  O  O34  1  0.71362200  0.38544200  0.91614500  1
  O  O35  1  0.91406700  0.56912000  0.73300400  1
