# generated using pymatgen
data_FePH6(NO2)2
_symmetry_space_group_name_H-M   'P 1'
_cell_length_a   6.45308400
_cell_length_b   7.69801800
_cell_length_c   10.23861100
_cell_angle_alpha   90.00000000
_cell_angle_beta   90.00000000
_cell_angle_gamma   90.00000000
_symmetry_Int_Tables_number   1
_chemical_formula_structural   FePH6(NO2)2
_chemical_formula_sum   'Fe4 P4 H24 N8 O16'
_cell_volume   508.61279760
_cell_formula_units_Z   4
loop_
 _symmetry_equiv_pos_site_id
 _symmetry_equiv_pos_as_xyz
  1  'x, y, z'
loop_
 _atom_site_type_symbol
 _atom_site_label
 _atom_site_symmetry_multiplicity
 _atom_site_fract_x
 _atom_site_fract_y
 _atom_site_fract_z
 _atom_site_occupancy
  Fe  Fe0  1  0.75000000  0.41153400  0.34067800  1
  Fe  Fe1  1  0.75000000  0.08846600  0.84067800  1
  Fe  Fe2  1  0.25000000  0.58846600  0.65932200  1
  Fe  Fe3  1  0.25000000  0.91153400  0.15932200  1
  P  P4  1  0.75000000  0.45734400  0.66105600  1
  P  P5  1  0.75000000  0.04265600  0.16105600  1
  P  P6  1  0.25000000  0.54265600  0.33894400  1
  P  P7  1  0.25000000  0.95734400  0.83894400  1
  H  H8  1  0.62171300  0.58862100  0.12915000  1
  H  H9  1  0.87828700  0.91137900  0.62915000  1
  H  H10  1  0.12171300  0.41137900  0.87085000  1
  H  H11  1  0.37828700  0.08862100  0.37085000  1
  H  H12  1  0.37828700  0.41137900  0.87085000  1
  H  H13  1  0.12171300  0.08862100  0.37085000  1
  H  H14  1  0.87828700  0.58862100  0.12915000  1
  H  H15  1  0.62171300  0.91137900  0.62915000  1
  H  H16  1  0.75000000  0.41284500  0.07495800  1
  H  H17  1  0.75000000  0.08715500  0.57495800  1
  H  H18  1  0.25000000  0.58715500  0.92504200  1
  H  H19  1  0.25000000  0.91284500  0.42504200  1
  H  H20  1  0.37848100  0.29194500  0.54660000  1
  H  H21  1  0.12151900  0.20805500  0.04660000  1
  H  H22  1  0.87848100  0.70805500  0.45340000  1
  H  H23  1  0.62151900  0.79194500  0.95340000  1
  H  H24  1  0.62151900  0.70805500  0.45340000  1
  H  H25  1  0.87848100  0.79194500  0.95340000  1
  H  H26  1  0.12151900  0.29194500  0.54660000  1
  H  H27  1  0.37848100  0.20805500  0.04660000  1
  H  H28  1  0.75000000  0.76989600  0.32015000  1
  H  H29  1  0.75000000  0.73010400  0.82015000  1
  H  H30  1  0.25000000  0.23010400  0.67985000  1
  H  H31  1  0.25000000  0.26989600  0.17985000  1
  N  N32  1  0.75000000  0.51229000  0.14178600  1
  N  N33  1  0.75000000  0.98771000  0.64178600  1
  N  N34  1  0.25000000  0.48771000  0.85821400  1
  N  N35  1  0.25000000  0.01229000  0.35821400  1
  N  N36  1  0.75000000  0.68517800  0.39743100  1
  N  N37  1  0.75000000  0.81482200  0.89743100  1
  N  N38  1  0.25000000  0.31482200  0.60256900  1
  N  N39  1  0.25000000  0.18517800  0.10256900  1
  O  O40  1  0.55963000  0.57994900  0.66532500  1
  O  O41  1  0.94037000  0.92005100  0.16532500  1
  O  O42  1  0.05963000  0.42005100  0.33467500  1
  O  O43  1  0.44037000  0.07994900  0.83467500  1
  O  O44  1  0.44037000  0.42005100  0.33467500  1
  O  O45  1  0.05963000  0.07994900  0.83467500  1
  O  O46  1  0.94037000  0.57994900  0.66532500  1
  O  O47  1  0.55963000  0.92005100  0.16532500  1
  O  O48  1  0.75000000  0.33556100  0.78141400  1
  O  O49  1  0.75000000  0.16443900  0.28141400  1
  O  O50  1  0.25000000  0.66443900  0.21858600  1
  O  O51  1  0.25000000  0.83556100  0.71858600  1
  O  O52  1  0.75000000  0.34596400  0.53342500  1
  O  O53  1  0.75000000  0.15403600  0.03342500  1
  O  O54  1  0.25000000  0.65403600  0.46657500  1
  O  O55  1  0.25000000  0.84596400  0.96657500  1
