# generated using pymatgen
data_SrLaTa2(NO)3
_symmetry_space_group_name_H-M   'P 1'
_cell_length_a   5.72373700
_cell_length_b   5.73321335
_cell_length_c   8.23238524
_cell_angle_alpha   89.97673024
_cell_angle_beta   89.95440633
_cell_angle_gamma   88.89751145
_symmetry_Int_Tables_number   1
_chemical_formula_structural   SrLaTa2(NO)3
_chemical_formula_sum   'Sr2 La2 Ta4 N6 O6'
_cell_volume   270.09894177
_cell_formula_units_Z   2
loop_
 _symmetry_equiv_pos_site_id
 _symmetry_equiv_pos_as_xyz
  1  'x, y, z'
loop_
 _atom_site_type_symbol
 _atom_site_label
 _atom_site_symmetry_multiplicity
 _atom_site_fract_x
 _atom_site_fract_y
 _atom_site_fract_z
 _atom_site_occupancy
  Sr  Sr0  1  0.00314200  0.01650500  0.75271000  1
  Sr  Sr1  1  0.50607900  0.48621600  0.25762200  1
  La  La2  1  0.50057300  0.53028300  0.75876300  1
  La  La3  1  0.00601500  0.98049200  0.25397500  1
  Ta  Ta4  1  0.99673000  0.49048700  0.01205900  1
  Ta  Ta5  1  0.00790500  0.51035400  0.51227900  1
  Ta  Ta6  1  0.49616600  0.99453300  0.50946600  1
  Ta  Ta7  1  0.50955300  0.01134100  0.00985500  1
  N  N8  1  0.92676200  0.50668900  0.74415300  1
  N  N9  1  0.77645800  0.21967400  0.01950000  1
  N  N10  1  0.54545400  0.97328800  0.74505800  1
  N  N11  1  0.42883400  0.01880300  0.24462500  1
  N  N12  1  0.23175200  0.76886600  0.51560700  1
  N  N13  1  0.04527500  0.49466200  0.24494100  1
  O  O14  1  0.78765200  0.21093500  0.46479500  1
  O  O15  1  0.71975500  0.72387300  0.02958300  1
  O  O16  1  0.72957800  0.72606600  0.46191400  1
  O  O17  1  0.27701600  0.28176000  0.95641400  1
  O  O18  1  0.28401600  0.28118700  0.53605600  1
  O  O19  1  0.22128600  0.77398700  0.97062600  1
