# generated using pymatgen
data_Na4CaFe4(PO4)6
_symmetry_space_group_name_H-M   'P 1'
_cell_length_a   9.44702451
_cell_length_b   9.44702451
_cell_length_c   7.21487830
_cell_angle_alpha   72.83266397
_cell_angle_beta   72.83266397
_cell_angle_gamma   96.16053150
_symmetry_Int_Tables_number   1
_chemical_formula_structural   Na4CaFe4(PO4)6
_chemical_formula_sum   'Na4 Ca1 Fe4 P6 O24'
_cell_volume   574.31562837
_cell_formula_units_Z   1
loop_
 _symmetry_equiv_pos_site_id
 _symmetry_equiv_pos_as_xyz
  1  'x, y, z'
loop_
 _atom_site_type_symbol
 _atom_site_label
 _atom_site_symmetry_multiplicity
 _atom_site_fract_x
 _atom_site_fract_y
 _atom_site_fract_z
 _atom_site_occupancy
  Na  Na0  1  0.48086300  0.58497000  0.20606800  1
  Na  Na1  1  0.99624600  0.00375400  0.50000000  1
  Na  Na2  1  0.63667400  0.36332600  0.50000000  1
  Na  Na3  1  0.41503000  0.51913700  0.79393200  1
  Ca  Ca4  1  0.23377000  0.76623000  0.00000000  1
  Fe  Fe5  1  0.33421400  0.09009100  0.13503100  1
  Fe  Fe6  1  0.90990900  0.66578600  0.86496900  1
  Fe  Fe7  1  0.01794700  0.32523500  0.70710700  1
  Fe  Fe8  1  0.67476500  0.98205300  0.29289300  1
  P  P9  1  0.89342600  0.33952900  0.15976600  1
  P  P10  1  0.02026800  0.97973200  0.00000000  1
  P  P11  1  0.66047100  0.10657400  0.84023400  1
  P  P12  1  0.59056600  0.93135000  0.67322700  1
  P  P13  1  0.21238900  0.78761100  0.50000000  1
  P  P14  1  0.06865000  0.40943400  0.32677300  1
  O  O15  1  0.53210200  0.08982700  0.73536600  1
  O  O16  1  0.96171300  0.42489200  0.92489600  1
  O  O17  1  0.76349300  0.26055800  0.75163900  1
  O  O18  1  0.39388200  0.28507600  0.02877800  1
  O  O19  1  0.17565100  0.99617700  0.03948500  1
  O  O20  1  0.48763300  0.79234200  0.84688400  1
  O  O21  1  0.20765800  0.51236700  0.15311600  1
  O  O22  1  0.00382300  0.82434900  0.96051500  1
  O  O23  1  0.71492400  0.60611800  0.97122200  1
  O  O24  1  0.01681200  0.26028500  0.24890300  1
  O  O25  1  0.73944200  0.23650700  0.24836100  1
  O  O26  1  0.57510800  0.03828700  0.07510400  1
  O  O27  1  0.25369400  0.96831600  0.43132600  1
  O  O28  1  0.28635200  0.74437300  0.30966600  1
  O  O29  1  0.91017300  0.46789800  0.26463400  1
  O  O30  1  0.24962600  0.35593100  0.55471600  1
  O  O31  1  0.02135700  0.10465100  0.80564200  1
  O  O32  1  0.61218700  0.61026200  0.44375500  1
  O  O33  1  0.38973800  0.38781300  0.55624500  1
  O  O34  1  0.89534900  0.97864300  0.19435800  1
  O  O35  1  0.64406900  0.75037400  0.44528400  1
  O  O36  1  0.25562700  0.71364800  0.69033400  1
  O  O37  1  0.03168400  0.74630600  0.56867400  1
  O  O38  1  0.73971500  0.98318800  0.75109700  1
