# generated using pymatgen
data_IrS2N5(Cl2O3)2
_symmetry_space_group_name_H-M   'P 1'
_cell_length_a   7.86856000
_cell_length_b   8.70259600
_cell_length_c   14.30138978
_cell_angle_alpha   64.26524216
_cell_angle_beta   90.00000000
_cell_angle_gamma   90.00000000
_symmetry_Int_Tables_number   1
_chemical_formula_structural   IrS2N5(Cl2O3)2
_chemical_formula_sum   'Ir2 S4 N10 Cl8 O12'
_cell_volume   882.18028607
_cell_formula_units_Z   2
loop_
 _symmetry_equiv_pos_site_id
 _symmetry_equiv_pos_as_xyz
  1  'x, y, z'
loop_
 _atom_site_type_symbol
 _atom_site_label
 _atom_site_symmetry_multiplicity
 _atom_site_fract_x
 _atom_site_fract_y
 _atom_site_fract_z
 _atom_site_occupancy
  Ir  Ir0  1  0.50000000  0.00000000  0.50000000  1
  Ir  Ir1  1  0.00000000  0.00000000  0.00000000  1
  S  S2  1  0.08943900  0.09822200  0.83453600  1
  S  S3  1  0.41056100  0.09822200  0.33453600  1
  S  S4  1  0.91056100  0.90177800  0.16546400  1
  S  S5  1  0.58943900  0.90177800  0.66546400  1
  N  N6  1  0.10603800  0.77549900  0.60202300  1
  N  N7  1  0.39396200  0.77549900  0.10202300  1
  N  N8  1  0.89396200  0.22450100  0.39797700  1
  N  N9  1  0.60603800  0.22450100  0.89797700  1
  N  N10  1  0.19089000  0.48389400  0.87583300  1
  N  N11  1  0.30911000  0.48389400  0.37583300  1
  N  N12  1  0.80911000  0.51610600  0.12416700  1
  N  N13  1  0.69089000  0.51610600  0.62416700  1
  N  N14  1  0.50000000  0.50000000  0.00000000  1
  N  N15  1  0.00000000  0.50000000  0.50000000  1
  Cl  Cl16  1  0.30584500  0.18194400  0.52985300  1
  Cl  Cl17  1  0.19415500  0.18194400  0.02985300  1
  Cl  Cl18  1  0.69415500  0.81805600  0.47014700  1
  Cl  Cl19  1  0.80584500  0.81805600  0.97014700  1
  Cl  Cl20  1  0.27815800  0.75672000  0.55098200  1
  Cl  Cl21  1  0.22184200  0.75672000  0.05098200  1
  Cl  Cl22  1  0.72184200  0.24328000  0.44901800  1
  Cl  Cl23  1  0.77815800  0.24328000  0.94901800  1
  O  O24  1  0.16827800  0.47662900  0.79782900  1
  O  O25  1  0.33172200  0.47662900  0.29782900  1
  O  O26  1  0.83172200  0.52337100  0.20217100  1
  O  O27  1  0.66827800  0.52337100  0.70217100  1
  O  O28  1  0.97014100  0.16992300  0.74947900  1
  O  O29  1  0.52985900  0.16992300  0.24947900  1
  O  O30  1  0.02985900  0.83007700  0.25052100  1
  O  O31  1  0.47014100  0.83007700  0.75052100  1
  O  O32  1  0.26841200  0.08771500  0.81493900  1
  O  O33  1  0.23158800  0.08771500  0.31493900  1
  O  O34  1  0.73158800  0.91228500  0.18506100  1
  O  O35  1  0.76841200  0.91228500  0.68506100  1
