# generated using pymatgen
data_Ba2Ca2Zn5Fe3O14
_symmetry_space_group_name_H-M   'P 1'
_cell_length_a   7.40678900
_cell_length_b   8.73233600
_cell_length_c   12.75193366
_cell_angle_alpha   88.27041752
_cell_angle_beta   90.00000000
_cell_angle_gamma   90.00000000
_symmetry_Int_Tables_number   1
_chemical_formula_structural   Ba2Ca2Zn5Fe3O14
_chemical_formula_sum   'Ba4 Ca4 Zn10 Fe6 O28'
_cell_volume   824.40107628
_cell_formula_units_Z   2
loop_
 _symmetry_equiv_pos_site_id
 _symmetry_equiv_pos_as_xyz
  1  'x, y, z'
loop_
 _atom_site_type_symbol
 _atom_site_label
 _atom_site_symmetry_multiplicity
 _atom_site_fract_x
 _atom_site_fract_y
 _atom_site_fract_z
 _atom_site_occupancy
  Ba  Ba0  1  0.86639400  0.42807700  0.74748100  1
  Ba  Ba1  1  0.49927200  0.11893900  0.67860800  1
  Ba  Ba2  1  0.99927200  0.88106100  0.32139200  1
  Ba  Ba3  1  0.36639400  0.57192300  0.25251900  1
  Ca  Ca4  1  0.38453600  0.49610700  0.94079400  1
  Ca  Ca5  1  0.52178700  0.06932700  0.28765400  1
  Ca  Ca6  1  0.02178700  0.93067300  0.71234600  1
  Ca  Ca7  1  0.88453600  0.50389300  0.05920600  1
  Zn  Zn8  1  0.31642000  0.51918000  0.70497000  1
  Zn  Zn9  1  0.14854500  0.19780200  0.90298300  1
  Zn  Zn10  1  0.90668900  0.13540500  0.53984900  1
  Zn  Zn11  1  0.28095200  0.24877500  0.41500700  1
  Zn  Zn12  1  0.63136000  0.11757500  0.96841200  1
  Zn  Zn13  1  0.40668900  0.86459500  0.46015100  1
  Zn  Zn14  1  0.78095200  0.75122500  0.58499300  1
  Zn  Zn15  1  0.64854500  0.80219800  0.09701700  1
  Zn  Zn16  1  0.81642000  0.48082000  0.29503000  1
  Zn  Zn17  1  0.13136000  0.88242500  0.03158800  1
  Fe  Fe18  1  0.76058300  0.75087100  0.87990700  1
  Fe  Fe19  1  0.55686300  0.50077200  0.51261700  1
  Fe  Fe20  1  0.05686300  0.49922800  0.48738300  1
  Fe  Fe21  1  0.88202700  0.15094800  0.11476500  1
  Fe  Fe22  1  0.38202700  0.84905200  0.88523500  1
  Fe  Fe23  1  0.26058300  0.24912900  0.12009300  1
  O  O24  1  0.91253200  0.77278900  0.00160000  1
  O  O25  1  0.41253200  0.22721100  0.99840000  1
  O  O26  1  0.18393500  0.98679600  0.86225700  1
  O  O27  1  0.83850900  0.74289100  0.74087500  1
  O  O28  1  0.11192800  0.57554700  0.61736700  1
  O  O29  1  0.81054600  0.52943300  0.54059700  1
  O  O30  1  0.31054600  0.47056700  0.45940300  1
  O  O31  1  0.68903000  0.55189100  0.91919300  1
  O  O32  1  0.83903200  0.13760800  0.68347100  1
  O  O33  1  0.51986400  0.40643100  0.64708800  1
  O  O34  1  0.02605600  0.27910100  0.45492600  1
  O  O35  1  0.87934200  0.21970600  0.96918500  1
  O  O36  1  0.85730700  0.31353900  0.19823500  1
  O  O37  1  0.20996800  0.36851700  0.81490800  1
  O  O38  1  0.11528700  0.05421100  0.12737600  1
  O  O39  1  0.93523700  0.91389500  0.52304700  1
  O  O40  1  0.43523700  0.08610500  0.47695300  1
  O  O41  1  0.61528700  0.94578900  0.87262400  1
  O  O42  1  0.70996800  0.63148300  0.18509200  1
  O  O43  1  0.35730700  0.68646100  0.80176500  1
  O  O44  1  0.37934200  0.78029400  0.03081500  1
  O  O45  1  0.52605600  0.72089900  0.54507400  1
  O  O46  1  0.01986400  0.59356900  0.35291200  1
  O  O47  1  0.33903200  0.86239200  0.31652900  1
  O  O48  1  0.18903000  0.44810900  0.08080700  1
  O  O49  1  0.61192800  0.42445300  0.38263300  1
  O  O50  1  0.33850900  0.25710900  0.25912500  1
  O  O51  1  0.68393500  0.01320400  0.13774300  1
