# generated using pymatgen
data_Na7Al10Si14(AgO16)3
_symmetry_space_group_name_H-M   'P 1'
_cell_length_a   12.13183800
_cell_length_b   12.34379608
_cell_length_c   12.67936706
_cell_angle_alpha   90.66876303
_cell_angle_beta   90.84473366
_cell_angle_gamma   90.00653082
_symmetry_Int_Tables_number   1
_chemical_formula_structural   Na7Al10Si14(AgO16)3
_chemical_formula_sum   'Na7 Al10 Si14 Ag3 O48'
_cell_volume   1898.43665554
_cell_formula_units_Z   1
loop_
 _symmetry_equiv_pos_site_id
 _symmetry_equiv_pos_as_xyz
  1  'x, y, z'
loop_
 _atom_site_type_symbol
 _atom_site_label
 _atom_site_symmetry_multiplicity
 _atom_site_fract_x
 _atom_site_fract_y
 _atom_site_fract_z
 _atom_site_occupancy
  Na  Na0  1  0.50847400  0.00175200  0.36078100  1
  Na  Na1  1  0.00541000  0.39398500  0.43558700  1
  Na  Na2  1  0.00401500  0.60775000  0.40277400  1
  Na  Na3  1  0.19613300  0.19633300  0.21791400  1
  Na  Na4  1  0.81476200  0.19556200  0.21556800  1
  Na  Na5  1  0.18876800  0.80824800  0.21580400  1
  Na  Na6  1  0.82065000  0.80588400  0.20981500  1
  Al  Al7  1  0.62296300  0.99855700  0.81922600  1
  Al  Al8  1  0.99810300  0.80843900  0.62397500  1
  Al  Al9  1  0.20753300  0.00335600  0.38996400  1
  Al  Al10  1  0.00682900  0.17767900  0.38245500  1
  Al  Al11  1  0.80429900  0.00225800  0.38173200  1
  Al  Al12  1  0.00536500  0.82599400  0.37925500  1
  Al  Al13  1  0.36420600  0.99885300  0.17370700  1
  Al  Al14  1  0.64228500  0.99844500  0.16651600  1
  Al  Al15  1  0.00635600  0.37407700  0.18742100  1
  Al  Al16  1  0.00563100  0.63104900  0.17800500  1
  Si  Si17  1  0.36766600  0.81541500  0.99986600  1
  Si  Si18  1  0.63299600  0.81167800  0.99651000  1
  Si  Si19  1  0.36809700  0.00088600  0.82557600  1
  Si  Si20  1  0.99721600  0.36694400  0.82322700  1
  Si  Si21  1  0.99491600  0.62279100  0.81867400  1
  Si  Si22  1  0.18451000  0.00282100  0.63776800  1
  Si  Si23  1  0.00110700  0.18694600  0.63163600  1
  Si  Si24  1  0.80935400  0.00304700  0.62726300  1
  Si  Si25  1  0.36962600  0.18440200  0.00688700  1
  Si  Si26  1  0.62918800  0.18759700  0.00517600  1
  Si  Si27  1  0.18673100  0.36960400  0.00106500  1
  Si  Si28  1  0.81615600  0.36949800  0.99998800  1
  Si  Si29  1  0.18896300  0.62436400  0.99699200  1
  Si  Si30  1  0.81321300  0.62564700  0.99595800  1
  Ag  Ag31  1  0.80806600  0.81474900  0.79748100  1
  Ag  Ag32  1  0.79484100  0.18532700  0.80330700  1
  Ag  Ag33  1  0.18571100  0.80594800  0.80327700  1
  O  O34  1  0.70177100  0.30092000  0.99534200  1
  O  O35  1  0.49948200  0.78682500  0.00578300  1
  O  O36  1  0.69808100  0.69369600  0.98958700  1
  O  O37  1  0.35740400  0.10612900  0.90279200  1
  O  O38  1  0.10484600  0.34938500  0.89732800  1
  O  O39  1  0.64393300  0.11870300  0.89542200  1
  O  O40  1  0.10805900  0.64517300  0.89086900  1
  O  O41  1  0.88423600  0.33656700  0.88934500  1
  O  O42  1  0.33967000  0.88724300  0.89243800  1
  O  O43  1  0.88387400  0.65391900  0.88738700  1
  O  O44  1  0.65662900  0.87622500  0.88661600  1
  O  O45  1  0.48799700  0.98992500  0.77665600  1
  O  O46  1  0.98931300  0.49357100  0.78479200  1
  O  O47  1  0.71728100  0.01349100  0.71869800  1
  O  O48  1  0.99707100  0.70175500  0.71953700  1
  O  O49  1  0.27448300  0.00788400  0.73513600  1
  O  O50  1  0.99769100  0.28779700  0.72022400  1
  O  O51  1  0.10498800  0.10965300  0.65710600  1
  O  O52  1  0.88790500  0.11520400  0.64973900  1
  O  O53  1  0.11259600  0.89182100  0.66036600  1
  O  O54  1  0.88249300  0.89311300  0.65247700  1
  O  O55  1  0.24369600  0.00431100  0.52628400  1
  O  O56  1  0.00467600  0.24046500  0.51584400  1
  O  O57  1  0.00269400  0.75154100  0.49970000  1
  O  O58  1  0.75474600  0.00426600  0.51226200  1
  O  O59  1  0.13392500  0.12125700  0.36241800  1
  O  O60  1  0.88105600  0.11843000  0.36098400  1
  O  O61  1  0.13018700  0.88876700  0.36150300  1
  O  O62  1  0.88016400  0.88711700  0.35718000  1
  O  O63  1  0.69217000  0.00269300  0.29423600  1
  O  O64  1  0.00562500  0.72631000  0.27682500  1
  O  O65  1  0.32132000  0.00110700  0.30408200  1
  O  O66  1  0.00379700  0.28968400  0.29511100  1
  O  O67  1  0.50328200  0.99313900  0.17506200  1
  O  O68  1  0.00645500  0.50541700  0.24327700  1
  O  O69  1  0.32217300  0.12118700  0.10844600  1
  O  O70  1  0.68256700  0.12087100  0.10281800  1
  O  O71  1  0.12411500  0.34240200  0.10978100  1
  O  O72  1  0.88896700  0.34350500  0.10418100  1
  O  O73  1  0.12442600  0.65915100  0.10223900  1
  O  O74  1  0.88576400  0.65695800  0.09923900  1
  O  O75  1  0.31888700  0.87830100  0.10200600  1
  O  O76  1  0.68558800  0.87900200  0.09585600  1
  O  O77  1  0.49947000  0.22189300  0.02111700  1
  O  O78  1  0.29585300  0.29446100  0.98856200  1
  O  O79  1  0.22510000  0.49748300  0.99818500  1
  O  O80  1  0.78423900  0.49693000  0.99143300  1
  O  O81  1  0.29811400  0.70087200  0.98078000  1
