# generated using pymatgen
data_Na2Ni4Mo4(HO4)5
_symmetry_space_group_name_H-M   'P 1'
_cell_length_a   5.75845614
_cell_length_b   13.04053139
_cell_length_c   9.46768938
_cell_angle_alpha   42.61088927
_cell_angle_beta   70.58869686
_cell_angle_gamma   64.78932841
_symmetry_Int_Tables_number   1
_chemical_formula_structural   Na2Ni4Mo4(HO4)5
_chemical_formula_sum   'Na2 Ni4 Mo4 H5 O20'
_cell_volume   435.27694628
_cell_formula_units_Z   1
loop_
 _symmetry_equiv_pos_site_id
 _symmetry_equiv_pos_as_xyz
  1  'x, y, z'
loop_
 _atom_site_type_symbol
 _atom_site_label
 _atom_site_symmetry_multiplicity
 _atom_site_fract_x
 _atom_site_fract_y
 _atom_site_fract_z
 _atom_site_occupancy
  Na  Na0  1  0.50155200  0.49870600  0.46911600  1
  Na  Na1  1  0.49844800  0.00129400  0.53088400  1
  Ni  Ni2  1  0.00000000  0.25000000  0.00000000  1
  Ni  Ni3  1  0.42646100  0.93666000  0.01852400  1
  Ni  Ni4  1  0.57353900  0.56334000  0.98147600  1
  Ni  Ni5  1  0.00000000  0.75000000  0.00000000  1
  Mo  Mo6  1  0.88640400  0.07765100  0.75207300  1
  Mo  Mo7  1  0.92379800  0.59667400  0.69749000  1
  Mo  Mo8  1  0.11359600  0.42234900  0.24792700  1
  Mo  Mo9  1  0.07620200  0.90332600  0.30251000  1
  H  H10  1  0.19127700  0.82998800  0.59486200  1
  H  H11  1  0.22850400  0.30465600  0.57306200  1
  H  H12  1  0.50000000  0.75000000  0.00000000  1
  H  H13  1  0.80872300  0.67001200  0.40513800  1
  H  H14  1  0.77149600  0.19534400  0.42693800  1
  O  O15  1  0.28471100  0.31546100  0.89812700  1
  O  O16  1  0.32638400  0.28025600  0.24966700  1
  O  O17  1  0.21491300  0.41262800  0.43335900  1
  O  O18  1  0.36293600  0.72315700  0.96305800  1
  O  O19  1  0.20186700  0.07084400  0.04396000  1
  O  O20  1  0.74181600  0.03339700  0.18988600  1
  O  O21  1  0.15254900  0.70466100  0.40921900  1
  O  O22  1  0.25818400  0.46660300  0.81011400  1
  O  O23  1  0.79813300  0.42915600  0.95604000  1
  O  O24  1  0.78508700  0.08737200  0.56664100  1
  O  O25  1  0.25080200  0.90062600  0.44830300  1
  O  O26  1  0.07559400  0.60987500  0.97473200  1
  O  O27  1  0.80743700  0.38941200  0.33041000  1
  O  O28  1  0.67361600  0.21974400  0.75033300  1
  O  O29  1  0.19256300  0.11058800  0.66959000  1
  O  O30  1  0.92440600  0.89012500  0.02526800  1
  O  O31  1  0.71528900  0.18453900  0.10187300  1
  O  O32  1  0.74919800  0.59937400  0.55169700  1
  O  O33  1  0.84745100  0.79533900  0.59078100  1
  O  O34  1  0.63706400  0.77684300  0.03694200  1
