# generated using pymatgen
data_Na13Ca7S12Cl2O48F
_symmetry_space_group_name_H-M   'P 1'
_cell_length_a   9.69074100
_cell_length_b   9.69216800
_cell_length_c   13.90968037
_cell_angle_alpha   90.02435706
_cell_angle_beta   89.99427029
_cell_angle_gamma   119.78328978
_symmetry_Int_Tables_number   1
_chemical_formula_structural   Na13Ca7S12Cl2O48F
_chemical_formula_sum   'Na13 Ca7 S12 Cl2 O48 F1'
_cell_volume   1133.88732118
_cell_formula_units_Z   1
loop_
 _symmetry_equiv_pos_site_id
 _symmetry_equiv_pos_as_xyz
  1  'x, y, z'
loop_
 _atom_site_type_symbol
 _atom_site_label
 _atom_site_symmetry_multiplicity
 _atom_site_fract_x
 _atom_site_fract_y
 _atom_site_fract_z
 _atom_site_occupancy
  Na  Na0  1  0.26195200  0.25739000  0.12875000  1
  Na  Na1  1  0.27294400  0.26245400  0.62041300  1
  Na  Na2  1  0.74364900  0.00857500  0.12668300  1
  Na  Na3  1  0.73495400  0.01426600  0.62203600  1
  Na  Na4  1  0.66111300  0.32250300  0.25387600  1
  Na  Na5  1  0.65798100  0.31803000  0.50234500  1
  Na  Na6  1  0.66004600  0.32576200  0.73724500  1
  Na  Na7  1  0.00639800  0.27963500  0.38003700  1
  Na  Na8  1  0.99488300  0.73826500  0.12736600  1
  Na  Na9  1  0.33723400  0.66424300  0.74325500  1
  Na  Na10  1  0.33006500  0.66135800  0.50510400  1
  Na  Na11  1  0.33268200  0.66687600  0.99830100  1
  Na  Na12  1  0.27572200  0.99961000  0.37781800  1
  Ca  Ca13  1  0.66466500  0.33078900  0.00411700  1
  Ca  Ca14  1  0.00491200  0.24292800  0.87430300  1
  Ca  Ca15  1  0.99490900  0.73315400  0.62474900  1
  Ca  Ca16  1  0.32627700  0.66637400  0.24903500  1
  Ca  Ca17  1  0.23916400  0.99771900  0.87695600  1
  Ca  Ca18  1  0.71769600  0.72684100  0.37707600  1
  Ca  Ca19  1  0.75589200  0.76376600  0.87585600  1
  S  S20  1  0.64479100  0.02231000  0.37095500  1
  S  S21  1  0.63478600  0.03625200  0.87728100  1
  S  S22  1  0.38695600  0.36253300  0.37124700  1
  S  S23  1  0.40309000  0.36730500  0.87749100  1
  S  S24  1  0.03042000  0.40526900  0.12230600  1
  S  S25  1  0.02817700  0.39642300  0.62762800  1
  S  S26  1  0.97062100  0.61824900  0.37275000  1
  S  S27  1  0.96496100  0.59921100  0.87628400  1
  S  S28  1  0.59572100  0.62494500  0.12440300  1
  S  S29  1  0.60733000  0.63241000  0.62588500  1
  S  S30  1  0.37359000  0.96716400  0.12248900  1
  S  S31  1  0.36313200  0.96546100  0.62727200  1
  Cl  Cl32  1  0.00053100  0.00073200  0.07758300  1
  Cl  Cl33  1  0.99789900  0.00193800  0.63705900  1
  O  O34  1  0.32675700  0.26139300  0.45717800  1
  O  O35  1  0.36569500  0.26412600  0.96515500  1
  O  O36  1  0.33871000  0.26033400  0.28510800  1
  O  O37  1  0.34906500  0.25870000  0.79302600  1
  O  O38  1  0.48805600  0.14237000  0.12070800  1
  O  O39  1  0.46579900  0.14106700  0.62645500  1
  O  O40  1  0.54888600  0.10357300  0.37550600  1
  O  O41  1  0.52892200  0.10840600  0.87453700  1
  O  O42  1  0.74855000  0.07445700  0.28525100  1
  O  O43  1  0.74244700  0.09005700  0.79249100  1
  O  O44  1  0.74706500  0.05947400  0.45692400  1
  O  O45  1  0.73819100  0.10300300  0.96460300  1
  O  O46  1  0.58071700  0.47205800  0.87516100  1
  O  O47  1  0.56726300  0.45612800  0.37543600  1
  O  O48  1  0.85498200  0.34380700  0.12025100  1
  O  O49  1  0.85291100  0.33033400  0.62653200  1
  O  O50  1  0.65601000  0.51000700  0.12115700  1
  O  O51  1  0.68702500  0.53358300  0.62625400  1
  O  O52  1  0.88561300  0.44217900  0.37504200  1
  O  O53  1  0.88935100  0.42178700  0.87488500  1
  O  O54  1  0.08242300  0.36597900  0.03074600  1
  O  O55  1  0.07585400  0.34237200  0.20603700  1
  O  O56  1  0.08045300  0.35620300  0.71939000  1
  O  O57  1  0.08175700  0.34185900  0.54425000  1
  O  O58  1  0.92824100  0.68050700  0.46053000  1
  O  O59  1  0.91459800  0.67684700  0.29081500  1
  O  O60  1  0.89877000  0.64183300  0.96122300  1
  O  O61  1  0.91342200  0.65362600  0.78944200  1
  O  O62  1  0.11732200  0.58395100  0.13185200  1
  O  O63  1  0.11122200  0.57622300  0.62344500  1
  O  O64  1  0.32905700  0.48119200  0.36718300  1
  O  O65  1  0.32185300  0.46261100  0.88004900  1
  O  O66  1  0.14623500  0.68222500  0.36824900  1
  O  O67  1  0.14032700  0.67821900  0.87946900  1
  O  O68  1  0.41817700  0.53836300  0.13414500  1
  O  O69  1  0.43196600  0.53328600  0.62017300  1
  O  O70  1  0.28327100  0.91688600  0.03060000  1
  O  O71  1  0.24923000  0.91091100  0.54512400  1
  O  O72  1  0.26438900  0.92310800  0.20568800  1
  O  O73  1  0.26510000  0.91070700  0.71844900  1
  O  O74  1  0.46313700  0.87794300  0.13235100  1
  O  O75  1  0.45965700  0.88538400  0.62201300  1
  O  O76  1  0.53264300  0.84232600  0.36634400  1
  O  O77  1  0.54135500  0.86009700  0.88053300  1
  O  O78  1  0.66162200  0.73087400  0.20991000  1
  O  O79  1  0.64832200  0.72951000  0.71579100  1
  O  O80  1  0.63871600  0.72089600  0.03504200  1
  O  O81  1  0.66417400  0.73962000  0.54035500  1
  F  F82  1  0.99955000  0.99885500  0.86284300  1
