# generated using pymatgen
data_Cu4H24C13N7Cl
_symmetry_space_group_name_H-M   'P 1'
_cell_length_a   10.44171423
_cell_length_b   10.44171423
_cell_length_c   10.07604701
_cell_angle_alpha   87.24786915
_cell_angle_beta   87.24786915
_cell_angle_gamma   111.92907839
_symmetry_Int_Tables_number   1
_chemical_formula_structural   Cu4H24C13N7Cl
_chemical_formula_sum   'Cu8 H48 C26 N14 Cl2'
_cell_volume   1015.34232355
_cell_formula_units_Z   2
loop_
 _symmetry_equiv_pos_site_id
 _symmetry_equiv_pos_as_xyz
  1  'x, y, z'
loop_
 _atom_site_type_symbol
 _atom_site_label
 _atom_site_symmetry_multiplicity
 _atom_site_fract_x
 _atom_site_fract_y
 _atom_site_fract_z
 _atom_site_occupancy
  Cu  Cu0  1  0.37458400  0.62709500  0.87193300  1
  Cu  Cu1  1  0.94850800  0.25439200  0.83174400  1
  Cu  Cu2  1  0.74553100  0.05141300  0.66827100  1
  Cu  Cu3  1  0.37514200  0.62390000  0.62579200  1
  Cu  Cu4  1  0.62709500  0.37458400  0.37193300  1
  Cu  Cu5  1  0.25439200  0.94850800  0.33174400  1
  Cu  Cu6  1  0.05141300  0.74553100  0.16827100  1
  Cu  Cu7  1  0.62390000  0.37514200  0.12579200  1
  H  H8  1  0.28807200  0.18228800  0.98131100  1
  H  H9  1  0.23977700  0.99826600  0.98169300  1
  H  H10  1  0.96294000  0.61153600  0.87315400  1
  H  H11  1  0.51837300  0.21375500  0.91843400  1
  H  H12  1  0.46686800  0.02917400  0.91298300  1
  H  H13  1  0.99205800  0.78970000  0.83347400  1
  H  H14  1  0.72933300  0.56333100  0.85312000  1
  H  H15  1  0.14692700  0.08333300  0.88755500  1
  H  H16  1  0.76064200  0.73952200  0.79549200  1
  H  H17  1  0.39992400  0.33263500  0.80248100  1
  H  H18  1  0.29281100  0.90736500  0.75523400  1
  H  H19  1  0.56036500  0.14181300  0.77173900  1
  H  H20  1  0.85817600  0.43963200  0.72824100  1
  H  H21  1  0.09265600  0.70720800  0.74475900  1
  H  H22  1  0.66739200  0.60009500  0.69758300  1
  H  H23  1  0.26051700  0.23939000  0.70452900  1
  H  H24  1  0.91668400  0.85309200  0.61244500  1
  H  H25  1  0.43671100  0.27079700  0.64688900  1
  H  H26  1  0.21031100  0.00795600  0.66652800  1
  H  H27  1  0.97082300  0.53315100  0.58699800  1
  H  H28  1  0.78626400  0.48164100  0.58161900  1
  H  H29  1  0.38847400  0.03706700  0.62685600  1
  H  H30  1  0.00174500  0.76023300  0.51830400  1
  H  H31  1  0.81772000  0.71194800  0.51869300  1
  H  H32  1  0.18228800  0.28807200  0.48131100  1
  H  H33  1  0.99826600  0.23977700  0.48169300  1
  H  H34  1  0.61153600  0.96294000  0.37315400  1
  H  H35  1  0.21375500  0.51837300  0.41843400  1
  H  H36  1  0.02917400  0.46686800  0.41298300  1
  H  H37  1  0.78970000  0.99205800  0.33347400  1
  H  H38  1  0.56333100  0.72933300  0.35312000  1
  H  H39  1  0.08333300  0.14692700  0.38755500  1
  H  H40  1  0.73952200  0.76064200  0.29549200  1
  H  H41  1  0.33263500  0.39992400  0.30248100  1
  H  H42  1  0.90736500  0.29281100  0.25523400  1
  H  H43  1  0.14181300  0.56036500  0.27173900  1
  H  H44  1  0.43963200  0.85817600  0.22824100  1
  H  H45  1  0.70720800  0.09265600  0.24475900  1
  H  H46  1  0.60009500  0.66739200  0.19758300  1
  H  H47  1  0.23939000  0.26051700  0.20452900  1
  H  H48  1  0.85309200  0.91668400  0.11244500  1
  H  H49  1  0.27079700  0.43671100  0.14688900  1
  H  H50  1  0.00795600  0.21031100  0.16652700  1
  H  H51  1  0.53315100  0.97082300  0.08699800  1
  H  H52  1  0.48164100  0.78626400  0.08161900  1
  H  H53  1  0.03706700  0.38847400  0.12685600  1
  H  H54  1  0.76023300  0.00174500  0.01830400  1
  H  H55  1  0.71194800  0.81772000  0.01869300  1
  C  C56  1  0.81328200  0.27422200  0.94475500  1
  C  C57  1  0.24731600  0.09175200  0.92248600  1
  C  C58  1  0.48391800  0.12644900  0.85551200  1
  C  C59  1  0.99198200  0.69415400  0.79292600  1
  C  C60  1  0.74959200  0.63654800  0.76617200  1
  C  C61  1  0.50904800  0.77207700  0.74519000  1
  C  C62  1  0.22751000  0.49131600  0.75410400  1
  C  C63  1  0.36352900  0.25049100  0.73382100  1
  C  C64  1  0.30585800  0.00804600  0.70708400  1
  C  C65  1  0.87356100  0.51611600  0.64448500  1
  C  C66  1  0.90826300  0.75270700  0.57750400  1
  C  C67  1  0.72570200  0.18660100  0.55518800  1
  C  C68  1  0.47229800  0.53144800  0.52857700  1
  C  C69  1  0.27422200  0.81328200  0.44475500  1
  C  C70  1  0.09175200  0.24731600  0.42248600  1
  C  C71  1  0.12644900  0.48391800  0.35551200  1
  C  C72  1  0.69415400  0.99198200  0.29292600  1
  C  C73  1  0.63654800  0.74959200  0.26617200  1
  C  C74  1  0.77207700  0.50904800  0.24519000  1
  C  C75  1  0.49131600  0.22751000  0.25410400  1
  C  C76  1  0.25049100  0.36352900  0.23382100  1
  C  C77  1  0.00804600  0.30585800  0.20708400  1
  C  C78  1  0.51611600  0.87356100  0.14448500  1
  C  C79  1  0.75270700  0.90826300  0.07750400  1
  C  C80  1  0.18660100  0.72570200  0.05518800  1
  C  C81  1  0.53144800  0.47229800  0.02857700  1
  N  N82  1  0.26292500  0.69616900  0.98454300  1
  N  N83  1  0.46799600  0.52755300  0.97193800  1
  N  N84  1  0.34920800  0.11691500  0.80487100  1
  N  N85  1  0.60691900  0.87730900  0.72598600  1
  N  N86  1  0.12290500  0.39296500  0.77470900  1
  N  N87  1  0.88311200  0.65081800  0.69513100  1
  N  N88  1  0.30272100  0.73759400  0.51717500  1
  N  N89  1  0.69616900  0.26292500  0.48454300  1
  N  N90  1  0.52755300  0.46799600  0.47193800  1
  N  N91  1  0.11691500  0.34920800  0.30487100  1
  N  N92  1  0.87730900  0.60691900  0.22598600  1
  N  N93  1  0.39296500  0.12290500  0.27470900  1
  N  N94  1  0.65081800  0.88311200  0.19513100  1
  N  N95  1  0.73759400  0.30272100  0.01717500  1
  Cl  Cl96  1  0.95065200  0.04939900  0.74998800  1
  Cl  Cl97  1  0.04939900  0.95065200  0.24998800  1
