# generated using pymatgen
data_BaLa4TiCr4O15
_symmetry_space_group_name_H-M   'P 1'
_cell_length_a   5.58076100
_cell_length_b   7.91895736
_cell_length_c   14.80623165
_cell_angle_alpha   105.31937896
_cell_angle_beta   100.59767603
_cell_angle_gamma   90.85967616
_symmetry_Int_Tables_number   1
_chemical_formula_structural   BaLa4TiCr4O15
_chemical_formula_sum   'Ba2 La8 Ti2 Cr8 O30'
_cell_volume   618.93178619
_cell_formula_units_Z   2
loop_
 _symmetry_equiv_pos_site_id
 _symmetry_equiv_pos_as_xyz
  1  'x, y, z'
loop_
 _atom_site_type_symbol
 _atom_site_label
 _atom_site_symmetry_multiplicity
 _atom_site_fract_x
 _atom_site_fract_y
 _atom_site_fract_z
 _atom_site_occupancy
  Ba  Ba0  1  0.50116300  0.25130200  0.00265200  1
  Ba  Ba1  1  0.49915800  0.74877600  0.99783700  1
  La  La2  1  0.90106900  0.64900500  0.79817900  1
  La  La3  1  0.29940300  0.05018300  0.60015800  1
  La  La4  1  0.69999100  0.44784300  0.39707300  1
  La  La5  1  0.89923000  0.14892800  0.79801600  1
  La  La6  1  0.10169400  0.85053400  0.20253400  1
  La  La7  1  0.30233400  0.55167600  0.60284300  1
  La  La8  1  0.69925700  0.95086100  0.40042100  1
  La  La9  1  0.09779300  0.35122900  0.20271700  1
  Ti  Ti10  1  0.99970800  0.00002800  0.00028300  1
  Ti  Ti11  1  0.00038300  0.49999600  0.00019700  1
  Cr  Cr12  1  0.39515500  0.39935100  0.79730600  1
  Cr  Cr13  1  0.79977900  0.80023400  0.59840300  1
  Cr  Cr14  1  0.40323800  0.89845700  0.79726200  1
  Cr  Cr15  1  0.60508000  0.60065300  0.20317600  1
  Cr  Cr16  1  0.79871100  0.29835200  0.59848000  1
  Cr  Cr17  1  0.20092800  0.70185200  0.40208700  1
  Cr  Cr18  1  0.20071400  0.19985100  0.40202000  1
  Cr  Cr19  1  0.59736600  0.10137500  0.20306000  1
  O  O20  1  0.72281400  0.42396900  0.88820500  1
  O  O21  1  0.99196500  0.74046700  0.98165500  1
  O  O22  1  0.16482000  0.96444400  0.88791100  1
  O  O23  1  0.13019300  0.81460400  0.68315700  1
  O  O24  1  0.20454800  0.43102800  0.90459500  1
  O  O25  1  0.38723100  0.13731700  0.77401600  1
  O  O26  1  0.40258700  0.65455500  0.80832200  1
  O  O27  1  0.55640100  0.37060600  0.68425700  1
  O  O28  1  0.70000400  0.97322700  0.90485700  1
  O  O29  1  0.52813500  0.20564100  0.48580400  1
  O  O30  1  0.64904400  0.82513900  0.71308300  1
  O  O31  1  0.78526000  0.53560700  0.57094700  1
  O  O32  1  0.81404800  0.06434600  0.62860100  1
  O  O33  1  0.95431600  0.78059200  0.48466900  1
  O  O34  1  0.06713500  0.38800200  0.71175600  1
  O  O35  1  0.93338500  0.61394000  0.28838800  1
  O  O36  1  0.04145600  0.21819500  0.51435300  1
  O  O37  1  0.19021600  0.93573100  0.37180700  1
  O  O38  1  0.20900000  0.46435700  0.42919100  1
  O  O39  1  0.35698900  0.17915500  0.28910700  1
  O  O40  1  0.46947000  0.79368300  0.51602000  1
  O  O41  1  0.29946100  0.02728200  0.09621900  1
  O  O42  1  0.44262600  0.62694800  0.31606400  1
  O  O43  1  0.60567500  0.34531100  0.19199200  1
  O  O44  1  0.60910200  0.86279200  0.22674400  1
  O  O45  1  0.79604800  0.56960900  0.09594400  1
  O  O46  1  0.87328900  0.18367300  0.31582500  1
  O  O47  1  0.83439600  0.03368600  0.11199600  1
  O  O48  1  0.00861400  0.25907300  0.01857600  1
  O  O49  1  0.27761700  0.57523400  0.11229200  1
