# generated using pymatgen
data_Ga2(TeO3)3
_symmetry_space_group_name_H-M   'P 1'
_cell_length_a   9.24162473
_cell_length_b   9.24162473
_cell_length_c   7.58527800
_cell_angle_alpha   90.00000000
_cell_angle_beta   90.00000000
_cell_angle_gamma   120.00000523
_symmetry_Int_Tables_number   1
_chemical_formula_structural   Ga2(TeO3)3
_chemical_formula_sum   'Ga4 Te6 O18'
_cell_volume   561.04638689
_cell_formula_units_Z   2
loop_
 _symmetry_equiv_pos_site_id
 _symmetry_equiv_pos_as_xyz
  1  'x, y, z'
loop_
 _atom_site_type_symbol
 _atom_site_label
 _atom_site_symmetry_multiplicity
 _atom_site_fract_x
 _atom_site_fract_y
 _atom_site_fract_z
 _atom_site_occupancy
  Ga  Ga0  1  0.33333300  0.66666700  0.43858300  1
  Ga  Ga1  1  0.66666700  0.33333300  0.93858300  1
  Ga  Ga2  1  0.66666700  0.33333300  0.56141700  1
  Ga  Ga3  1  0.33333300  0.66666700  0.06141700  1
  Te  Te4  1  0.49084700  0.04111200  0.25000000  1
  Te  Te5  1  0.55026500  0.50915300  0.25000000  1
  Te  Te6  1  0.95888800  0.44973500  0.25000000  1
  Te  Te7  1  0.50915300  0.95888800  0.75000000  1
  Te  Te8  1  0.44973500  0.49084700  0.75000000  1
  Te  Te9  1  0.04111200  0.55026500  0.75000000  1
  O  O10  1  0.49440600  0.83336200  0.25000000  1
  O  O11  1  0.33895600  0.50559400  0.25000000  1
  O  O12  1  0.16663800  0.66104400  0.25000000  1
  O  O13  1  0.50559400  0.16663800  0.75000000  1
  O  O14  1  0.66104400  0.49440600  0.75000000  1
  O  O15  1  0.83336200  0.33895600  0.75000000  1
  O  O16  1  0.65504700  0.14474300  0.43232400  1
  O  O17  1  0.48969600  0.34495300  0.43232400  1
  O  O18  1  0.85525700  0.51030400  0.43232400  1
  O  O19  1  0.34495300  0.85525700  0.93232400  1
  O  O20  1  0.51030400  0.65504700  0.93232400  1
  O  O21  1  0.14474300  0.48969600  0.93232400  1
  O  O22  1  0.34495300  0.85525700  0.56767600  1
  O  O23  1  0.51030400  0.65504700  0.56767600  1
  O  O24  1  0.14474300  0.48969600  0.56767600  1
  O  O25  1  0.65504700  0.14474300  0.06767600  1
  O  O26  1  0.48969600  0.34495300  0.06767600  1
  O  O27  1  0.85525700  0.51030400  0.06767600  1
