# generated using pymatgen
data_Ca2AlH10ClO8
_symmetry_space_group_name_H-M   'P 1'
_cell_length_a   8.71786936
_cell_length_b   8.71786936
_cell_length_c   10.94969003
_cell_angle_alpha   79.11197773
_cell_angle_beta   79.11197773
_cell_angle_gamma   45.33802104
_symmetry_Int_Tables_number   1
_chemical_formula_structural   Ca2AlH10ClO8
_chemical_formula_sum   'Ca4 Al2 H20 Cl2 O16'
_cell_volume   579.37425382
_cell_formula_units_Z   2
loop_
 _symmetry_equiv_pos_site_id
 _symmetry_equiv_pos_as_xyz
  1  'x, y, z'
loop_
 _atom_site_type_symbol
 _atom_site_label
 _atom_site_symmetry_multiplicity
 _atom_site_fract_x
 _atom_site_fract_y
 _atom_site_fract_z
 _atom_site_occupancy
  Ca  Ca0  1  0.43760200  0.03573800  0.80796400  1
  Ca  Ca1  1  0.96426200  0.56239800  0.69203600  1
  Ca  Ca2  1  0.56239800  0.96426200  0.19203600  1
  Ca  Ca3  1  0.03573800  0.43760200  0.30796400  1
  Al  Al4  1  0.50000000  0.00000000  0.50000000  1
  Al  Al5  1  0.00000000  0.50000000  0.00000000  1
  H  H6  1  0.72712100  0.17218100  0.54790000  1
  H  H7  1  0.82781900  0.27287900  0.95210000  1
  H  H8  1  0.27287900  0.82781900  0.45210000  1
  H  H9  1  0.17218100  0.72712100  0.04790000  1
  H  H10  1  0.45513100  0.68126600  0.78586100  1
  H  H11  1  0.31873400  0.54486900  0.71413900  1
  H  H12  1  0.54486900  0.31873400  0.21413900  1
  H  H13  1  0.68126600  0.45513100  0.28586100  1
  H  H14  1  0.93439800  0.83928300  0.32746700  1
  H  H15  1  0.16071700  0.06560200  0.17253300  1
  H  H16  1  0.06560200  0.16071700  0.67253300  1
  H  H17  1  0.83928300  0.93439800  0.82746700  1
  H  H18  1  0.29449400  0.80116700  0.89939100  1
  H  H19  1  0.19883300  0.70550600  0.60060900  1
  H  H20  1  0.70550600  0.19883300  0.10060900  1
  H  H21  1  0.80116700  0.29449400  0.39939100  1
  H  H22  1  0.09281700  0.78777300  0.99820500  1
  H  H23  1  0.21222700  0.90718300  0.50179500  1
  H  H24  1  0.90718300  0.21222700  0.00179500  1
  H  H25  1  0.78777300  0.09281700  0.49820500  1
  Cl  Cl26  1  0.63279400  0.36720600  0.75000000  1
  Cl  Cl27  1  0.36720600  0.63279400  0.25000000  1
  O  O28  1  0.64976800  0.87441500  0.62876900  1
  O  O29  1  0.12558500  0.35023200  0.87123100  1
  O  O30  1  0.35023200  0.12558500  0.37123100  1
  O  O31  1  0.87441500  0.64976800  0.12876900  1
  O  O32  1  0.94934900  0.73485100  0.39125200  1
  O  O33  1  0.26514900  0.05065100  0.10874800  1
  O  O34  1  0.05065100  0.26514900  0.60874800  1
  O  O35  1  0.73485100  0.94934900  0.89125200  1
  O  O36  1  0.74209700  0.79400000  0.38575800  1
  O  O37  1  0.20600000  0.25790300  0.11424200  1
  O  O38  1  0.25790300  0.20600000  0.61424200  1
  O  O39  1  0.79400000  0.74209700  0.88575800  1
  O  O40  1  0.35432900  0.82483800  0.82181400  1
  O  O41  1  0.17516200  0.64567100  0.67818600  1
  O  O42  1  0.64567100  0.17516200  0.17818600  1
  O  O43  1  0.82483800  0.35432900  0.32181400  1
