# generated using pymatgen
data_Nd2Te(MoO7)6
_symmetry_space_group_name_H-M   'P 1'
_cell_length_a   8.72453161
_cell_length_b   10.97050077
_cell_length_c   11.11705132
_cell_angle_alpha   98.32390739
_cell_angle_beta   113.01786174
_cell_angle_gamma   106.85958550
_symmetry_Int_Tables_number   1
_chemical_formula_structural   Nd2Te(MoO7)6
_chemical_formula_sum   'Nd2 Te1 Mo6 O42'
_cell_volume   896.06851637
_cell_formula_units_Z   1
loop_
 _symmetry_equiv_pos_site_id
 _symmetry_equiv_pos_as_xyz
  1  'x, y, z'
loop_
 _atom_site_type_symbol
 _atom_site_label
 _atom_site_symmetry_multiplicity
 _atom_site_fract_x
 _atom_site_fract_y
 _atom_site_fract_z
 _atom_site_occupancy
  Nd  Nd0  1  0.05213700  0.26324300  0.75431600  1
  Nd  Nd1  1  0.94786300  0.73675700  0.24568400  1
  Te  Te2  1  0.50000000  0.50000000  0.50000000  1
  Mo  Mo3  1  0.58651300  0.22118100  0.45903500  1
  Mo  Mo4  1  0.41348700  0.77881900  0.54096500  1
  Mo  Mo5  1  0.63950200  0.41773500  0.27040900  1
  Mo  Mo6  1  0.36049800  0.58226500  0.72959100  1
  Mo  Mo7  1  0.52110000  0.68004500  0.29522600  1
  Mo  Mo8  1  0.47890000  0.31995500  0.70477400  1
  O  O9  1  0.65083900  0.42626000  0.62476700  1
  O  O10  1  0.34916100  0.57374000  0.37523300  1
  O  O11  1  0.44405800  0.33874100  0.35361900  1
  O  O12  1  0.55594200  0.66125900  0.64638100  1
  O  O13  1  0.75128500  0.34211800  0.40678000  1
  O  O14  1  0.24871500  0.65788200  0.59322000  1
  O  O15  1  0.42742400  0.18629000  0.53861800  1
  O  O16  1  0.57257600  0.81371000  0.46138200  1
  O  O17  1  0.77731900  0.19542200  0.58574400  1
  O  O18  1  0.22268100  0.80457800  0.41425600  1
  O  O19  1  0.48045300  0.08174300  0.32158600  1
  O  O20  1  0.51954700  0.91825700  0.67841400  1
  O  O21  1  0.68156300  0.58786200  0.45009500  1
  O  O22  1  0.31843700  0.41213800  0.54990500  1
  O  O23  1  0.47286500  0.50605100  0.18846200  1
  O  O24  1  0.52713500  0.49394900  0.81153800  1
  O  O25  1  0.54487900  0.28580100  0.12594400  1
  O  O26  1  0.45512100  0.71419900  0.87405600  1
  O  O27  1  0.83320100  0.53468900  0.26593700  1
  O  O28  1  0.16679900  0.46531100  0.73406300  1
  O  O29  1  0.72993000  0.76869600  0.28810000  1
  O  O30  1  0.27007000  0.23130400  0.71190000  1
  O  O31  1  0.35356200  0.71285200  0.17586500  1
  O  O32  1  0.64643800  0.28714800  0.82413500  1
  O  O33  1  0.95514800  0.93858000  0.61073200  1
  O  O34  1  0.04485200  0.06142000  0.38926800  1
  O  O35  1  0.20685400  0.09519900  0.90377300  1
  O  O36  1  0.79314600  0.90480100  0.09622700  1
  O  O37  1  0.08560900  0.46292000  0.95024400  1
  O  O38  1  0.91439100  0.53708000  0.04975600  1
  O  O39  1  0.98126000  0.14239100  0.41476200  1
  O  O40  1  0.01874000  0.85760900  0.58523800  1
  O  O41  1  0.99521600  0.52477300  0.89459300  1
  O  O42  1  0.00478400  0.47522700  0.10540700  1
  O  O43  1  0.94634200  0.19801000  0.93026900  1
  O  O44  1  0.05365800  0.80199000  0.06973100  1
  O  O45  1  0.11122900  0.16709100  0.12585400  1
  O  O46  1  0.88877100  0.83290900  0.87414600  1
  O  O47  1  0.70249700  0.96795500  0.10950900  1
  O  O48  1  0.29750300  0.03204500  0.89049100  1
  O  O49  1  0.96470400  0.17530500  0.04804600  1
  O  O50  1  0.03529600  0.82469500  0.95195400  1
