# generated using pymatgen
data_Eu(Ni3S4)2
_symmetry_space_group_name_H-M   'P 1'
_cell_length_a   6.22846646
_cell_length_b   6.22846646
_cell_length_c   6.22846614
_cell_angle_alpha   89.51854312
_cell_angle_beta   89.51854312
_cell_angle_gamma   89.51854756
_symmetry_Int_Tables_number   1
_chemical_formula_structural   Eu(Ni3S4)2
_chemical_formula_sum   'Eu1 Ni6 S8'
_cell_volume   241.60038594
_cell_formula_units_Z   1
loop_
 _symmetry_equiv_pos_site_id
 _symmetry_equiv_pos_as_xyz
  1  'x, y, z'
loop_
 _atom_site_type_symbol
 _atom_site_label
 _atom_site_symmetry_multiplicity
 _atom_site_fract_x
 _atom_site_fract_y
 _atom_site_fract_z
 _atom_site_occupancy
  Eu  Eu0  1  0.00000000  0.00000000  0.00000000  1
  Ni  Ni1  1  0.59289600  0.80744700  0.43124900  1
  Ni  Ni2  1  0.43124900  0.59289600  0.80744700  1
  Ni  Ni3  1  0.40710400  0.19255300  0.56875100  1
  Ni  Ni4  1  0.19255300  0.56875100  0.40710400  1
  Ni  Ni5  1  0.80744700  0.43124900  0.59289600  1
  Ni  Ni6  1  0.56875100  0.40710400  0.19255300  1
  S  S7  1  0.85269500  0.61674400  0.27072100  1
  S  S8  1  0.72927900  0.14730500  0.38325600  1
  S  S9  1  0.25552900  0.25552900  0.25552900  1
  S  S10  1  0.74447100  0.74447100  0.74447100  1
  S  S11  1  0.14730500  0.38325600  0.72927900  1
  S  S12  1  0.61674400  0.27072100  0.85269500  1
  S  S13  1  0.27072100  0.85269500  0.61674400  1
  S  S14  1  0.38325600  0.72927900  0.14730500  1
