# generated using pymatgen
data_Ti5ZnBi2(Pb2O9)2
_symmetry_space_group_name_H-M   'P 1'
_cell_length_a   6.00543893
_cell_length_b   6.00543893
_cell_length_c   14.28297244
_cell_angle_alpha   81.32518929
_cell_angle_beta   81.32518929
_cell_angle_gamma   54.12261067
_symmetry_Int_Tables_number   1
_chemical_formula_structural   Ti5ZnBi2(Pb2O9)2
_chemical_formula_sum   'Ti5 Zn1 Bi2 Pb4 O18'
_cell_volume   411.35742935
_cell_formula_units_Z   1
loop_
 _symmetry_equiv_pos_site_id
 _symmetry_equiv_pos_as_xyz
  1  'x, y, z'
loop_
 _atom_site_type_symbol
 _atom_site_label
 _atom_site_symmetry_multiplicity
 _atom_site_fract_x
 _atom_site_fract_y
 _atom_site_fract_z
 _atom_site_occupancy
  Ti  Ti0  1  0.34519100  0.34519100  0.91526800  1
  Ti  Ti1  1  0.01012900  0.01012900  0.75484700  1
  Ti  Ti2  1  0.67647700  0.67647700  0.58683200  1
  Ti  Ti3  1  0.34432400  0.34432400  0.42228100  1
  Ti  Ti4  1  0.68044800  0.68044800  0.08583600  1
  Zn  Zn5  1  0.98561400  0.98561400  0.25344900  1
  Bi  Bi6  1  0.64501600  0.64501600  0.31595000  1
  Bi  Bi7  1  0.30205200  0.30205200  0.16104600  1
  Pb  Pb8  1  0.98994600  0.98994600  0.00715400  1
  Pb  Pb9  1  0.66077100  0.66077100  0.82768800  1
  Pb  Pb10  1  0.32748400  0.32748400  0.66155600  1
  Pb  Pb11  1  0.99863400  0.99863400  0.49171400  1
  O  O12  1  0.20618400  0.70945400  0.85599000  1
  O  O13  1  0.21535200  0.21535200  0.85294800  1
  O  O14  1  0.70945400  0.20618400  0.85599000  1
  O  O15  1  0.88045900  0.88045900  0.69223400  1
  O  O16  1  0.87539200  0.37736800  0.68920200  1
  O  O17  1  0.37736800  0.87539200  0.68920200  1
  O  O18  1  0.54346100  0.04181200  0.52078000  1
  O  O19  1  0.54792200  0.54792200  0.52488200  1
  O  O20  1  0.04181200  0.54346100  0.52078000  1
  O  O21  1  0.23140000  0.70836200  0.35957400  1
  O  O22  1  0.22729800  0.22729800  0.34708300  1
  O  O23  1  0.70836200  0.23140000  0.35957400  1
  O  O24  1  0.87612800  0.37955800  0.18917300  1
  O  O25  1  0.85277500  0.85277500  0.17668000  1
  O  O26  1  0.37955800  0.87612800  0.18917300  1
  O  O27  1  0.52823300  0.05014500  0.02262600  1
  O  O28  1  0.54514300  0.54514300  0.02912900  1
  O  O29  1  0.05014500  0.52823300  0.02262600  1
