data_image0
_chemical_formula_structural       B6H36Li2Mg2N4
_chemical_formula_sum              "B6 H36 Li2 Mg2 N4"
_cell_length_a       7.66157
_cell_length_b       7.66134
_cell_length_c       7.81159
_cell_angle_alpha    90
_cell_angle_beta     90
_cell_angle_gamma    120.001

_space_group_name_H-M_alt    "P 1"
_space_group_IT_number       1

loop_
  _space_group_symop_operation_xyz
  'x, y, z'

loop_
  _atom_site_type_symbol
  _atom_site_label
  _atom_site_symmetry_multiplicity
  _atom_site_fract_x
  _atom_site_fract_y
  _atom_site_fract_z
  _atom_site_occupancy
  B   B1        1.0  0.95100  0.25500  0.47100  1.0000
  B   B2        1.0  0.74500  0.69600  0.47100  1.0000
  B   B3        1.0  0.30400  0.04900  0.47100  1.0000
  B   B4        1.0  0.04900  0.74500  0.97100  1.0000
  B   B5        1.0  0.25500  0.30400  0.97100  1.0000
  B   B6        1.0  0.69600  0.95100  0.97100  1.0000
  H   H1        1.0  0.95400  0.75400  0.09290  1.0000
  H   H2        1.0  0.79900  0.04570  0.09290  1.0000
  H   H3        1.0  0.24600  0.20100  0.09290  1.0000
  H   H4        1.0  0.69600  0.22600  0.15700  1.0000
  H   H5        1.0  0.77400  0.46900  0.15700  1.0000
  H   H6        1.0  0.53100  0.30400  0.15700  1.0000
  H   H7        1.0  0.31800  0.78300  0.29700  1.0000
  H   H8        1.0  0.21700  0.53500  0.29800  1.0000
  H   H9        1.0  0.46400  0.68200  0.29800  1.0000
  H   H10       1.0  0.01620  0.23400  0.33500  1.0000
  H   H11       1.0  0.21800  0.98400  0.33500  1.0000
  H   H12       1.0  0.76600  0.78200  0.33500  1.0000
  H   H13       1.0  0.97400  0.42600  0.47200  1.0000
  H   H14       1.0  0.45300  0.02600  0.47200  1.0000
  H   H15       1.0  0.57400  0.54700  0.47200  1.0000
  H   H16       1.0  0.77300  0.12600  0.48500  1.0000
  H   H17       1.0  0.87400  0.64700  0.48500  1.0000
  H   H18       1.0  0.35300  0.22700  0.48500  1.0000
  H   H19       1.0  0.04570  0.24600  0.59300  1.0000
  H   H20       1.0  0.20100  0.95400  0.59300  1.0000
  H   H21       1.0  0.75400  0.79900  0.59300  1.0000
  H   H22       1.0  0.30400  0.77400  0.65700  1.0000
  H   H23       1.0  0.22600  0.53100  0.65700  1.0000
  H   H24       1.0  0.46900  0.69600  0.65700  1.0000
  H   H25       1.0  0.68200  0.21700  0.79700  1.0000
  H   H26       1.0  0.78300  0.46500  0.79800  1.0000
  H   H27       1.0  0.53600  0.31800  0.79800  1.0000
  H   H28       1.0  0.98400  0.76600  0.83500  1.0000
  H   H29       1.0  0.78200  0.01620  0.83500  1.0000
  H   H30       1.0  0.23400  0.21800  0.83500  1.0000
  H   H31       1.0  0.02600  0.57400  0.97200  1.0000
  H   H32       1.0  0.54700  0.97400  0.97200  1.0000
  H   H33       1.0  0.42600  0.45300  0.97200  1.0000
  H   H34       1.0  0.22700  0.87400  0.98500  1.0000
  H   H35       1.0  0.12600  0.35300  0.98500  1.0000
  H   H36       1.0  0.64700  0.77300  0.98500  1.0000
  Li  Li1       1.0  0.00000  0.00000  0.20800  1.0000
  Li  Li2       1.0  0.00000  0.00000  0.70800  1.0000
  Mg  Mg1       1.0  0.66700  0.33300  0.47700  1.0000
  Mg  Mg2       1.0  0.33300  0.66700  0.97700  1.0000
  N   N1        1.0  0.66700  0.33300  0.20700  1.0000
  N   N2        1.0  0.33300  0.66700  0.24800  1.0000
  N   N3        1.0  0.33300  0.66700  0.70700  1.0000
  N   N4        1.0  0.66700  0.33300  0.74800  1.0000
