# generated using pymatgen
data_KNb4AsO13
_symmetry_space_group_name_H-M   'P 1'
_cell_length_a   7.49878100
_cell_length_b   10.16427002
_cell_length_c   14.99614520
_cell_angle_alpha   90.00527728
_cell_angle_beta   90.77705879
_cell_angle_gamma   90.00359639
_symmetry_Int_Tables_number   1
_chemical_formula_structural   KNb4AsO13
_chemical_formula_sum   'K4 Nb16 As4 O52'
_cell_volume   1142.89558775
_cell_formula_units_Z   4
loop_
 _symmetry_equiv_pos_site_id
 _symmetry_equiv_pos_as_xyz
  1  'x, y, z'
loop_
 _atom_site_type_symbol
 _atom_site_label
 _atom_site_symmetry_multiplicity
 _atom_site_fract_x
 _atom_site_fract_y
 _atom_site_fract_z
 _atom_site_occupancy
  K  K0  1  0.94819400  0.09359000  0.97412000  1
  K  K1  1  0.94697400  0.06175300  0.47342300  1
  K  K2  1  0.05427100  0.56700900  0.02708000  1
  K  K3  1  0.05331300  0.56188400  0.52671500  1
  Nb  Nb4  1  0.94446000  0.74773100  0.30075600  1
  Nb  Nb5  1  0.94342900  0.74840400  0.80076200  1
  Nb  Nb6  1  0.67785600  0.99824900  0.16401000  1
  Nb  Nb7  1  0.67268800  0.49890000  0.16165600  1
  Nb  Nb8  1  0.67646200  0.99854000  0.66419100  1
  Nb  Nb9  1  0.67178500  0.49903200  0.66176500  1
  Nb  Nb10  1  0.60154400  0.74781500  0.47212200  1
  Nb  Nb11  1  0.60135900  0.74834400  0.97187100  1
  Nb  Nb12  1  0.39990500  0.24831800  0.02832900  1
  Nb  Nb13  1  0.39944800  0.24794000  0.52812900  1
  Nb  Nb14  1  0.32915200  0.99839500  0.33852300  1
  Nb  Nb15  1  0.32391300  0.49890800  0.33611100  1
  Nb  Nb16  1  0.32734300  0.99843500  0.83868100  1
  Nb  Nb17  1  0.32303200  0.49898100  0.83616700  1
  Nb  Nb18  1  0.05658200  0.24813700  0.20044400  1
  Nb  Nb19  1  0.05639900  0.24810400  0.69917700  1
  As  As20  1  0.66335200  0.25096900  0.33179500  1
  As  As21  1  0.66195800  0.25172400  0.83093700  1
  As  As22  1  0.33725400  0.75111000  0.16839300  1
  As  As23  1  0.33636200  0.75114700  0.66833100  1
  O  O24  1  0.88787800  0.24740100  0.31601000  1
  O  O25  1  0.88657400  0.24838100  0.81520300  1
  O  O26  1  0.86286000  0.38708900  0.14784400  1
  O  O27  1  0.86161000  0.11792200  0.14866100  1
  O  O28  1  0.86180700  0.38690000  0.64828600  1
  O  O29  1  0.86081900  0.11710100  0.64774200  1
  O  O30  1  0.83763200  0.74977200  0.41873300  1
  O  O31  1  0.83680800  0.74804400  0.91846300  1
  O  O32  1  0.80976100  0.89143700  0.25481000  1
  O  O33  1  0.80843200  0.60976900  0.25378300  1
  O  O34  1  0.80888200  0.89196900  0.75493500  1
  O  O35  1  0.80746600  0.61044900  0.75329600  1
  O  O36  1  0.70442300  0.88752100  0.06855300  1
  O  O37  1  0.70491900  0.61785700  0.06988000  1
  O  O38  1  0.70349700  0.88677300  0.56908800  1
  O  O39  1  0.70487700  0.61708100  0.56940400  1
  O  O40  1  0.63122300  0.24671000  0.44394600  1
  O  O41  1  0.63115600  0.24906600  0.94321200  1
  O  O42  1  0.56761200  0.39044700  0.28365800  1
  O  O43  1  0.56724400  0.11151900  0.28352900  1
  O  O44  1  0.56590300  0.39105900  0.78308900  1
  O  O45  1  0.56613700  0.11194700  0.78314300  1
  O  O46  1  0.51020400  0.89171100  0.40480400  1
  O  O47  1  0.50772500  0.60998300  0.40387300  1
  O  O48  1  0.50935600  0.89176500  0.90448400  1
  O  O49  1  0.50650800  0.61019900  0.90403500  1
  O  O50  1  0.49155800  0.39240900  0.09517600  1
  O  O51  1  0.49451900  0.11068800  0.09616400  1
  O  O52  1  0.49040500  0.39189300  0.59524900  1
  O  O53  1  0.49290900  0.10999100  0.59616900  1
  O  O54  1  0.43332800  0.89073600  0.21618200  1
  O  O55  1  0.43377700  0.61170200  0.21680200  1
  O  O56  1  0.43199000  0.89067700  0.71650000  1
  O  O57  1  0.43293700  0.61173400  0.71656700  1
  O  O58  1  0.36943600  0.74690900  0.05634000  1
  O  O59  1  0.36905700  0.74676000  0.55622600  1
  O  O60  1  0.29715300  0.38675400  0.43104400  1
  O  O61  1  0.29564700  0.11692600  0.43056400  1
  O  O62  1  0.29515500  0.38729600  0.93125300  1
  O  O63  1  0.29719700  0.11807600  0.93062400  1
  O  O64  1  0.19052400  0.39242300  0.24571300  1
  O  O65  1  0.19297300  0.11039600  0.24686900  1
  O  O66  1  0.19025500  0.39180900  0.74530200  1
  O  O67  1  0.19160400  0.11031200  0.74688200  1
  O  O68  1  0.16419700  0.25097500  0.08222100  1
  O  O69  1  0.16275900  0.24982800  0.58127000  1
  O  O70  1  0.13852700  0.88675300  0.35163400  1
  O  O71  1  0.13950700  0.61720600  0.35278800  1
  O  O72  1  0.13665600  0.88750800  0.85236200  1
  O  O73  1  0.13902500  0.61778100  0.85210700  1
  O  O74  1  0.11295300  0.74644500  0.18473500  1
  O  O75  1  0.11200200  0.74722400  0.68450100  1
