# generated using pymatgen
data_Ga3S2O15
_symmetry_space_group_name_H-M   'P 1'
_cell_length_a   7.00230557
_cell_length_b   7.00230557
_cell_length_c   7.00230567
_cell_angle_alpha   62.38116914
_cell_angle_beta   62.38116914
_cell_angle_gamma   62.38116709
_symmetry_Int_Tables_number   1
_chemical_formula_structural   Ga3S2O15
_chemical_formula_sum   'Ga3 S2 O15'
_cell_volume   255.67176974
_cell_formula_units_Z   1
loop_
 _symmetry_equiv_pos_site_id
 _symmetry_equiv_pos_as_xyz
  1  'x, y, z'
loop_
 _atom_site_type_symbol
 _atom_site_label
 _atom_site_symmetry_multiplicity
 _atom_site_fract_x
 _atom_site_fract_y
 _atom_site_fract_z
 _atom_site_occupancy
  Ga  Ga0  1  0.00000000  0.00000000  0.50000000  1
  Ga  Ga1  1  0.50000000  0.00000000  0.00000000  1
  Ga  Ga2  1  0.00000000  0.50000000  0.00000000  1
  S  S3  1  0.68871100  0.68871100  0.68871100  1
  S  S4  1  0.31128900  0.31128900  0.31128900  1
  O  O5  1  0.60271100  0.60271100  0.60271100  1
  O  O6  1  0.39728900  0.39728900  0.39728900  1
  O  O7  1  0.83203800  0.49588400  0.83203800  1
  O  O8  1  0.83203800  0.83203800  0.49588400  1
  O  O9  1  0.49588400  0.83203800  0.83203800  1
  O  O10  1  0.16796200  0.50411600  0.16796200  1
  O  O11  1  0.16796200  0.16796200  0.50411600  1
  O  O12  1  0.50411600  0.16796200  0.16796200  1
  O  O13  1  0.75787400  0.09651300  0.75787400  1
  O  O14  1  0.75787400  0.75787400  0.09651300  1
  O  O15  1  0.09651300  0.75787400  0.75787400  1
  O  O16  1  0.24212600  0.90348700  0.24212600  1
  O  O17  1  0.24212600  0.24212600  0.90348700  1
  O  O18  1  0.90348700  0.24212600  0.24212600  1
  O  O19  1  0.00000000  0.00000000  0.00000000  1
