# generated using pymatgen
data_Mo(PO3)4
_symmetry_space_group_name_H-M   'P 1'
_cell_length_a   7.30923601
_cell_length_b   7.30923601
_cell_length_c   10.37702339
_cell_angle_alpha   65.68211746
_cell_angle_beta   65.68211746
_cell_angle_gamma   69.80500409
_symmetry_Int_Tables_number   1
_chemical_formula_structural   Mo(PO3)4
_chemical_formula_sum   'Mo2 P8 O24'
_cell_volume   449.96382790
_cell_formula_units_Z   2
loop_
 _symmetry_equiv_pos_site_id
 _symmetry_equiv_pos_as_xyz
  1  'x, y, z'
loop_
 _atom_site_type_symbol
 _atom_site_label
 _atom_site_symmetry_multiplicity
 _atom_site_fract_x
 _atom_site_fract_y
 _atom_site_fract_z
 _atom_site_occupancy
  Mo  Mo0  1  0.94473800  0.05526200  0.25000000  1
  Mo  Mo1  1  0.05526200  0.94473800  0.75000000  1
  P  P2  1  0.74747800  0.27200000  0.51989400  1
  P  P3  1  0.68772000  0.71392600  0.80212500  1
  P  P4  1  0.31228000  0.28607400  0.19787500  1
  P  P5  1  0.25252200  0.72800000  0.48010600  1
  P  P6  1  0.72800000  0.25252200  0.98010600  1
  P  P7  1  0.71392600  0.68772000  0.30212500  1
  P  P8  1  0.28607400  0.31228000  0.69787500  1
  P  P9  1  0.27200000  0.74747800  0.01989400  1
  O  O10  1  0.80208500  0.26172300  0.09276600  1
  O  O11  1  0.71173700  0.46723800  0.85333600  1
  O  O12  1  0.28826300  0.53276200  0.14666400  1
  O  O13  1  0.25264200  0.12367400  0.68733800  1
  O  O14  1  0.77797800  0.50387400  0.44239900  1
  O  O15  1  0.35371600  0.19154500  0.34022800  1
  O  O16  1  0.50387400  0.77797800  0.94239900  1
  O  O17  1  0.19154500  0.35371600  0.84022800  1
  O  O18  1  0.84511400  0.08883500  0.90585700  1
  O  O19  1  0.49612600  0.22202200  0.05760100  1
  O  O20  1  0.91116500  0.15488600  0.59414300  1
  O  O21  1  0.19791500  0.73827700  0.90723400  1
  O  O22  1  0.74735800  0.87632600  0.31266200  1
  O  O23  1  0.53276200  0.28826300  0.64666400  1
  O  O24  1  0.87632600  0.74735800  0.81266200  1
  O  O25  1  0.12367400  0.25264200  0.18733800  1
  O  O26  1  0.80845500  0.64628400  0.15977200  1
  O  O27  1  0.64628400  0.80845500  0.65977200  1
  O  O28  1  0.26172300  0.80208500  0.59276600  1
  O  O29  1  0.46723800  0.71173700  0.35333600  1
  O  O30  1  0.08883500  0.84511400  0.40585700  1
  O  O31  1  0.22202200  0.49612600  0.55760100  1
  O  O32  1  0.73827700  0.19791500  0.40723400  1
  O  O33  1  0.15488600  0.91116500  0.09414300  1
