# generated using pymatgen
data_MgCd2(ClO2)6
_symmetry_space_group_name_H-M   'P 1'
_cell_length_a   17.50457175
_cell_length_b   15.54453498
_cell_length_c   9.75173901
_cell_angle_alpha   84.26050670
_cell_angle_beta   62.07671111
_cell_angle_gamma   33.66278219
_symmetry_Int_Tables_number   1
_chemical_formula_structural   MgCd2(ClO2)6
_chemical_formula_sum   'Mg2 Cd4 Cl12 O24'
_cell_volume   1047.74147038
_cell_formula_units_Z   2
loop_
 _symmetry_equiv_pos_site_id
 _symmetry_equiv_pos_as_xyz
  1  'x, y, z'
loop_
 _atom_site_type_symbol
 _atom_site_label
 _atom_site_symmetry_multiplicity
 _atom_site_fract_x
 _atom_site_fract_y
 _atom_site_fract_z
 _atom_site_occupancy
  Mg  Mg0  1  0.22838800  0.27161200  0.27161200  1
  Mg  Mg1  1  0.97838800  0.02161200  0.02161200  1
  Cd  Cd2  1  0.42607300  0.09790800  0.47827900  1
  Cd  Cd3  1  0.99774100  0.47827900  0.09790800  1
  Cd  Cd4  1  0.15209200  0.82392700  0.25225900  1
  Cd  Cd5  1  0.77172100  0.25225900  0.82392700  1
  Cl  Cl6  1  0.10955000  0.32508700  0.80203800  1
  Cl  Cl7  1  0.76332500  0.80203800  0.32508700  1
  Cl  Cl8  1  0.92491300  0.14045000  0.48667500  1
  Cl  Cl9  1  0.44796200  0.48667500  0.14045000  1
  Cl  Cl10  1  0.45658400  0.91714700  0.31759000  1
  Cl  Cl11  1  0.30867800  0.31759000  0.91714700  1
  Cl  Cl12  1  0.33285300  0.79341600  0.94132200  1
  Cl  Cl13  1  0.93241000  0.94132200  0.79341600  1
  Cl  Cl14  1  0.32605600  0.32924900  0.40344600  1
  Cl  Cl15  1  0.94124900  0.40344600  0.32924900  1
  Cl  Cl16  1  0.92075100  0.92394400  0.30875100  1
  Cl  Cl17  1  0.84655400  0.30875100  0.92394400  1
  O  O18  1  0.48781400  0.86261600  0.68298100  1
  O  O19  1  0.96658900  0.68298100  0.86261600  1
  O  O20  1  0.38738400  0.76218600  0.28341100  1
  O  O21  1  0.56701900  0.28341100  0.76218600  1
  O  O22  1  0.17496000  0.42247000  0.40371100  1
  O  O23  1  0.99886000  0.40371100  0.42247000  1
  O  O24  1  0.82753000  0.07504000  0.25114000  1
  O  O25  1  0.84628900  0.25114000  0.07504000  1
  O  O26  1  0.43993600  0.03659000  0.25629600  1
  O  O27  1  0.26717900  0.25629600  0.03659000  1
  O  O28  1  0.21341000  0.81006400  0.98282100  1
  O  O29  1  0.99370400  0.98282100  0.81006400  1
  O  O30  1  0.75549300  0.65016100  0.83544000  1
  O  O31  1  0.75890700  0.83544000  0.65016100  1
  O  O32  1  0.59983900  0.49450700  0.49109300  1
  O  O33  1  0.41456000  0.49109300  0.49450700  1
  O  O34  1  0.36041800  0.97426600  0.86027300  1
  O  O35  1  0.80504300  0.86027300  0.97426600  1
  O  O36  1  0.27573400  0.88958200  0.44495700  1
  O  O37  1  0.38972700  0.44495700  0.88958200  1
  O  O38  1  0.61404700  0.72990600  0.92107400  1
  O  O39  1  0.73497300  0.92107400  0.72990600  1
  O  O40  1  0.52009400  0.63595300  0.51502700  1
  O  O41  1  0.32892600  0.51502700  0.63595300  1
