# generated using pymatgen
data_Na4Ca2P8O35
_symmetry_space_group_name_H-M   'P 1'
_cell_length_a   7.46464400
_cell_length_b   7.77551500
_cell_length_c   28.55613300
_cell_angle_alpha   90.00000000
_cell_angle_beta   90.00000000
_cell_angle_gamma   90.00000000
_symmetry_Int_Tables_number   1
_chemical_formula_structural   Na4Ca2P8O35
_chemical_formula_sum   'Na8 Ca4 P16 O70'
_cell_volume   1657.43940545
_cell_formula_units_Z   2
loop_
 _symmetry_equiv_pos_site_id
 _symmetry_equiv_pos_as_xyz
  1  'x, y, z'
loop_
 _atom_site_type_symbol
 _atom_site_label
 _atom_site_symmetry_multiplicity
 _atom_site_fract_x
 _atom_site_fract_y
 _atom_site_fract_z
 _atom_site_occupancy
  Na  Na0  1  0.10402300  0.96018300  0.87427100  1
  Na  Na1  1  0.10402300  0.03981700  0.12572900  1
  Na  Na2  1  0.10402300  0.96018300  0.62572900  1
  Na  Na3  1  0.10402300  0.03981700  0.37427100  1
  Na  Na4  1  0.59374600  0.48970000  0.63223400  1
  Na  Na5  1  0.59374600  0.51030000  0.36776600  1
  Na  Na6  1  0.59374600  0.48970000  0.86776600  1
  Na  Na7  1  0.59374600  0.51030000  0.13223400  1
  Ca  Ca8  1  0.05575300  0.00000000  0.50000000  1
  Ca  Ca9  1  0.05575300  0.00000000  0.00000000  1
  Ca  Ca10  1  0.61688700  0.57796400  0.75000000  1
  Ca  Ca11  1  0.61688700  0.42203600  0.25000000  1
  P  P12  1  0.33702000  0.69200600  0.55061400  1
  P  P13  1  0.33702000  0.30799400  0.44938600  1
  P  P14  1  0.33702000  0.69200600  0.94938600  1
  P  P15  1  0.33702000  0.30799400  0.05061400  1
  P  P16  1  0.31863000  0.31043600  0.55299400  1
  P  P17  1  0.31863000  0.68956400  0.44700600  1
  P  P18  1  0.31863000  0.31043600  0.94700600  1
  P  P19  1  0.31863000  0.68956400  0.05299400  1
  P  P20  1  0.92638400  0.29152600  0.69731800  1
  P  P21  1  0.92638400  0.70847400  0.30268200  1
  P  P22  1  0.92638400  0.29152600  0.80268200  1
  P  P23  1  0.92638400  0.70847400  0.19731800  1
  P  P24  1  0.18931100  0.58169100  0.69740500  1
  P  P25  1  0.18931100  0.41830900  0.30259500  1
  P  P26  1  0.18931100  0.58169100  0.80259500  1
  P  P27  1  0.18931100  0.41830900  0.19740500  1
  O  O28  1  0.48817100  0.70330500  0.91527900  1
  O  O29  1  0.48817100  0.29669500  0.08472100  1
  O  O30  1  0.48817100  0.70330500  0.58472100  1
  O  O31  1  0.48817100  0.29669500  0.41527900  1
  O  O32  1  0.18755200  0.82229200  0.94568100  1
  O  O33  1  0.18755200  0.17770800  0.05431900  1
  O  O34  1  0.18755200  0.82229200  0.55431900  1
  O  O35  1  0.18755200  0.17770800  0.44568100  1
  O  O36  1  0.23935300  0.50591200  0.94803400  1
  O  O37  1  0.23935300  0.49408800  0.05196600  1
  O  O38  1  0.23935300  0.50591200  0.55196600  1
  O  O39  1  0.23935300  0.49408800  0.44803400  1
  O  O40  1  0.42023300  0.29871800  0.50198400  1
  O  O41  1  0.42023300  0.70128200  0.49801600  1
  O  O42  1  0.42023300  0.29871800  0.99801600  1
  O  O43  1  0.42023300  0.70128200  0.00198400  1
  O  O44  1  0.45728200  0.28661700  0.58971700  1
  O  O45  1  0.45728200  0.71338300  0.41028300  1
  O  O46  1  0.45728200  0.28661700  0.91028300  1
  O  O47  1  0.45728200  0.71338300  0.08971700  1
  O  O48  1  0.15487200  0.19634200  0.94747800  1
  O  O49  1  0.15487200  0.80365800  0.05252200  1
  O  O50  1  0.15487200  0.19634200  0.55252200  1
  O  O51  1  0.15487200  0.80365800  0.44747800  1
  O  O52  1  0.77851100  0.42608000  0.69617800  1
  O  O53  1  0.77851100  0.57392000  0.30382200  1
  O  O54  1  0.77851100  0.42608000  0.80382200  1
  O  O55  1  0.77851100  0.57392000  0.19617800  1
  O  O56  1  0.92004000  0.14521200  0.83602000  1
  O  O57  1  0.92004000  0.85478800  0.16398000  1
  O  O58  1  0.92004000  0.14521200  0.66398000  1
  O  O59  1  0.92004000  0.85478800  0.33602000  1
  O  O60  1  0.09948500  0.70139200  0.83556700  1
  O  O61  1  0.09948500  0.29860800  0.16443300  1
  O  O62  1  0.09948500  0.70139200  0.66443300  1
  O  O63  1  0.09948500  0.29860800  0.33556700  1
  O  O64  1  0.39193000  0.56485800  0.69682900  1
  O  O65  1  0.39193000  0.43514200  0.30317100  1
  O  O66  1  0.39193000  0.56485800  0.80317100  1
  O  O67  1  0.39193000  0.43514200  0.19682900  1
  O  O68  1  0.12095700  0.63087900  0.75000000  1
  O  O69  1  0.12095700  0.36912100  0.25000000  1
  O  O70  1  0.93691000  0.21221700  0.75000000  1
  O  O71  1  0.93691000  0.78778300  0.25000000  1
  O  O72  1  0.11939600  0.38468000  0.80822800  1
  O  O73  1  0.11939600  0.61532000  0.19177200  1
  O  O74  1  0.11939600  0.38468000  0.69177200  1
  O  O75  1  0.11939600  0.61532000  0.30822800  1
  O  O76  1  0.80931500  0.57177800  0.94059200  1
  O  O77  1  0.80931500  0.42822200  0.05940800  1
  O  O78  1  0.80931500  0.57177800  0.55940800  1
  O  O79  1  0.80931500  0.42822200  0.44059200  1
  O  O80  1  0.65604000  0.88284500  0.67705300  1
  O  O81  1  0.65604000  0.11715500  0.32294700  1
  O  O82  1  0.65604000  0.88284500  0.82294700  1
  O  O83  1  0.65604000  0.11715500  0.17705300  1
  O  O84  1  0.81648300  0.85374800  0.55198300  1
  O  O85  1  0.81648300  0.14625200  0.44801700  1
  O  O86  1  0.81648300  0.85374800  0.94801700  1
  O  O87  1  0.81648300  0.14625200  0.05198300  1
  O  O88  1  0.82585300  0.70073900  0.96739800  1
  O  O89  1  0.82585300  0.29926100  0.03260200  1
  O  O90  1  0.82585300  0.70073900  0.53260200  1
  O  O91  1  0.82585300  0.29926100  0.46739800  1
  O  O92  1  0.54599900  0.97153900  0.69870600  1
  O  O93  1  0.54599900  0.02846100  0.30129400  1
  O  O94  1  0.54599900  0.97153900  0.80129400  1
  O  O95  1  0.54599900  0.02846100  0.19870600  1
  O  O96  1  0.48912700  0.87960800  0.75000000  1
  O  O97  1  0.48912700  0.12039200  0.25000000  1
