# generated using pymatgen
data_Mo2H12C4N2O15
_symmetry_space_group_name_H-M   'P 1'
_cell_length_a   7.81119100
_cell_length_b   14.37299300
_cell_length_c   7.12851904
_cell_angle_alpha   90.00000000
_cell_angle_beta   96.79215698
_cell_angle_gamma   90.00000000
_symmetry_Int_Tables_number   1
_chemical_formula_structural   Mo2H12C4N2O15
_chemical_formula_sum   'Mo4 H24 C8 N4 O30'
_cell_volume   794.70333018
_cell_formula_units_Z   2
loop_
 _symmetry_equiv_pos_site_id
 _symmetry_equiv_pos_as_xyz
  1  'x, y, z'
loop_
 _atom_site_type_symbol
 _atom_site_label
 _atom_site_symmetry_multiplicity
 _atom_site_fract_x
 _atom_site_fract_y
 _atom_site_fract_z
 _atom_site_occupancy
  Mo  Mo0  1  0.40272700  0.89103900  0.87814600  1
  Mo  Mo1  1  0.59727300  0.10896100  0.12185400  1
  Mo  Mo2  1  0.59727300  0.39103900  0.62185400  1
  Mo  Mo3  1  0.40272700  0.60896100  0.37814600  1
  H  H4  1  0.25764500  0.67637600  0.71934600  1
  H  H5  1  0.76029600  0.58574400  0.78615400  1
  H  H6  1  0.74235500  0.32362400  0.28065400  1
  H  H7  1  0.76938400  0.06594700  0.77997900  1
  H  H8  1  0.57066800  0.61451300  0.86424700  1
  H  H9  1  0.23061600  0.93405300  0.22002100  1
  H  H10  1  0.76938400  0.43405300  0.27997900  1
  H  H11  1  0.24229400  0.12993900  0.49493300  1
  H  H12  1  0.23061600  0.56594700  0.72002100  1
  H  H13  1  0.42933200  0.38548700  0.13575300  1
  H  H14  1  0.75770600  0.87006100  0.50506700  1
  H  H15  1  0.24229400  0.37006100  0.99493300  1
  H  H16  1  0.57066800  0.88548700  0.36424700  1
  H  H17  1  0.29401900  0.19880700  0.68364000  1
  H  H18  1  0.76029600  0.91425600  0.28615400  1
  H  H19  1  0.42933200  0.11451300  0.63575300  1
  H  H20  1  0.74235500  0.17637600  0.78065400  1
  H  H21  1  0.70598100  0.69880700  0.81636000  1
  H  H22  1  0.29401900  0.30119300  0.18364000  1
  H  H23  1  0.75770600  0.62993900  0.00506700  1
  H  H24  1  0.25764500  0.82362400  0.21934600  1
  H  H25  1  0.70598100  0.80119300  0.31636000  1
  H  H26  1  0.23970400  0.08574400  0.71384600  1
  H  H27  1  0.23970400  0.41425600  0.21384600  1
  C  C28  1  0.04508100  0.67335100  0.24397900  1
  C  C29  1  0.97741900  0.43371100  0.74134400  1
  C  C30  1  0.97741900  0.06628900  0.24134400  1
  C  C31  1  0.04508100  0.82664900  0.74397900  1
  C  C32  1  0.95491900  0.32664900  0.75602100  1
  C  C33  1  0.95491900  0.17335100  0.25602100  1
  C  C34  1  0.02258100  0.56628900  0.25865600  1
  C  C35  1  0.02258100  0.93371100  0.75865600  1
  N  N36  1  0.69878100  0.63218700  0.86698600  1
  N  N37  1  0.30121900  0.36781300  0.13301400  1
  N  N38  1  0.69878100  0.86781300  0.36698600  1
  N  N39  1  0.30121900  0.13218700  0.63301400  1
  O  O40  1  0.16007800  0.97686700  0.83063100  1
  O  O41  1  0.69566200  0.11683100  0.82108500  1
  O  O42  1  0.88102500  0.53131700  0.19944000  1
  O  O43  1  0.16007800  0.52313300  0.33063100  1
  O  O44  1  0.55520200  0.09203900  0.35228600  1
  O  O45  1  0.54084000  0.69783800  0.46373500  1
  O  O46  1  0.92509700  0.72309700  0.17787900  1
  O  O47  1  0.54084000  0.80216200  0.96373500  1
  O  O48  1  0.30433800  0.88316900  0.17891500  1
  O  O49  1  0.79905200  0.29617900  0.69568000  1
  O  O50  1  0.07490300  0.22309700  0.32212100  1
  O  O51  1  0.20094800  0.79617900  0.80432000  1
  O  O52  1  0.20094800  0.70382100  0.30432000  1
  O  O53  1  0.92509700  0.77690300  0.67787900  1
  O  O54  1  0.83992200  0.02313300  0.16936900  1
  O  O55  1  0.83992200  0.47686700  0.66936900  1
  O  O56  1  0.11897500  0.46868300  0.80056000  1
  O  O57  1  0.55520200  0.40796100  0.85228600  1
  O  O58  1  0.30433800  0.61683100  0.67891500  1
  O  O59  1  0.50000000  0.50000000  0.50000000  1
  O  O60  1  0.07490300  0.27690300  0.82212100  1
  O  O61  1  0.79905200  0.20382100  0.19568000  1
  O  O62  1  0.88102500  0.96868300  0.69944000  1
  O  O63  1  0.45916000  0.19783800  0.03626500  1
  O  O64  1  0.69566200  0.38316900  0.32108500  1
  O  O65  1  0.11897500  0.03131700  0.30056000  1
  O  O66  1  0.50000000  0.00000000  0.00000000  1
  O  O67  1  0.44479800  0.59203900  0.14771400  1
  O  O68  1  0.44479800  0.90796100  0.64771400  1
  O  O69  1  0.45916000  0.30216200  0.53626500  1
