# generated using pymatgen
data_Ba7SiB3NO13
_symmetry_space_group_name_H-M   'P 1'
_cell_length_a   11.33753360
_cell_length_b   11.33753360
_cell_length_c   7.47908000
_cell_angle_alpha   90.00000000
_cell_angle_beta   90.00000000
_cell_angle_gamma   119.99999767
_symmetry_Int_Tables_number   1
_chemical_formula_structural   Ba7SiB3NO13
_chemical_formula_sum   'Ba14 Si2 B6 N2 O26'
_cell_volume   832.56086920
_cell_formula_units_Z   2
loop_
 _symmetry_equiv_pos_site_id
 _symmetry_equiv_pos_as_xyz
  1  'x, y, z'
loop_
 _atom_site_type_symbol
 _atom_site_label
 _atom_site_symmetry_multiplicity
 _atom_site_fract_x
 _atom_site_fract_y
 _atom_site_fract_z
 _atom_site_occupancy
  Ba  Ba0  1  0.12435700  0.86165300  0.19460800  1
  Ba  Ba1  1  0.04675700  0.52428100  0.85215800  1
  Ba  Ba2  1  0.47752300  0.95324300  0.85215800  1
  Ba  Ba3  1  0.13834700  0.26270400  0.19460800  1
  Ba  Ba4  1  0.33333300  0.66666700  0.49048000  1
  Ba  Ba5  1  0.47571900  0.52247700  0.85215800  1
  Ba  Ba6  1  0.26270400  0.12435700  0.69460800  1
  Ba  Ba7  1  0.73729600  0.87564300  0.19460800  1
  Ba  Ba8  1  0.52428100  0.47752300  0.35215800  1
  Ba  Ba9  1  0.86165300  0.73729600  0.69460800  1
  Ba  Ba10  1  0.52247700  0.04675700  0.35215800  1
  Ba  Ba11  1  0.66666700  0.33333300  0.99048000  1
  Ba  Ba12  1  0.95324300  0.47571900  0.35215800  1
  Ba  Ba13  1  0.87564300  0.13834700  0.69460800  1
  Si  Si14  1  0.33333300  0.66666700  0.08270400  1
  Si  Si15  1  0.66666700  0.33333300  0.58270400  1
  B  B16  1  0.17465100  0.81420200  0.63995700  1
  B  B17  1  0.18579800  0.36045000  0.63995700  1
  B  B18  1  0.63955000  0.82534900  0.63995700  1
  B  B19  1  0.36045000  0.17465100  0.13995700  1
  B  B20  1  0.81420200  0.63955000  0.13995700  1
  B  B21  1  0.82534900  0.18579800  0.13995700  1
  N  N22  1  0.00000000  0.00000000  0.47957300  1
  N  N23  1  0.00000000  0.00000000  0.97957300  1
  O  O24  1  0.14983100  0.85575600  0.80339300  1
  O  O25  1  0.07901900  0.68880300  0.56625200  1
  O  O26  1  0.29468500  0.89601000  0.54452800  1
  O  O27  1  0.18681200  0.64321700  0.16116800  1
  O  O28  1  0.10399000  0.39867500  0.54452800  1
  O  O29  1  0.14424400  0.29407600  0.80339300  1
  O  O30  1  0.33333300  0.66666700  0.85957900  1
  O  O31  1  0.45640500  0.81318800  0.16116800  1
  O  O32  1  0.35678300  0.54359500  0.16116800  1
  O  O33  1  0.31119700  0.39021700  0.56625200  1
  O  O34  1  0.60978300  0.92098100  0.56625200  1
  O  O35  1  0.29407600  0.14983100  0.30339300  1
  O  O36  1  0.39867500  0.29468500  0.04452800  1
  O  O37  1  0.60132500  0.70531500  0.54452800  1
  O  O38  1  0.70592400  0.85016900  0.80339300  1
  O  O39  1  0.39021700  0.07901900  0.06625200  1
  O  O40  1  0.68880300  0.60978300  0.06625200  1
  O  O41  1  0.64321700  0.45640500  0.66116800  1
  O  O42  1  0.54359500  0.18681200  0.66116800  1
  O  O43  1  0.85575600  0.70592400  0.30339300  1
  O  O44  1  0.66666700  0.33333300  0.35957900  1
  O  O45  1  0.89601000  0.60132500  0.04452800  1
  O  O46  1  0.81318800  0.35678300  0.66116800  1
  O  O47  1  0.70531500  0.10399000  0.04452800  1
  O  O48  1  0.92098100  0.31119700  0.06625200  1
  O  O49  1  0.85016900  0.14424400  0.30339300  1
