# generated using pymatgen
data_Na2Cu(HO)4
_symmetry_space_group_name_H-M   'P 1'
_cell_length_a   6.73428000
_cell_length_b   6.73945300
_cell_length_c   9.06177000
_cell_angle_alpha   90.00000000
_cell_angle_beta   90.00000000
_cell_angle_gamma   90.00000000
_symmetry_Int_Tables_number   1
_chemical_formula_structural   Na2Cu(HO)4
_chemical_formula_sum   'Na8 Cu4 H16 O16'
_cell_volume   411.27172585
_cell_formula_units_Z   4
loop_
 _symmetry_equiv_pos_site_id
 _symmetry_equiv_pos_as_xyz
  1  'x, y, z'
loop_
 _atom_site_type_symbol
 _atom_site_label
 _atom_site_symmetry_multiplicity
 _atom_site_fract_x
 _atom_site_fract_y
 _atom_site_fract_z
 _atom_site_occupancy
  Na  Na0  1  0.79152500  0.00148700  0.74893100  1
  Na  Na1  1  0.20847500  0.99851300  0.24893100  1
  Na  Na2  1  0.29152500  0.49851300  0.24893100  1
  Na  Na3  1  0.70847500  0.50148700  0.74893100  1
  Na  Na4  1  0.49612100  0.75159300  0.49817500  1
  Na  Na5  1  0.50387900  0.24840700  0.99817500  1
  Na  Na6  1  0.99612100  0.74840700  0.99817500  1
  Na  Na7  1  0.00387900  0.25159300  0.49817500  1
  Cu  Cu8  1  0.49693500  0.76386100  0.99936200  1
  Cu  Cu9  1  0.50306500  0.23613900  0.49936200  1
  Cu  Cu10  1  0.99693500  0.73613900  0.49936200  1
  Cu  Cu11  1  0.00306500  0.26386100  0.99936200  1
  H  H12  1  0.53845600  0.09041100  0.25592500  1
  H  H13  1  0.46154400  0.90958900  0.75592500  1
  H  H14  1  0.03845600  0.40958900  0.75592500  1
  H  H15  1  0.96154400  0.59041100  0.25592500  1
  H  H16  1  0.16095900  0.74561000  0.73745200  1
  H  H17  1  0.83904100  0.25439000  0.23745200  1
  H  H18  1  0.66095900  0.75439000  0.23745200  1
  H  H19  1  0.33904100  0.24561000  0.73745200  1
  H  H20  1  0.23548300  0.98985500  0.59511900  1
  H  H21  1  0.76451700  0.01014500  0.09511900  1
  H  H22  1  0.73548300  0.51014500  0.09511900  1
  H  H23  1  0.26451700  0.48985500  0.59511900  1
  H  H24  1  0.25050700  0.99986300  0.90427100  1
  H  H25  1  0.74949300  0.00013700  0.40427100  1
  H  H26  1  0.75050700  0.50013700  0.40427100  1
  H  H27  1  0.24949300  0.49986300  0.90427100  1
  O  O28  1  0.48452400  0.76748900  0.77700000  1
  O  O29  1  0.51547600  0.23251100  0.27700000  1
  O  O30  1  0.98452400  0.73251100  0.27700000  1
  O  O31  1  0.01547600  0.26748900  0.77700000  1
  O  O32  1  0.52067900  0.78974600  0.22031200  1
  O  O33  1  0.47932100  0.21025400  0.72031200  1
  O  O34  1  0.02067900  0.71025400  0.72031200  1
  O  O35  1  0.97932100  0.28974600  0.22031200  1
  O  O36  1  0.69822600  0.55129900  0.99567800  1
  O  O37  1  0.30177400  0.44870100  0.49567800  1
  O  O38  1  0.19822600  0.94870100  0.49567800  1
  O  O39  1  0.80177400  0.05129900  0.99567800  1
  O  O40  1  0.28478000  0.96319500  0.00597600  1
  O  O41  1  0.71522000  0.03680500  0.50597600  1
  O  O42  1  0.78478000  0.53680500  0.50597600  1
  O  O43  1  0.21522000  0.46319500  0.00597600  1
