# generated using pymatgen
data_FeP2(H4O5)2
_symmetry_space_group_name_H-M   'P 1'
_cell_length_a   9.74822100
_cell_length_b   6.06642800
_cell_length_c   8.75109140
_cell_angle_alpha   54.75552624
_cell_angle_beta   90.00000000
_cell_angle_gamma   90.00000000
_symmetry_Int_Tables_number   1
_chemical_formula_structural   FeP2(H4O5)2
_chemical_formula_sum   'Fe2 P4 H16 O20'
_cell_volume   422.65081416
_cell_formula_units_Z   2
loop_
 _symmetry_equiv_pos_site_id
 _symmetry_equiv_pos_as_xyz
  1  'x, y, z'
loop_
 _atom_site_type_symbol
 _atom_site_label
 _atom_site_symmetry_multiplicity
 _atom_site_fract_x
 _atom_site_fract_y
 _atom_site_fract_z
 _atom_site_occupancy
  Fe  Fe0  1  0.00000000  0.00000000  0.00000000  1
  Fe  Fe1  1  0.50000000  0.00000000  0.50000000  1
  P  P2  1  0.80905800  0.52414800  0.66379800  1
  P  P3  1  0.69094200  0.52414800  0.16379800  1
  P  P4  1  0.19094200  0.47585200  0.33620200  1
  P  P5  1  0.30905800  0.47585200  0.83620200  1
  H  H6  1  0.56330700  0.80262000  0.19429200  1
  H  H7  1  0.93669300  0.80262000  0.69429200  1
  H  H8  1  0.43669300  0.19738000  0.80570800  1
  H  H9  1  0.06330700  0.19738000  0.30570800  1
  H  H10  1  0.37456400  0.26007800  0.53797800  1
  H  H11  1  0.12543600  0.26007800  0.03797800  1
  H  H12  1  0.62543600  0.73992200  0.46202200  1
  H  H13  1  0.87456400  0.73992200  0.96202200  1
  H  H14  1  0.22544300  0.63287300  0.51342400  1
  H  H15  1  0.27455700  0.63287300  0.01342400  1
  H  H16  1  0.77455700  0.36712700  0.48657600  1
  H  H17  1  0.72544300  0.36712700  0.98657600  1
  H  H18  1  0.57278500  0.08692700  0.20607000  1
  H  H19  1  0.92721500  0.08692700  0.70607000  1
  H  H20  1  0.42721500  0.91307300  0.79393000  1
  H  H21  1  0.07278500  0.91307300  0.29393000  1
  O  O22  1  0.82355800  0.30768100  0.87321200  1
  O  O23  1  0.67644200  0.30768100  0.37321200  1
  O  O24  1  0.17644200  0.69231900  0.12678800  1
  O  O25  1  0.32355800  0.69231900  0.62678800  1
  O  O26  1  0.65656800  0.62249600  0.61186400  1
  O  O27  1  0.84343200  0.62249600  0.11186400  1
  O  O28  1  0.34343200  0.37750400  0.38813600  1
  O  O29  1  0.15656800  0.37750400  0.88813600  1
  O  O30  1  0.04038400  0.09030500  0.18528400  1
  O  O31  1  0.45961600  0.09030500  0.68528400  1
  O  O32  1  0.95961600  0.90969500  0.81471600  1
  O  O33  1  0.54038400  0.90969500  0.31471600  1
  O  O34  1  0.64915700  0.41582100  0.04441400  1
  O  O35  1  0.85084300  0.41582100  0.54441400  1
  O  O36  1  0.35084300  0.58417900  0.95558600  1
  O  O37  1  0.14915700  0.58417900  0.45558600  1
  O  O38  1  0.90637000  0.76791900  0.59651000  1
  O  O39  1  0.59363000  0.76791900  0.09651000  1
  O  O40  1  0.09363000  0.23208100  0.40349000  1
  O  O41  1  0.40637000  0.23208100  0.90349000  1
