# generated using pymatgen
data_NiH16C2S3N6O7
_symmetry_space_group_name_H-M   'P 1'
_cell_length_a   16.62978500
_cell_length_b   6.53793500
_cell_length_c   7.03993988
_cell_angle_alpha   79.28663815
_cell_angle_beta   90.00000000
_cell_angle_gamma   90.00000000
_symmetry_Int_Tables_number   1
_chemical_formula_structural   NiH16C2S3N6O7
_chemical_formula_sum   'Ni2 H32 C4 S6 N12 O14'
_cell_volume   752.07205075
_cell_formula_units_Z   2
loop_
 _symmetry_equiv_pos_site_id
 _symmetry_equiv_pos_as_xyz
  1  'x, y, z'
loop_
 _atom_site_type_symbol
 _atom_site_label
 _atom_site_symmetry_multiplicity
 _atom_site_fract_x
 _atom_site_fract_y
 _atom_site_fract_z
 _atom_site_occupancy
  Ni  Ni0  1  0.50000000  0.00000000  0.00000000  1
  Ni  Ni1  1  0.00000000  0.00000000  0.00000000  1
  H  H2  1  0.65326800  0.92648600  0.04694800  1
  H  H3  1  0.15326800  0.07351400  0.95305200  1
  H  H4  1  0.34673200  0.07351400  0.95305200  1
  H  H5  1  0.84673200  0.92648600  0.04694800  1
  H  H6  1  0.61909600  0.81747500  0.86657800  1
  H  H7  1  0.11909600  0.18252500  0.13342200  1
  H  H8  1  0.38090400  0.18252500  0.13342200  1
  H  H9  1  0.88090400  0.81747500  0.86657800  1
  H  H10  1  0.65559400  0.55287400  0.13869200  1
  H  H11  1  0.15559400  0.44712600  0.86130800  1
  H  H12  1  0.34440600  0.44712600  0.86130800  1
  H  H13  1  0.84440600  0.55287400  0.13869200  1
  H  H14  1  0.58564000  0.28255200  0.33373600  1
  H  H15  1  0.08564000  0.71744800  0.66626400  1
  H  H16  1  0.41436000  0.71744800  0.66626400  1
  H  H17  1  0.91436000  0.28255200  0.33373600  1
  H  H18  1  0.48085400  0.31897400  0.37475400  1
  H  H19  1  0.98085400  0.68102600  0.62524600  1
  H  H20  1  0.51914600  0.68102600  0.62524600  1
  H  H21  1  0.01914600  0.31897400  0.37475400  1
  H  H22  1  0.25000000  0.64604700  0.20588500  1
  H  H23  1  0.75000000  0.35395300  0.79411500  1
  H  H24  1  0.25000000  0.66086600  0.42356600  1
  H  H25  1  0.75000000  0.33913400  0.57643400  1
  H  H26  1  0.34606100  0.11194900  0.48454300  1
  H  H27  1  0.84606100  0.88805100  0.51545700  1
  H  H28  1  0.65393900  0.88805100  0.51545700  1
  H  H29  1  0.15393900  0.11194900  0.48454300  1
  H  H30  1  0.32980400  0.34542900  0.37967700  1
  H  H31  1  0.82980400  0.65457100  0.62032300  1
  H  H32  1  0.67019600  0.65457100  0.62032300  1
  H  H33  1  0.17019600  0.34542900  0.37967700  1
  C  C34  1  0.53525400  0.56673000  0.21324400  1
  C  C35  1  0.03525400  0.43327000  0.78675600  1
  C  C36  1  0.46474600  0.43327000  0.78675600  1
  C  C37  1  0.96474600  0.56673000  0.21324400  1
  S  S38  1  0.44809200  0.71165900  0.19530200  1
  S  S39  1  0.94809200  0.28834100  0.80469800  1
  S  S40  1  0.55190800  0.28834100  0.80469800  1
  S  S41  1  0.05190800  0.71165900  0.19530200  1
  S  S42  1  0.25000000  0.81222600  0.78180200  1
  S  S43  1  0.75000000  0.18777400  0.21819800  1
  N  N44  1  0.60620300  0.83939300  0.00666200  1
  N  N45  1  0.10620300  0.16060700  0.99333800  1
  N  N46  1  0.39379700  0.16060700  0.99333800  1
  N  N47  1  0.89379700  0.83939300  0.00666200  1
  N  N48  1  0.60394700  0.64399800  0.13057700  1
  N  N49  1  0.10394700  0.35600200  0.86942300  1
  N  N50  1  0.39605300  0.35600200  0.86942300  1
  N  N51  1  0.89605300  0.64399800  0.13057700  1
  N  N52  1  0.53424900  0.37341400  0.31329500  1
  N  N53  1  0.03424900  0.62658600  0.68670500  1
  N  N54  1  0.46575100  0.62658600  0.68670500  1
  N  N55  1  0.96575100  0.37341400  0.31329500  1
  O  O56  1  0.25000000  0.91221800  0.95687000  1
  O  O57  1  0.75000000  0.08778200  0.04313000  1
  O  O58  1  0.25000000  0.58007200  0.84466700  1
  O  O59  1  0.75000000  0.41992800  0.15533300  1
  O  O60  1  0.32339400  0.87633400  0.66294800  1
  O  O61  1  0.82339400  0.12366600  0.33705200  1
  O  O62  1  0.67660600  0.12366600  0.33705200  1
  O  O63  1  0.17660600  0.87633400  0.66294800  1
  O  O64  1  0.25000000  0.56046300  0.33609800  1
  O  O65  1  0.75000000  0.43953700  0.66390200  1
  O  O66  1  0.36737100  0.22767000  0.38630300  1
  O  O67  1  0.86737100  0.77233000  0.61369700  1
  O  O68  1  0.63262900  0.77233000  0.61369700  1
  O  O69  1  0.13262900  0.22767000  0.38630300  1
