# generated using pymatgen
data_MnH4(SO6)2
_symmetry_space_group_name_H-M   'P 1'
_cell_length_a   5.63516800
_cell_length_b   9.47688600
_cell_length_c   18.20809700
_cell_angle_alpha   90.00000000
_cell_angle_beta   90.00000000
_cell_angle_gamma   90.00000000
_symmetry_Int_Tables_number   1
_chemical_formula_structural   MnH4(SO6)2
_chemical_formula_sum   'Mn4 H16 S8 O48'
_cell_volume   972.38238496
_cell_formula_units_Z   4
loop_
 _symmetry_equiv_pos_site_id
 _symmetry_equiv_pos_as_xyz
  1  'x, y, z'
loop_
 _atom_site_type_symbol
 _atom_site_label
 _atom_site_symmetry_multiplicity
 _atom_site_fract_x
 _atom_site_fract_y
 _atom_site_fract_z
 _atom_site_occupancy
  Mn  Mn0  1  0.50000000  0.50000000  0.00000000  1
  Mn  Mn1  1  0.00000000  0.00000000  0.50000000  1
  Mn  Mn2  1  0.50000000  0.50000000  0.50000000  1
  Mn  Mn3  1  0.00000000  0.00000000  0.00000000  1
  H  H4  1  0.98911600  0.16576000  0.20630600  1
  H  H5  1  0.51088400  0.66576000  0.29369400  1
  H  H6  1  0.01088400  0.83424000  0.70630600  1
  H  H7  1  0.48911600  0.33424000  0.79369400  1
  H  H8  1  0.01088400  0.83424000  0.79369400  1
  H  H9  1  0.48911600  0.33424000  0.70630600  1
  H  H10  1  0.98911600  0.16576000  0.29369400  1
  H  H11  1  0.51088400  0.66576000  0.20630600  1
  H  H12  1  0.58241700  0.35833300  0.20627000  1
  H  H13  1  0.91758300  0.85833300  0.29373000  1
  H  H14  1  0.41758300  0.64166700  0.70627000  1
  H  H15  1  0.08241700  0.14166700  0.79373000  1
  H  H16  1  0.41758300  0.64166700  0.79373000  1
  H  H17  1  0.08241700  0.14166700  0.70627000  1
  H  H18  1  0.58241700  0.35833300  0.29373000  1
  H  H19  1  0.91758300  0.85833300  0.20627000  1
  S  S20  1  0.20479800  0.73544300  0.08688900  1
  S  S21  1  0.29520200  0.23544300  0.41311100  1
  S  S22  1  0.79520200  0.26455700  0.58688900  1
  S  S23  1  0.70479800  0.76455700  0.91311100  1
  S  S24  1  0.79520200  0.26455700  0.91311100  1
  S  S25  1  0.70479800  0.76455700  0.58688900  1
  S  S26  1  0.20479800  0.73544300  0.41311100  1
  S  S27  1  0.29520200  0.23544300  0.08688900  1
  O  O28  1  0.98600800  0.73427300  0.36955200  1
  O  O29  1  0.51399200  0.23427300  0.13044800  1
  O  O30  1  0.01399200  0.26572700  0.86955200  1
  O  O31  1  0.48600800  0.76572700  0.63044800  1
  O  O32  1  0.01399200  0.26572700  0.63044800  1
  O  O33  1  0.48600800  0.76572700  0.86955200  1
  O  O34  1  0.98600800  0.73427300  0.13044800  1
  O  O35  1  0.51399200  0.23427300  0.36955200  1
  O  O36  1  0.41416100  0.77857700  0.12753400  1
  O  O37  1  0.08583900  0.27857700  0.37246600  1
  O  O38  1  0.58583900  0.22142300  0.62753400  1
  O  O39  1  0.91416100  0.72142300  0.87246600  1
  O  O40  1  0.58583900  0.22142300  0.87246600  1
  O  O41  1  0.91416100  0.72142300  0.62753400  1
  O  O42  1  0.41416100  0.77857700  0.37246600  1
  O  O43  1  0.08583900  0.27857700  0.12753400  1
  O  O44  1  0.23373700  0.58761000  0.05585500  1
  O  O45  1  0.26626300  0.08761000  0.44414500  1
  O  O46  1  0.76626300  0.41239000  0.55585500  1
  O  O47  1  0.73373700  0.91239000  0.94414500  1
  O  O48  1  0.76626300  0.41239000  0.94414500  1
  O  O49  1  0.73373700  0.91239000  0.55585500  1
  O  O50  1  0.23373700  0.58761000  0.44414500  1
  O  O51  1  0.26626300  0.08761000  0.05585500  1
  O  O52  1  0.33391800  0.51583100  0.58358100  1
  O  O53  1  0.16608200  0.01583100  0.91641900  1
  O  O54  1  0.66608200  0.48416900  0.08358100  1
  O  O55  1  0.83391800  0.98416900  0.41641900  1
  O  O56  1  0.66608200  0.48416900  0.41641900  1
  O  O57  1  0.83391800  0.98416900  0.08358100  1
  O  O58  1  0.33391800  0.51583100  0.91641900  1
  O  O59  1  0.16608200  0.01583100  0.58358100  1
  O  O60  1  0.16680600  0.82349000  0.01763700  1
  O  O61  1  0.33319400  0.32349000  0.48236300  1
  O  O62  1  0.83319400  0.17651000  0.51763700  1
  O  O63  1  0.66680600  0.67651000  0.98236300  1
  O  O64  1  0.83319400  0.17651000  0.98236300  1
  O  O65  1  0.66680600  0.67651000  0.51763700  1
  O  O66  1  0.16680600  0.82349000  0.48236300  1
  O  O67  1  0.33319400  0.32349000  0.01763700  1
  O  O68  1  0.60538000  0.63716500  0.25000000  1
  O  O69  1  0.89462000  0.13716500  0.25000000  1
  O  O70  1  0.39462000  0.36283500  0.75000000  1
  O  O71  1  0.10538000  0.86283500  0.75000000  1
  O  O72  1  0.99477500  0.90048500  0.25000000  1
  O  O73  1  0.50522500  0.40048500  0.25000000  1
  O  O74  1  0.00522500  0.09951500  0.75000000  1
  O  O75  1  0.49477500  0.59951500  0.75000000  1
