# generated using pymatgen
data_Mo2(PO4)3
_symmetry_space_group_name_H-M   'P 1'
_cell_length_a   8.72324527
_cell_length_b   8.72274978
_cell_length_c   9.00609251
_cell_angle_alpha   89.89756495
_cell_angle_beta   61.09579562
_cell_angle_gamma   119.96495144
_symmetry_Int_Tables_number   1
_chemical_formula_structural   Mo2(PO4)3
_chemical_formula_sum   'Mo4 P6 O24'
_cell_volume   492.27665915
_cell_formula_units_Z   2
loop_
 _symmetry_equiv_pos_site_id
 _symmetry_equiv_pos_as_xyz
  1  'x, y, z'
loop_
 _atom_site_type_symbol
 _atom_site_label
 _atom_site_symmetry_multiplicity
 _atom_site_fract_x
 _atom_site_fract_y
 _atom_site_fract_z
 _atom_site_occupancy
  Mo  Mo0  1  0.78612000  0.14220600  0.07206200  1
  Mo  Mo1  1  0.78805300  0.64324700  0.56927800  1
  Mo  Mo2  1  0.21194700  0.35675300  0.43072200  1
  Mo  Mo3  1  0.21388000  0.85779400  0.92793800  1
  P  P4  1  0.28296000  0.03213800  0.25074800  1
  P  P5  1  0.71676900  0.75014500  0.24893500  1
  P  P6  1  0.28323100  0.24985500  0.75106500  1
  P  P7  1  0.71704000  0.96786200  0.74925200  1
  P  P8  1  0.00261500  0.53546700  0.74848700  1
  P  P9  1  0.99738500  0.46453300  0.25151300  1
  O  O10  1  0.49007100  0.07201200  0.22145900  1
  O  O11  1  0.86743500  0.36661300  0.91585100  1
  O  O12  1  0.90455700  0.14461200  0.58516600  1
  O  O13  1  0.84844500  0.55315800  0.72440300  1
  O  O14  1  0.13256500  0.63338700  0.08414900  1
  O  O15  1  0.09544300  0.85538800  0.41483400  1
  O  O16  1  0.15155500  0.44684200  0.27559700  1
  O  O17  1  0.14501500  0.71475800  0.77314600  1
  O  O18  1  0.15107100  0.51128600  0.58151600  1
  O  O19  1  0.27182500  0.20050200  0.28241400  1
  O  O20  1  0.28033500  0.00379500  0.08312700  1
  O  O21  1  0.70119400  0.91595500  0.22706400  1
  O  O22  1  0.51850900  0.57026000  0.27874000  1
  O  O23  1  0.26769200  0.26485000  0.58914000  1
  O  O24  1  0.84892900  0.48871400  0.41848400  1
  O  O25  1  0.08585700  0.21763500  0.92265100  1
  O  O26  1  0.91414300  0.78236500  0.07734900  1
  O  O27  1  0.50992900  0.92798800  0.77854100  1
  O  O28  1  0.73230800  0.73515000  0.41086000  1
  O  O29  1  0.48149100  0.42974000  0.72126000  1
  O  O30  1  0.29880600  0.08404500  0.77293600  1
  O  O31  1  0.71966500  0.99620500  0.91687300  1
  O  O32  1  0.72817500  0.79949800  0.71758600  1
  O  O33  1  0.85498500  0.28524200  0.22685400  1
