# generated using pymatgen
data_H4CN5Cl
_symmetry_space_group_name_H-M   'P 1'
_cell_length_a   6.02415885
_cell_length_b   6.02415885
_cell_length_c   9.82032944
_cell_angle_alpha   88.81239026
_cell_angle_beta   88.81239026
_cell_angle_gamma   129.13421537
_symmetry_Int_Tables_number   1
_chemical_formula_structural   H4CN5Cl
_chemical_formula_sum   'H8 C2 N10 Cl2'
_cell_volume   276.11456457
_cell_formula_units_Z   2
loop_
 _symmetry_equiv_pos_site_id
 _symmetry_equiv_pos_as_xyz
  1  'x, y, z'
loop_
 _atom_site_type_symbol
 _atom_site_label
 _atom_site_symmetry_multiplicity
 _atom_site_fract_x
 _atom_site_fract_y
 _atom_site_fract_z
 _atom_site_occupancy
  H  H0  1  0.05365700  0.31835500  0.94601700  1
  H  H1  1  0.31835500  0.05365700  0.44601700  1
  H  H2  1  0.08043500  0.51338000  0.08683600  1
  H  H3  1  0.51338000  0.08043500  0.58683600  1
  H  H4  1  0.51337700  0.80413000  0.19689400  1
  H  H5  1  0.80413000  0.51337700  0.69689400  1
  H  H6  1  0.76088400  0.73379400  0.17861600  1
  H  H7  1  0.73379400  0.76088400  0.67861600  1
  C  C8  1  0.41014500  0.50862100  0.06018100  1
  C  C9  1  0.50862100  0.41014500  0.56018100  1
  N  N10  1  0.52159600  0.39359000  0.99361100  1
  N  N11  1  0.39359000  0.52159600  0.49361100  1
  N  N12  1  0.34668200  0.16500800  0.93568800  1
  N  N13  1  0.16500800  0.34668200  0.43568800  1
  N  N14  1  0.21309800  0.95730100  0.87942500  1
  N  N15  1  0.95730100  0.21309800  0.37942500  1
  N  N16  1  0.15355700  0.42526400  0.03338700  1
  N  N17  1  0.42526400  0.15355700  0.53338700  1
  N  N18  1  0.57903800  0.70294300  0.14906600  1
  N  N19  1  0.70294300  0.57903800  0.64906600  1
  Cl  Cl20  1  0.15711000  0.84183400  0.24977800  1
  Cl  Cl21  1  0.84183400  0.15711000  0.74977800  1
