# generated using pymatgen
data_CaMg2H24(ClO2)6
_symmetry_space_group_name_H-M   'P 1'
_cell_length_a   8.37462772
_cell_length_b   8.37462772
_cell_length_c   8.37462819
_cell_angle_alpha   75.49030180
_cell_angle_beta   75.49030180
_cell_angle_gamma   75.49029543
_symmetry_Int_Tables_number   1
_chemical_formula_structural   CaMg2H24(ClO2)6
_chemical_formula_sum   'Ca1 Mg2 H24 Cl6 O12'
_cell_volume   539.31909651
_cell_formula_units_Z   1
loop_
 _symmetry_equiv_pos_site_id
 _symmetry_equiv_pos_as_xyz
  1  'x, y, z'
loop_
 _atom_site_type_symbol
 _atom_site_label
 _atom_site_symmetry_multiplicity
 _atom_site_fract_x
 _atom_site_fract_y
 _atom_site_fract_z
 _atom_site_occupancy
  Ca  Ca0  1  0.00000000  0.00000000  0.00000000  1
  Mg  Mg1  1  0.67733500  0.67733500  0.67733500  1
  Mg  Mg2  1  0.32266500  0.32266500  0.32266500  1
  H  H3  1  0.83623900  0.94113900  0.61074400  1
  H  H4  1  0.61074400  0.83623900  0.94113900  1
  H  H5  1  0.94113900  0.61074400  0.83623900  1
  H  H6  1  0.16376100  0.05886100  0.38925600  1
  H  H7  1  0.38925600  0.16376100  0.05886100  1
  H  H8  1  0.05886100  0.38925600  0.16376100  1
  H  H9  1  0.92117800  0.83829800  0.46543600  1
  H  H10  1  0.46543600  0.92117800  0.83829800  1
  H  H11  1  0.83829800  0.46543600  0.92117800  1
  H  H12  1  0.07882200  0.16170200  0.53456400  1
  H  H13  1  0.53456400  0.07882200  0.16170200  1
  H  H14  1  0.16170200  0.53456400  0.07882200  1
  H  H15  1  0.59390200  0.36279800  0.79080200  1
  H  H16  1  0.79080200  0.59390200  0.36279800  1
  H  H17  1  0.36279800  0.79080200  0.59390200  1
  H  H18  1  0.40609800  0.63720200  0.20919800  1
  H  H19  1  0.20919800  0.40609800  0.63720200  1
  H  H20  1  0.63720200  0.20919800  0.40609800  1
  H  H21  1  0.42509000  0.50156700  0.81868800  1
  H  H22  1  0.81868800  0.42509000  0.50156700  1
  H  H23  1  0.50156700  0.81868800  0.42509000  1
  H  H24  1  0.57491000  0.49843300  0.18131200  1
  H  H25  1  0.18131200  0.57491000  0.49843300  1
  H  H26  1  0.49843300  0.18131200  0.57491000  1
  Cl  Cl27  1  0.83689900  0.15504700  0.72435800  1
  Cl  Cl28  1  0.72435800  0.83689900  0.15504700  1
  Cl  Cl29  1  0.15504700  0.72435800  0.83689900  1
  Cl  Cl30  1  0.16310100  0.84495300  0.27564200  1
  Cl  Cl31  1  0.27564200  0.16310100  0.84495300  1
  Cl  Cl32  1  0.84495300  0.27564200  0.16310100  1
  O  O33  1  0.81957200  0.85830800  0.55389300  1
  O  O34  1  0.55389300  0.81957200  0.85830800  1
  O  O35  1  0.85830800  0.55389300  0.81957200  1
  O  O36  1  0.18042800  0.14169200  0.44610700  1
  O  O37  1  0.44610700  0.18042800  0.14169200  1
  O  O38  1  0.14169200  0.44610700  0.18042800  1
  O  O39  1  0.54802300  0.48164600  0.79586100  1
  O  O40  1  0.79586100  0.54802300  0.48164600  1
  O  O41  1  0.48164600  0.79586100  0.54802300  1
  O  O42  1  0.45197700  0.51835400  0.20413900  1
  O  O43  1  0.20413900  0.45197700  0.51835400  1
  O  O44  1  0.51835400  0.20413900  0.45197700  1
