# generated using pymatgen
data_H6CN2O3
_symmetry_space_group_name_H-M   'P 1'
_cell_length_a   4.83869800
_cell_length_b   6.76113400
_cell_length_c   12.92215800
_cell_angle_alpha   90.00000000
_cell_angle_beta   90.00000000
_cell_angle_gamma   90.00000000
_symmetry_Int_Tables_number   1
_chemical_formula_structural   H6CN2O3
_chemical_formula_sum   'H24 C4 N8 O12'
_cell_volume   422.74950464
_cell_formula_units_Z   4
loop_
 _symmetry_equiv_pos_site_id
 _symmetry_equiv_pos_as_xyz
  1  'x, y, z'
loop_
 _atom_site_type_symbol
 _atom_site_label
 _atom_site_symmetry_multiplicity
 _atom_site_fract_x
 _atom_site_fract_y
 _atom_site_fract_z
 _atom_site_occupancy
  H  H0  1  0.81492000  0.35756100  0.74831600  1
  H  H1  1  0.68508000  0.85756100  0.75168400  1
  H  H2  1  0.31492000  0.64243900  0.75168400  1
  H  H3  1  0.18508000  0.14243900  0.74831600  1
  H  H4  1  0.18508000  0.64243900  0.25168400  1
  H  H5  1  0.31492000  0.14243900  0.24831600  1
  H  H6  1  0.68508000  0.35756100  0.24831600  1
  H  H7  1  0.81492000  0.85756100  0.25168400  1
  H  H8  1  0.68312200  0.44877600  0.86665300  1
  H  H9  1  0.81687800  0.94877600  0.63334700  1
  H  H10  1  0.18312200  0.55122400  0.63334700  1
  H  H11  1  0.31687800  0.05122400  0.86665300  1
  H  H12  1  0.31687800  0.55122400  0.13334700  1
  H  H13  1  0.18312200  0.05122400  0.36665300  1
  H  H14  1  0.81687800  0.44877600  0.36665300  1
  H  H15  1  0.68312200  0.94877600  0.13334700  1
  H  H16  1  0.76335700  0.31023100  0.54889600  1
  H  H17  1  0.73664300  0.81023100  0.95110400  1
  H  H18  1  0.26335700  0.68976900  0.95110400  1
  H  H19  1  0.23664300  0.18976900  0.54889600  1
  H  H20  1  0.23664300  0.68976900  0.45110400  1
  H  H21  1  0.26335700  0.18976900  0.04889600  1
  H  H22  1  0.73664300  0.31023100  0.04889600  1
  H  H23  1  0.76335700  0.81023100  0.45110400  1
  C  C24  1  0.00000000  0.25000000  0.88082500  1
  C  C25  1  0.50000000  0.75000000  0.61917500  1
  C  C26  1  0.00000000  0.75000000  0.11917500  1
  C  C27  1  0.50000000  0.25000000  0.38082500  1
  N  N28  1  0.82104600  0.36292900  0.82751400  1
  N  N29  1  0.67895400  0.86292900  0.67248600  1
  N  N30  1  0.32104600  0.63707100  0.67248600  1
  N  N31  1  0.17895400  0.13707100  0.82751400  1
  N  N32  1  0.17895400  0.63707100  0.17248600  1
  N  N33  1  0.32104600  0.13707100  0.32751400  1
  N  N34  1  0.67895400  0.36292900  0.32751400  1
  N  N35  1  0.82104600  0.86292900  0.17248600  1
  O  O36  1  0.91965600  0.34223000  0.59913100  1
  O  O37  1  0.58034400  0.84223000  0.90086900  1
  O  O38  1  0.41965600  0.65777000  0.90086900  1
  O  O39  1  0.08034400  0.15777000  0.59913100  1
  O  O40  1  0.08034400  0.65777000  0.40086900  1
  O  O41  1  0.41965600  0.15777000  0.09913100  1
  O  O42  1  0.58034400  0.34223000  0.09913100  1
  O  O43  1  0.91965600  0.84223000  0.40086900  1
  O  O44  1  0.00000000  0.25000000  0.98018800  1
  O  O45  1  0.50000000  0.75000000  0.51981200  1
  O  O46  1  0.00000000  0.75000000  0.01981200  1
  O  O47  1  0.50000000  0.25000000  0.48018800  1
