# generated using pymatgen
data_Ca2H2S2O9
_symmetry_space_group_name_H-M   'P 1'
_cell_length_a   9.55282496
_cell_length_b   9.55282496
_cell_length_c   12.39532792
_cell_angle_alpha   49.60200908
_cell_angle_beta   49.60200908
_cell_angle_gamma   43.95633603
_symmetry_Int_Tables_number   1
_chemical_formula_structural   Ca2H2S2O9
_chemical_formula_sum   'Ca6 H6 S6 O27'
_cell_volume   561.56370381
_cell_formula_units_Z   3
loop_
 _symmetry_equiv_pos_site_id
 _symmetry_equiv_pos_as_xyz
  1  'x, y, z'
loop_
 _atom_site_type_symbol
 _atom_site_label
 _atom_site_symmetry_multiplicity
 _atom_site_fract_x
 _atom_site_fract_y
 _atom_site_fract_z
 _atom_site_occupancy
  Ca  Ca0  1  0.46397700  0.53602300  0.00000000  1
  Ca  Ca1  1  0.00421600  0.99578400  0.50000000  1
  Ca  Ca2  1  0.09613400  0.56630800  0.43212900  1
  Ca  Ca3  1  0.43369200  0.90386600  0.56787100  1
  Ca  Ca4  1  0.91719000  0.41261500  0.08290500  1
  Ca  Ca5  1  0.58738500  0.08281000  0.91709500  1
  H  H6  1  0.64689400  0.35070000  0.43749200  1
  H  H7  1  0.64930000  0.35310600  0.56250800  1
  H  H8  1  0.99661200  0.33600900  0.87499000  1
  H  H9  1  0.66399100  0.00338800  0.12501000  1
  H  H10  1  0.18829400  0.14435200  0.93940800  1
  H  H11  1  0.85564800  0.81170600  0.06059200  1
  S  S12  1  0.19129100  0.64409300  0.81092900  1
  S  S13  1  0.35590700  0.80870900  0.18907100  1
  S  S14  1  0.20637400  0.29562000  0.25004900  1
  S  S15  1  0.70438000  0.79362600  0.74995100  1
  S  S16  1  0.85519400  0.31328500  0.68915200  1
  S  S17  1  0.68671500  0.14480600  0.31084800  1
  O  O18  1  0.70001700  0.26290400  0.15155100  1
  O  O19  1  0.73709600  0.29998300  0.84844900  1
  O  O20  1  0.21286700  0.76037200  0.64900500  1
  O  O21  1  0.23962800  0.78713300  0.35099500  1
  O  O22  1  0.58757400  0.70983700  0.14568500  1
  O  O23  1  0.29016300  0.41242600  0.85431500  1
  O  O24  1  0.08894600  0.21575400  0.64147600  1
  O  O25  1  0.78424600  0.91105400  0.35852400  1
  O  O26  1  0.15862800  0.47745900  0.25546200  1
  O  O27  1  0.52254100  0.84137200  0.74453800  1
  O  O28  1  0.65594400  0.97706100  0.75375200  1
  O  O29  1  0.02293900  0.34405600  0.24624800  1
  O  O30  1  0.45794700  0.22796900  0.41462300  1
  O  O31  1  0.77203100  0.54205300  0.58537700  1
  O  O32  1  0.95925900  0.72503900  0.91023500  1
  O  O33  1  0.27496100  0.04074100  0.08976500  1
  O  O34  1  0.31582700  0.70411800  0.16832300  1
  O  O35  1  0.29588200  0.68417300  0.83167700  1
  O  O36  1  0.82093700  0.19610000  0.67393500  1
  O  O37  1  0.80390000  0.17906300  0.32606500  1
  O  O38  1  0.74471100  0.60296800  0.89098800  1
  O  O39  1  0.39703200  0.25528900  0.10901200  1
  O  O40  1  0.25607300  0.09964900  0.38599800  1
  O  O41  1  0.90035100  0.74392700  0.61400200  1
  O  O42  1  0.56788700  0.43211300  0.50000000  1
  O  O43  1  0.13361700  0.20109500  0.86656600  1
  O  O44  1  0.79890500  0.86638300  0.13343400  1
