# generated using pymatgen
data_NiB6(H8O9)2
_symmetry_space_group_name_H-M   'P 1'
_cell_length_a   7.21587100
_cell_length_b   9.01952600
_cell_length_c   21.85209045
_cell_angle_alpha   80.34546225
_cell_angle_beta   90.00000000
_cell_angle_gamma   90.00000000
_symmetry_Int_Tables_number   1
_chemical_formula_structural   NiB6(H8O9)2
_chemical_formula_sum   'Ni4 B24 H64 O72'
_cell_volume   1402.07263291
_cell_formula_units_Z   4
loop_
 _symmetry_equiv_pos_site_id
 _symmetry_equiv_pos_as_xyz
  1  'x, y, z'
loop_
 _atom_site_type_symbol
 _atom_site_label
 _atom_site_symmetry_multiplicity
 _atom_site_fract_x
 _atom_site_fract_y
 _atom_site_fract_z
 _atom_site_occupancy
  Ni  Ni0  1  0.39689800  0.63734000  0.60492300  1
  Ni  Ni1  1  0.89689800  0.36266000  0.89507700  1
  Ni  Ni2  1  0.60310200  0.36266000  0.39507700  1
  Ni  Ni3  1  0.10310200  0.63734000  0.10492300  1
  B  B4  1  0.10019400  0.39252500  0.57931400  1
  B  B5  1  0.60019400  0.60747500  0.92068600  1
  B  B6  1  0.89980600  0.60747500  0.42068600  1
  B  B7  1  0.39980600  0.39252500  0.07931400  1
  B  B8  1  0.26603100  0.32643400  0.68668800  1
  B  B9  1  0.76603100  0.67356600  0.81331200  1
  B  B10  1  0.73396900  0.67356600  0.31331200  1
  B  B11  1  0.23396900  0.32643400  0.18668800  1
  B  B12  1  0.32518900  0.15463800  0.60161100  1
  B  B13  1  0.82518900  0.84536200  0.89838900  1
  B  B14  1  0.67481100  0.84536200  0.39838900  1
  B  B15  1  0.17481100  0.15463800  0.10161100  1
  B  B16  1  0.10704600  0.19257900  0.51234000  1
  B  B17  1  0.60704600  0.80742100  0.98766000  1
  B  B18  1  0.89295400  0.80742100  0.48766000  1
  B  B19  1  0.39295400  0.19257900  0.01234000  1
  B  B20  1  0.93722900  0.41436900  0.67805700  1
  B  B21  1  0.43722900  0.58563100  0.82194300  1
  B  B22  1  0.06277100  0.58563100  0.32194300  1
  B  B23  1  0.56277100  0.41436900  0.17805700  1
  B  B24  1  0.36697300  0.06068400  0.71240800  1
  B  B25  1  0.86697300  0.93931600  0.78759200  1
  B  B26  1  0.63302700  0.93931600  0.28759200  1
  B  B27  1  0.13302700  0.06068400  0.21240800  1
  H  H28  1  0.13691000  0.59556600  0.52428400  1
  H  H29  1  0.63691000  0.40443400  0.97571600  1
  H  H30  1  0.86309000  0.40443400  0.47571600  1
  H  H31  1  0.36309000  0.59556600  0.02428400  1
  H  H32  1  0.52287300  0.42927400  0.68954300  1
  H  H33  1  0.02287300  0.57072600  0.81045700  1
  H  H34  1  0.47712700  0.57072600  0.31045700  1
  H  H35  1  0.97712700  0.42927400  0.18954300  1
  H  H36  1  0.53882200  0.31386200  0.58222500  1
  H  H37  1  0.03882200  0.68613800  0.91777500  1
  H  H38  1  0.46117800  0.68613800  0.41777500  1
  H  H39  1  0.96117800  0.31386200  0.08222500  1
  H  H40  1  0.11204800  0.08090200  0.43799600  1
  H  H41  1  0.61204800  0.91909800  0.06200400  1
  H  H42  1  0.88795200  0.91909800  0.56200400  1
  H  H43  1  0.38795200  0.08090200  0.93799600  1
  H  H44  1  0.78583600  0.44306700  0.75082500  1
  H  H45  1  0.28583600  0.55693300  0.74917500  1
  H  H46  1  0.21416400  0.55693300  0.24917500  1
  H  H47  1  0.71416400  0.44306700  0.25082500  1
  H  H48  1  0.45714600  0.85499600  0.74807600  1
  H  H49  1  0.95714600  0.14500400  0.75192400  1
  H  H50  1  0.54285400  0.14500400  0.25192400  1
  H  H51  1  0.04285400  0.85499600  0.24807600  1
  H  H52  1  0.63915000  0.54162500  0.51958000  1
  H  H53  1  0.13915000  0.45837500  0.98042000  1
  H  H54  1  0.36085000  0.45837500  0.48042000  1
  H  H55  1  0.86085000  0.54162500  0.01958000  1
  H  H56  1  0.73763900  0.50715100  0.58383700  1
  H  H57  1  0.23763900  0.49284900  0.91616300  1
  H  H58  1  0.26236100  0.49284900  0.41616300  1
  H  H59  1  0.76236100  0.50715100  0.08383700  1
  H  H60  1  0.08730900  0.76486700  0.61360700  1
  H  H61  1  0.58730900  0.23513300  0.88639300  1
  H  H62  1  0.91269100  0.23513300  0.38639300  1
  H  H63  1  0.41269100  0.76486700  0.11360700  1
  H  H64  1  0.23547000  0.84242500  0.65109500  1
  H  H65  1  0.73547000  0.15757500  0.84890500  1
  H  H66  1  0.76453000  0.15757500  0.34890500  1
  H  H67  1  0.26453000  0.84242500  0.15109500  1
  H  H68  1  0.65730100  0.83307000  0.64084500  1
  H  H69  1  0.15730100  0.16693000  0.85915500  1
  H  H70  1  0.34269900  0.16693000  0.35915500  1
  H  H71  1  0.84269900  0.83307000  0.14084500  1
  H  H72  1  0.63289900  0.68818600  0.69422000  1
  H  H73  1  0.13289900  0.31181400  0.80578000  1
  H  H74  1  0.36710100  0.31181400  0.30578000  1
  H  H75  1  0.86710100  0.68818600  0.19422000  1
  H  H76  1  0.43827800  0.81814600  0.49213400  1
  H  H77  1  0.93827800  0.18185400  0.00786600  1
  H  H78  1  0.56172200  0.18185400  0.50786600  1
  H  H79  1  0.06172200  0.81814600  0.99213400  1
  H  H80  1  0.33278800  0.91185900  0.53848800  1
  H  H81  1  0.83278800  0.08814100  0.96151200  1
  H  H82  1  0.66721200  0.08814100  0.46151200  1
  H  H83  1  0.16721200  0.91185900  0.03848800  1
  H  H84  1  0.14643400  0.97812000  0.34328900  1
  H  H85  1  0.64643400  0.02188000  0.15671100  1
  H  H86  1  0.85356600  0.02188000  0.65671100  1
  H  H87  1  0.35356600  0.97812000  0.84328900  1
  H  H88  1  0.30519500  0.91603700  0.39188500  1
  H  H89  1  0.80519500  0.08396300  0.10811500  1
  H  H90  1  0.69480500  0.08396300  0.60811500  1
  H  H91  1  0.19480500  0.91603700  0.89188500  1
  O  O92  1  0.21539400  0.52559200  0.55349300  1
  O  O93  1  0.71539400  0.47440800  0.94650700  1
  O  O94  1  0.78460600  0.47440800  0.44650700  1
  O  O95  1  0.28460600  0.52559200  0.05349300  1
  O  O96  1  0.39269100  0.45782000  0.67927600  1
  O  O97  1  0.89269100  0.54218000  0.82072400  1
  O  O98  1  0.60730900  0.54218000  0.32072400  1
  O  O99  1  0.10730900  0.45782000  0.17927600  1
  O  O100  1  0.51536100  0.20651900  0.58163800  1
  O  O101  1  0.01536100  0.79348100  0.91836200  1
  O  O102  1  0.48463900  0.79348100  0.41836200  1
  O  O103  1  0.98463900  0.20651900  0.08163800  1
  O  O104  1  0.04846800  0.16097200  0.45607600  1
  O  O105  1  0.54846800  0.83902800  0.04392400  1
  O  O106  1  0.95153200  0.83902800  0.54392400  1
  O  O107  1  0.45153200  0.16097200  0.95607600  1
  O  O108  1  0.77118100  0.43977800  0.70635600  1
  O  O109  1  0.27118100  0.56022200  0.79364400  1
  O  O110  1  0.22881900  0.56022200  0.29364400  1
  O  O111  1  0.72881900  0.43977800  0.20635600  1
  O  O112  1  0.42209500  0.94970500  0.76076100  1
  O  O113  1  0.92209500  0.05029500  0.73923900  1
  O  O114  1  0.57790500  0.05029500  0.23923900  1
  O  O115  1  0.07790500  0.94970500  0.26076100  1
  O  O116  1  0.03299700  0.32126200  0.52868200  1
  O  O117  1  0.53299700  0.67873800  0.97131800  1
  O  O118  1  0.96700300  0.67873800  0.47131800  1
  O  O119  1  0.46700300  0.32126200  0.02868200  1
  O  O120  1  0.94028700  0.43609700  0.61443800  1
  O  O121  1  0.44028700  0.56390300  0.88556200  1
  O  O122  1  0.05971300  0.56390300  0.38556200  1
  O  O123  1  0.55971300  0.43609700  0.11443800  1
  O  O124  1  0.08926500  0.36567100  0.71308400  1
  O  O125  1  0.58926500  0.63432900  0.78691600  1
  O  O126  1  0.91073500  0.63432900  0.28691600  1
  O  O127  1  0.41073500  0.36567100  0.21308400  1
  O  O128  1  0.34775800  0.20138200  0.72637200  1
  O  O129  1  0.84775800  0.79861800  0.77362800  1
  O  O130  1  0.65224200  0.79861800  0.27362800  1
  O  O131  1  0.15224200  0.20138200  0.22637200  1
  O  O132  1  0.23027300  0.10450200  0.54989300  1
  O  O133  1  0.73027300  0.89549800  0.95010700  1
  O  O134  1  0.76972700  0.89549800  0.45010700  1
  O  O135  1  0.26972700  0.10450200  0.04989300  1
  O  O136  1  0.33479700  0.02974800  0.65370600  1
  O  O137  1  0.83479700  0.97025200  0.84629400  1
  O  O138  1  0.66520300  0.97025200  0.34629400  1
  O  O139  1  0.16520300  0.02974800  0.15370600  1
  O  O140  1  0.22182200  0.28606800  0.62226500  1
  O  O141  1  0.72182200  0.71393200  0.87773500  1
  O  O142  1  0.77817800  0.71393200  0.37773500  1
  O  O143  1  0.27817800  0.28606800  0.12226500  1
  O  O144  1  0.61149300  0.51812600  0.56413800  1
  O  O145  1  0.11149300  0.48187400  0.93586200  1
  O  O146  1  0.38850700  0.48187400  0.43586200  1
  O  O147  1  0.88850700  0.51812600  0.06413800  1
  O  O148  1  0.18491200  0.74311900  0.64556600  1
  O  O149  1  0.68491200  0.25688100  0.85443400  1
  O  O150  1  0.81508800  0.25688100  0.35443400  1
  O  O151  1  0.31508800  0.74311900  0.14556600  1
  O  O152  1  0.58052200  0.74270100  0.65564000  1
  O  O153  1  0.08052200  0.25729900  0.84436000  1
  O  O154  1  0.41947800  0.25729900  0.34436000  1
  O  O155  1  0.91947800  0.74270100  0.15564000  1
  O  O156  1  0.41346700  0.82469800  0.53654000  1
  O  O157  1  0.91346700  0.17530200  0.96346000  1
  O  O158  1  0.58653300  0.17530200  0.46346000  1
  O  O159  1  0.08653300  0.82469800  0.03654000  1
  O  O160  1  0.21317400  0.99860200  0.38040900  1
  O  O161  1  0.71317400  0.00139800  0.11959100  1
  O  O162  1  0.78682600  0.00139800  0.61959100  1
  O  O163  1  0.28682600  0.99860200  0.88040900  1
