# generated using pymatgen
data_Fe3(PO8)2
_symmetry_space_group_name_H-M   'P 1'
_cell_length_a   7.89657473
_cell_length_b   7.89657473
_cell_length_c   4.76099043
_cell_angle_alpha   75.68117639
_cell_angle_beta   75.68117639
_cell_angle_gamma   92.85015197
_symmetry_Int_Tables_number   1
_chemical_formula_structural   Fe3(PO8)2
_chemical_formula_sum   'Fe3 P2 O16'
_cell_volume   276.76611523
_cell_formula_units_Z   1
loop_
 _symmetry_equiv_pos_site_id
 _symmetry_equiv_pos_as_xyz
  1  'x, y, z'
loop_
 _atom_site_type_symbol
 _atom_site_label
 _atom_site_symmetry_multiplicity
 _atom_site_fract_x
 _atom_site_fract_y
 _atom_site_fract_z
 _atom_site_occupancy
  Fe  Fe0  1  0.00000000  0.00000000  0.00000000  1
  Fe  Fe1  1  0.62936600  0.37063400  0.00000000  1
  Fe  Fe2  1  0.37063400  0.62936600  0.00000000  1
  P  P3  1  0.32741400  0.32741400  0.67517500  1
  P  P4  1  0.67258600  0.67258600  0.32482500  1
  O  O5  1  0.17865600  0.17865600  0.73899300  1
  O  O6  1  0.82134400  0.82134400  0.26100700  1
  O  O7  1  0.39407100  0.39407100  0.31537100  1
  O  O8  1  0.60592900  0.60592900  0.68462900  1
  O  O9  1  0.25625900  0.47902800  0.80493700  1
  O  O10  1  0.47902800  0.25625900  0.80493700  1
  O  O11  1  0.74374100  0.52097200  0.19506300  1
  O  O12  1  0.52097200  0.74374100  0.19506300  1
  O  O13  1  0.88732900  0.18190900  0.22874700  1
  O  O14  1  0.18190900  0.88732900  0.22874700  1
  O  O15  1  0.11267100  0.81809100  0.77125300  1
  O  O16  1  0.81809100  0.11267100  0.77125300  1
  O  O17  1  0.16244800  0.71707500  0.27596800  1
  O  O18  1  0.71707500  0.16244800  0.27596800  1
  O  O19  1  0.83755200  0.28292500  0.72403200  1
  O  O20  1  0.28292500  0.83755200  0.72403200  1
