# generated using pymatgen
data_Fe3H4(OF4)2
_symmetry_space_group_name_H-M   'P 1'
_cell_length_a   5.43086437
_cell_length_b   5.43086437
_cell_length_c   7.51276249
_cell_angle_alpha   70.44972283
_cell_angle_beta   70.44972283
_cell_angle_gamma   89.11308697
_symmetry_Int_Tables_number   1
_chemical_formula_structural   Fe3H4(OF4)2
_chemical_formula_sum   'Fe3 H4 O2 F8'
_cell_volume   195.60538960
_cell_formula_units_Z   1
loop_
 _symmetry_equiv_pos_site_id
 _symmetry_equiv_pos_as_xyz
  1  'x, y, z'
loop_
 _atom_site_type_symbol
 _atom_site_label
 _atom_site_symmetry_multiplicity
 _atom_site_fract_x
 _atom_site_fract_y
 _atom_site_fract_z
 _atom_site_occupancy
  Fe  Fe0  1  0.00000000  0.00000000  0.00000000  1
  Fe  Fe1  1  0.00000000  0.50000000  0.50000000  1
  Fe  Fe2  1  0.50000000  0.00000000  0.50000000  1
  H  H3  1  0.40001700  0.19156500  0.08443500  1
  H  H4  1  0.19156500  0.40001700  0.08443500  1
  H  H5  1  0.59998300  0.80843500  0.91556500  1
  H  H6  1  0.80843500  0.59998300  0.91556500  1
  O  O7  1  0.25622700  0.25622700  0.03431600  1
  O  O8  1  0.74377300  0.74377300  0.96568400  1
  F  F9  1  0.92335800  0.33713600  0.78975400  1
  F  F10  1  0.33713600  0.92335800  0.78975400  1
  F  F11  1  0.07664200  0.66286400  0.21024600  1
  F  F12  1  0.66286400  0.07664200  0.21024600  1
  F  F13  1  0.31734600  0.31734600  0.43878900  1
  F  F14  1  0.68265400  0.68265400  0.56121100  1
  F  F15  1  0.20571600  0.79428400  0.50000000  1
  F  F16  1  0.79428400  0.20571600  0.50000000  1
