# generated using pymatgen
data_HSeNO4
_symmetry_space_group_name_H-M   'P 1'
_cell_length_a   4.65636800
_cell_length_b   7.58320700
_cell_length_c   12.62774800
_cell_angle_alpha   90.00000000
_cell_angle_beta   90.00000000
_cell_angle_gamma   90.00000000
_symmetry_Int_Tables_number   1
_chemical_formula_structural   HSeNO4
_chemical_formula_sum   'H4 Se4 N4 O16'
_cell_volume   445.88833789
_cell_formula_units_Z   4
loop_
 _symmetry_equiv_pos_site_id
 _symmetry_equiv_pos_as_xyz
  1  'x, y, z'
loop_
 _atom_site_type_symbol
 _atom_site_label
 _atom_site_symmetry_multiplicity
 _atom_site_fract_x
 _atom_site_fract_y
 _atom_site_fract_z
 _atom_site_occupancy
  H  H0  1  0.28181700  0.82690400  0.39117000  1
  H  H1  1  0.71818300  0.32690400  0.10883000  1
  H  H2  1  0.21818300  0.17309600  0.89117000  1
  H  H3  1  0.78181700  0.67309600  0.60883000  1
  Se  Se4  1  0.72758500  0.95455900  0.37454700  1
  Se  Se5  1  0.27241500  0.45455900  0.12545300  1
  Se  Se6  1  0.77241500  0.04544100  0.87454700  1
  Se  Se7  1  0.22758500  0.54544100  0.62545300  1
  N  N8  1  0.81351500  0.44561100  0.37901600  1
  N  N9  1  0.18648500  0.94561100  0.12098400  1
  N  N10  1  0.68648500  0.55438900  0.87901600  1
  N  N11  1  0.31351500  0.05438900  0.62098400  1
  O  O12  1  0.57079700  0.07790700  0.28241200  1
  O  O13  1  0.42920300  0.57790700  0.21758800  1
  O  O14  1  0.92920300  0.92209300  0.78241200  1
  O  O15  1  0.07079700  0.42209300  0.71758800  1
  O  O16  1  0.84605000  0.09213200  0.47010500  1
  O  O17  1  0.15395000  0.59213200  0.02989500  1
  O  O18  1  0.65395000  0.90786800  0.97010500  1
  O  O19  1  0.34605000  0.40786800  0.52989500  1
  O  O20  1  0.98891700  0.82607100  0.33196400  1
  O  O21  1  0.01108300  0.32607100  0.16803600  1
  O  O22  1  0.51108300  0.17392900  0.83196400  1
  O  O23  1  0.48891700  0.67392900  0.66803600  1
  O  O24  1  0.47395900  0.81590200  0.43118400  1
  O  O25  1  0.52604100  0.31590200  0.06881600  1
  O  O26  1  0.02604100  0.18409800  0.93118400  1
  O  O27  1  0.97395900  0.68409800  0.56881600  1
