# generated using pymatgen
data_NiH2(SN)4
_symmetry_space_group_name_H-M   'P 1'
_cell_length_a   8.45842100
_cell_length_b   12.69337700
_cell_length_c   13.87336300
_cell_angle_alpha   90.00000000
_cell_angle_beta   90.00000000
_cell_angle_gamma   90.00000000
_symmetry_Int_Tables_number   1
_chemical_formula_structural   NiH2(SN)4
_chemical_formula_sum   'Ni8 H16 S32 N32'
_cell_volume   1489.52647324
_cell_formula_units_Z   8
loop_
 _symmetry_equiv_pos_site_id
 _symmetry_equiv_pos_as_xyz
  1  'x, y, z'
loop_
 _atom_site_type_symbol
 _atom_site_label
 _atom_site_symmetry_multiplicity
 _atom_site_fract_x
 _atom_site_fract_y
 _atom_site_fract_z
 _atom_site_occupancy
  Ni  Ni0  1  0.02348500  0.07127600  0.37553500  1
  Ni  Ni1  1  0.52348500  0.42872400  0.62446500  1
  Ni  Ni2  1  0.97651500  0.57127600  0.12446500  1
  Ni  Ni3  1  0.47651500  0.92872400  0.87553500  1
  Ni  Ni4  1  0.97651500  0.92872400  0.62446500  1
  Ni  Ni5  1  0.47651500  0.57127600  0.37553500  1
  Ni  Ni6  1  0.02348500  0.42872400  0.87553500  1
  Ni  Ni7  1  0.52348500  0.07127600  0.12446500  1
  H  H8  1  0.28992100  0.96718400  0.39334000  1
  H  H9  1  0.78992100  0.53281600  0.60666000  1
  H  H10  1  0.71007900  0.46718400  0.10666000  1
  H  H11  1  0.21007900  0.03281600  0.89334000  1
  H  H12  1  0.71007900  0.03281600  0.60666000  1
  H  H13  1  0.21007900  0.46718400  0.39334000  1
  H  H14  1  0.28992100  0.53281600  0.89334000  1
  H  H15  1  0.78992100  0.96718400  0.10666000  1
  H  H16  1  0.04229000  0.86600100  0.35761300  1
  H  H17  1  0.54229000  0.63399900  0.64238700  1
  H  H18  1  0.95771000  0.36600100  0.14238700  1
  H  H19  1  0.45771000  0.13399900  0.85761300  1
  H  H20  1  0.95771000  0.13399900  0.64238700  1
  H  H21  1  0.45771000  0.36600100  0.35761300  1
  H  H22  1  0.04229000  0.63399900  0.85761300  1
  H  H23  1  0.54229000  0.86600100  0.14238700  1
  S  S24  1  0.08247900  0.23472400  0.37367800  1
  S  S25  1  0.58247900  0.26527600  0.62632200  1
  S  S26  1  0.91752100  0.73472400  0.12632200  1
  S  S27  1  0.41752100  0.76527600  0.87367800  1
  S  S28  1  0.91752100  0.76527600  0.62632200  1
  S  S29  1  0.41752100  0.73472400  0.37367800  1
  S  S30  1  0.08247900  0.26527600  0.87367800  1
  S  S31  1  0.58247900  0.23472400  0.12632200  1
  S  S32  1  0.78056100  0.11132500  0.38826700  1
  S  S33  1  0.28056100  0.38867500  0.61173300  1
  S  S34  1  0.21943900  0.61132500  0.11173300  1
  S  S35  1  0.71943900  0.88867500  0.88826700  1
  S  S36  1  0.21943900  0.88867500  0.61173300  1
  S  S37  1  0.71943900  0.61132500  0.38826700  1
  S  S38  1  0.78056100  0.38867500  0.88826700  1
  S  S39  1  0.28056100  0.11132500  0.11173300  1
  S  S40  1  0.37237100  0.13133900  0.37747100  1
  S  S41  1  0.87237100  0.36866100  0.62252900  1
  S  S42  1  0.62762900  0.63133900  0.12252900  1
  S  S43  1  0.12762900  0.86866100  0.87747100  1
  S  S44  1  0.62762900  0.86866100  0.62252900  1
  S  S45  1  0.12762900  0.63133900  0.37747100  1
  S  S46  1  0.37237100  0.36866100  0.87747100  1
  S  S47  1  0.87237100  0.13133900  0.12252900  1
  S  S48  1  0.78201500  0.89506800  0.36110100  1
  S  S49  1  0.28201500  0.60493200  0.63889900  1
  S  S50  1  0.21798500  0.39506800  0.13889900  1
  S  S51  1  0.71798500  0.10493200  0.86110100  1
  S  S52  1  0.21798500  0.10493200  0.63889900  1
  S  S53  1  0.71798500  0.39506800  0.36110100  1
  S  S54  1  0.78201500  0.60493200  0.86110100  1
  S  S55  1  0.28201500  0.89506800  0.13889900  1
  N  N56  1  0.24042100  0.03989300  0.38100400  1
  N  N57  1  0.74042100  0.46010700  0.61899600  1
  N  N58  1  0.75957900  0.53989300  0.11899600  1
  N  N59  1  0.25957900  0.96010700  0.88100400  1
  N  N60  1  0.75957900  0.96010700  0.61899600  1
  N  N61  1  0.25957900  0.53989300  0.38100400  1
  N  N62  1  0.24042100  0.46010700  0.88100400  1
  N  N63  1  0.74042100  0.03989300  0.11899600  1
  N  N64  1  0.27948900  0.23778400  0.37448600  1
  N  N65  1  0.77948900  0.26221600  0.62551400  1
  N  N66  1  0.72051100  0.73778400  0.12551400  1
  N  N67  1  0.22051100  0.76221600  0.87448600  1
  N  N68  1  0.72051100  0.76221600  0.62551400  1
  N  N69  1  0.22051100  0.73778400  0.37448600  1
  N  N70  1  0.27948900  0.26221600  0.87448600  1
  N  N71  1  0.77948900  0.23778400  0.12551400  1
  N  N72  1  0.96521100  0.92956000  0.35961600  1
  N  N73  1  0.46521100  0.57044000  0.64038400  1
  N  N74  1  0.03478900  0.42956000  0.14038400  1
  N  N75  1  0.53478900  0.07044000  0.85961600  1
  N  N76  1  0.03478900  0.07044000  0.64038400  1
  N  N77  1  0.53478900  0.42956000  0.35961600  1
  N  N78  1  0.96521100  0.57044000  0.85961600  1
  N  N79  1  0.46521100  0.92956000  0.14038400  1
  N  N80  1  0.68415500  0.99825300  0.37517800  1
  N  N81  1  0.18415500  0.50174700  0.62482200  1
  N  N82  1  0.31584500  0.49825300  0.12482200  1
  N  N83  1  0.81584500  0.00174700  0.87517800  1
  N  N84  1  0.31584500  0.00174700  0.62482200  1
  N  N85  1  0.81584500  0.49825300  0.37517800  1
  N  N86  1  0.68415500  0.50174700  0.87517800  1
  N  N87  1  0.18415500  0.99825300  0.12482200  1
