# generated using pymatgen
data_Ba2Zn(HO)6
_symmetry_space_group_name_H-M   'P 1'
_cell_length_a   5.91695500
_cell_length_b   9.45233200
_cell_length_c   12.95657949
_cell_angle_alpha   48.74529717
_cell_angle_beta   90.00000000
_cell_angle_gamma   90.00000000
_symmetry_Int_Tables_number   1
_chemical_formula_structural   Ba2Zn(HO)6
_chemical_formula_sum   'Ba4 Zn2 H12 O12'
_cell_volume   544.78062036
_cell_formula_units_Z   2
loop_
 _symmetry_equiv_pos_site_id
 _symmetry_equiv_pos_as_xyz
  1  'x, y, z'
loop_
 _atom_site_type_symbol
 _atom_site_label
 _atom_site_symmetry_multiplicity
 _atom_site_fract_x
 _atom_site_fract_y
 _atom_site_fract_z
 _atom_site_occupancy
  Ba  Ba0  1  0.51307800  0.71871100  0.99103200  1
  Ba  Ba1  1  0.98692200  0.71871100  0.49103200  1
  Ba  Ba2  1  0.48692200  0.28128900  0.00896800  1
  Ba  Ba3  1  0.01307800  0.28128900  0.50896800  1
  Zn  Zn4  1  0.50000000  0.50000000  0.50000000  1
  Zn  Zn5  1  0.00000000  0.50000000  0.00000000  1
  H  H6  1  0.64176900  0.09929900  0.48079800  1
  H  H7  1  0.85823100  0.09929900  0.98079800  1
  H  H8  1  0.35823100  0.90070100  0.51920200  1
  H  H9  1  0.14176900  0.90070100  0.01920200  1
  H  H10  1  0.30343800  0.91895600  0.56274000  1
  H  H11  1  0.19656200  0.91895600  0.06274000  1
  H  H12  1  0.69656200  0.08104400  0.43726000  1
  H  H13  1  0.80343800  0.08104400  0.93726000  1
  H  H14  1  0.28865900  0.95749700  0.73389500  1
  H  H15  1  0.21134100  0.95749700  0.23389500  1
  H  H16  1  0.71134100  0.04250300  0.26610500  1
  H  H17  1  0.78865900  0.04250300  0.76610500  1
  O  O18  1  0.65416700  0.92655100  0.28883000  1
  O  O19  1  0.84583300  0.92655100  0.78883000  1
  O  O20  1  0.34583300  0.07344900  0.71117000  1
  O  O21  1  0.15416700  0.07344900  0.21117000  1
  O  O22  1  0.05448300  0.17590800  0.07124600  1
  O  O23  1  0.44551700  0.17590800  0.57124600  1
  O  O24  1  0.94551700  0.82409200  0.92875400  1
  O  O25  1  0.55448300  0.82409200  0.42875400  1
  O  O26  1  0.22171000  0.57206200  0.42119200  1
  O  O27  1  0.27829000  0.57206200  0.92119200  1
  O  O28  1  0.77829000  0.42793800  0.57880800  1
  O  O29  1  0.72171000  0.42793800  0.07880800  1
