# generated using pymatgen
data_H4S4N6O
_symmetry_space_group_name_H-M   'P 1'
_cell_length_a   9.61511318
_cell_length_b   9.61511318
_cell_length_c   7.09981812
_cell_angle_alpha   75.06927197
_cell_angle_beta   75.06927197
_cell_angle_gamma   38.50693212
_symmetry_Int_Tables_number   1
_chemical_formula_structural   H4S4N6O
_chemical_formula_sum   'H8 S8 N12 O2'
_cell_volume   393.15506871
_cell_formula_units_Z   2
loop_
 _symmetry_equiv_pos_site_id
 _symmetry_equiv_pos_as_xyz
  1  'x, y, z'
loop_
 _atom_site_type_symbol
 _atom_site_label
 _atom_site_symmetry_multiplicity
 _atom_site_fract_x
 _atom_site_fract_y
 _atom_site_fract_z
 _atom_site_occupancy
  H  H0  1  0.20461300  0.20461300  0.12581100  1
  H  H1  1  0.79538700  0.79538700  0.87418900  1
  H  H2  1  0.99694900  0.26021000  0.26575400  1
  H  H3  1  0.26021000  0.99694900  0.26575400  1
  H  H4  1  0.00305100  0.73979000  0.73424600  1
  H  H5  1  0.73979000  0.00305100  0.73424600  1
  H  H6  1  0.12265200  0.12265200  0.05884000  1
  H  H7  1  0.87734800  0.87734800  0.94116000  1
  S  S8  1  0.35260800  0.35260800  0.12709000  1
  S  S9  1  0.64739200  0.64739200  0.87291000  1
  S  S10  1  0.23628300  0.66263800  0.28444700  1
  S  S11  1  0.66263800  0.23628300  0.28444700  1
  S  S12  1  0.76371700  0.33736200  0.71555300  1
  S  S13  1  0.33736200  0.76371700  0.71555300  1
  S  S14  1  0.32604000  0.32604000  0.52564400  1
  S  S15  1  0.67396000  0.67396000  0.47435600  1
  N  N16  1  0.20650000  0.61041700  0.10491900  1
  N  N17  1  0.61041700  0.20650000  0.10491900  1
  N  N18  1  0.79350000  0.38958300  0.89508100  1
  N  N19  1  0.38958300  0.79350000  0.89508100  1
  N  N20  1  0.18732900  0.58857300  0.49704200  1
  N  N21  1  0.58857300  0.18732900  0.49704200  1
  N  N22  1  0.81267100  0.41142700  0.50295800  1
  N  N23  1  0.41142700  0.81267100  0.50295800  1
  N  N24  1  0.28998700  0.28998700  0.33458800  1
  N  N25  1  0.71001300  0.71001300  0.66541200  1
  N  N26  1  0.14567200  0.14567200  0.17671900  1
  N  N27  1  0.85432800  0.85432800  0.82328100  1
  O  O28  1  0.31321000  0.31321000  0.97504000  1
  O  O29  1  0.68679000  0.68679000  0.02496000  1
