# generated using pymatgen
data_Ga5Ir3
_symmetry_space_group_name_H-M   'P 1'
_cell_length_a   5.87590800
_cell_length_b   5.87590800
_cell_length_c   15.16055400
_cell_angle_alpha   90.00000000
_cell_angle_beta   90.00000000
_cell_angle_gamma   90.00000000
_symmetry_Int_Tables_number   1
_chemical_formula_structural   Ga5Ir3
_chemical_formula_sum   'Ga20 Ir12'
_cell_volume   523.43775711
_cell_formula_units_Z   4
loop_
 _symmetry_equiv_pos_site_id
 _symmetry_equiv_pos_as_xyz
  1  'x, y, z'
loop_
 _atom_site_type_symbol
 _atom_site_label
 _atom_site_symmetry_multiplicity
 _atom_site_fract_x
 _atom_site_fract_y
 _atom_site_fract_z
 _atom_site_occupancy
  Ga  Ga0  1  0.32783800  0.68677500  0.65334000  1
  Ga  Ga1  1  0.74151500  0.15761000  0.44274200  1
  Ga  Ga2  1  0.81686700  0.68313300  0.75000000  1
  Ga  Ga3  1  0.84239000  0.74151500  0.55725800  1
  Ga  Ga4  1  0.31322500  0.32783800  0.34666000  1
  Ga  Ga5  1  0.67216200  0.31322500  0.65334000  1
  Ga  Ga6  1  0.81322500  0.17216200  0.84666000  1
  Ga  Ga7  1  0.34239000  0.75848500  0.05725800  1
  Ga  Ga8  1  0.31686700  0.81686700  0.25000000  1
  Ga  Ga9  1  0.18313300  0.31686700  0.75000000  1
  Ga  Ga10  1  0.15761000  0.25848500  0.55725800  1
  Ga  Ga11  1  0.25848500  0.84239000  0.44274200  1
  Ga  Ga12  1  0.68313300  0.18313300  0.25000000  1
  Ga  Ga13  1  0.75848500  0.65761000  0.94274200  1
  Ga  Ga14  1  0.68677500  0.67216200  0.34666000  1
  Ga  Ga15  1  0.18677500  0.82783800  0.84666000  1
  Ga  Ga16  1  0.65761000  0.24151500  0.05725800  1
  Ga  Ga17  1  0.17216200  0.18677500  0.15334000  1
  Ga  Ga18  1  0.24151500  0.34239000  0.94274200  1
  Ga  Ga19  1  0.82783800  0.81322500  0.15334000  1
  Ir  Ir20  1  0.50000000  0.50000000  0.82397200  1
  Ir  Ir21  1  0.50000000  0.00000000  0.93950200  1
  Ir  Ir22  1  0.00000000  0.00000000  0.32397200  1
  Ir  Ir23  1  0.50000000  0.50000000  0.17602800  1
  Ir  Ir24  1  0.50000000  0.00000000  0.56049800  1
  Ir  Ir25  1  0.00000000  0.50000000  0.43950200  1
  Ir  Ir26  1  0.00000000  0.00000000  0.00000000  1
  Ir  Ir27  1  0.00000000  0.50000000  0.06049800  1
  Ir  Ir28  1  0.00000000  0.00000000  0.67602800  1
  Ir  Ir29  1  0.50000000  0.50000000  0.50000000  1
  Ir  Ir30  1  0.50000000  0.00000000  0.75000000  1
  Ir  Ir31  1  0.00000000  0.50000000  0.25000000  1
