# generated using pymatgen
data_MgH12SO10
_symmetry_space_group_name_H-M   'P 1'
_cell_length_a   6.86044401
_cell_length_b   6.86044401
_cell_length_c   27.02919228
_cell_angle_alpha   82.65363120
_cell_angle_beta   82.65363120
_cell_angle_gamma   66.87675983
_symmetry_Int_Tables_number   1
_chemical_formula_structural   MgH12SO10
_chemical_formula_sum   'Mg4 H48 S4 O40'
_cell_volume   1156.12976470
_cell_formula_units_Z   4
loop_
 _symmetry_equiv_pos_site_id
 _symmetry_equiv_pos_as_xyz
  1  'x, y, z'
loop_
 _atom_site_type_symbol
 _atom_site_label
 _atom_site_symmetry_multiplicity
 _atom_site_fract_x
 _atom_site_fract_y
 _atom_site_fract_z
 _atom_site_occupancy
  Mg  Mg0  1  0.00000000  0.00000000  0.00000000  1
  Mg  Mg1  1  0.00000000  0.00000000  0.50000000  1
  Mg  Mg2  1  0.05924400  0.94075600  0.25000000  1
  Mg  Mg3  1  0.94075600  0.05924400  0.75000000  1
  H  H4  1  0.04128000  0.16371800  0.08062200  1
  H  H5  1  0.83628200  0.95872000  0.41937800  1
  H  H6  1  0.95872000  0.83628200  0.91937800  1
  H  H7  1  0.16371800  0.04128000  0.58062200  1
  H  H8  1  0.65450000  0.32818000  0.02897300  1
  H  H9  1  0.67182000  0.34550000  0.47102700  1
  H  H10  1  0.34550000  0.67182000  0.97102700  1
  H  H11  1  0.32818000  0.65450000  0.52897300  1
  H  H12  1  0.26257200  0.59090800  0.02387400  1
  H  H13  1  0.40909200  0.73742800  0.47612600  1
  H  H14  1  0.73742800  0.40909200  0.97612600  1
  H  H15  1  0.59090800  0.26257200  0.52387400  1
  H  H16  1  0.25013300  0.97256200  0.07409200  1
  H  H17  1  0.02743800  0.74986700  0.42590800  1
  H  H18  1  0.74986700  0.02743800  0.92590800  1
  H  H19  1  0.97256200  0.25013300  0.57409200  1
  H  H20  1  0.71720500  0.92345600  0.04315100  1
  H  H21  1  0.07654400  0.28279500  0.45684900  1
  H  H22  1  0.28279500  0.07654400  0.95684900  1
  H  H23  1  0.92345600  0.71720500  0.54315100  1
  H  H24  1  0.38086100  0.55315500  0.75119900  1
  H  H25  1  0.44684500  0.61913900  0.74880100  1
  H  H26  1  0.61913900  0.44684500  0.24880100  1
  H  H27  1  0.55315500  0.38086100  0.25119900  1
  H  H28  1  0.74971400  0.88788300  0.32335900  1
  H  H29  1  0.11211700  0.25028600  0.17664100  1
  H  H30  1  0.25028600  0.11211700  0.67664100  1
  H  H31  1  0.88788300  0.74971400  0.82335900  1
  H  H32  1  0.54204500  0.32008500  0.33637200  1
  H  H33  1  0.67991500  0.45795500  0.16362800  1
  H  H34  1  0.45795500  0.67991500  0.66362800  1
  H  H35  1  0.32008500  0.54204500  0.83637200  1
  H  H36  1  0.32759900  0.65368800  0.31467900  1
  H  H37  1  0.34631200  0.67240100  0.18532100  1
  H  H38  1  0.67240100  0.34631200  0.68532100  1
  H  H39  1  0.65368800  0.32759900  0.81467900  1
  H  H40  1  0.06187500  0.32150300  0.23401200  1
  H  H41  1  0.67849700  0.93812500  0.26598800  1
  H  H42  1  0.93812500  0.67849700  0.76598800  1
  H  H43  1  0.32150300  0.06187500  0.73401200  1
  H  H44  1  0.10452200  0.72311900  0.17511400  1
  H  H45  1  0.27688100  0.89547800  0.32488600  1
  H  H46  1  0.89547800  0.27688100  0.82488600  1
  H  H47  1  0.72311900  0.10452200  0.67511400  1
  H  H48  1  0.64071200  0.69849700  0.14626400  1
  H  H49  1  0.30150300  0.35928800  0.35373600  1
  H  H50  1  0.35928800  0.30150300  0.85373600  1
  H  H51  1  0.69849700  0.64071200  0.64626400  1
  S  S52  1  0.39666400  0.24232900  0.10880600  1
  S  S53  1  0.75767100  0.60333600  0.39119400  1
  S  S54  1  0.60333600  0.75767100  0.89119400  1
  S  S55  1  0.24232900  0.39666400  0.60880600  1
  O  O56  1  0.15573600  0.32009900  0.12527800  1
  O  O57  1  0.67990100  0.84426400  0.37472200  1
  O  O58  1  0.84426400  0.67990100  0.87472200  1
  O  O59  1  0.32009900  0.15573600  0.62527800  1
  O  O60  1  0.57101800  0.59704200  0.15604600  1
  O  O61  1  0.40295800  0.42898200  0.34395400  1
  O  O62  1  0.42898200  0.40295800  0.84395400  1
  O  O63  1  0.59704200  0.57101800  0.65604600  1
  O  O64  1  0.42067300  0.38706500  0.06296900  1
  O  O65  1  0.61293500  0.57932700  0.43703100  1
  O  O66  1  0.57932700  0.61293500  0.93703100  1
  O  O67  1  0.38706500  0.42067300  0.56296900  1
  O  O68  1  0.46614500  0.01617800  0.09370900  1
  O  O69  1  0.98382200  0.53385500  0.40629100  1
  O  O70  1  0.53385500  0.98382200  0.90629100  1
  O  O71  1  0.01617800  0.46614500  0.59370900  1
  O  O72  1  0.78533900  0.29979600  0.00483700  1
  O  O73  1  0.70020400  0.21466100  0.49516300  1
  O  O74  1  0.21466100  0.70020400  0.99516300  1
  O  O75  1  0.29979600  0.78533900  0.50483700  1
  O  O76  1  0.09770800  0.02348100  0.06707700  1
  O  O77  1  0.97651900  0.90229200  0.43292300  1
  O  O78  1  0.90229200  0.97651900  0.93292300  1
  O  O79  1  0.02348100  0.09770800  0.56707700  1
  O  O80  1  0.97648500  0.24801500  0.32010900  1
  O  O81  1  0.75198500  0.02351500  0.17989100  1
  O  O82  1  0.02351500  0.75198500  0.67989100  1
  O  O83  1  0.24801500  0.97648500  0.82010900  1
  O  O84  1  0.79191600  0.92931100  0.28545500  1
  O  O85  1  0.07068900  0.20808400  0.21454500  1
  O  O86  1  0.20808400  0.07068900  0.71454500  1
  O  O87  1  0.92931100  0.79191600  0.78545500  1
  O  O88  1  0.27967400  0.80618900  0.29873400  1
  O  O89  1  0.19381100  0.72032600  0.20126600  1
  O  O90  1  0.72032600  0.19381100  0.70126600  1
  O  O91  1  0.80618900  0.27967400  0.79873400  1
  O  O92  1  0.82065300  0.84847400  0.15925500  1
  O  O93  1  0.15152600  0.17934700  0.34074500  1
  O  O94  1  0.17934700  0.15152600  0.84074500  1
  O  O95  1  0.84847400  0.82065300  0.65925500  1
