# generated using pymatgen
data_Ba(AsPd)2
_symmetry_space_group_name_H-M   'P 1'
_cell_length_a   6.23432946
_cell_length_b   6.23432946
_cell_length_c   6.23432946
_cell_angle_alpha   137.38251716
_cell_angle_beta   137.38251716
_cell_angle_gamma   61.85003065
_symmetry_Int_Tables_number   1
_chemical_formula_structural   Ba(AsPd)2
_chemical_formula_sum   'Ba1 As2 Pd2'
_cell_volume   109.79684076
_cell_formula_units_Z   1
loop_
 _symmetry_equiv_pos_site_id
 _symmetry_equiv_pos_as_xyz
  1  'x, y, z'
loop_
 _atom_site_type_symbol
 _atom_site_label
 _atom_site_symmetry_multiplicity
 _atom_site_fract_x
 _atom_site_fract_y
 _atom_site_fract_z
 _atom_site_occupancy
  Ba  Ba0  1  0.00000000  0.00000000  0.00000000  1
  As  As1  1  0.63193200  0.63193200  0.00000000  1
  As  As2  1  0.36806800  0.36806800  0.00000000  1
  Pd  Pd3  1  0.25000000  0.75000000  0.50000000  1
  Pd  Pd4  1  0.75000000  0.25000000  0.50000000  1
