# generated using pymatgen
data_H2O
_symmetry_space_group_name_H-M   'P 1'
_cell_length_a   4.80477240
_cell_length_b   4.80477240
_cell_length_c   4.80477240
_cell_angle_alpha   121.21759615
_cell_angle_beta   121.21759615
_cell_angle_gamma   87.90368979
_symmetry_Int_Tables_number   1
_chemical_formula_structural   H2O
_chemical_formula_sum   'H8 O4'
_cell_volume   76.93442106
_cell_formula_units_Z   4
loop_
 _symmetry_equiv_pos_site_id
 _symmetry_equiv_pos_as_xyz
  1  'x, y, z'
loop_
 _atom_site_type_symbol
 _atom_site_label
 _atom_site_symmetry_multiplicity
 _atom_site_fract_x
 _atom_site_fract_y
 _atom_site_fract_z
 _atom_site_occupancy
  H  H0  1  0.68111700  0.84906300  0.16794700  1
  H  H1  1  0.59906300  0.93111700  0.66794700  1
  H  H2  1  0.26317000  0.93111700  0.33205300  1
  H  H3  1  0.68111700  0.51317000  0.83205300  1
  H  H4  1  0.06888300  0.40093700  0.33205300  1
  H  H5  1  0.15093700  0.31888300  0.83205300  1
  H  H6  1  0.48683000  0.31888300  0.16794700  1
  H  H7  1  0.06888300  0.73683000  0.66794700  1
  O  O8  1  0.76649400  0.76649400  0.00000000  1
  O  O9  1  0.51649400  0.01649400  0.50000000  1
  O  O10  1  0.98350600  0.48350600  0.50000000  1
  O  O11  1  0.23350600  0.23350600  0.00000000  1
