# generated using pymatgen
data_Mo(PO3)4
_symmetry_space_group_name_H-M   'P 1'
_cell_length_a   8.48637667
_cell_length_b   8.48637667
_cell_length_c   9.60457699
_cell_angle_alpha   61.81791283
_cell_angle_beta   61.81791283
_cell_angle_gamma   51.77740236
_symmetry_Int_Tables_number   1
_chemical_formula_structural   Mo(PO3)4
_chemical_formula_sum   'Mo2 P8 O24'
_cell_volume   462.51565357
_cell_formula_units_Z   2
loop_
 _symmetry_equiv_pos_site_id
 _symmetry_equiv_pos_as_xyz
  1  'x, y, z'
loop_
 _atom_site_type_symbol
 _atom_site_label
 _atom_site_symmetry_multiplicity
 _atom_site_fract_x
 _atom_site_fract_y
 _atom_site_fract_z
 _atom_site_occupancy
  Mo  Mo0  1  0.85630200  0.14369800  0.25000000  1
  Mo  Mo1  1  0.14369800  0.85630200  0.75000000  1
  P  P2  1  0.43921500  0.30578800  0.13115500  1
  P  P3  1  0.96978300  0.31168400  0.82725500  1
  P  P4  1  0.56078500  0.69421200  0.86884500  1
  P  P5  1  0.69421200  0.56078500  0.36884500  1
  P  P6  1  0.68831600  0.03021700  0.67274500  1
  P  P7  1  0.03021700  0.68831600  0.17274500  1
  P  P8  1  0.30578800  0.43921500  0.63115500  1
  P  P9  1  0.31168400  0.96978300  0.32725500  1
  O  O10  1  0.51774400  0.76669700  0.27807600  1
  O  O11  1  0.14221200  0.36506500  0.69493900  1
  O  O12  1  0.00170300  0.13857800  0.79035100  1
  O  O13  1  0.79242000  0.40151200  0.27608800  1
  O  O14  1  0.85778800  0.63493500  0.30506100  1
  O  O15  1  0.02927900  0.73280900  0.00134700  1
  O  O16  1  0.73280900  0.02927900  0.50134700  1
  O  O17  1  0.59848800  0.20758000  0.22391200  1
  O  O18  1  0.13857800  0.00170300  0.29035100  1
  O  O19  1  0.76669700  0.51774400  0.77807600  1
  O  O20  1  0.20758000  0.59848800  0.72391200  1
  O  O21  1  0.49231100  0.36660900  0.95176100  1
  O  O22  1  0.23330300  0.48225600  0.22192400  1
  O  O23  1  0.50768900  0.63339100  0.04823900  1
  O  O24  1  0.99829700  0.86142200  0.20964900  1
  O  O25  1  0.26719100  0.97072100  0.49865300  1
  O  O26  1  0.63493500  0.85778800  0.80506100  1
  O  O27  1  0.48225600  0.23330300  0.72192400  1
  O  O28  1  0.63339100  0.50768900  0.54823900  1
  O  O29  1  0.86142200  0.99829700  0.70964900  1
  O  O30  1  0.40151200  0.79242000  0.77608800  1
  O  O31  1  0.97072100  0.26719100  0.99865300  1
  O  O32  1  0.36660900  0.49231100  0.45176100  1
  O  O33  1  0.36506500  0.14221200  0.19493900  1
