# generated using pymatgen
data_Na5YbH4(C2O7)2
_symmetry_space_group_name_H-M   'P 1'
_cell_length_a   7.78099300
_cell_length_b   7.78099300
_cell_length_c   11.58244600
_cell_angle_alpha   90.00000000
_cell_angle_beta   90.00000000
_cell_angle_gamma   90.00000000
_symmetry_Int_Tables_number   1
_chemical_formula_structural   Na5YbH4(C2O7)2
_chemical_formula_sum   'Na10 Yb2 H8 C8 O28'
_cell_volume   701.24589719
_cell_formula_units_Z   2
loop_
 _symmetry_equiv_pos_site_id
 _symmetry_equiv_pos_as_xyz
  1  'x, y, z'
loop_
 _atom_site_type_symbol
 _atom_site_label
 _atom_site_symmetry_multiplicity
 _atom_site_fract_x
 _atom_site_fract_y
 _atom_site_fract_z
 _atom_site_occupancy
  Na  Na0  1  0.00000000  0.00000000  0.50000000  1
  Na  Na1  1  0.50000000  0.50000000  0.00000000  1
  Na  Na2  1  0.67989600  0.82264500  0.70697500  1
  Na  Na3  1  0.17989600  0.67735500  0.79302500  1
  Na  Na4  1  0.32010400  0.17735500  0.70697500  1
  Na  Na5  1  0.82010400  0.32264500  0.79302500  1
  Na  Na6  1  0.82264500  0.32010400  0.29302500  1
  Na  Na7  1  0.67735500  0.82010400  0.20697500  1
  Na  Na8  1  0.17735500  0.67989600  0.29302500  1
  Na  Na9  1  0.32264500  0.17989600  0.20697500  1
  Yb  Yb10  1  0.50000000  0.50000000  0.50000000  1
  Yb  Yb11  1  0.00000000  0.00000000  0.00000000  1
  H  H12  1  0.92253300  0.56603400  0.61489200  1
  H  H13  1  0.42253300  0.93396600  0.88510800  1
  H  H14  1  0.07746700  0.43396600  0.61489200  1
  H  H15  1  0.57746700  0.06603400  0.88510800  1
  H  H16  1  0.56603400  0.07746700  0.38510800  1
  H  H17  1  0.93396600  0.57746700  0.11489200  1
  H  H18  1  0.43396600  0.92253300  0.38510800  1
  H  H19  1  0.06603400  0.42253300  0.11489200  1
  C  C20  1  0.78848700  0.68281800  0.42073300  1
  C  C21  1  0.28848700  0.81718200  0.07926700  1
  C  C22  1  0.21151300  0.31718200  0.42073300  1
  C  C23  1  0.71151300  0.18281800  0.07926700  1
  C  C24  1  0.68281800  0.21151300  0.57926700  1
  C  C25  1  0.81718200  0.71151300  0.92073300  1
  C  C26  1  0.31718200  0.78848700  0.57926700  1
  C  C27  1  0.18281800  0.28848700  0.92073300  1
  O  O28  1  0.68728100  0.59734100  0.35201100  1
  O  O29  1  0.18728100  0.90265900  0.14798900  1
  O  O30  1  0.31271900  0.40265900  0.35201100  1
  O  O31  1  0.81271900  0.09734100  0.14798900  1
  O  O32  1  0.59734100  0.31271900  0.64798900  1
  O  O33  1  0.90265900  0.81271900  0.85201100  1
  O  O34  1  0.40265900  0.68728100  0.64798900  1
  O  O35  1  0.09734100  0.18728100  0.85201100  1
  O  O36  1  0.75983300  0.67098000  0.53172100  1
  O  O37  1  0.25983300  0.82902000  0.96827900  1
  O  O38  1  0.24016700  0.32902000  0.53172100  1
  O  O39  1  0.74016700  0.17098000  0.96827900  1
  O  O40  1  0.67098000  0.24016700  0.46827900  1
  O  O41  1  0.82902000  0.74016700  0.03172100  1
  O  O42  1  0.32902000  0.75983300  0.46827900  1
  O  O43  1  0.17098000  0.25983300  0.03172100  1
  O  O44  1  0.90984900  0.77585500  0.37977300  1
  O  O45  1  0.40984900  0.72414500  0.12022700  1
  O  O46  1  0.09015100  0.22414500  0.37977300  1
  O  O47  1  0.59015100  0.27585500  0.12022700  1
  O  O48  1  0.77585500  0.09015100  0.62022700  1
  O  O49  1  0.72414500  0.59015100  0.87977300  1
  O  O50  1  0.22414500  0.90984900  0.62022700  1
  O  O51  1  0.27585500  0.40984900  0.87977300  1
  O  O52  1  0.00000000  0.50000000  0.66652500  1
  O  O53  1  0.50000000  0.00000000  0.83347500  1
  O  O54  1  0.50000000  0.00000000  0.33347500  1
  O  O55  1  0.00000000  0.50000000  0.16652500  1
