# generated using pymatgen
data_H6SN2
_symmetry_space_group_name_H-M   'P 1'
_cell_length_a   7.01144886
_cell_length_b   8.45580800
_cell_length_c   13.93474556
_cell_angle_alpha   90.00000000
_cell_angle_beta   108.68884362
_cell_angle_gamma   90.00000000
_symmetry_Int_Tables_number   1
_chemical_formula_structural   H6SN2
_chemical_formula_sum   'H48 S8 N16'
_cell_volume   782.59477265
_cell_formula_units_Z   8
loop_
 _symmetry_equiv_pos_site_id
 _symmetry_equiv_pos_as_xyz
  1  'x, y, z'
loop_
 _atom_site_type_symbol
 _atom_site_label
 _atom_site_symmetry_multiplicity
 _atom_site_fract_x
 _atom_site_fract_y
 _atom_site_fract_z
 _atom_site_occupancy
  H  H0  1  0.70993200  0.20684200  0.47211700  1
  H  H1  1  0.83088000  0.90172400  0.68469700  1
  H  H2  1  0.27356100  0.35400800  0.59576000  1
  H  H3  1  0.65195000  0.14506400  0.64339600  1
  H  H4  1  0.96731400  0.40876800  0.15966400  1
  H  H5  1  0.16680100  0.35120400  0.03408600  1
  H  H6  1  0.05997700  0.10320500  0.18785500  1
  H  H7  1  0.46160900  0.55083700  0.68278200  1
  H  H8  1  0.03268600  0.59123200  0.84033600  1
  H  H9  1  0.53839100  0.44916300  0.31721800  1
  H  H10  1  0.83319900  0.64879600  0.96591400  1
  H  H11  1  0.83319900  0.85120400  0.46591400  1
  H  H12  1  0.50841600  0.91855000  0.55971400  1
  H  H13  1  0.20011700  0.45845000  0.24277000  1
  H  H14  1  0.49116800  0.76137900  0.99623800  1
  H  H15  1  0.49158400  0.08145000  0.44028600  1
  H  H16  1  0.94267100  0.18572900  0.26261700  1
  H  H17  1  0.65195000  0.35493600  0.14339600  1
  H  H18  1  0.29006800  0.79315800  0.52788300  1
  H  H19  1  0.72643900  0.85400800  0.90424000  1
  H  H20  1  0.72643900  0.64599200  0.40424000  1
  H  H21  1  0.29006800  0.70684200  0.02788300  1
  H  H22  1  0.16680100  0.14879600  0.53408600  1
  H  H23  1  0.05997700  0.39679500  0.68785500  1
  H  H24  1  0.16912000  0.09827600  0.31530300  1
  H  H25  1  0.34805000  0.85493600  0.35660400  1
  H  H26  1  0.05732900  0.81427100  0.73738300  1
  H  H27  1  0.50883200  0.23862100  0.00376200  1
  H  H28  1  0.94002300  0.60320500  0.31214500  1
  H  H29  1  0.34805000  0.64506400  0.85660400  1
  H  H30  1  0.94002300  0.89679500  0.81214500  1
  H  H31  1  0.79988300  0.95845000  0.25723000  1
  H  H32  1  0.03268600  0.90876800  0.34033600  1
  H  H33  1  0.16912000  0.40172400  0.81530300  1
  H  H34  1  0.96731400  0.09123200  0.65966400  1
  H  H35  1  0.49158400  0.41855000  0.94028600  1
  H  H36  1  0.49116800  0.73862100  0.49623800  1
  H  H37  1  0.79988300  0.54155000  0.75723000  1
  H  H38  1  0.94267100  0.31427100  0.76261700  1
  H  H39  1  0.83088000  0.59827600  0.18469700  1
  H  H40  1  0.70993200  0.29315800  0.97211700  1
  H  H41  1  0.53839100  0.05083700  0.81721800  1
  H  H42  1  0.27356100  0.14599200  0.09576000  1
  H  H43  1  0.50841600  0.58145000  0.05971400  1
  H  H44  1  0.50883200  0.26137900  0.50376200  1
  H  H45  1  0.20011700  0.04155000  0.74277000  1
  H  H46  1  0.05732900  0.68572900  0.23738300  1
  H  H47  1  0.46160900  0.94916300  0.18278200  1
  S  S48  1  0.50176300  0.60459200  0.29666700  1
  S  S49  1  0.90967700  0.70417000  0.48855700  1
  S  S50  1  0.50176300  0.89540800  0.79666700  1
  S  S51  1  0.49823700  0.10459200  0.20333300  1
  S  S52  1  0.90967700  0.79583000  0.98855700  1
  S  S53  1  0.49823700  0.39540800  0.70333300  1
  S  S54  1  0.09032300  0.20417000  0.01144300  1
  S  S55  1  0.09032300  0.29583000  0.51144300  1
  N  N56  1  0.59309000  0.16486600  0.49522500  1
  N  N57  1  0.96698800  0.59213500  0.24379400  1
  N  N58  1  0.03301200  0.09213500  0.25620600  1
  N  N59  1  0.33746300  0.92982000  0.41230800  1
  N  N60  1  0.66253700  0.42982000  0.08769200  1
  N  N61  1  0.40691000  0.83513400  0.50477500  1
  N  N62  1  0.66253700  0.07018000  0.58769200  1
  N  N63  1  0.59309000  0.33513400  0.99522500  1
  N  N64  1  0.05019400  0.06132300  0.73401000  1
  N  N65  1  0.96698800  0.90786500  0.74379400  1
  N  N66  1  0.94980600  0.93867700  0.26599000  1
  N  N67  1  0.94980600  0.56132300  0.76599000  1
  N  N68  1  0.40691000  0.66486600  0.00477500  1
  N  N69  1  0.33746300  0.57018000  0.91230800  1
  N  N70  1  0.03301200  0.40786500  0.75620600  1
  N  N71  1  0.05019400  0.43867700  0.23401000  1
