# generated using pymatgen
data_H6SN2
_symmetry_space_group_name_H-M   'P 1'
_cell_length_a   7.46304007
_cell_length_b   8.08889000
_cell_length_c   13.77680079
_cell_angle_alpha   90.00000000
_cell_angle_beta   95.89667140
_cell_angle_gamma   90.00000000
_symmetry_Int_Tables_number   1
_chemical_formula_structural   H6SN2
_chemical_formula_sum   'H48 S8 N16'
_cell_volume   827.27335410
_cell_formula_units_Z   8
loop_
 _symmetry_equiv_pos_site_id
 _symmetry_equiv_pos_as_xyz
  1  'x, y, z'
loop_
 _atom_site_type_symbol
 _atom_site_label
 _atom_site_symmetry_multiplicity
 _atom_site_fract_x
 _atom_site_fract_y
 _atom_site_fract_z
 _atom_site_occupancy
  H  H0  1  0.73744300  0.20843700  0.47037200  1
  H  H1  1  0.88430600  0.80657900  0.70097000  1
  H  H2  1  0.30978700  0.30391800  0.59083200  1
  H  H3  1  0.76571500  0.05735900  0.63179000  1
  H  H4  1  0.01531100  0.41043600  0.16862700  1
  H  H5  1  0.26013400  0.43952400  0.97357300  1
  H  H6  1  0.07477700  0.12968500  0.18269100  1
  H  H7  1  0.38665600  0.55239900  0.71417400  1
  H  H8  1  0.98468900  0.58956400  0.83137300  1
  H  H9  1  0.61334400  0.44760100  0.28582600  1
  H  H10  1  0.73986600  0.56047600  0.02642700  1
  H  H11  1  0.73986600  0.93952400  0.52642700  1
  H  H12  1  0.47429600  0.88585400  0.55184900  1
  H  H13  1  0.35631300  0.38640600  0.26622300  1
  H  H14  1  0.43016500  0.75561500  0.96336700  1
  H  H15  1  0.52570400  0.11414600  0.44815100  1
  H  H16  1  0.91255100  0.14874200  0.25479600  1
  H  H17  1  0.76571500  0.44264100  0.13179000  1
  H  H18  1  0.26255700  0.79156300  0.52962800  1
  H  H19  1  0.69021300  0.80391800  0.90916800  1
  H  H20  1  0.69021300  0.69608200  0.40916800  1
  H  H21  1  0.26255700  0.70843700  0.02962800  1
  H  H22  1  0.26013400  0.06047600  0.47357300  1
  H  H23  1  0.07477700  0.37031500  0.68269100  1
  H  H24  1  0.11569400  0.19342100  0.29903000  1
  H  H25  1  0.23428500  0.94264100  0.36821000  1
  H  H26  1  0.08744900  0.85125800  0.74520400  1
  H  H27  1  0.56983500  0.24438500  0.03663300  1
  H  H28  1  0.92522300  0.62968500  0.31730900  1
  H  H29  1  0.23428500  0.55735900  0.86821000  1
  H  H30  1  0.92522300  0.87031500  0.81730900  1
  H  H31  1  0.64368700  0.88640600  0.23377700  1
  H  H32  1  0.98468900  0.91043600  0.33137300  1
  H  H33  1  0.11569400  0.30657900  0.79903000  1
  H  H34  1  0.01531100  0.08956400  0.66862700  1
  H  H35  1  0.52570400  0.38585400  0.94815100  1
  H  H36  1  0.43016500  0.74438500  0.46336700  1
  H  H37  1  0.64368700  0.61359400  0.73377700  1
  H  H38  1  0.91255100  0.35125800  0.75479600  1
  H  H39  1  0.88430600  0.69342100  0.20097000  1
  H  H40  1  0.73744300  0.29156300  0.97037200  1
  H  H41  1  0.61334400  0.05239900  0.78582600  1
  H  H42  1  0.30978700  0.19608200  0.09083200  1
  H  H43  1  0.47429600  0.61414600  0.05184900  1
  H  H44  1  0.56983500  0.25561500  0.53663300  1
  H  H45  1  0.35631300  0.11359400  0.76622300  1
  H  H46  1  0.08744900  0.64874200  0.24520400  1
  H  H47  1  0.38665600  0.94760100  0.21417400  1
  S  S48  1  0.46524800  0.47050000  0.33378600  1
  S  S49  1  0.85581400  0.72505500  0.45474500  1
  S  S50  1  0.46524800  0.02950000  0.83378600  1
  S  S51  1  0.53475200  0.97050000  0.16621400  1
  S  S52  1  0.85581400  0.77494500  0.95474500  1
  S  S53  1  0.53475200  0.52950000  0.66621400  1
  S  S54  1  0.14418600  0.22505500  0.04525500  1
  S  S55  1  0.14418600  0.27494500  0.54525500  1
  N  N56  1  0.62823000  0.16106800  0.50122000  1
  N  N57  1  0.95648900  0.60693400  0.24483800  1
  N  N58  1  0.04351100  0.10693400  0.25516200  1
  N  N59  1  0.33147400  0.97779300  0.43313100  1
  N  N60  1  0.66852600  0.47779300  0.06686900  1
  N  N61  1  0.37177000  0.83893200  0.49878000  1
  N  N62  1  0.66852600  0.02220700  0.56686900  1
  N  N63  1  0.62823000  0.33893200  0.00122000  1
  N  N64  1  0.92391300  0.06468900  0.71839800  1
  N  N65  1  0.95648900  0.89306600  0.74483800  1
  N  N66  1  0.07608700  0.93531100  0.28160200  1
  N  N67  1  0.07608700  0.56468900  0.78160200  1
  N  N68  1  0.37177000  0.66106800  0.99878000  1
  N  N69  1  0.33147400  0.52220700  0.93313100  1
  N  N70  1  0.04351100  0.39306600  0.75516200  1
  N  N71  1  0.92391300  0.43531100  0.21839800  1
