# generated using pymatgen
data_SrUO4
_symmetry_space_group_name_H-M   'P 1'
_cell_length_a   4.18113829
_cell_length_b   4.18113829
_cell_length_c   6.30308581
_cell_angle_alpha   60.64045875
_cell_angle_beta   60.64045875
_cell_angle_gamma   56.33022447
_symmetry_Int_Tables_number   1
_chemical_formula_structural   SrUO4
_chemical_formula_sum   'Sr1 U1 O4'
_cell_volume   76.21519090
_cell_formula_units_Z   1
loop_
 _symmetry_equiv_pos_site_id
 _symmetry_equiv_pos_as_xyz
  1  'x, y, z'
loop_
 _atom_site_type_symbol
 _atom_site_label
 _atom_site_symmetry_multiplicity
 _atom_site_fract_x
 _atom_site_fract_y
 _atom_site_fract_z
 _atom_site_occupancy
  Sr  Sr0  1  0.50000000  0.50000000  0.50000000  1
  U  U1  1  0.00000000  0.00000000  0.00000000  1
  O  O2  1  0.11912400  0.11912400  0.64185500  1
  O  O3  1  0.88087600  0.88087600  0.35814500  1
  O  O4  1  0.66286700  0.66286700  0.99561400  1
  O  O5  1  0.33713300  0.33713300  0.00438600  1
