# generated using pymatgen
data_SnHC2O3
_symmetry_space_group_name_H-M   'P 1'
_cell_length_a   7.63613161
_cell_length_b   7.63613161
_cell_length_c   8.46291473
_cell_angle_alpha   63.02050577
_cell_angle_beta   63.02050577
_cell_angle_gamma   62.83430207
_symmetry_Int_Tables_number   1
_chemical_formula_structural   SnHC2O3
_chemical_formula_sum   'Sn4 H4 C8 O12'
_cell_volume   371.86382957
_cell_formula_units_Z   4
loop_
 _symmetry_equiv_pos_site_id
 _symmetry_equiv_pos_as_xyz
  1  'x, y, z'
loop_
 _atom_site_type_symbol
 _atom_site_label
 _atom_site_symmetry_multiplicity
 _atom_site_fract_x
 _atom_site_fract_y
 _atom_site_fract_z
 _atom_site_occupancy
  Sn  Sn0  1  0.19615300  0.19615300  0.15479900  1
  Sn  Sn1  1  0.80384700  0.80384700  0.84520100  1
  Sn  Sn2  1  0.29004900  0.70995100  0.00000000  1
  Sn  Sn3  1  0.70995100  0.29004900  0.00000000  1
  H  H4  1  0.01096500  0.21856700  0.53954900  1
  H  H5  1  0.21856700  0.01096500  0.53954900  1
  H  H6  1  0.98903500  0.78143300  0.46045100  1
  H  H7  1  0.78143300  0.98903500  0.46045100  1
  C  C8  1  0.77572900  0.59169400  0.32185000  1
  C  C9  1  0.59169400  0.77572900  0.32185000  1
  C  C10  1  0.22427100  0.40830600  0.67815000  1
  C  C11  1  0.40830600  0.22427100  0.67815000  1
  C  C12  1  0.71010400  0.52493100  0.52732100  1
  C  C13  1  0.52493100  0.71010400  0.52732100  1
  C  C14  1  0.28989600  0.47506900  0.47267900  1
  C  C15  1  0.47506900  0.28989600  0.47267900  1
  O  O16  1  0.92598900  0.52655800  0.19231200  1
  O  O17  1  0.52655800  0.92598900  0.19231200  1
  O  O18  1  0.07401100  0.47344200  0.80768800  1
  O  O19  1  0.47344200  0.07401100  0.80768800  1
  O  O20  1  0.78468500  0.36932800  0.64886100  1
  O  O21  1  0.36932800  0.78468500  0.64886100  1
  O  O22  1  0.21531500  0.63067200  0.35113900  1
  O  O23  1  0.63067200  0.21531500  0.35113900  1
  O  O24  1  0.15064900  0.15064900  0.46151800  1
  O  O25  1  0.84935100  0.84935100  0.53848200  1
  O  O26  1  0.38349700  0.38349700  0.04726600  1
  O  O27  1  0.61650300  0.61650300  0.95273400  1
