# generated using pymatgen
data_NaSi2(HO2)3
_symmetry_space_group_name_H-M   'P 1'
_cell_length_a   12.26155699
_cell_length_b   9.83395507
_cell_length_c   8.92342880
_cell_angle_alpha   81.48443462
_cell_angle_beta   52.48307883
_cell_angle_gamma   46.03248655
_symmetry_Int_Tables_number   1
_chemical_formula_structural   NaSi2(HO2)3
_chemical_formula_sum   'Na4 Si8 H12 O24'
_cell_volume   538.45099217
_cell_formula_units_Z   4
loop_
 _symmetry_equiv_pos_site_id
 _symmetry_equiv_pos_as_xyz
  1  'x, y, z'
loop_
 _atom_site_type_symbol
 _atom_site_label
 _atom_site_symmetry_multiplicity
 _atom_site_fract_x
 _atom_site_fract_y
 _atom_site_fract_z
 _atom_site_occupancy
  Na  Na0  1  0.26505000  0.76119700  0.51393600  1
  Na  Na1  1  0.45981700  0.51393600  0.76119700  1
  Na  Na2  1  0.73606400  0.79018300  0.98495000  1
  Na  Na3  1  0.48880300  0.98495000  0.79018300  1
  Si  Si4  1  0.75029300  0.29768400  0.95359300  1
  Si  Si5  1  0.99842900  0.95359300  0.29768400  1
  Si  Si6  1  0.29640700  0.25157100  0.49970700  1
  Si  Si7  1  0.95231600  0.49970700  0.25157100  1
  Si  Si8  1  0.01169500  0.30424000  0.93675300  1
  Si  Si9  1  0.74731200  0.93675300  0.30424000  1
  Si  Si10  1  0.31324700  0.50268800  0.23830500  1
  Si  Si11  1  0.94576000  0.23830500  0.50268800  1
  H  H12  1  0.40476900  0.86902300  0.12581700  1
  H  H13  1  0.60039100  0.12581700  0.86902300  1
  H  H14  1  0.12418300  0.64960900  0.84523100  1
  H  H15  1  0.38097700  0.84523100  0.64960900  1
  H  H16  1  0.60620600  0.65376700  0.90311900  1
  H  H17  1  0.83690800  0.90311900  0.65376700  1
  H  H18  1  0.34688100  0.41309200  0.64379400  1
  H  H19  1  0.59623300  0.64379400  0.41309200  1
  H  H20  1  0.29568200  0.05613600  0.37717100  1
  H  H21  1  0.27101100  0.37717100  0.05613600  1
  H  H22  1  0.87282900  0.97898900  0.95431800  1
  H  H23  1  0.19386400  0.95431800  0.97898900  1
  O  O24  1  0.82624600  0.34711600  0.01184500  1
  O  O25  1  0.81479300  0.01184500  0.34711600  1
  O  O26  1  0.23815500  0.43520700  0.42375400  1
  O  O27  1  0.90288400  0.42375400  0.43520700  1
  O  O28  1  0.06950200  0.38180000  0.75078500  1
  O  O29  1  0.79791300  0.75078500  0.38180000  1
  O  O30  1  0.49921500  0.45208700  0.18049800  1
  O  O31  1  0.86820000  0.18049800  0.45208700  1
  O  O32  1  0.54333800  0.78751600  0.97274600  1
  O  O33  1  0.69640000  0.97274600  0.78751600  1
  O  O34  1  0.27725400  0.55360000  0.70666200  1
  O  O35  1  0.46248400  0.70666200  0.55360000  1
  O  O36  1  0.18275100  0.02929500  0.39923400  1
  O  O37  1  0.38872000  0.39923400  0.02929500  1
  O  O38  1  0.85076600  0.86128000  0.06724900  1
  O  O39  1  0.22070500  0.06724900  0.86128000  1
  O  O40  1  0.39341300  0.05623300  0.34460100  1
  O  O41  1  0.20575300  0.34460100  0.05623300  1
  O  O42  1  0.90539900  0.04424700  0.85658700  1
  O  O43  1  0.19376700  0.85658700  0.04424700  1
  O  O44  1  0.75608600  0.37414800  0.77293700  1
  O  O45  1  0.09682800  0.77293700  0.37414800  1
  O  O46  1  0.47706300  0.15317200  0.49391400  1
  O  O47  1  0.87585200  0.49391400  0.15317200  1
