# generated using pymatgen
data_Eu6Mg7H26
_symmetry_space_group_name_H-M   'P 1'
_cell_length_a   9.31412465
_cell_length_b   9.31412465
_cell_length_c   11.35541384
_cell_angle_alpha   53.89841334
_cell_angle_beta   53.89841334
_cell_angle_gamma   34.56647690
_symmetry_Int_Tables_number   1
_chemical_formula_structural   Eu6Mg7H26
_chemical_formula_sum   'Eu6 Mg7 H26'
_cell_volume   439.81144964
_cell_formula_units_Z   1
loop_
 _symmetry_equiv_pos_site_id
 _symmetry_equiv_pos_as_xyz
  1  'x, y, z'
loop_
 _atom_site_type_symbol
 _atom_site_label
 _atom_site_symmetry_multiplicity
 _atom_site_fract_x
 _atom_site_fract_y
 _atom_site_fract_z
 _atom_site_occupancy
  Eu  Eu0  1  0.64649800  0.64649800  0.08919300  1
  Eu  Eu1  1  0.35350200  0.35350200  0.91080700  1
  Eu  Eu2  1  0.34019200  0.34019200  0.40264000  1
  Eu  Eu3  1  0.65980800  0.65980800  0.59736000  1
  Eu  Eu4  1  0.14816100  0.14816100  0.34654000  1
  Eu  Eu5  1  0.85183900  0.85183900  0.65346000  1
  Mg  Mg6  1  0.77740600  0.77740600  0.21175300  1
  Mg  Mg7  1  0.22259400  0.22259400  0.78824700  1
  Mg  Mg8  1  0.01596300  0.01596300  0.72029600  1
  Mg  Mg9  1  0.98403700  0.98403700  0.27970400  1
  Mg  Mg10  1  0.74444000  0.25556000  0.00000000  1
  Mg  Mg11  1  0.25556000  0.74444000  0.00000000  1
  Mg  Mg12  1  0.50000000  0.50000000  0.50000000  1
  H  H13  1  0.50603700  0.99795800  0.12048900  1
  H  H14  1  0.00204200  0.49396300  0.87951100  1
  H  H15  1  0.49396300  0.00204200  0.87951100  1
  H  H16  1  0.99795800  0.50603700  0.12048900  1
  H  H17  1  0.01360000  0.49196900  0.64019300  1
  H  H18  1  0.50803100  0.98640000  0.35980700  1
  H  H19  1  0.98640000  0.50803100  0.35980700  1
  H  H20  1  0.49196900  0.01360000  0.64019300  1
  H  H21  1  0.79156200  0.27958900  0.57353700  1
  H  H22  1  0.72041100  0.20843800  0.42646300  1
  H  H23  1  0.20843800  0.72041100  0.42646300  1
  H  H24  1  0.27958900  0.79156200  0.57353700  1
  H  H25  1  0.72875600  0.29407400  0.81990300  1
  H  H26  1  0.70592600  0.27124400  0.18009700  1
  H  H27  1  0.27124400  0.70592600  0.18009700  1
  H  H28  1  0.29407400  0.72875600  0.81990300  1
  H  H29  1  0.88232700  0.88232700  0.82942600  1
  H  H30  1  0.11767300  0.11767300  0.17057400  1
  H  H31  1  0.15404600  0.15404600  0.58145900  1
  H  H32  1  0.84595400  0.84595400  0.41854100  1
  H  H33  1  0.40265900  0.40265900  0.08256000  1
  H  H34  1  0.59734100  0.59734100  0.91744000  1
  H  H35  1  0.91148100  0.91148100  0.07113500  1
  H  H36  1  0.08851900  0.08851900  0.92886500  1
  H  H37  1  0.62794100  0.62794100  0.32128400  1
  H  H38  1  0.37205900  0.37205900  0.67871600  1
