# generated using pymatgen
data_H4N2O3
_symmetry_space_group_name_H-M   'P 1'
_cell_length_a   7.20407100
_cell_length_b   7.90217200
_cell_length_c   8.00268400
_cell_angle_alpha   90.00000000
_cell_angle_beta   90.00000000
_cell_angle_gamma   90.00000000
_symmetry_Int_Tables_number   1
_chemical_formula_structural   H4N2O3
_chemical_formula_sum   'H16 N8 O12'
_cell_volume   455.57525937
_cell_formula_units_Z   4
loop_
 _symmetry_equiv_pos_site_id
 _symmetry_equiv_pos_as_xyz
  1  'x, y, z'
loop_
 _atom_site_type_symbol
 _atom_site_label
 _atom_site_symmetry_multiplicity
 _atom_site_fract_x
 _atom_site_fract_y
 _atom_site_fract_z
 _atom_site_occupancy
  H  H0  1  0.83301100  0.53609200  0.67374400  1
  H  H1  1  0.66698900  0.03609200  0.67374400  1
  H  H2  1  0.16698900  0.46390800  0.17374400  1
  H  H3  1  0.33301100  0.96390800  0.17374400  1
  H  H4  1  0.73541900  0.38140700  0.15492900  1
  H  H5  1  0.99642600  0.60000100  0.45372600  1
  H  H6  1  0.82982100  0.72586200  0.46488200  1
  H  H7  1  0.26458100  0.61859300  0.65492900  1
  H  H8  1  0.00357400  0.39999900  0.95372600  1
  H  H9  1  0.17017900  0.27413800  0.96488200  1
  H  H10  1  0.49642600  0.89999900  0.95372600  1
  H  H11  1  0.32982100  0.77413800  0.96488200  1
  H  H12  1  0.23541900  0.11859300  0.65492900  1
  H  H13  1  0.50357400  0.10000100  0.45372600  1
  H  H14  1  0.67017900  0.22586200  0.46488200  1
  H  H15  1  0.76458100  0.88140700  0.15492900  1
  N  N16  1  0.23813000  0.14524200  0.78284100  1
  N  N17  1  0.26187000  0.64524200  0.78284100  1
  N  N18  1  0.76187000  0.85475800  0.28284100  1
  N  N19  1  0.73813000  0.35475800  0.28284100  1
  N  N20  1  0.61895300  0.44164700  0.79244600  1
  N  N21  1  0.88104700  0.94164700  0.79244600  1
  N  N22  1  0.38104700  0.55835300  0.29244600  1
  N  N23  1  0.11895300  0.05835300  0.29244600  1
  O  O24  1  0.81039000  0.46369100  0.78059800  1
  O  O25  1  0.68961000  0.96369100  0.78059800  1
  O  O26  1  0.18961000  0.53630900  0.28059800  1
  O  O27  1  0.31039000  0.03630900  0.28059800  1
  O  O28  1  0.57680400  0.36400800  0.91629000  1
  O  O29  1  0.90540000  0.64661200  0.53240300  1
  O  O30  1  0.42319600  0.63599200  0.41629000  1
  O  O31  1  0.09460000  0.35338800  0.03240300  1
  O  O32  1  0.40540000  0.85338800  0.03240300  1
  O  O33  1  0.07680400  0.13599200  0.41629000  1
  O  O34  1  0.59460000  0.14661200  0.53240300  1
  O  O35  1  0.92319600  0.86400800  0.91629000  1
