# generated using pymatgen
data_CuH12N2(OF2)2
_symmetry_space_group_name_H-M   'P 1'
_cell_length_a   7.13983295
_cell_length_b   7.13983295
_cell_length_c   7.33736375
_cell_angle_alpha   75.04659989
_cell_angle_beta   75.04659989
_cell_angle_gamma   80.69991227
_symmetry_Int_Tables_number   1
_chemical_formula_structural   CuH12N2(OF2)2
_chemical_formula_sum   'Cu2 H24 N4 O4 F8'
_cell_volume   347.32056587
_cell_formula_units_Z   2
loop_
 _symmetry_equiv_pos_site_id
 _symmetry_equiv_pos_as_xyz
  1  'x, y, z'
loop_
 _atom_site_type_symbol
 _atom_site_label
 _atom_site_symmetry_multiplicity
 _atom_site_fract_x
 _atom_site_fract_y
 _atom_site_fract_z
 _atom_site_occupancy
  Cu  Cu0  1  0.80032600  0.19967400  0.75000000  1
  Cu  Cu1  1  0.19967400  0.80032600  0.25000000  1
  H  H2  1  0.36716500  0.15369600  0.41793900  1
  H  H3  1  0.84630400  0.63283500  0.08206100  1
  H  H4  1  0.63283500  0.84630400  0.58206100  1
  H  H5  1  0.15369600  0.36716500  0.91793900  1
  H  H6  1  0.46369200  0.19544800  0.59086000  1
  H  H7  1  0.80455200  0.53630800  0.90914000  1
  H  H8  1  0.53630800  0.80455200  0.40914000  1
  H  H9  1  0.19544800  0.46369200  0.09086000  1
  H  H10  1  0.22415500  0.26413300  0.59953400  1
  H  H11  1  0.73586700  0.77584500  0.90046600  1
  H  H12  1  0.77584500  0.73586700  0.40046600  1
  H  H13  1  0.26413300  0.22415500  0.09953400  1
  H  H14  1  0.39062600  0.38611800  0.41850600  1
  H  H15  1  0.61388200  0.60937400  0.08149400  1
  H  H16  1  0.60937400  0.61388200  0.58149400  1
  H  H17  1  0.38611800  0.39062600  0.91850600  1
  H  H18  1  0.91398500  0.16470100  0.39359400  1
  H  H19  1  0.83529900  0.08601500  0.10640600  1
  H  H20  1  0.08601500  0.83529900  0.60640600  1
  H  H21  1  0.16470100  0.91398500  0.89359400  1
  H  H22  1  0.90380600  0.39677100  0.38872200  1
  H  H23  1  0.60322900  0.09619400  0.11127800  1
  H  H24  1  0.09619400  0.60322900  0.61127800  1
  H  H25  1  0.39677100  0.90380600  0.88872200  1
  N  N26  1  0.36058400  0.24904500  0.50845400  1
  N  N27  1  0.75095500  0.63941600  0.99154600  1
  N  N28  1  0.63941600  0.75095500  0.49154600  1
  N  N29  1  0.24904500  0.36058400  0.00845400  1
  O  O30  1  0.85276800  0.26833500  0.46597200  1
  O  O31  1  0.73166500  0.14723200  0.03402800  1
  O  O32  1  0.14723200  0.73166500  0.53402800  1
  O  O33  1  0.26833500  0.85276800  0.96597200  1
  F  F34  1  0.58844300  0.41155700  0.75000000  1
  F  F35  1  0.41155700  0.58844300  0.25000000  1
  F  F36  1  0.01243300  0.98756700  0.75000000  1
  F  F37  1  0.98756700  0.01243300  0.25000000  1
  F  F38  1  0.03293300  0.41058200  0.75050900  1
  F  F39  1  0.58941800  0.96706700  0.74949100  1
  F  F40  1  0.96706700  0.58941800  0.24949100  1
  F  F41  1  0.41058200  0.03293300  0.25050900  1
