# generated using pymatgen
data_LaMg2NiH7
_symmetry_space_group_name_H-M   'P 1'
_cell_length_a   4.67481600
_cell_length_b   13.96806600
_cell_length_c   16.01520274
_cell_angle_alpha   54.58983630
_cell_angle_beta   90.00000000
_cell_angle_gamma   90.00000000
_symmetry_Int_Tables_number   1
_chemical_formula_structural   LaMg2NiH7
_chemical_formula_sum   'La8 Mg16 Ni8 H56'
_cell_volume   852.32295356
_cell_formula_units_Z   8
loop_
 _symmetry_equiv_pos_site_id
 _symmetry_equiv_pos_as_xyz
  1  'x, y, z'
loop_
 _atom_site_type_symbol
 _atom_site_label
 _atom_site_symmetry_multiplicity
 _atom_site_fract_x
 _atom_site_fract_y
 _atom_site_fract_z
 _atom_site_occupancy
  La  La0  1  0.76748900  0.78034800  0.50700100  1
  La  La1  1  0.26748900  0.21965200  0.99299900  1
  La  La2  1  0.23251100  0.21965200  0.49299900  1
  La  La3  1  0.73251100  0.78034800  0.00700100  1
  La  La4  1  0.75874900  0.71910100  0.78797700  1
  La  La5  1  0.25874900  0.28089900  0.71202300  1
  La  La6  1  0.24125100  0.28089900  0.21202300  1
  La  La7  1  0.74125100  0.71910100  0.28797700  1
  Mg  Mg8  1  0.25876900  0.90657100  0.59037300  1
  Mg  Mg9  1  0.75876900  0.09342900  0.90962700  1
  Mg  Mg10  1  0.74123100  0.09342900  0.40962700  1
  Mg  Mg11  1  0.24123100  0.90657100  0.09037300  1
  Mg  Mg12  1  0.25307800  0.89987500  0.78842400  1
  Mg  Mg13  1  0.75307800  0.10012500  0.71157600  1
  Mg  Mg14  1  0.74692200  0.10012500  0.21157600  1
  Mg  Mg15  1  0.24692200  0.89987500  0.28842400  1
  Mg  Mg16  1  0.23622800  0.59287600  0.49893700  1
  Mg  Mg17  1  0.73622800  0.40712400  0.00106300  1
  Mg  Mg18  1  0.76377200  0.40712400  0.50106300  1
  Mg  Mg19  1  0.26377200  0.59287600  0.99893700  1
  Mg  Mg20  1  0.26063100  0.59954100  0.69104900  1
  Mg  Mg21  1  0.76063100  0.40045900  0.80895100  1
  Mg  Mg22  1  0.73936900  0.40045900  0.30895100  1
  Mg  Mg23  1  0.23936900  0.59954100  0.19104900  1
  Ni  Ni24  1  0.77810900  0.99536000  0.61363500  1
  Ni  Ni25  1  0.27810900  0.00464000  0.88636500  1
  Ni  Ni26  1  0.22189100  0.00464000  0.38636500  1
  Ni  Ni27  1  0.72189100  0.99536000  0.11363500  1
  Ni  Ni28  1  0.72486300  0.50480900  0.60842800  1
  Ni  Ni29  1  0.22486300  0.49519100  0.89157200  1
  Ni  Ni30  1  0.27513700  0.49519100  0.39157200  1
  Ni  Ni31  1  0.77513700  0.50480900  0.10842800  1
  H  H32  1  0.72620900  0.89450300  0.59838800  1
  H  H33  1  0.22620900  0.10549700  0.90161200  1
  H  H34  1  0.27379100  0.10549700  0.40161200  1
  H  H35  1  0.77379100  0.89450300  0.09838800  1
  H  H36  1  0.69724100  0.12223000  0.51823900  1
  H  H37  1  0.19724100  0.87777000  0.98176100  1
  H  H38  1  0.30275900  0.87777000  0.48176100  1
  H  H39  1  0.80275900  0.12223000  0.01823900  1
  H  H40  1  0.09944900  0.01497200  0.63198000  1
  H  H41  1  0.59944900  0.98502800  0.86802000  1
  H  H42  1  0.90055100  0.98502800  0.36802000  1
  H  H43  1  0.40055100  0.01497200  0.13198000  1
  H  H44  1  0.63116100  0.95625100  0.71764100  1
  H  H45  1  0.13116100  0.04374900  0.78235900  1
  H  H46  1  0.36883900  0.04374900  0.28235900  1
  H  H47  1  0.86883900  0.95625100  0.21764100  1
  H  H48  1  0.72713100  0.60458800  0.48887800  1
  H  H49  1  0.22713100  0.39541200  0.01112200  1
  H  H50  1  0.27286900  0.39541200  0.51112200  1
  H  H51  1  0.77286900  0.60458800  0.98887800  1
  H  H52  1  0.78259300  0.37673000  0.64208400  1
  H  H53  1  0.28259300  0.62327000  0.85791600  1
  H  H54  1  0.21740700  0.62327000  0.35791600  1
  H  H55  1  0.71740700  0.37673000  0.14208400  1
  H  H56  1  0.40753300  0.48044900  0.65386000  1
  H  H57  1  0.90753300  0.51955100  0.84614000  1
  H  H58  1  0.59246700  0.51955100  0.34614000  1
  H  H59  1  0.09246700  0.48044900  0.15386000  1
  H  H60  1  0.86826500  0.55800200  0.66206000  1
  H  H61  1  0.36826500  0.44199800  0.83794000  1
  H  H62  1  0.13173500  0.44199800  0.33794000  1
  H  H63  1  0.63173500  0.55800200  0.16206000  1
  H  H64  1  0.26207600  0.70045000  0.53951700  1
  H  H65  1  0.76207600  0.29955000  0.96048300  1
  H  H66  1  0.73792400  0.29955000  0.46048300  1
  H  H67  1  0.23792400  0.70045000  0.03951700  1
  H  H68  1  0.01344000  0.73456800  0.65227200  1
  H  H69  1  0.51344000  0.26543200  0.84772800  1
  H  H70  1  0.98656000  0.26543200  0.34772800  1
  H  H71  1  0.48656000  0.73456800  0.15227200  1
  H  H72  1  0.26932100  0.79859700  0.73913200  1
  H  H73  1  0.76932100  0.20140300  0.76086800  1
  H  H74  1  0.73067900  0.20140300  0.26086800  1
  H  H75  1  0.23067900  0.79859700  0.23913200  1
  H  H76  1  0.49431500  0.76166200  0.88770400  1
  H  H77  1  0.99431500  0.23833800  0.61229600  1
  H  H78  1  0.50568500  0.23833800  0.11229600  1
  H  H79  1  0.00568500  0.76166200  0.38770400  1
  H  H80  1  0.53807600  0.71599400  0.65934700  1
  H  H81  1  0.03807600  0.28400600  0.84065300  1
  H  H82  1  0.46192400  0.28400600  0.34065300  1
  H  H83  1  0.96192400  0.71599400  0.15934700  1
  H  H84  1  0.96757400  0.78908800  0.87316600  1
  H  H85  1  0.46757400  0.21091200  0.62683400  1
  H  H86  1  0.03242600  0.21091200  0.12683400  1
  H  H87  1  0.53242600  0.78908800  0.37316600  1
