# generated using pymatgen
data_H5C2NO
_symmetry_space_group_name_H-M   'P 1'
_cell_length_a   8.14137860
_cell_length_b   8.14137860
_cell_length_c   8.14137847
_cell_angle_alpha   90.90621698
_cell_angle_beta   90.90621698
_cell_angle_gamma   90.90622011
_symmetry_Int_Tables_number   1
_chemical_formula_structural   H5C2NO
_chemical_formula_sum   'H30 C12 N6 O6'
_cell_volume   539.42257096
_cell_formula_units_Z   6
loop_
 _symmetry_equiv_pos_site_id
 _symmetry_equiv_pos_as_xyz
  1  'x, y, z'
loop_
 _atom_site_type_symbol
 _atom_site_label
 _atom_site_symmetry_multiplicity
 _atom_site_fract_x
 _atom_site_fract_y
 _atom_site_fract_z
 _atom_site_occupancy
  H  H0  1  0.84003000  0.18087800  0.78591300  1
  H  H1  1  0.78591300  0.84003000  0.18087800  1
  H  H2  1  0.18087800  0.78591300  0.84003000  1
  H  H3  1  0.28591300  0.68087800  0.34003000  1
  H  H4  1  0.34003000  0.28591300  0.68087800  1
  H  H5  1  0.68087800  0.34003000  0.28591300  1
  H  H6  1  0.03058700  0.11348700  0.71101700  1
  H  H7  1  0.71101700  0.03058700  0.11348700  1
  H  H8  1  0.11348700  0.71101700  0.03058700  1
  H  H9  1  0.21101700  0.61348700  0.53058700  1
  H  H10  1  0.53058700  0.21101700  0.61348700  1
  H  H11  1  0.61348700  0.53058700  0.21101700  1
  H  H12  1  0.07029600  0.31178000  0.40253700  1
  H  H13  1  0.40253700  0.07029600  0.31178000  1
  H  H14  1  0.31178000  0.40253700  0.07029600  1
  H  H15  1  0.90253700  0.81178000  0.57029600  1
  H  H16  1  0.57029600  0.90253700  0.81178000  1
  H  H17  1  0.81178000  0.57029600  0.90253700  1
  H  H18  1  0.09389600  0.09976100  0.43735500  1
  H  H19  1  0.43735500  0.09389600  0.09976100  1
  H  H20  1  0.09976100  0.43735500  0.09389600  1
  H  H21  1  0.93735500  0.59976100  0.59389600  1
  H  H22  1  0.59389600  0.93735500  0.59976100  1
  H  H23  1  0.59976100  0.59389600  0.93735500  1
  H  H24  1  0.94912800  0.16676300  0.28576000  1
  H  H25  1  0.28576000  0.94912800  0.16676300  1
  H  H26  1  0.16676300  0.28576000  0.94912800  1
  H  H27  1  0.78576000  0.66676300  0.44912800  1
  H  H28  1  0.44912800  0.78576000  0.66676300  1
  H  H29  1  0.66676300  0.44912800  0.78576000  1
  C  C30  1  0.00342800  0.19335500  0.40725900  1
  C  C31  1  0.40725900  0.00342800  0.19335500  1
  C  C32  1  0.19335500  0.40725900  0.00342800  1
  C  C33  1  0.90725900  0.69335500  0.50342800  1
  C  C34  1  0.50342800  0.90725900  0.69335500  1
  C  C35  1  0.69335500  0.50342800  0.90725900  1
  C  C36  1  0.87213000  0.20468600  0.53607100  1
  C  C37  1  0.53607100  0.87213000  0.20468600  1
  C  C38  1  0.20468600  0.53607100  0.87213000  1
  C  C39  1  0.03607100  0.70468600  0.37213000  1
  C  C40  1  0.37213000  0.03607100  0.70468600  1
  C  C41  1  0.70468600  0.37213000  0.03607100  1
  N  N42  1  0.91554800  0.15896500  0.68770300  1
  N  N43  1  0.68770300  0.91554800  0.15896500  1
  N  N44  1  0.15896500  0.68770300  0.91554800  1
  N  N45  1  0.18770300  0.65896500  0.41554800  1
  N  N46  1  0.41554800  0.18770300  0.65896500  1
  N  N47  1  0.65896500  0.41554800  0.18770300  1
  O  O48  1  0.73107500  0.25779500  0.50149800  1
  O  O49  1  0.50149800  0.73107500  0.25779500  1
  O  O50  1  0.25779500  0.50149800  0.73107500  1
  O  O51  1  0.00149800  0.75779500  0.23107500  1
  O  O52  1  0.23107500  0.00149800  0.75779500  1
  O  O53  1  0.75779500  0.23107500  0.00149800  1
