# generated using pymatgen
data_Cu2H6C3N4O
_symmetry_space_group_name_H-M   'P 1'
_cell_length_a   8.37702800
_cell_length_b   7.87102600
_cell_length_c   11.81693974
_cell_angle_alpha   86.31522910
_cell_angle_beta   90.00000000
_cell_angle_gamma   90.00000000
_symmetry_Int_Tables_number   1
_chemical_formula_structural   Cu2H6C3N4O
_chemical_formula_sum   'Cu8 H24 C12 N16 O4'
_cell_volume   777.54870801
_cell_formula_units_Z   4
loop_
 _symmetry_equiv_pos_site_id
 _symmetry_equiv_pos_as_xyz
  1  'x, y, z'
loop_
 _atom_site_type_symbol
 _atom_site_label
 _atom_site_symmetry_multiplicity
 _atom_site_fract_x
 _atom_site_fract_y
 _atom_site_fract_z
 _atom_site_occupancy
  Cu  Cu0  1  0.60645800  0.86969800  0.06823500  1
  Cu  Cu1  1  0.10645800  0.63030200  0.93176500  1
  Cu  Cu2  1  0.39354200  0.13030200  0.93176500  1
  Cu  Cu3  1  0.89354200  0.36969800  0.06823500  1
  Cu  Cu4  1  0.78905500  0.17729600  0.39931700  1
  Cu  Cu5  1  0.28905500  0.32270400  0.60068300  1
  Cu  Cu6  1  0.21094500  0.82270400  0.60068300  1
  Cu  Cu7  1  0.71094500  0.67729600  0.39931700  1
  H  H8  1  0.05386700  0.10194600  0.80139100  1
  H  H9  1  0.55386700  0.39805400  0.19860900  1
  H  H10  1  0.94613300  0.89805400  0.19860900  1
  H  H11  1  0.44613300  0.60194600  0.80139100  1
  H  H12  1  0.89207200  0.14132300  0.87872900  1
  H  H13  1  0.39207200  0.35867700  0.12127100  1
  H  H14  1  0.10792800  0.85867700  0.12127100  1
  H  H15  1  0.60792800  0.64132300  0.87872900  1
  H  H16  1  0.86591700  0.04385600  0.75603300  1
  H  H17  1  0.36591700  0.45614400  0.24396700  1
  H  H18  1  0.13408300  0.95614400  0.24396700  1
  H  H19  1  0.63408300  0.54385600  0.75603300  1
  H  H20  1  0.91370600  0.25069400  0.75264900  1
  H  H21  1  0.41370600  0.24930600  0.24735100  1
  H  H22  1  0.08629400  0.74930600  0.24735100  1
  H  H23  1  0.58629400  0.75069400  0.75264900  1
  H  H24  1  0.61393700  0.02100800  0.72421400  1
  H  H25  1  0.11393700  0.47899200  0.27578600  1
  H  H26  1  0.38606300  0.97899200  0.27578600  1
  H  H27  1  0.88606300  0.52100800  0.72421400  1
  H  H28  1  0.68033900  0.96613600  0.61188400  1
  H  H29  1  0.18033900  0.53386400  0.38811600  1
  H  H30  1  0.31966100  0.03386400  0.38811600  1
  H  H31  1  0.81966100  0.46613600  0.61188400  1
  C  C32  1  0.41264500  0.76687100  0.03999900  1
  C  C33  1  0.91264500  0.73312900  0.96000100  1
  C  C34  1  0.58735500  0.23312900  0.96000100  1
  C  C35  1  0.08735500  0.26687100  0.03999900  1
  C  C36  1  0.98548100  0.23149100  0.46460600  1
  C  C37  1  0.48548100  0.26850900  0.53539400  1
  C  C38  1  0.01451900  0.76850900  0.53539400  1
  C  C39  1  0.51451900  0.73149100  0.46460600  1
  C  C40  1  0.72871600  0.06004300  0.27252000  1
  C  C41  1  0.22871600  0.43995700  0.72748000  1
  C  C42  1  0.27128400  0.93995700  0.72748000  1
  C  C43  1  0.77128400  0.56004300  0.27252000  1
  N  N44  1  0.79551500  0.80849700  0.98134400  1
  N  N45  1  0.29551500  0.69150300  0.01865600  1
  N  N46  1  0.20448500  0.19150300  0.01865600  1
  N  N47  1  0.70448500  0.30849700  0.98134400  1
  N  N48  1  0.60408600  0.23468200  0.48835200  1
  N  N49  1  0.10408600  0.26531800  0.51164800  1
  N  N50  1  0.39591400  0.76531800  0.51164800  1
  N  N51  1  0.89591400  0.73468200  0.48835200  1
  N  N52  1  0.68363200  0.98706900  0.19428900  1
  N  N53  1  0.18363200  0.51293100  0.80571100  1
  N  N54  1  0.31636800  0.01293100  0.80571100  1
  N  N55  1  0.81636800  0.48706900  0.19428900  1
  N  N56  1  0.93334700  0.13370800  0.79701000  1
  N  N57  1  0.43334700  0.36629200  0.20299000  1
  N  N58  1  0.06665300  0.86629200  0.20299000  1
  N  N59  1  0.56665300  0.63370800  0.79701000  1
  O  O60  1  0.69173800  0.94443300  0.69385800  1
  O  O61  1  0.19173800  0.55556700  0.30614200  1
  O  O62  1  0.30826200  0.05556700  0.30614200  1
  O  O63  1  0.80826200  0.44443300  0.69385800  1
