# generated using pymatgen
data_CsVH12(C2O7)2
_symmetry_space_group_name_H-M   'P 1'
_cell_length_a   6.02865893
_cell_length_b   23.49068430
_cell_length_c   10.61789492
_cell_angle_alpha   82.63743098
_cell_angle_beta   99.60471329
_cell_angle_gamma   88.52922207
_symmetry_Int_Tables_number   1
_chemical_formula_structural   CsVH12(C2O7)2
_chemical_formula_sum   'Cs4 V4 H48 C16 O56'
_cell_volume   1468.67295709
_cell_formula_units_Z   4
loop_
 _symmetry_equiv_pos_site_id
 _symmetry_equiv_pos_as_xyz
  1  'x, y, z'
loop_
 _atom_site_type_symbol
 _atom_site_label
 _atom_site_symmetry_multiplicity
 _atom_site_fract_x
 _atom_site_fract_y
 _atom_site_fract_z
 _atom_site_occupancy
  Cs  Cs0  1  0.00002400  0.99999500  0.00000600  1
  Cs  Cs1  1  0.75010000  0.25000500  0.99999400  1
  Cs  Cs2  1  0.50000400  0.50000400  0.99999300  1
  Cs  Cs3  1  0.24993300  0.74999500  0.00000500  1
  V  V4  1  0.12525300  0.37486700  0.49977800  1
  V  V5  1  0.87458400  0.62513600  0.50025000  1
  V  V6  1  0.37536900  0.12465000  0.49988200  1
  V  V7  1  0.62437900  0.87530100  0.50022400  1
  H  H8  1  0.63325800  0.07326300  0.36159300  1
  H  H9  1  0.38318900  0.32326100  0.36160400  1
  H  H10  1  0.13224400  0.57352900  0.36190100  1
  H  H11  1  0.88204800  0.82361800  0.36194500  1
  H  H12  1  0.11786000  0.17639700  0.63810500  1
  H  H13  1  0.86780400  0.42646900  0.63806700  1
  H  H14  1  0.61685000  0.67673900  0.63835100  1
  H  H15  1  0.36663900  0.92675200  0.63845200  1
  H  H16  1  0.73866500  0.05226200  0.52215100  1
  H  H17  1  0.48837500  0.30224200  0.52217000  1
  H  H18  1  0.23754600  0.55249700  0.52234900  1
  H  H19  1  0.98731800  0.80263000  0.52233200  1
  H  H20  1  0.01260100  0.19738000  0.47764400  1
  H  H21  1  0.76248900  0.44750300  0.47765400  1
  H  H22  1  0.51165700  0.69776000  0.47782200  1
  H  H23  1  0.26124300  0.94775000  0.47781900  1
  H  H24  1  0.74836700  0.09302800  0.18115400  1
  H  H25  1  0.49834800  0.34300500  0.18123400  1
  H  H26  1  0.24829700  0.59302300  0.18135400  1
  H  H27  1  0.99827000  0.84304300  0.18135000  1
  H  H28  1  0.58822500  0.03963400  0.18107800  1
  H  H29  1  0.33823700  0.28959700  0.18113600  1
  H  H30  1  0.08817200  0.53964800  0.18128500  1
  H  H31  1  0.83813200  0.78967800  0.18132000  1
  H  H32  1  0.00174800  0.15695700  0.81863600  1
  H  H33  1  0.75172700  0.40698100  0.81863900  1
  H  H34  1  0.50166200  0.65699700  0.81875500  1
  H  H35  1  0.25163700  0.90697000  0.81882500  1
  H  H36  1  0.16188500  0.21032800  0.81866300  1
  H  H37  1  0.91183800  0.46035800  0.81870300  1
  H  H38  1  0.66179300  0.71039800  0.81887100  1
  H  H39  1  0.41180500  0.96036200  0.81892600  1
  H  H40  1  0.06598300  0.02945000  0.64741700  1
  H  H41  1  0.81578400  0.27936300  0.64726200  1
  H  H42  1  0.56563100  0.52945500  0.64734000  1
  H  H43  1  0.31562600  0.77957400  0.64734100  1
  H  H44  1  0.65641300  0.22616600  0.64726300  1
  H  H45  1  0.40620600  0.47628000  0.64720400  1
  H  H46  1  0.15611500  0.72640600  0.64733600  1
  H  H47  1  0.90638000  0.97628700  0.64751500  1
  H  H48  1  0.68438500  0.22041800  0.35267000  1
  H  H49  1  0.43439000  0.47055300  0.35263100  1
  H  H50  1  0.18423300  0.72064000  0.35270800  1
  H  H51  1  0.93402100  0.97053900  0.35259300  1
  H  H52  1  0.09360800  0.02370700  0.35245800  1
  H  H53  1  0.84388400  0.27359100  0.35265100  1
  H  H54  1  0.59382400  0.52372500  0.35278600  1
  H  H55  1  0.34360700  0.77383400  0.35271800  1
  C  C56  1  0.62289300  0.11688300  0.75762400  1
  C  C57  1  0.37297500  0.36693800  0.75752000  1
  C  C58  1  0.12283000  0.61698600  0.75786300  1
  C  C59  1  0.87278900  0.86703100  0.75793100  1
  C  C60  1  0.46744600  0.06504300  0.75785700  1
  C  C61  1  0.21743200  0.31510200  0.75762500  1
  C  C62  1  0.96727500  0.56516100  0.75791500  1
  C  C63  1  0.71716300  0.81523300  0.75788100  1
  C  C64  1  0.12720900  0.13295900  0.24209500  1
  C  C65  1  0.87719200  0.38302600  0.24211700  1
  C  C66  1  0.62705600  0.63307500  0.24245700  1
  C  C67  1  0.37710700  0.88310200  0.24240700  1
  C  C68  1  0.28286800  0.18474900  0.24219000  1
  C  C69  1  0.03273100  0.43485400  0.24204800  1
  C  C70  1  0.78258700  0.68491400  0.24232100  1
  C  C71  1  0.53257800  0.93493600  0.24220800  1
  O  O72  1  0.61995600  0.07579100  0.45600100  1
  O  O73  1  0.36996100  0.32585900  0.45600400  1
  O  O74  1  0.11908800  0.57613200  0.45627100  1
  O  O75  1  0.86890500  0.82627400  0.45626700  1
  O  O76  1  0.13095700  0.17373100  0.54376000  1
  O  O77  1  0.88097200  0.42387100  0.54370800  1
  O  O78  1  0.63010500  0.67414800  0.54396500  1
  O  O79  1  0.37989700  0.92421300  0.54402600  1
  O  O80  1  0.61420100  0.07715200  0.21351000  1
  O  O81  1  0.36411100  0.32712400  0.21352600  1
  O  O82  1  0.11398200  0.57718800  0.21363300  1
  O  O83  1  0.86396200  0.82722700  0.21363200  1
  O  O84  1  0.13604900  0.17277800  0.78634900  1
  O  O85  1  0.88604400  0.42281400  0.78636600  1
  O  O86  1  0.63590100  0.67287600  0.78646500  1
  O  O87  1  0.38580100  0.92285000  0.78647000  1
  O  O88  1  0.90828200  0.01848800  0.64588800  1
  O  O89  1  0.65818400  0.26835500  0.64586200  1
  O  O90  1  0.40796800  0.51845600  0.64587700  1
  O  O91  1  0.15792900  0.76858500  0.64586200  1
  O  O92  1  0.84207300  0.23141200  0.35412700  1
  O  O93  1  0.59205600  0.48154900  0.35410200  1
  O  O94  1  0.34183400  0.73164300  0.35411400  1
  O  O95  1  0.09171500  0.98150500  0.35409900  1
  O  O96  1  0.59592600  0.15076300  0.64893100  1
  O  O97  1  0.34601000  0.40085700  0.64889300  1
  O  O98  1  0.09547700  0.65101900  0.64939600  1
  O  O99  1  0.84548600  0.90109100  0.64945800  1
  O  O100  1  0.33343800  0.06319200  0.64930400  1
  O  O101  1  0.08334200  0.31332500  0.64908100  1
  O  O102  1  0.83284800  0.56349400  0.64943100  1
  O  O103  1  0.58277100  0.81359200  0.64936600  1
  O  O104  1  0.15443000  0.09890400  0.35057200  1
  O  O105  1  0.90459300  0.34899200  0.35058800  1
  O  O106  1  0.65405500  0.59915600  0.35108700  1
  O  O107  1  0.40399900  0.84922800  0.35111200  1
  O  O108  1  0.41719300  0.18639300  0.35071800  1
  O  O109  1  0.16719600  0.43652400  0.35052000  1
  O  O110  1  0.91670900  0.68669200  0.35087000  1
  O  O111  1  0.66651900  0.93679100  0.35078000  1
  O  O112  1  0.76062000  0.12289600  0.85557500  1
  O  O113  1  0.51072400  0.37289200  0.85550700  1
  O  O114  1  0.26100300  0.62284400  0.85578500  1
  O  O115  1  0.01089500  0.87286700  0.85584800  1
  O  O116  1  0.47960800  0.02917400  0.85599600  1
  O  O117  1  0.22963200  0.27918200  0.85566800  1
  O  O118  1  0.97976400  0.52916700  0.85582600  1
  O  O119  1  0.72956900  0.77922200  0.85576800  1
  O  O120  1  0.98914800  0.12712900  0.14415000  1
  O  O121  1  0.73900800  0.37716200  0.14421300  1
  O  O122  1  0.48928300  0.62711400  0.14448800  1
  O  O123  1  0.23944600  0.87708900  0.14443800  1
  O  O124  1  0.27053000  0.22076300  0.14429700  1
  O  O125  1  0.02020400  0.47084600  0.14412800  1
  O  O126  1  0.77035900  0.72082400  0.14428100  1
  O  O127  1  0.52048100  0.97080200  0.14406700  1
