# generated using pymatgen
data_KBiH10C4O13
_symmetry_space_group_name_H-M   'P 1'
_cell_length_a   11.98076939
_cell_length_b   9.85303924
_cell_length_c   9.19431107
_cell_angle_alpha   77.86784666
_cell_angle_beta   53.51730827
_cell_angle_gamma   48.61484506
_symmetry_Int_Tables_number   1
_chemical_formula_structural   KBiH10C4O13
_chemical_formula_sum   'K2 Bi2 H20 C8 O26'
_cell_volume   623.92310586
_cell_formula_units_Z   2
loop_
 _symmetry_equiv_pos_site_id
 _symmetry_equiv_pos_as_xyz
  1  'x, y, z'
loop_
 _atom_site_type_symbol
 _atom_site_label
 _atom_site_symmetry_multiplicity
 _atom_site_fract_x
 _atom_site_fract_y
 _atom_site_fract_z
 _atom_site_occupancy
  K  K0  1  0.34466500  0.65533500  0.34466500  1
  K  K1  1  0.59466500  0.90533500  0.59466500  1
  Bi  Bi2  1  0.84396000  0.15604000  0.84396000  1
  Bi  Bi3  1  0.09396000  0.40604000  0.09396000  1
  H  H4  1  0.45792100  0.53414900  0.64772900  1
  H  H5  1  0.64772900  0.36020100  0.45792100  1
  H  H6  1  0.88979900  0.60227100  0.71585100  1
  H  H7  1  0.71585100  0.79207900  0.88979900  1
  H  H8  1  0.03350400  0.72486900  0.36475200  1
  H  H9  1  0.36475200  0.87687500  0.03350400  1
  H  H10  1  0.37312500  0.88524800  0.52513100  1
  H  H11  1  0.52513100  0.21649600  0.37312500  1
  H  H12  1  0.90058000  0.88204900  0.55383700  1
  H  H13  1  0.55383700  0.66353400  0.90058000  1
  H  H14  1  0.58646600  0.69616300  0.36795100  1
  H  H15  1  0.36795100  0.34942000  0.58646600  1
  H  H16  1  0.23095800  0.29942200  0.55015500  1
  H  H17  1  0.55015500  0.91946400  0.23095800  1
  H  H18  1  0.33053600  0.69984500  0.95057800  1
  H  H19  1  0.95057800  0.01904200  0.33053600  1
  H  H20  1  0.15498800  0.39301400  0.43833100  1
  H  H21  1  0.43833100  0.01366700  0.15498800  1
  H  H22  1  0.23633300  0.81166900  0.85698600  1
  H  H23  1  0.85698600  0.09501200  0.23633300  1
  C  C24  1  0.52662500  0.21004500  0.87955200  1
  C  C25  1  0.87955200  0.38377800  0.52662500  1
  C  C26  1  0.86622200  0.37044800  0.03995500  1
  C  C27  1  0.03995500  0.72337500  0.86622200  1
  C  C28  1  0.41077500  0.34554500  0.06958600  1
  C  C29  1  0.06958600  0.17409400  0.41077500  1
  C  C30  1  0.07590600  0.18041400  0.90445500  1
  C  C31  1  0.90445500  0.83922500  0.07590600  1
  O  O32  1  0.49740400  0.35934800  0.09312000  1
  O  O33  1  0.09312000  0.05012800  0.49740400  1
  O  O34  1  0.19987200  0.15688000  0.89065200  1
  O  O35  1  0.89065200  0.75259600  0.19987200  1
  O  O36  1  0.70189200  0.12054500  0.75944300  1
  O  O37  1  0.75944300  0.41812000  0.70189200  1
  O  O38  1  0.83188000  0.49055700  0.12945500  1
  O  O39  1  0.12945500  0.54810800  0.83188000  1
  O  O40  1  0.23492300  0.43528100  0.19171400  1
  O  O41  1  0.19171400  0.13808200  0.23492300  1
  O  O42  1  0.11191800  0.05828600  0.81471900  1
  O  O43  1  0.81471900  0.01507700  0.11191800  1
  O  O44  1  0.44093700  0.19514900  0.85575600  1
  O  O45  1  0.85575600  0.50815800  0.44093700  1
  O  O46  1  0.74184200  0.39424400  0.05485100  1
  O  O47  1  0.05485100  0.80906300  0.74184200  1
  O  O48  1  0.51661800  0.48338200  0.51661800  1
  O  O49  1  0.76661800  0.73338200  0.76661800  1
  O  O50  1  0.01027900  0.82438400  0.41768600  1
  O  O51  1  0.41768600  0.74765100  0.01027900  1
  O  O52  1  0.50234900  0.83231400  0.42561600  1
  O  O53  1  0.42561600  0.23972100  0.50234900  1
  O  O54  1  0.12174800  0.35669100  0.55563000  1
  O  O55  1  0.55563000  0.96593100  0.12174800  1
  O  O56  1  0.28406900  0.69437000  0.89330900  1
  O  O57  1  0.89330900  0.12825200  0.28406900  1
