# generated using pymatgen
data_CdH6C4(S2O)2
_symmetry_space_group_name_H-M   'P 1'
_cell_length_a   9.83048924
_cell_length_b   9.83048924
_cell_length_c   12.66901423
_cell_angle_alpha   73.22966486
_cell_angle_beta   73.22966486
_cell_angle_gamma   23.90728477
_symmetry_Int_Tables_number   1
_chemical_formula_structural   CdH6C4(S2O)2
_chemical_formula_sum   'Cd2 H12 C8 S8 O4'
_cell_volume   474.09300134
_cell_formula_units_Z   2
loop_
 _symmetry_equiv_pos_site_id
 _symmetry_equiv_pos_as_xyz
  1  'x, y, z'
loop_
 _atom_site_type_symbol
 _atom_site_label
 _atom_site_symmetry_multiplicity
 _atom_site_fract_x
 _atom_site_fract_y
 _atom_site_fract_z
 _atom_site_occupancy
  Cd  Cd0  1  0.00000000  0.50000000  0.00000000  1
  Cd  Cd1  1  0.50000000  0.00000000  0.50000000  1
  H  H2  1  0.01297900  0.07125500  0.83298600  1
  H  H3  1  0.92874500  0.98702100  0.66701400  1
  H  H4  1  0.98702100  0.92874500  0.16701400  1
  H  H5  1  0.07125500  0.01297900  0.33298600  1
  H  H6  1  0.34246800  0.64102000  0.86839500  1
  H  H7  1  0.35898000  0.65753200  0.63160500  1
  H  H8  1  0.65753200  0.35898000  0.13160500  1
  H  H9  1  0.64102000  0.34246800  0.36839500  1
  H  H10  1  0.44211800  0.72899900  0.78217900  1
  H  H11  1  0.27100100  0.55788200  0.71782100  1
  H  H12  1  0.55788200  0.27100100  0.21782100  1
  H  H13  1  0.72899900  0.44211800  0.28217900  1
  C  C14  1  0.27879900  0.81127900  0.85079800  1
  C  C15  1  0.18872100  0.72120100  0.64920200  1
  C  C16  1  0.72120100  0.18872100  0.14920200  1
  C  C17  1  0.81127900  0.27879900  0.35079800  1
  C  C18  1  0.26463900  0.99111100  0.95679400  1
  C  C19  1  0.00888900  0.73536100  0.54320600  1
  C  C20  1  0.73536100  0.00888900  0.04320600  1
  C  C21  1  0.99111100  0.26463900  0.45679400  1
  S  S22  1  0.35332700  0.94006900  0.08000300  1
  S  S23  1  0.05993100  0.64667300  0.41999700  1
  S  S24  1  0.64667300  0.05993100  0.91999700  1
  S  S25  1  0.94006900  0.35332700  0.58000300  1
  S  S26  1  0.09824800  0.26712100  0.85170700  1
  S  S27  1  0.73287900  0.90175200  0.64829300  1
  S  S28  1  0.90175200  0.73287900  0.14829300  1
  S  S29  1  0.26712100  0.09824800  0.35170700  1
  O  O30  1  0.33742700  0.79422600  0.95139300  1
  O  O31  1  0.20577400  0.66257300  0.54860700  1
  O  O32  1  0.66257300  0.20577400  0.04860700  1
  O  O33  1  0.79422600  0.33742700  0.45139300  1
