# generated using pymatgen
data_VPH6C2N3O7
_symmetry_space_group_name_H-M   'P 1'
_cell_length_a   6.27222800
_cell_length_b   8.30226983
_cell_length_c   9.16466679
_cell_angle_alpha   68.04486970
_cell_angle_beta   70.83432952
_cell_angle_gamma   78.51311575
_symmetry_Int_Tables_number   1
_chemical_formula_structural   VPH6C2N3O7
_chemical_formula_sum   'V2 P2 H12 C4 N6 O14'
_cell_volume   416.50136923
_cell_formula_units_Z   2
loop_
 _symmetry_equiv_pos_site_id
 _symmetry_equiv_pos_as_xyz
  1  'x, y, z'
loop_
 _atom_site_type_symbol
 _atom_site_label
 _atom_site_symmetry_multiplicity
 _atom_site_fract_x
 _atom_site_fract_y
 _atom_site_fract_z
 _atom_site_occupancy
  V  V0  1  0.66309800  0.57355700  0.15359800  1
  V  V1  1  0.33690200  0.42644300  0.84640200  1
  P  P2  1  0.17232100  0.65238500  0.09135300  1
  P  P3  1  0.82767900  0.34761500  0.90864700  1
  H  H4  1  0.70289300  0.83602500  0.70840600  1
  H  H5  1  0.29710700  0.16397500  0.29159400  1
  H  H6  1  0.93537700  0.97649500  0.20790300  1
  H  H7  1  0.06462300  0.02350500  0.79209700  1
  H  H8  1  0.97001500  0.68541100  0.37541700  1
  H  H9  1  0.02998500  0.31458900  0.62458300  1
  H  H10  1  0.65538800  0.05263900  0.59079300  1
  H  H11  1  0.34461200  0.94736100  0.40920700  1
  H  H12  1  0.89224500  0.63123800  0.58844900  1
  H  H13  1  0.10775500  0.36876200  0.41155100  1
  H  H14  1  0.77841000  0.13124900  0.30015600  1
  H  H15  1  0.22159000  0.86875100  0.69984400  1
  C  C16  1  0.52599100  0.40035000  0.52165300  1
  C  C17  1  0.47400900  0.59965000  0.47834700  1
  C  C18  1  0.82989600  0.88860500  0.45999500  1
  C  C19  1  0.17010400  0.11139500  0.54000500  1
  N  N20  1  0.72143400  0.92877500  0.59635000  1
  N  N21  1  0.27856600  0.07122500  0.40365000  1
  N  N22  1  0.92224600  0.72387100  0.47550800  1
  N  N23  1  0.07775400  0.27612900  0.52449200  1
  N  N24  1  0.85010600  0.00723200  0.31225500  1
  N  N25  1  0.14989400  0.99276800  0.68774500  1
  O  O26  1  0.61337100  0.34090900  0.40589400  1
  O  O27  1  0.38662900  0.65909100  0.59410600  1
  O  O28  1  0.35007800  0.53900700  0.18685300  1
  O  O29  1  0.64992200  0.46099300  0.81314700  1
  O  O30  1  0.94408300  0.56648700  0.20496000  1
  O  O31  1  0.05591700  0.43351300  0.79504000  1
  O  O32  1  0.23178100  0.61133000  0.92607300  1
  O  O33  1  0.76821900  0.38867000  0.07392700  1
  O  O34  1  0.47592500  0.30890500  0.67339800  1
  O  O35  1  0.52407500  0.69109500  0.32660200  1
  O  O36  1  0.69302200  0.74074000  0.98989700  1
  O  O37  1  0.30697800  0.25926000  0.01010300  1
  O  O38  1  0.15865300  0.84232800  0.06011800  1
  O  O39  1  0.84134700  0.15767200  0.93988200  1
