# generated using pymatgen
data_K4Ti3Ni(PO4)6
_symmetry_space_group_name_H-M   'P 1'
_cell_length_a   9.96819000
_cell_length_b   9.96286000
_cell_length_c   9.97207597
_cell_angle_alpha   89.82986039
_cell_angle_beta   90.00000000
_cell_angle_gamma   90.00000000
_symmetry_Int_Tables_number   1
_chemical_formula_structural   K4Ti3Ni(PO4)6
_chemical_formula_sum   'K8 Ti6 Ni2 P12 O48'
_cell_volume   990.33926513
_cell_formula_units_Z   2
loop_
 _symmetry_equiv_pos_site_id
 _symmetry_equiv_pos_as_xyz
  1  'x, y, z'
loop_
 _atom_site_type_symbol
 _atom_site_label
 _atom_site_symmetry_multiplicity
 _atom_site_fract_x
 _atom_site_fract_y
 _atom_site_fract_z
 _atom_site_occupancy
  K  K0  1  0.43540100  0.18770700  0.56316400  1
  K  K1  1  0.70656500  0.04768500  0.21207100  1
  K  K2  1  0.20656500  0.95231500  0.78792900  1
  K  K3  1  0.93540100  0.81229300  0.43683600  1
  K  K4  1  0.56856900  0.67970700  0.93029100  1
  K  K5  1  0.29357600  0.53941400  0.30053100  1
  K  K6  1  0.79357600  0.46058600  0.69946900  1
  K  K7  1  0.06856900  0.32029300  0.06970900  1
  Ti  Ti8  1  0.08522500  0.16725700  0.41368200  1
  Ti  Ti9  1  0.85980600  0.11025200  0.85620800  1
  Ti  Ti10  1  0.35980600  0.88974800  0.14379200  1
  Ti  Ti11  1  0.58522500  0.83274300  0.58631800  1
  Ti  Ti12  1  0.91349200  0.66020700  0.08770100  1
  Ti  Ti13  1  0.41349200  0.33979300  0.91229900  1
  Ni  Ni14  1  0.14548700  0.60443900  0.64472500  1
  Ni  Ni15  1  0.64548700  0.39556100  0.35527500  1
  P  P16  1  0.37320400  0.20818300  0.22600800  1
  P  P17  1  0.77292000  0.12235300  0.54152300  1
  P  P18  1  0.54317700  0.02381200  0.87327500  1
  P  P19  1  0.04317700  0.97618800  0.12672500  1
  P  P20  1  0.27292000  0.87764700  0.45847700  1
  P  P21  1  0.87320400  0.79181700  0.77399200  1
  P  P22  1  0.62500700  0.70451900  0.27194000  1
  P  P23  1  0.22799900  0.62646900  0.95532200  1
  P  P24  1  0.45587800  0.52061600  0.62305600  1
  P  P25  1  0.95587800  0.47938400  0.37694400  1
  P  P26  1  0.72799900  0.37353100  0.04467800  1
  P  P27  1  0.12500700  0.29548100  0.72806000  1
  O  O28  1  0.14592100  0.24863400  0.58094700  1
  O  O29  1  0.70125100  0.22286800  0.45562700  1
  O  O30  1  0.23534400  0.22532200  0.29853900  1
  O  O31  1  0.02275600  0.19785400  0.79792400  1
  O  O32  1  0.76988800  0.16587800  0.69262300  1
  O  O33  1  0.49931800  0.17097200  0.85270800  1
  O  O34  1  0.92241800  0.10086400  0.50069000  1
  O  O35  1  0.41539800  0.05695400  0.22921800  1
  O  O36  1  0.02036100  0.05247300  0.25956000  1
  O  O37  1  0.95455400  0.04796500  0.02088500  1
  O  O38  1  0.69112900  0.01769500  0.92014400  1
  O  O39  1  0.19998800  0.01493000  0.47384700  1
  O  O40  1  0.69998800  0.98507000  0.52615300  1
  O  O41  1  0.19112900  0.98230500  0.07985600  1
  O  O42  1  0.45455400  0.95203500  0.97911500  1
  O  O43  1  0.52036100  0.94752700  0.74044000  1
  O  O44  1  0.91539800  0.94304600  0.77078200  1
  O  O45  1  0.42241800  0.89913600  0.49931000  1
  O  O46  1  0.99931800  0.82902800  0.14729200  1
  O  O47  1  0.26988800  0.83412200  0.30737700  1
  O  O48  1  0.52275600  0.80214600  0.20207600  1
  O  O49  1  0.73534400  0.77467800  0.70146100  1
  O  O50  1  0.20125100  0.77713200  0.54437300  1
  O  O51  1  0.64592100  0.75136600  0.41905300  1
  O  O52  1  0.85164700  0.74994300  0.92288100  1
  O  O53  1  0.29804800  0.72849000  0.05203100  1
  O  O54  1  0.75965900  0.72873800  0.19637600  1
  O  O55  1  0.97382500  0.70707900  0.70131300  1
  O  O56  1  0.24009500  0.67848800  0.81324900  1
  O  O57  1  0.50019800  0.67114500  0.64671300  1
  O  O58  1  0.08070500  0.60488100  0.00170700  1
  O  O59  1  0.57197500  0.56292000  0.25929800  1
  O  O60  1  0.97276900  0.54958400  0.23485000  1
  O  O61  1  0.05262100  0.54961900  0.46916600  1
  O  O62  1  0.31157700  0.51141000  0.57541400  1
  O  O63  1  0.80224900  0.50938200  0.01999000  1
  O  O64  1  0.30224900  0.49061800  0.98001000  1
  O  O65  1  0.81157700  0.48859000  0.42458600  1
  O  O66  1  0.55262100  0.45038100  0.53083400  1
  O  O67  1  0.47276900  0.45041600  0.76515000  1
  O  O68  1  0.07197500  0.43708000  0.74070200  1
  O  O69  1  0.58070500  0.39511900  0.99829300  1
  O  O70  1  0.00019800  0.32885500  0.35328700  1
  O  O71  1  0.74009500  0.32151200  0.18675100  1
  O  O72  1  0.47382500  0.29292100  0.29868700  1
  O  O73  1  0.25965900  0.27126200  0.80362400  1
  O  O74  1  0.79804800  0.27151000  0.94796900  1
  O  O75  1  0.35164700  0.25005700  0.07711900  1
