# generated using pymatgen
data_Al2Si2H4O9
_symmetry_space_group_name_H-M   'P 1'
_cell_length_a   5.23463002
_cell_length_b   5.23463002
_cell_length_c   14.53244944
_cell_angle_alpha   89.02868470
_cell_angle_beta   89.02868470
_cell_angle_gamma   120.05065010
_symmetry_Int_Tables_number   1
_chemical_formula_structural   Al2Si2H4O9
_chemical_formula_sum   'Al4 Si4 H8 O18'
_cell_volume   344.48429181
_cell_formula_units_Z   2
loop_
 _symmetry_equiv_pos_site_id
 _symmetry_equiv_pos_as_xyz
  1  'x, y, z'
loop_
 _atom_site_type_symbol
 _atom_site_label
 _atom_site_symmetry_multiplicity
 _atom_site_fract_x
 _atom_site_fract_y
 _atom_site_fract_z
 _atom_site_occupancy
  Al  Al0  1  0.55064400  0.21689500  0.73113300  1
  Al  Al1  1  0.21689500  0.55064400  0.23113300  1
  Al  Al2  1  0.89201400  0.88891800  0.73115800  1
  Al  Al3  1  0.88891800  0.89201400  0.23115800  1
  Si  Si4  1  0.57802700  0.54058300  0.54101800  1
  Si  Si5  1  0.54058300  0.57802700  0.04101800  1
  Si  Si6  1  0.89335800  0.19870200  0.54045900  1
  Si  Si7  1  0.19870200  0.89335800  0.04045900  1
  H  H8  1  0.22645000  0.75173800  0.65823300  1
  H  H9  1  0.75173800  0.22645000  0.15823300  1
  H  H10  1  0.87728300  0.54789100  0.85809900  1
  H  H11  1  0.54789100  0.87728300  0.35809900  1
  H  H12  1  0.21267100  0.24694000  0.85574400  1
  H  H13  1  0.24694000  0.21267100  0.35574400  1
  H  H14  1  0.52436200  0.85794700  0.85623300  1
  H  H15  1  0.85794700  0.52436200  0.35623300  1
  O  O16  1  0.73523200  0.37006600  0.49259600  1
  O  O17  1  0.37006600  0.73523200  0.99259600  1
  O  O18  1  0.74114300  0.87381600  0.49393500  1
  O  O19  1  0.87381600  0.74114300  0.99393500  1
  O  O20  1  0.23919200  0.38146700  0.50631300  1
  O  O21  1  0.38146700  0.23919200  0.00631300  1
  O  O22  1  0.60905000  0.55039300  0.65179600  1
  O  O23  1  0.55039300  0.60905000  0.15179600  1
  O  O24  1  0.84634000  0.17071800  0.65172100  1
  O  O25  1  0.17071800  0.84634000  0.15172100  1
  O  O26  1  0.22772000  0.93872900  0.65755700  1
  O  O27  1  0.93872900  0.22772000  0.15755700  1
  O  O28  1  0.82722400  0.54563300  0.79406700  1
  O  O29  1  0.54563300  0.82722400  0.29406700  1
  O  O30  1  0.21569300  0.15952600  0.79795500  1
  O  O31  1  0.15952600  0.21569300  0.29795500  1
  O  O32  1  0.60691800  0.93672000  0.79498300  1
  O  O33  1  0.93672000  0.60691800  0.29498300  1
