# generated using pymatgen
data_Sr13Mn8O30
_symmetry_space_group_name_H-M   'P 1'
_cell_length_a   8.58218200
_cell_length_b   9.36506084
_cell_length_c   10.28805273
_cell_angle_alpha   89.16433085
_cell_angle_beta   86.13771114
_cell_angle_gamma   83.81189276
_symmetry_Int_Tables_number   1
_chemical_formula_structural   Sr13Mn8O30
_chemical_formula_sum   'Sr13 Mn8 O30'
_cell_volume   820.17081071
_cell_formula_units_Z   1
loop_
 _symmetry_equiv_pos_site_id
 _symmetry_equiv_pos_as_xyz
  1  'x, y, z'
loop_
 _atom_site_type_symbol
 _atom_site_label
 _atom_site_symmetry_multiplicity
 _atom_site_fract_x
 _atom_site_fract_y
 _atom_site_fract_z
 _atom_site_occupancy
  Sr  Sr0  1  0.09914400  0.18840400  0.48981700  1
  Sr  Sr1  1  0.99474400  0.28308500  0.00544500  1
  Sr  Sr2  1  0.11816200  0.96802300  0.19849700  1
  Sr  Sr3  1  0.11377600  0.54927300  0.73175600  1
  Sr  Sr4  1  0.19719500  0.64054100  0.37386500  1
  Sr  Sr5  1  0.37104500  0.90577400  0.55520400  1
  Sr  Sr6  1  0.48870000  0.55372100  0.00510500  1
  Sr  Sr7  1  0.66896300  0.11631400  0.19346000  1
  Sr  Sr8  1  0.78261000  0.36853900  0.67366000  1
  Sr  Sr9  1  0.87921400  0.45097500  0.34232600  1
  Sr  Sr10  1  0.80650200  0.01803900  0.84453600  1
  Sr  Sr11  1  0.86602200  0.73060100  0.05573600  1
  Sr  Sr12  1  0.85801400  0.88172600  0.50819800  1
  Mn  Mn13  1  0.24538400  0.32016800  0.22064200  1
  Mn  Mn14  1  0.22250900  0.17657300  0.78008400  1
  Mn  Mn15  1  0.46803000  0.25293800  0.46170500  1
  Mn  Mn16  1  0.39591700  0.22020800  0.97975300  1
  Mn  Mn17  1  0.47287900  0.89834300  0.05107400  1
  Mn  Mn18  1  0.51637700  0.59474500  0.54596800  1
  Mn  Mn19  1  0.66388000  0.71938500  0.30860500  1
  Mn  Mn20  1  0.70856000  0.71548300  0.77016600  1
  O  O21  1  0.88472300  0.75593100  0.29244500  1
  O  O22  1  0.91231200  0.76856400  0.78454800  1
  O  O23  1  0.13149000  0.48802400  0.17847200  1
  O  O24  1  0.29589200  0.36718700  0.38454800  1
  O  O25  1  0.12475300  0.91290700  0.44388300  1
  O  O26  1  0.24518400  0.08943900  0.95155700  1
  O  O27  1  0.44537900  0.33462500  0.12084700  1
  O  O28  1  0.35876200  0.10912100  0.24003400  1
  O  O29  1  0.32453800  0.77880800  0.09573600  1
  O  O30  1  0.33379100  0.17195000  0.61929900  1
  O  O31  1  0.27134700  0.35896400  0.88000600  1
  O  O32  1  0.31274300  0.64882800  0.60226700  1
  O  O33  1  0.74636500  0.38583800  0.91964100  1
  O  O34  1  0.71723300  0.64687400  0.47586000  1
  O  O35  1  0.66998200  0.11924800  0.44395700  1
  O  O36  1  0.39409700  0.08639700  0.37564200  1
  O  O37  1  0.61461600  0.86746200  0.18771100  1
  O  O38  1  0.58137500  0.57628300  0.72100600  1
  O  O39  1  0.58479900  0.40434600  0.50203600  1
  O  O40  1  0.69224500  0.57431400  0.19074500  1
  O  O41  1  0.46188800  0.70576800  0.38878000  1
  O  O42  1  0.56166200  0.07416600  0.98593200  1
  O  O43  1  0.63655800  0.87348100  0.67867600  1
  O  O44  1  0.62186400  0.77197700  0.93442400  1
  O  O45  1  0.90098800  0.03259600  0.05674700  1
  O  O46  1  0.81607700  0.16941300  0.48483300  1
  O  O47  1  0.00501200  0.45707000  0.54621800  1
  O  O48  1  0.84505700  0.50577300  0.87874100  1
  O  O49  1  0.05599000  0.23457200  0.24322800  1
  O  O50  1  0.00964900  0.17721700  0.74857800  1
