# generated using pymatgen
data_InP2H4NO8
_symmetry_space_group_name_H-M   'P 1'
_cell_length_a   8.44292100
_cell_length_b   9.79640100
_cell_length_c   9.82199340
_cell_angle_alpha   63.62190500
_cell_angle_beta   90.00000000
_cell_angle_gamma   90.00000000
_symmetry_Int_Tables_number   1
_chemical_formula_structural   InP2H4NO8
_chemical_formula_sum   'In4 P8 H16 N4 O32'
_cell_volume   727.79585168
_cell_formula_units_Z   4
loop_
 _symmetry_equiv_pos_site_id
 _symmetry_equiv_pos_as_xyz
  1  'x, y, z'
loop_
 _atom_site_type_symbol
 _atom_site_label
 _atom_site_symmetry_multiplicity
 _atom_site_fract_x
 _atom_site_fract_y
 _atom_site_fract_z
 _atom_site_occupancy
  In  In0  1  0.62891800  0.49154200  0.74201400  1
  In  In1  1  0.12891800  0.00845800  0.25798600  1
  In  In2  1  0.37108200  0.50845800  0.25798600  1
  In  In3  1  0.87108200  0.99154200  0.74201400  1
  P  P4  1  0.67624600  0.32752600  0.50763500  1
  P  P5  1  0.17624600  0.17247400  0.49236500  1
  P  P6  1  0.32375400  0.67247400  0.49236500  1
  P  P7  1  0.82375400  0.82752600  0.50763500  1
  P  P8  1  0.56429000  0.72988600  0.90702400  1
  P  P9  1  0.06429000  0.77011400  0.09297600  1
  P  P10  1  0.43571000  0.27011400  0.09297600  1
  P  P11  1  0.93571000  0.22988600  0.90702400  1
  H  H12  1  0.49245000  0.04394700  0.81436200  1
  H  H13  1  0.99245000  0.45605300  0.18563800  1
  H  H14  1  0.50755000  0.95605300  0.18563800  1
  H  H15  1  0.00755000  0.54394700  0.81436200  1
  H  H16  1  0.38261700  0.08701500  0.93804800  1
  H  H17  1  0.88261700  0.41298500  0.06195200  1
  H  H18  1  0.61738300  0.91298500  0.06195200  1
  H  H19  1  0.11738300  0.58701500  0.93804800  1
  H  H20  1  0.35358100  0.18373100  0.75231400  1
  H  H21  1  0.85358100  0.31626900  0.24768600  1
  H  H22  1  0.64641900  0.81626900  0.24768600  1
  H  H23  1  0.14641900  0.68373100  0.75231400  1
  H  H24  1  0.29993000  0.99997900  0.84143800  1
  H  H25  1  0.79993000  0.50002100  0.15856200  1
  H  H26  1  0.70007000  0.00002100  0.15856200  1
  H  H27  1  0.20007000  0.49997900  0.84143800  1
  N  N28  1  0.38316400  0.07811500  0.83720300  1
  N  N29  1  0.88316400  0.42188500  0.16279700  1
  N  N30  1  0.61683600  0.92188500  0.16279700  1
  N  N31  1  0.11683600  0.57811500  0.83720300  1
  O  O32  1  0.58360200  0.34987600  0.63095700  1
  O  O33  1  0.08360200  0.15012400  0.36904300  1
  O  O34  1  0.41639800  0.65012400  0.36904300  1
  O  O35  1  0.91639800  0.84987600  0.63095700  1
  O  O36  1  0.58214100  0.38266400  0.35855400  1
  O  O37  1  0.08214100  0.11733600  0.64144600  1
  O  O38  1  0.41785900  0.61733600  0.64144600  1
  O  O39  1  0.91785900  0.88266400  0.35855400  1
  O  O40  1  0.72587200  0.15856900  0.55975800  1
  O  O41  1  0.22587200  0.34143100  0.44024200  1
  O  O42  1  0.27412800  0.84143100  0.44024200  1
  O  O43  1  0.77412800  0.65856900  0.55975800  1
  O  O44  1  0.84478200  0.40055500  0.47677300  1
  O  O45  1  0.34478200  0.09944500  0.52322700  1
  O  O46  1  0.15521800  0.59944500  0.52322700  1
  O  O47  1  0.65521800  0.90055500  0.47677300  1
  O  O48  1  0.65150400  0.88468000  0.85427600  1
  O  O49  1  0.15150400  0.61532000  0.14572400  1
  O  O50  1  0.34849600  0.11532000  0.14572400  1
  O  O51  1  0.84849600  0.38468000  0.85427600  1
  O  O52  1  0.52522900  0.67444400  0.07865600  1
  O  O53  1  0.02522900  0.82555600  0.92134400  1
  O  O54  1  0.47477100  0.32555600  0.92134400  1
  O  O55  1  0.97477100  0.17444400  0.07865600  1
  O  O56  1  0.66291700  0.61553000  0.87658800  1
  O  O57  1  0.16291700  0.88447000  0.12341200  1
  O  O58  1  0.33708300  0.38447000  0.12341200  1
  O  O59  1  0.83708300  0.11553000  0.87658800  1
  O  O60  1  0.39176100  0.75186100  0.84530900  1
  O  O61  1  0.89176100  0.74813900  0.15469100  1
  O  O62  1  0.60823900  0.24813900  0.15469100  1
  O  O63  1  0.10823900  0.25186100  0.84530900  1
