# generated using pymatgen
data_Al2S3
_symmetry_space_group_name_H-M   'P 1'
_cell_length_a   6.84673100
_cell_length_b   7.12182066
_cell_length_c   22.04727297
_cell_angle_alpha   83.62646056
_cell_angle_beta   83.98742978
_cell_angle_gamma   63.53465690
_symmetry_Int_Tables_number   1
_chemical_formula_structural   Al2S3
_chemical_formula_sum   'Al12 S18'
_cell_volume   954.59432368
_cell_formula_units_Z   6
loop_
 _symmetry_equiv_pos_site_id
 _symmetry_equiv_pos_as_xyz
  1  'x, y, z'
loop_
 _atom_site_type_symbol
 _atom_site_label
 _atom_site_symmetry_multiplicity
 _atom_site_fract_x
 _atom_site_fract_y
 _atom_site_fract_z
 _atom_site_occupancy
  Al  Al0  1  0.57464600  0.56116600  0.16125700  1
  Al  Al1  1  0.61037900  0.48846000  0.71176700  1
  Al  Al2  1  0.89962400  0.75960600  0.26785900  1
  Al  Al3  1  0.62859900  0.09344900  0.10984700  1
  Al  Al4  1  0.50960100  0.50815000  0.53686700  1
  Al  Al5  1  0.18100700  0.41727300  0.22119700  1
  Al  Al6  1  0.67205800  0.03659200  0.67576500  1
  Al  Al7  1  0.17007700  0.69339800  0.73278000  1
  Al  Al8  1  0.10372100  0.14841700  0.17807100  1
  Al  Al9  1  0.43721800  0.13648900  0.98861500  1
  Al  Al10  1  0.66885100  0.27079500  0.33031800  1
  Al  Al11  1  0.99394000  0.60039000  0.60163700  1
  S  S12  1  0.48396500  0.85766000  0.65189100  1
  S  S13  1  0.49592200  0.36846000  0.63479600  1
  S  S14  1  0.88003700  0.98547300  0.18242400  1
  S  S15  1  0.76278800  0.05293100  0.01427000  1
  S  S16  1  0.45714600  0.51855000  0.26184300  1
  S  S17  1  0.97430300  0.41750400  0.69354100  1
  S  S18  1  0.13394400  0.25812400  0.95637200  1
  S  S19  1  0.64460600  0.49582700  0.39397600  1
  S  S20  1  0.77678800  0.93502700  0.35134300  1
  S  S21  1  0.37255000  0.43386800  0.12197100  1
  S  S22  1  0.18157000  0.57086700  0.51097700  1
  S  S23  1  0.91132500  0.46131100  0.12432300  1
  S  S24  1  0.65674600  0.13097800  0.77180300  1
  S  S25  1  0.63257600  0.76730300  0.56449800  1
  S  S26  1  0.01883100  0.87850800  0.63991800  1
  S  S27  1  0.41344500  0.91569500  0.12572700  1
  S  S28  1  0.79719200  0.33322300  0.47418200  1
  S  S29  1  0.95654800  0.90450600  0.80604400  1
