# generated using pymatgen
data_K3H3S2(O4F)2
_symmetry_space_group_name_H-M   'P 1'
_cell_length_a   10.03355104
_cell_length_b   10.03355104
_cell_length_c   10.42127101
_cell_angle_alpha   72.01872391
_cell_angle_beta   72.01872391
_cell_angle_gamma   38.38636743
_symmetry_Int_Tables_number   1
_chemical_formula_structural   K3H3S2(O4F)2
_chemical_formula_sum   'K6 H6 S4 O16 F4'
_cell_volume   615.68327336
_cell_formula_units_Z   2
loop_
 _symmetry_equiv_pos_site_id
 _symmetry_equiv_pos_as_xyz
  1  'x, y, z'
loop_
 _atom_site_type_symbol
 _atom_site_label
 _atom_site_symmetry_multiplicity
 _atom_site_fract_x
 _atom_site_fract_y
 _atom_site_fract_z
 _atom_site_occupancy
  K  K0  1  0.61557700  0.68633400  0.45286300  1
  K  K1  1  0.31366600  0.38442300  0.54713700  1
  K  K2  1  0.72408300  0.77935900  0.81274200  1
  K  K3  1  0.22064100  0.27591700  0.18725800  1
  K  K4  1  0.86712600  0.13287400  0.00000000  1
  K  K5  1  0.97687400  0.02312600  0.50000000  1
  H  H6  1  0.61158900  0.19010100  0.27972300  1
  H  H7  1  0.80989900  0.38841100  0.72027700  1
  H  H8  1  0.48454700  0.53999800  0.30748100  1
  H  H9  1  0.46000200  0.51545300  0.69251900  1
  H  H10  1  0.32736200  0.51369000  0.98966100  1
  H  H11  1  0.48631000  0.67263800  0.01033900  1
  S  S12  1  0.36920700  0.82317000  0.16042700  1
  S  S13  1  0.17683000  0.63079300  0.83957300  1
  S  S14  1  0.85882600  0.84610000  0.33330100  1
  S  S15  1  0.15390000  0.14117400  0.66669900  1
  O  O16  1  0.13024000  0.02613000  0.17188100  1
  O  O17  1  0.97387000  0.86976000  0.82811900  1
  O  O18  1  0.41542500  0.68597500  0.31350800  1
  O  O19  1  0.31402500  0.58457500  0.68649200  1
  O  O20  1  0.55885900  0.61209800  0.91686400  1
  O  O21  1  0.38790200  0.44114100  0.08313600  1
  O  O22  1  0.48794000  0.86481600  0.14414800  1
  O  O23  1  0.13518400  0.51206000  0.85585200  1
  O  O24  1  0.73149500  0.91629300  0.48703000  1
  O  O25  1  0.08370700  0.26850500  0.51297000  1
  O  O26  1  0.64957500  0.06598700  0.25508400  1
  O  O27  1  0.93401300  0.35042500  0.74491600  1
  O  O28  1  0.90119800  0.67733900  0.30982100  1
  O  O29  1  0.32266100  0.09880200  0.69017900  1
  O  O30  1  0.90997600  0.78474300  0.56987800  1
  O  O31  1  0.21525700  0.09002400  0.43012200  1
  F  F32  1  0.24184100  0.63824400  0.14618300  1
  F  F33  1  0.36175600  0.75815900  0.85381700  1
  F  F34  1  0.59273100  0.31926300  0.32611000  1
  F  F35  1  0.68073700  0.40726900  0.67389000  1
