# generated using pymatgen
data_VH16C4(NO4)3
_symmetry_space_group_name_H-M   'P 1'
_cell_length_a   8.04392000
_cell_length_b   11.34326000
_cell_length_c   15.91856400
_cell_angle_alpha   90.00000000
_cell_angle_beta   90.00000000
_cell_angle_gamma   90.00000000
_symmetry_Int_Tables_number   1
_chemical_formula_structural   VH16C4(NO4)3
_chemical_formula_sum   'V4 H64 C16 N12 O48'
_cell_volume   1452.47784681
_cell_formula_units_Z   4
loop_
 _symmetry_equiv_pos_site_id
 _symmetry_equiv_pos_as_xyz
  1  'x, y, z'
loop_
 _atom_site_type_symbol
 _atom_site_label
 _atom_site_symmetry_multiplicity
 _atom_site_fract_x
 _atom_site_fract_y
 _atom_site_fract_z
 _atom_site_occupancy
  V  V0  1  0.53555000  0.04031000  0.24291400  1
  V  V1  1  0.03555000  0.45969000  0.75708600  1
  V  V2  1  0.46445000  0.54031000  0.25708600  1
  V  V3  1  0.96445000  0.95969000  0.74291400  1
  H  H4  1  0.48931800  0.07835100  0.01210500  1
  H  H5  1  0.98931800  0.42164900  0.98789500  1
  H  H6  1  0.51068200  0.57835100  0.48789500  1
  H  H7  1  0.01068200  0.92164900  0.51210500  1
  H  H8  1  0.40397700  0.10818000  0.92501800  1
  H  H9  1  0.90397700  0.39182000  0.07498200  1
  H  H10  1  0.59602300  0.60818000  0.57498200  1
  H  H11  1  0.09602300  0.89182000  0.42501800  1
  H  H12  1  0.15931200  0.95927700  0.16551400  1
  H  H13  1  0.65931200  0.54072300  0.83448600  1
  H  H14  1  0.84068800  0.45927700  0.33448600  1
  H  H15  1  0.34068800  0.04072300  0.66551400  1
  H  H16  1  0.96203500  0.96671400  0.17020500  1
  H  H17  1  0.46203500  0.53328600  0.82979500  1
  H  H18  1  0.03796500  0.46671400  0.32979500  1
  H  H19  1  0.53796500  0.03328600  0.67020500  1
  H  H20  1  0.96228200  0.09537800  0.42156100  1
  H  H21  1  0.46228200  0.40462200  0.57843900  1
  H  H22  1  0.03771800  0.59537800  0.07843900  1
  H  H23  1  0.53771800  0.90462200  0.92156100  1
  H  H24  1  0.02568100  0.23643000  0.40471500  1
  H  H25  1  0.52568100  0.26357000  0.59528500  1
  H  H26  1  0.97431900  0.73643000  0.09528500  1
  H  H27  1  0.47431900  0.76357000  0.90471500  1
  H  H28  1  0.83335800  0.20833900  0.44503100  1
  H  H29  1  0.33335800  0.29166100  0.55496900  1
  H  H30  1  0.16664200  0.70833900  0.05496900  1
  H  H31  1  0.66664200  0.79166100  0.94503100  1
  H  H32  1  0.86788500  0.17671100  0.34484400  1
  H  H33  1  0.36788500  0.32328900  0.65515600  1
  H  H34  1  0.13211500  0.67671100  0.15515600  1
  H  H35  1  0.63211500  0.82328900  0.84484400  1
  H  H36  1  0.09906400  0.28443800  0.16029700  1
  H  H37  1  0.59906400  0.21556200  0.83970300  1
  H  H38  1  0.90093600  0.78443800  0.33970300  1
  H  H39  1  0.40093600  0.71556200  0.66029700  1
  H  H40  1  0.27410100  0.20427600  0.17015300  1
  H  H41  1  0.77410100  0.29572400  0.82984700  1
  H  H42  1  0.72589900  0.70427600  0.32984700  1
  H  H43  1  0.22589900  0.79572400  0.67015300  1
  H  H44  1  0.28722100  0.34606500  0.13949000  1
  H  H45  1  0.78722100  0.15393500  0.86051000  1
  H  H46  1  0.71277900  0.84606500  0.36051000  1
  H  H47  1  0.21277900  0.65393500  0.63949000  1
  H  H48  1  0.20418300  0.24636700  0.07170900  1
  H  H49  1  0.70418300  0.25363300  0.92829100  1
  H  H50  1  0.79581700  0.74636700  0.42829100  1
  H  H51  1  0.29581700  0.75363300  0.57170900  1
  H  H52  1  0.25619400  0.02209800  0.46957200  1
  H  H53  1  0.75619400  0.47790200  0.53042800  1
  H  H54  1  0.74380600  0.52209800  0.03042800  1
  H  H55  1  0.24380600  0.97790200  0.96957200  1
  H  H56  1  0.42904700  0.05172400  0.52501100  1
  H  H57  1  0.92904700  0.44827500  0.47498900  1
  H  H58  1  0.57095300  0.55172400  0.97498900  1
  H  H59  1  0.07095300  0.94827600  0.02501100  1
  H  H60  1  0.44367400  0.02244300  0.41889000  1
  H  H61  1  0.94367400  0.47755700  0.58111000  1
  H  H62  1  0.55632600  0.52244300  0.08111000  1
  H  H63  1  0.05632600  0.97755700  0.91889000  1
  H  H64  1  0.35629800  0.15046300  0.45131500  1
  H  H65  1  0.85629800  0.34953700  0.54868500  1
  H  H66  1  0.64370200  0.65046300  0.04868500  1
  H  H67  1  0.14370200  0.84953700  0.95131500  1
  C  C68  1  0.76891200  0.22396300  0.18949500  1
  C  C69  1  0.26891200  0.27603700  0.81050500  1
  C  C70  1  0.23108800  0.72396300  0.31050500  1
  C  C71  1  0.73108800  0.77603700  0.68949500  1
  C  C72  1  0.67234400  0.20387300  0.10648400  1
  C  C73  1  0.17234400  0.29612700  0.89351600  1
  C  C74  1  0.32765600  0.70387300  0.39351600  1
  C  C75  1  0.82765600  0.79612700  0.60648400  1
  C  C76  1  0.48363400  0.85155800  0.12440700  1
  C  C77  1  0.98363400  0.64844200  0.87559300  1
  C  C78  1  0.51636600  0.35155800  0.37559300  1
  C  C79  1  0.01636600  0.14844200  0.62440700  1
  C  C80  1  0.67600700  0.85865800  0.12989900  1
  C  C81  1  0.17600700  0.64134200  0.87010100  1
  C  C82  1  0.32399300  0.35865800  0.37010100  1
  C  C83  1  0.82399300  0.14134200  0.62989900  1
  N  N84  1  0.92331700  0.17962000  0.40370100  1
  N  N85  1  0.42331700  0.32038000  0.59629900  1
  N  N86  1  0.07668300  0.67962000  0.09629900  1
  N  N87  1  0.57668300  0.82038000  0.90370100  1
  N  N88  1  0.21587100  0.26972700  0.13470400  1
  N  N89  1  0.71587100  0.23027300  0.86529600  1
  N  N90  1  0.78412900  0.76972700  0.36529600  1
  N  N91  1  0.28412900  0.73027300  0.63470400  1
  N  N92  1  0.37258600  0.06218200  0.46643700  1
  N  N93  1  0.87258600  0.43781800  0.53356300  1
  N  N94  1  0.62741400  0.56218200  0.03356300  1
  N  N95  1  0.12741400  0.93781800  0.96643700  1
  O  O96  1  0.56869400  0.97465700  0.33647700  1
  O  O97  1  0.06869400  0.52534300  0.66352300  1
  O  O98  1  0.43130600  0.47465700  0.16352300  1
  O  O99  1  0.93130600  0.02534300  0.83647700  1
  O  O100  1  0.72220700  0.15797000  0.25216300  1
  O  O101  1  0.22220700  0.34203000  0.74783700  1
  O  O102  1  0.27779300  0.65797000  0.24783700  1
  O  O103  1  0.77779300  0.84203000  0.75216300  1
  O  O104  1  0.56194800  0.12216100  0.11114900  1
  O  O105  1  0.06194800  0.37783900  0.88885100  1
  O  O106  1  0.43805200  0.62216100  0.38885100  1
  O  O107  1  0.93805200  0.87783900  0.61114900  1
  O  O108  1  0.88290600  0.29722700  0.19356300  1
  O  O109  1  0.38290600  0.20277300  0.80643700  1
  O  O110  1  0.11709400  0.79722700  0.30643700  1
  O  O111  1  0.61709400  0.70277300  0.69356300  1
  O  O112  1  0.70878900  0.26529600  0.04423300  1
  O  O113  1  0.20878900  0.23470400  0.95576700  1
  O  O114  1  0.29121100  0.76529600  0.45576700  1
  O  O115  1  0.79121100  0.73470400  0.54423300  1
  O  O116  1  0.37129100  0.12623100  0.25872900  1
  O  O117  1  0.87129100  0.37376900  0.74127100  1
  O  O118  1  0.62870900  0.62623100  0.24127100  1
  O  O119  1  0.12870900  0.87376900  0.75872900  1
  O  O120  1  0.40617000  0.92264500  0.17604400  1
  O  O121  1  0.90617000  0.57735500  0.82395600  1
  O  O122  1  0.59383000  0.42264500  0.32395600  1
  O  O123  1  0.09383000  0.07735500  0.67604400  1
  O  O124  1  0.72988400  0.93195900  0.18457400  1
  O  O125  1  0.22988400  0.56804100  0.81542600  1
  O  O126  1  0.27011600  0.43195900  0.31542600  1
  O  O127  1  0.77011600  0.06804100  0.68457400  1
  O  O128  1  0.41568900  0.78389300  0.07471000  1
  O  O129  1  0.91568900  0.71610700  0.92529000  1
  O  O130  1  0.58431100  0.28389300  0.42529000  1
  O  O131  1  0.08431100  0.21610700  0.57471000  1
  O  O132  1  0.76167300  0.79504900  0.08227100  1
  O  O133  1  0.26167300  0.70495100  0.91772900  1
  O  O134  1  0.23832700  0.29504900  0.41772900  1
  O  O135  1  0.73832700  0.20495100  0.58227100  1
  O  O136  1  0.45243400  0.04295700  0.95781400  1
  O  O137  1  0.95243400  0.45704300  0.04218600  1
  O  O138  1  0.54756600  0.54295700  0.54218600  1
  O  O139  1  0.04756600  0.95704300  0.45781400  1
  O  O140  1  0.06016300  0.99043500  0.13731900  1
  O  O141  1  0.56016300  0.50956500  0.86268100  1
  O  O142  1  0.93983700  0.49043500  0.36268100  1
  O  O143  1  0.43983700  0.00956500  0.63731900  1
