# generated using pymatgen
data_CrSb2H12(C2O)4
_symmetry_space_group_name_H-M   'P 1'
_cell_length_a   8.80034989
_cell_length_b   8.80034989
_cell_length_c   10.33900375
_cell_angle_alpha   69.41717400
_cell_angle_beta   69.41717400
_cell_angle_gamma   81.70636448
_symmetry_Int_Tables_number   1
_chemical_formula_structural   CrSb2H12(C2O)4
_chemical_formula_sum   'Cr2 Sb4 H24 C16 O8'
_cell_volume   701.55662502
_cell_formula_units_Z   2
loop_
 _symmetry_equiv_pos_site_id
 _symmetry_equiv_pos_as_xyz
  1  'x, y, z'
loop_
 _atom_site_type_symbol
 _atom_site_label
 _atom_site_symmetry_multiplicity
 _atom_site_fract_x
 _atom_site_fract_y
 _atom_site_fract_z
 _atom_site_occupancy
  Cr  Cr0  1  0.21137900  0.21137900  0.19126700  1
  Cr  Cr1  1  0.78862100  0.78862100  0.80873300  1
  Sb  Sb2  1  0.89798400  0.22236100  0.34296600  1
  Sb  Sb3  1  0.22236100  0.89798400  0.34296600  1
  Sb  Sb4  1  0.10201600  0.77763900  0.65703400  1
  Sb  Sb5  1  0.77763900  0.10201600  0.65703400  1
  H  H6  1  0.84686600  0.54591800  0.21153800  1
  H  H7  1  0.54591800  0.84686600  0.21153800  1
  H  H8  1  0.15313400  0.45408200  0.78846200  1
  H  H9  1  0.45408200  0.15313400  0.78846200  1
  H  H10  1  0.65430800  0.45138000  0.31399400  1
  H  H11  1  0.45138000  0.65430800  0.31399400  1
  H  H12  1  0.34569200  0.54862000  0.68600600  1
  H  H13  1  0.54862000  0.34569200  0.68600600  1
  H  H14  1  0.76897100  0.50183500  0.40538500  1
  H  H15  1  0.50183500  0.76897100  0.40538500  1
  H  H16  1  0.23102900  0.49816500  0.59461500  1
  H  H17  1  0.49816500  0.23102900  0.59461500  1
  H  H18  1  0.74487300  0.13729600  0.19095600  1
  H  H19  1  0.13729600  0.74487300  0.19095600  1
  H  H20  1  0.25512700  0.86270400  0.80904400  1
  H  H21  1  0.86270400  0.25512700  0.80904400  1
  H  H22  1  0.75279300  0.96552800  0.34618900  1
  H  H23  1  0.96552800  0.75279300  0.34618900  1
  H  H24  1  0.24720700  0.03447200  0.65381100  1
  H  H25  1  0.03447200  0.24720700  0.65381100  1
  H  H26  1  0.60364200  0.12444900  0.36827300  1
  H  H27  1  0.12444900  0.60364200  0.36827300  1
  H  H28  1  0.39635800  0.87555100  0.63172700  1
  H  H29  1  0.87555100  0.39635800  0.63172700  1
  C  C30  1  0.15246100  0.15246100  0.05549500  1
  C  C31  1  0.84753900  0.84753900  0.94450500  1
  C  C32  1  0.19517700  0.42727100  0.08306100  1
  C  C33  1  0.42727100  0.19517700  0.08306100  1
  C  C34  1  0.80482300  0.57272900  0.91693900  1
  C  C35  1  0.57272900  0.80482300  0.91693900  1
  C  C36  1  0.27253900  0.27253900  0.32319600  1
  C  C37  1  0.72746100  0.72746100  0.67680400  1
  C  C38  1  0.77682600  0.46003200  0.31509700  1
  C  C39  1  0.46003200  0.77682600  0.31509700  1
  C  C40  1  0.22317400  0.53996800  0.68490300  1
  C  C41  1  0.53996800  0.22317400  0.68490300  1
  C  C42  1  0.72847800  0.09656000  0.30799800  1
  C  C43  1  0.09656000  0.72847800  0.30799800  1
  C  C44  1  0.27152200  0.90344000  0.69200200  1
  C  C45  1  0.90344000  0.27152200  0.69200200  1
  O  O46  1  0.12332200  0.12332200  0.96477600  1
  O  O47  1  0.87667800  0.87667800  0.03522400  1
  O  O48  1  0.18460400  0.56388200  0.01284300  1
  O  O49  1  0.56388200  0.18460400  0.01284300  1
  O  O50  1  0.81539600  0.43611800  0.98715700  1
  O  O51  1  0.43611800  0.81539600  0.98715700  1
  O  O52  1  0.31620800  0.31620800  0.39953800  1
  O  O53  1  0.68379200  0.68379200  0.60046200  1
