# generated using pymatgen
data_KMnH24(C7N4)2
_symmetry_space_group_name_H-M   'P 1'
_cell_length_a   8.87257206
_cell_length_b   8.87257206
_cell_length_c   8.87257206
_cell_angle_alpha   119.32461917
_cell_angle_beta   119.32461917
_cell_angle_gamma   91.17382946
_symmetry_Int_Tables_number   1
_chemical_formula_structural   KMnH24(C7N4)2
_chemical_formula_sum   'K1 Mn1 H24 C14 N8'
_cell_volume   498.82238320
_cell_formula_units_Z   1
loop_
 _symmetry_equiv_pos_site_id
 _symmetry_equiv_pos_as_xyz
  1  'x, y, z'
loop_
 _atom_site_type_symbol
 _atom_site_label
 _atom_site_symmetry_multiplicity
 _atom_site_fract_x
 _atom_site_fract_y
 _atom_site_fract_z
 _atom_site_occupancy
  K  K0  1  0.50000000  0.50000000  0.00000000  1
  Mn  Mn1  1  0.00000000  0.00000000  0.00000000  1
  H  H2  1  0.02365600  0.34608800  0.77395600  1
  H  H3  1  0.57213200  0.24970000  0.22604400  1
  H  H4  1  0.24970000  0.02365600  0.67756800  1
  H  H5  1  0.34608800  0.57213200  0.32243200  1
  H  H6  1  0.97634400  0.65391200  0.22604400  1
  H  H7  1  0.42786800  0.75030000  0.77395600  1
  H  H8  1  0.75030000  0.97634400  0.32243200  1
  H  H9  1  0.65391200  0.42786800  0.67756800  1
  H  H10  1  0.99856200  0.45557900  0.64473600  1
  H  H11  1  0.81084300  0.35382500  0.35526400  1
  H  H12  1  0.35382500  0.99856200  0.54298200  1
  H  H13  1  0.45557900  0.81084300  0.45701800  1
  H  H14  1  0.00143800  0.54442100  0.35526400  1
  H  H15  1  0.18915700  0.64617500  0.64473600  1
  H  H16  1  0.64617500  0.00143800  0.45701800  1
  H  H17  1  0.54442100  0.18915700  0.54298200  1
  H  H18  1  0.91070300  0.51219300  0.79995400  1
  H  H19  1  0.71224000  0.11074900  0.20004600  1
  H  H20  1  0.11074900  0.91070300  0.39851000  1
  H  H21  1  0.51219300  0.71224000  0.60149000  1
  H  H22  1  0.08929700  0.48780700  0.20004600  1
  H  H23  1  0.28776000  0.88925100  0.79995400  1
  H  H24  1  0.88925100  0.08929700  0.60149000  1
  H  H25  1  0.48780700  0.28776000  0.39851000  1
  C  C26  1  0.84036000  0.84036000  0.00000000  1
  C  C27  1  0.15964000  0.15964000  0.00000000  1
  C  C28  1  0.17799600  0.86604800  0.04404500  1
  C  C29  1  0.82200400  0.13395200  0.95595500  1
  C  C30  1  0.13395200  0.17799600  0.31194800  1
  C  C31  1  0.86604800  0.82200400  0.68805200  1
  C  C32  1  0.93370000  0.40150700  0.69355000  1
  C  C33  1  0.70795700  0.24015000  0.30645000  1
  C  C34  1  0.24015000  0.93370000  0.53219300  1
  C  C35  1  0.40150700  0.70795700  0.46780700  1
  C  C36  1  0.06630000  0.59849300  0.30645000  1
  C  C37  1  0.29204300  0.75985000  0.69355000  1
  C  C38  1  0.75985000  0.06630000  0.46780700  1
  C  C39  1  0.59849300  0.29204300  0.53219300  1
  N  N40  1  0.74523700  0.74523700  0.00000000  1
  N  N41  1  0.25476300  0.25476300  0.00000000  1
  N  N42  1  0.28104100  0.78457900  0.06562000  1
  N  N43  1  0.71895900  0.21542100  0.93438000  1
  N  N44  1  0.21542100  0.28104100  0.49646200  1
  N  N45  1  0.78457900  0.71895900  0.50353800  1
  N  N46  1  0.75000000  0.25000000  0.50000000  1
  N  N47  1  0.25000000  0.75000000  0.50000000  1
