# generated using pymatgen
data_Tm2PbS4
_symmetry_space_group_name_H-M   'P 1'
_cell_length_a   13.37738100
_cell_length_b   10.25964000
_cell_length_c   11.71996966
_cell_angle_alpha   66.97416504
_cell_angle_beta   90.00000000
_cell_angle_gamma   90.00000000
_symmetry_Int_Tables_number   1
_chemical_formula_structural   Tm2PbS4
_chemical_formula_sum   'Tm16 Pb8 S32'
_cell_volume   1480.37796911
_cell_formula_units_Z   8
loop_
 _symmetry_equiv_pos_site_id
 _symmetry_equiv_pos_as_xyz
  1  'x, y, z'
loop_
 _atom_site_type_symbol
 _atom_site_label
 _atom_site_symmetry_multiplicity
 _atom_site_fract_x
 _atom_site_fract_y
 _atom_site_fract_z
 _atom_site_occupancy
  Tm  Tm0  1  0.29712900  0.94720200  0.58127700  1
  Tm  Tm1  1  0.73826700  0.81289500  0.88260800  1
  Tm  Tm2  1  0.60431100  0.81967400  0.17756800  1
  Tm  Tm3  1  0.99554900  0.67791700  0.51585200  1
  Tm  Tm4  1  0.62963000  0.71019600  0.59727800  1
  Tm  Tm5  1  0.09610800  0.53578900  0.84308600  1
  Tm  Tm6  1  0.18809200  0.69212300  0.14043300  1
  Tm  Tm7  1  0.77275300  0.42626500  0.45668000  1
  Tm  Tm8  1  0.27275300  0.57373500  0.54332000  1
  Tm  Tm9  1  0.68809200  0.30787700  0.85956700  1
  Tm  Tm10  1  0.59610800  0.46421100  0.15691400  1
  Tm  Tm11  1  0.12963000  0.28980400  0.40272200  1
  Tm  Tm12  1  0.49554900  0.32208300  0.48414800  1
  Tm  Tm13  1  0.10431100  0.18032600  0.82243200  1
  Tm  Tm14  1  0.23826700  0.18710500  0.11739200  1
  Tm  Tm15  1  0.79712900  0.05279800  0.41872300  1
  Pb  Pb16  1  0.98926900  0.94797100  0.66309400  1
  Pb  Pb17  1  0.92472300  0.00155800  0.07487700  1
  Pb  Pb18  1  0.43288400  0.56751800  0.83416800  1
  Pb  Pb19  1  0.40024900  0.60654100  0.28830600  1
  Pb  Pb20  1  0.90024900  0.39345900  0.71169400  1
  Pb  Pb21  1  0.93288400  0.43248200  0.16583200  1
  Pb  Pb22  1  0.42472300  0.99844200  0.92512300  1
  Pb  Pb23  1  0.48926900  0.05202900  0.33690600  1
  S  S24  1  0.72639800  0.92031400  0.64417800  1
  S  S25  1  0.33055000  0.81737600  0.82436300  1
  S  S26  1  0.26105900  0.63324500  0.94963200  1
  S  S27  1  0.05527100  0.74152800  0.93819600  1
  S  S28  1  0.19644700  0.98542500  0.02429000  1
  S  S29  1  0.42180800  0.92333100  0.18939800  1
  S  S30  1  0.42887900  0.73921300  0.55774200  1
  S  S31  1  0.67104000  0.87546700  0.36859400  1
  S  S32  1  0.15946100  0.73743000  0.61562700  1
  S  S33  1  0.94980500  0.92240600  0.36950000  1
  S  S34  1  0.92225500  0.65118600  0.73854500  1
  S  S35  1  0.65747900  0.57767200  0.83587200  1
  S  S36  1  0.55653100  0.73158400  0.99749500  1
  S  S37  1  0.91330000  0.73263500  0.02197200  1
  S  S38  1  0.74508300  0.60926200  0.23513500  1
  S  S39  1  0.11987200  0.56979700  0.38760100  1
  S  S40  1  0.61987200  0.43020300  0.61239900  1
  S  S41  1  0.24508300  0.39073800  0.76486500  1
  S  S42  1  0.41330000  0.26736500  0.97802800  1
  S  S43  1  0.05653100  0.26841600  0.00250500  1
  S  S44  1  0.15747900  0.42232800  0.16412800  1
  S  S45  1  0.42225500  0.34881400  0.26145500  1
  S  S46  1  0.44980500  0.07759400  0.63050000  1
  S  S47  1  0.65946100  0.26257000  0.38437300  1
  S  S48  1  0.17104000  0.12453300  0.63140600  1
  S  S49  1  0.92887900  0.26078700  0.44225800  1
  S  S50  1  0.92180800  0.07666900  0.81060200  1
  S  S51  1  0.69644700  0.01457500  0.97571000  1
  S  S52  1  0.55527100  0.25847200  0.06180400  1
  S  S53  1  0.76105900  0.36675500  0.05036800  1
  S  S54  1  0.83055000  0.18262400  0.17563700  1
  S  S55  1  0.22639800  0.07968600  0.35582200  1
