# generated using pymatgen
data_HgC2Br3N
_symmetry_space_group_name_H-M   'P 1'
_cell_length_a   8.72682100
_cell_length_b   15.52309200
_cell_length_c   16.82705389
_cell_angle_alpha   79.54784069
_cell_angle_beta   90.00000000
_cell_angle_gamma   90.00000000
_symmetry_Int_Tables_number   1
_chemical_formula_structural   HgC2Br3N
_chemical_formula_sum   'Hg8 C16 Br24 N8'
_cell_volume   2241.69002871
_cell_formula_units_Z   8
loop_
 _symmetry_equiv_pos_site_id
 _symmetry_equiv_pos_as_xyz
  1  'x, y, z'
loop_
 _atom_site_type_symbol
 _atom_site_label
 _atom_site_symmetry_multiplicity
 _atom_site_fract_x
 _atom_site_fract_y
 _atom_site_fract_z
 _atom_site_occupancy
  Hg  Hg0  1  0.19732800  0.85078300  0.22729700  1
  Hg  Hg1  1  0.19732800  0.64921700  0.77270300  1
  Hg  Hg2  1  0.80267200  0.14921700  0.77270300  1
  Hg  Hg3  1  0.80267200  0.35078300  0.22729700  1
  Hg  Hg4  1  0.88348000  0.75000000  0.00000000  1
  Hg  Hg5  1  0.11652000  0.25000000  0.00000000  1
  Hg  Hg6  1  0.18939200  0.75000000  0.50000000  1
  Hg  Hg7  1  0.81060800  0.25000000  0.50000000  1
  C  C8  1  0.61112000  0.01377300  0.14854700  1
  C  C9  1  0.61112000  0.48622700  0.85145300  1
  C  C10  1  0.38888000  0.98622700  0.85145300  1
  C  C11  1  0.38888000  0.51377300  0.14854700  1
  C  C12  1  0.85428900  0.06909700  0.07658800  1
  C  C13  1  0.85428900  0.43090300  0.92341200  1
  C  C14  1  0.14571100  0.93090300  0.92341200  1
  C  C15  1  0.14571100  0.56909700  0.07658800  1
  C  C16  1  0.79842100  0.63323900  0.43640700  1
  C  C17  1  0.79842100  0.86676100  0.56359300  1
  C  C18  1  0.20157900  0.36676100  0.56359300  1
  C  C19  1  0.20157900  0.13323900  0.43640700  1
  C  C20  1  0.60101800  0.57802300  0.34896000  1
  C  C21  1  0.60101800  0.92197700  0.65104000  1
  C  C22  1  0.39898200  0.42197700  0.65104000  1
  C  C23  1  0.39898200  0.07802300  0.34896000  1
  Br  Br24  1  0.02937600  0.92038200  0.31333900  1
  Br  Br25  1  0.02937600  0.57961800  0.68666100  1
  Br  Br26  1  0.97062400  0.07961800  0.68666100  1
  Br  Br27  1  0.97062400  0.42038200  0.31333900  1
  Br  Br28  1  0.37956600  0.79277400  0.14068900  1
  Br  Br29  1  0.37956600  0.70722600  0.85931100  1
  Br  Br30  1  0.62043400  0.20722600  0.85931100  1
  Br  Br31  1  0.62043400  0.29277400  0.14068900  1
  Br  Br32  1  0.20745700  0.65440800  0.40046400  1
  Br  Br33  1  0.20745700  0.84559200  0.59953600  1
  Br  Br34  1  0.79254300  0.34559200  0.59953600  1
  Br  Br35  1  0.79254300  0.15440800  0.40046400  1
  Br  Br36  1  0.86685600  0.76545100  0.14158200  1
  Br  Br37  1  0.86685600  0.73454900  0.85841800  1
  Br  Br38  1  0.13314400  0.23454900  0.85841800  1
  Br  Br39  1  0.13314400  0.26545100  0.14158200  1
  Br  Br40  1  0.57569900  0.56686100  0.10921100  1
  Br  Br41  1  0.57569900  0.93313900  0.89078900  1
  Br  Br42  1  0.42430100  0.43313900  0.89078900  1
  Br  Br43  1  0.42430100  0.06686100  0.10921100  1
  Br  Br44  1  0.46972700  0.53909400  0.61988600  1
  Br  Br45  1  0.46972700  0.96090600  0.38011400  1
  Br  Br46  1  0.53027300  0.46090600  0.38011400  1
  Br  Br47  1  0.53027300  0.03909400  0.61988600  1
  N  N48  1  0.72941600  0.04980600  0.10477100  1
  N  N49  1  0.72941600  0.45019400  0.89522900  1
  N  N50  1  0.27058400  0.95019400  0.89522900  1
  N  N51  1  0.27058400  0.54980600  0.10477100  1
  N  N52  1  0.70877500  0.59664100  0.39905200  1
  N  N53  1  0.70877500  0.90335900  0.60094800  1
  N  N54  1  0.29122500  0.40335900  0.60094800  1
  N  N55  1  0.29122500  0.09664100  0.39905200  1
