# generated using pymatgen
data_Sr9NdFe5(MoO6)5
_symmetry_space_group_name_H-M   'P 1'
_cell_length_a   5.63749500
_cell_length_b   9.79783622
_cell_length_c   12.74655048
_cell_angle_alpha   74.84030769
_cell_angle_beta   77.28271922
_cell_angle_gamma   73.31290808
_symmetry_Int_Tables_number   1
_chemical_formula_structural   Sr9NdFe5(MoO6)5
_chemical_formula_sum   'Sr9 Nd1 Fe5 Mo5 O30'
_cell_volume   642.87935635
_cell_formula_units_Z   1
loop_
 _symmetry_equiv_pos_site_id
 _symmetry_equiv_pos_as_xyz
  1  'x, y, z'
loop_
 _atom_site_type_symbol
 _atom_site_label
 _atom_site_symmetry_multiplicity
 _atom_site_fract_x
 _atom_site_fract_y
 _atom_site_fract_z
 _atom_site_occupancy
  Sr  Sr0  1  0.39666400  0.06242400  0.14592500  1
  Sr  Sr1  1  0.60107500  0.44742100  0.34981900  1
  Sr  Sr2  1  0.80071300  0.84949100  0.55252700  1
  Sr  Sr3  1  0.99426300  0.25601600  0.75326200  1
  Sr  Sr4  1  0.21111900  0.63302200  0.94860200  1
  Sr  Sr5  1  0.79853100  0.34934500  0.04673000  1
  Sr  Sr6  1  0.00317100  0.74877500  0.24888600  1
  Sr  Sr7  1  0.19935200  0.15222900  0.45161100  1
  Sr  Sr8  1  0.59790600  0.95914900  0.84394200  1
  Nd  Nd9  1  0.40827300  0.52936100  0.66625800  1
  Fe  Fe10  1  0.20190000  0.40142500  0.19760200  1
  Fe  Fe11  1  0.39810100  0.79761500  0.40076800  1
  Fe  Fe12  1  0.60125500  0.19916100  0.60216000  1
  Fe  Fe13  1  0.80078200  0.59802200  0.79981700  1
  Fe  Fe14  1  0.39877800  0.30146900  0.90094400  1
  Mo  Mo15  1  0.00220100  0.99996100  0.99777400  1
  Mo  Mo16  1  0.60231200  0.69704500  0.10067000  1
  Mo  Mo17  1  0.79770400  0.10043200  0.30365400  1
  Mo  Mo18  1  0.99958800  0.50216700  0.49901600  1
  Mo  Mo19  1  0.20025700  0.89817700  0.69698600  1
  O  O20  1  0.29404600  0.34975800  0.05105600  1
  O  O21  1  0.50371900  0.74842900  0.24679300  1
  O  O22  1  0.69509400  0.15480400  0.45129200  1
  O  O23  1  0.89833400  0.55198300  0.64859400  1
  O  O24  1  0.11046100  0.94207500  0.84350400  1
  O  O25  1  0.35463800  0.57426700  0.14332800  1
  O  O26  1  0.56698400  0.97199900  0.34585100  1
  O  O27  1  0.73621800  0.38450900  0.54459000  1
  O  O28  1  0.94630600  0.77559100  0.74083600  1
  O  O29  1  0.15820800  0.16916800  0.93991800  1
  O  O30  1  0.33426200  0.87415900  0.04279000  1
  O  O31  1  0.52590800  0.26979700  0.24569800  1
  O  O32  1  0.74588200  0.67222200  0.43982700  1
  O  O33  1  0.13304300  0.47510900  0.83537600  1
  O  O34  1  0.93423800  0.07576500  0.64173100  1
  O  O35  1  0.89952700  0.05070200  0.15262600  1
  O  O36  1  0.09473700  0.45268400  0.34924400  1
  O  O37  1  0.30423700  0.85091300  0.55300400  1
  O  O38  1  0.49368500  0.26393800  0.74362600  1
  O  O39  1  0.69469000  0.65245200  0.95468800  1
  O  O40  1  0.86532300  0.52617100  0.15861900  1
  O  O41  1  0.07290100  0.92460500  0.36150400  1
  O  O42  1  0.25337200  0.33620100  0.55718700  1
  O  O43  1  0.46472300  0.71581100  0.75075800  1
  O  O44  1  0.67446000  0.12481700  0.95388700  1
  O  O45  1  0.85128700  0.82424100  0.05793700  1
  O  O46  1  0.03267200  0.22344100  0.26243900  1
  O  O47  1  0.26156400  0.62285400  0.46583900  1
  O  O48  1  0.44747700  0.02652400  0.65627700  1
  O  O49  1  0.63805900  0.43230700  0.85422900  1
