# generated using pymatgen
data_Mo3H9I3(ClO)4
_symmetry_space_group_name_H-M   'P 1'
_cell_length_a   10.23968700
_cell_length_b   9.91552900
_cell_length_c   18.59298298
_cell_angle_alpha   80.75090789
_cell_angle_beta   90.00000000
_cell_angle_gamma   90.00000000
_symmetry_Int_Tables_number   1
_chemical_formula_structural   Mo3H9I3(ClO)4
_chemical_formula_sum   'Mo12 H36 I12 Cl16 O16'
_cell_volume   1863.23793190
_cell_formula_units_Z   4
loop_
 _symmetry_equiv_pos_site_id
 _symmetry_equiv_pos_as_xyz
  1  'x, y, z'
loop_
 _atom_site_type_symbol
 _atom_site_label
 _atom_site_symmetry_multiplicity
 _atom_site_fract_x
 _atom_site_fract_y
 _atom_site_fract_z
 _atom_site_occupancy
  Mo  Mo0  1  0.81748400  0.90605100  0.49825600  1
  Mo  Mo1  1  0.31748400  0.09394900  0.00174400  1
  Mo  Mo2  1  0.18251600  0.09394900  0.50174400  1
  Mo  Mo3  1  0.68251600  0.90605100  0.99825600  1
  Mo  Mo4  1  0.08329800  0.82944100  0.49984200  1
  Mo  Mo5  1  0.58329800  0.17055900  0.00015800  1
  Mo  Mo6  1  0.91670200  0.17055900  0.50015800  1
  Mo  Mo7  1  0.41670200  0.82944100  0.99984200  1
  Mo  Mo8  1  0.00280700  0.03548100  0.38625900  1
  Mo  Mo9  1  0.50280700  0.96451900  0.11374100  1
  Mo  Mo10  1  0.99719300  0.96451900  0.61374100  1
  Mo  Mo11  1  0.49719300  0.03548100  0.88625900  1
  H  H12  1  0.76705600  0.35656300  0.64878500  1
  H  H13  1  0.26705600  0.64343700  0.85121500  1
  H  H14  1  0.23294400  0.64343700  0.35121500  1
  H  H15  1  0.73294400  0.35656300  0.14878500  1
  H  H16  1  0.31408500  0.73675400  0.29030800  1
  H  H17  1  0.81408500  0.26324600  0.20969200  1
  H  H18  1  0.68591500  0.26324600  0.70969200  1
  H  H19  1  0.18591500  0.73675400  0.79030800  1
  H  H20  1  0.17054200  0.39178200  0.75430500  1
  H  H21  1  0.67054200  0.60821800  0.74569500  1
  H  H22  1  0.82945800  0.60821800  0.24569500  1
  H  H23  1  0.32945800  0.39178200  0.25430500  1
  H  H24  1  0.29866300  0.45526200  0.69746700  1
  H  H25  1  0.79866300  0.54473800  0.80253300  1
  H  H26  1  0.70133700  0.54473800  0.30253300  1
  H  H27  1  0.20133700  0.45526200  0.19746700  1
  H  H28  1  0.73381700  0.44609900  0.74078300  1
  H  H29  1  0.23381700  0.55390100  0.75921700  1
  H  H30  1  0.26618300  0.55390100  0.25921700  1
  H  H31  1  0.76618300  0.44609900  0.24078300  1
  H  H32  1  0.91697300  0.75157900  0.14881700  1
  H  H33  1  0.41697300  0.24842100  0.35118300  1
  H  H34  1  0.08302700  0.24842100  0.85118300  1
  H  H35  1  0.58302700  0.75157900  0.64881700  1
  H  H36  1  0.95197700  0.80753100  0.22053400  1
  H  H37  1  0.45197700  0.19246900  0.27946600  1
  H  H38  1  0.04802300  0.19246900  0.77946600  1
  H  H39  1  0.54802300  0.80753100  0.72053400  1
  H  H40  1  0.57920100  0.63628400  0.38039800  1
  H  H41  1  0.07920100  0.36371600  0.11960200  1
  H  H42  1  0.42079900  0.36371600  0.61960200  1
  H  H43  1  0.92079900  0.63628400  0.88039800  1
  H  H44  1  0.55878200  0.48017800  0.38870600  1
  H  H45  1  0.05878200  0.51982200  0.11129400  1
  H  H46  1  0.44121800  0.51982200  0.61129400  1
  H  H47  1  0.94121800  0.48017800  0.88870600  1
  I  I48  1  0.56883200  0.77954000  0.50091900  1
  I  I49  1  0.06883200  0.22046000  0.99908100  1
  I  I50  1  0.43116800  0.22046000  0.49908100  1
  I  I51  1  0.93116800  0.77954000  0.00091900  1
  I  I52  1  0.21029900  0.57976500  0.49228800  1
  I  I53  1  0.71029900  0.42023500  0.00771200  1
  I  I54  1  0.78970100  0.42023500  0.50771200  1
  I  I55  1  0.28970100  0.57976500  0.99228800  1
  I  I56  1  0.01415500  0.07820300  0.23207300  1
  I  I57  1  0.51415500  0.92179700  0.26792700  1
  I  I58  1  0.98584500  0.92179700  0.76792700  1
  I  I59  1  0.48584500  0.07820300  0.73207300  1
  Cl  Cl60  1  0.91924500  0.79206200  0.39911100  1
  Cl  Cl61  1  0.41924500  0.20793800  0.10088900  1
  Cl  Cl62  1  0.08075500  0.20793800  0.60088900  1
  Cl  Cl63  1  0.58075500  0.79206200  0.89911100  1
  Cl  Cl64  1  0.76668900  0.10739700  0.39904400  1
  Cl  Cl65  1  0.26668900  0.89260300  0.10095600  1
  Cl  Cl66  1  0.23331100  0.89260300  0.60095600  1
  Cl  Cl67  1  0.73331100  0.10739700  0.89904400  1
  Cl  Cl68  1  0.91652500  0.72981500  0.59824900  1
  Cl  Cl69  1  0.41652500  0.27018500  0.90175100  1
  Cl  Cl70  1  0.08347500  0.27018500  0.40175100  1
  Cl  Cl71  1  0.58347500  0.72981500  0.09824900  1
  Cl  Cl72  1  0.76194100  0.04374500  0.59725500  1
  Cl  Cl73  1  0.26194100  0.95625500  0.90274500  1
  Cl  Cl74  1  0.23805900  0.95625500  0.40274500  1
  Cl  Cl75  1  0.73805900  0.04374500  0.09725500  1
  O  O76  1  0.75614100  0.33225100  0.70228400  1
  O  O77  1  0.25614100  0.66774900  0.79771600  1
  O  O78  1  0.24385900  0.66774900  0.29771600  1
  O  O79  1  0.74385900  0.33225100  0.20228400  1
  O  O80  1  0.71836900  0.52470900  0.77279600  1
  O  O81  1  0.21836900  0.47529100  0.72720400  1
  O  O82  1  0.28163100  0.47529100  0.22720400  1
  O  O83  1  0.78163100  0.52470900  0.27279600  1
  O  O84  1  0.57951400  0.72562400  0.70216400  1
  O  O85  1  0.07951400  0.27437600  0.79783600  1
  O  O86  1  0.42048600  0.27437600  0.29783600  1
  O  O87  1  0.92048600  0.72562400  0.20216400  1
  O  O88  1  0.92515000  0.56138700  0.85175300  1
  O  O89  1  0.42515000  0.43861300  0.64824700  1
  O  O90  1  0.07485000  0.43861300  0.14824700  1
  O  O91  1  0.57485000  0.56138700  0.35175300  1
