# generated using pymatgen
data_Mn2PC11SO8F9
_symmetry_space_group_name_H-M   'P 1'
_cell_length_a   9.23914800
_cell_length_b   14.70219100
_cell_length_c   15.37272876
_cell_angle_alpha   72.81668107
_cell_angle_beta   90.00000000
_cell_angle_gamma   90.00000000
_symmetry_Int_Tables_number   1
_chemical_formula_structural   Mn2PC11SO8F9
_chemical_formula_sum   'Mn8 P4 C44 S4 O32 F36'
_cell_volume   1994.95915930
_cell_formula_units_Z   4
loop_
 _symmetry_equiv_pos_site_id
 _symmetry_equiv_pos_as_xyz
  1  'x, y, z'
loop_
 _atom_site_type_symbol
 _atom_site_label
 _atom_site_symmetry_multiplicity
 _atom_site_fract_x
 _atom_site_fract_y
 _atom_site_fract_z
 _atom_site_occupancy
  Mn  Mn0  1  0.73790100  0.26218900  0.67160300  1
  Mn  Mn1  1  0.99057200  0.78673000  0.14124100  1
  Mn  Mn2  1  0.50942800  0.28673000  0.14124100  1
  Mn  Mn3  1  0.49057200  0.71327000  0.85875900  1
  Mn  Mn4  1  0.76209900  0.76218900  0.67160300  1
  Mn  Mn5  1  0.23790100  0.23781100  0.32839700  1
  Mn  Mn6  1  0.00942800  0.21327000  0.85875900  1
  Mn  Mn7  1  0.26209900  0.73781100  0.32839700  1
  P  P8  1  0.96479400  0.30872000  0.71010100  1
  P  P9  1  0.03520600  0.69128000  0.28989900  1
  P  P10  1  0.53520600  0.80872000  0.71010100  1
  P  P11  1  0.46479400  0.19128000  0.28989900  1
  C  C12  1  0.14522500  0.15476700  0.27457100  1
  C  C13  1  0.01709200  0.13165700  0.97529300  1
  C  C14  1  0.98290800  0.86834300  0.02470700  1
  C  C15  1  0.82062400  0.17787400  0.61572900  1
  C  C16  1  0.56068600  0.21180200  0.65760700  1
  C  C17  1  0.88693600  0.69596500  0.37444300  1
  C  C18  1  0.51611900  0.94167800  0.69383900  1
  C  C19  1  0.98388100  0.44167800  0.69383900  1
  C  C20  1  0.11306400  0.30403500  0.62555700  1
  C  C21  1  0.34929000  0.86510800  0.10229900  1
  C  C22  1  0.67937600  0.67787400  0.61572900  1
  C  C23  1  0.35477500  0.65476700  0.27457100  1
  C  C24  1  0.22672900  0.14524100  0.43796100  1
  C  C25  1  0.58892200  0.80048400  0.90357600  1
  C  C26  1  0.91107800  0.30048400  0.90357600  1
  C  C27  1  0.41107800  0.19951600  0.09642400  1
  C  C28  1  0.48290800  0.63165700  0.97529300  1
  C  C29  1  0.18012500  0.27086200  0.86967200  1
  C  C30  1  0.06068600  0.28819800  0.34239300  1
  C  C31  1  0.72672900  0.35475900  0.56203900  1
  C  C32  1  0.51709200  0.36834300  0.02470700  1
  C  C33  1  0.85477500  0.84523300  0.72542900  1
  C  C34  1  0.27327100  0.64524100  0.43796100  1
  C  C35  1  0.84929000  0.63489200  0.89770100  1
  C  C36  1  0.38693600  0.80403500  0.62555700  1
  C  C37  1  0.15071000  0.36510800  0.10229900  1
  C  C38  1  0.01611900  0.55832200  0.30616100  1
  C  C39  1  0.32062400  0.32212600  0.38427100  1
  C  C40  1  0.31987500  0.77086200  0.86967200  1
  C  C41  1  0.43931400  0.78819800  0.34239300  1
  C  C42  1  0.48388100  0.05832200  0.30616100  1
  C  C43  1  0.88883400  0.87816300  0.17930400  1
  C  C44  1  0.61116600  0.37816300  0.17930400  1
  C  C45  1  0.11116600  0.12183700  0.82069600  1
  C  C46  1  0.08892200  0.69951600  0.09642400  1
  C  C47  1  0.81987500  0.72913800  0.13032800  1
  C  C48  1  0.64522500  0.34523300  0.72542900  1
  C  C49  1  0.68012500  0.22913800  0.13032800  1
  C  C50  1  0.17937600  0.82212600  0.38427100  1
  C  C51  1  0.93931400  0.71180200  0.65760700  1
  C  C52  1  0.61306400  0.19596500  0.37444300  1
  C  C53  1  0.38883400  0.62183700  0.82069600  1
  C  C54  1  0.77327100  0.85475900  0.56203900  1
  C  C55  1  0.65071000  0.13489200  0.89770100  1
  S  S56  1  0.79422400  0.14282500  0.81487800  1
  S  S57  1  0.20577600  0.85717500  0.18512200  1
  S  S58  1  0.29422400  0.35717500  0.18512200  1
  S  S59  1  0.70577600  0.64282500  0.81487800  1
  O  O60  1  0.71035400  0.69296700  0.12394000  1
  O  O61  1  0.63504200  0.62504300  0.57929100  1
  O  O62  1  0.28255600  0.58566600  0.50670000  1
  O  O63  1  0.32401000  0.56261500  0.80269700  1
  O  O64  1  0.55062600  0.81939100  0.35350000  1
  O  O65  1  0.85694000  0.35387300  0.93579400  1
  O  O66  1  0.78964600  0.19296700  0.12394000  1
  O  O67  1  0.58085300  0.39778000  0.75374600  1
  O  O68  1  0.82401000  0.93738500  0.19730300  1
  O  O69  1  0.47462700  0.58076600  0.04878300  1
  O  O70  1  0.94937400  0.31939100  0.35350000  1
  O  O71  1  0.71744400  0.41433400  0.49330000  1
  O  O72  1  0.64306000  0.85387300  0.93579400  1
  O  O73  1  0.14306000  0.64612700  0.06420600  1
  O  O74  1  0.44937400  0.18060900  0.64650000  1
  O  O75  1  0.52537300  0.41923400  0.95121700  1
  O  O76  1  0.02537300  0.08076600  0.04878300  1
  O  O77  1  0.41914700  0.60222000  0.24625400  1
  O  O78  1  0.91914700  0.89778000  0.75374600  1
  O  O79  1  0.35694000  0.14612700  0.06420600  1
  O  O80  1  0.21035400  0.80703300  0.87606000  1
  O  O81  1  0.67599000  0.43738500  0.19730300  1
  O  O82  1  0.13504200  0.87495700  0.42070900  1
  O  O83  1  0.78255600  0.91433400  0.49330000  1
  O  O84  1  0.05062600  0.68060900  0.64650000  1
  O  O85  1  0.08085300  0.10222000  0.24625400  1
  O  O86  1  0.21744400  0.08566600  0.50670000  1
  O  O87  1  0.36495800  0.37495700  0.42070900  1
  O  O88  1  0.17599000  0.06261500  0.80269700  1
  O  O89  1  0.28964600  0.30703300  0.87606000  1
  O  O90  1  0.97462700  0.91923400  0.95121700  1
  O  O91  1  0.86495800  0.12504300  0.57929100  1
  F  F92  1  0.38634500  0.96488300  0.72331400  1
  F  F93  1  0.57895500  0.14573100  0.46190100  1
  F  F94  1  0.62116500  0.97078600  0.74287900  1
  F  F95  1  0.52449100  0.10566500  0.86841600  1
  F  F96  1  0.02449100  0.39433500  0.13158400  1
  F  F97  1  0.11365500  0.46488300  0.72331400  1
  F  F98  1  0.81474400  0.57017200  0.97895800  1
  F  F99  1  0.03292700  0.50501900  0.39462800  1
  F  F100  1  0.12116500  0.52921400  0.25712100  1
  F  F101  1  0.42104500  0.85426900  0.53809900  1
  F  F102  1  0.12082600  0.28125900  0.08381200  1
  F  F103  1  0.87917400  0.71874100  0.91618800  1
  F  F104  1  0.24320800  0.33700100  0.64576400  1
  F  F105  1  0.53292700  0.99498100  0.60537200  1
  F  F106  1  0.31474400  0.92982800  0.02104200  1
  F  F107  1  0.47550900  0.89433500  0.13158400  1
  F  F108  1  0.61365500  0.03511700  0.27668600  1
  F  F109  1  0.13399600  0.21180200  0.62584400  1
  F  F110  1  0.88634500  0.53511700  0.27668600  1
  F  F111  1  0.87883500  0.47078600  0.74287900  1
  F  F112  1  0.68525600  0.07017200  0.97895800  1
  F  F113  1  0.75679200  0.66299900  0.35423600  1
  F  F114  1  0.46707300  0.00501900  0.39462800  1
  F  F115  1  0.62082600  0.21874100  0.91618800  1
  F  F116  1  0.96707300  0.49498100  0.60537200  1
  F  F117  1  0.07895500  0.35426900  0.53809900  1
  F  F118  1  0.86600400  0.78819800  0.37415600  1
  F  F119  1  0.36600400  0.71180200  0.62584400  1
  F  F120  1  0.97550900  0.60566500  0.86841600  1
  F  F121  1  0.37883500  0.02921400  0.25712100  1
  F  F122  1  0.63399600  0.28819800  0.37415600  1
  F  F123  1  0.92104500  0.64573100  0.46190100  1
  F  F124  1  0.37917400  0.78125900  0.08381200  1
  F  F125  1  0.74320800  0.16299900  0.35423600  1
  F  F126  1  0.25679200  0.83700100  0.64576400  1
  F  F127  1  0.18525600  0.42982800  0.02104200  1
