# generated using pymatgen
data_Ca2B3(HO)13
_symmetry_space_group_name_H-M   'P 1'
_cell_length_a   7.40132800
_cell_length_b   8.03672299
_cell_length_c   9.91006128
_cell_angle_alpha   107.27502531
_cell_angle_beta   110.98232438
_cell_angle_gamma   94.66792465
_symmetry_Int_Tables_number   1
_chemical_formula_structural   Ca2B3(HO)13
_chemical_formula_sum   'Ca4 B6 H26 O26'
_cell_volume   513.77841691
_cell_formula_units_Z   2
loop_
 _symmetry_equiv_pos_site_id
 _symmetry_equiv_pos_as_xyz
  1  'x, y, z'
loop_
 _atom_site_type_symbol
 _atom_site_label
 _atom_site_symmetry_multiplicity
 _atom_site_fract_x
 _atom_site_fract_y
 _atom_site_fract_z
 _atom_site_occupancy
  Ca  Ca0  1  0.74565100  0.92243400  0.96740000  1
  Ca  Ca1  1  0.25434900  0.07756600  0.03260000  1
  Ca  Ca2  1  0.58253700  0.88488500  0.32694900  1
  Ca  Ca3  1  0.41746300  0.11511500  0.67305100  1
  B  B4  1  0.36693100  0.71634600  0.97157300  1
  B  B5  1  0.63306900  0.28365400  0.02842700  1
  B  B6  1  0.30831200  0.76262200  0.71361200  1
  B  B7  1  0.69168800  0.23737800  0.28638800  1
  B  B8  1  0.15038600  0.47097200  0.71545500  1
  B  B9  1  0.84961400  0.52902800  0.28454500  1
  H  H10  1  0.62826900  0.63281400  0.08027400  1
  H  H11  1  0.37173100  0.36718600  0.91972600  1
  H  H12  1  0.14737200  0.74790900  0.05952700  1
  H  H13  1  0.85262800  0.25209100  0.94047300  1
  H  H14  1  0.50869900  0.74714800  0.60504400  1
  H  H15  1  0.49130100  0.25285200  0.39495600  1
  H  H16  1  0.08756000  0.90652800  0.69792400  1
  H  H17  1  0.91244000  0.09347200  0.30207600  1
  H  H18  1  0.03675700  0.22897000  0.54360600  1
  H  H19  1  0.96324300  0.77103000  0.45639400  1
  H  H20  1  0.87907300  0.49454900  0.57800500  1
  H  H21  1  0.12092700  0.50545100  0.42199500  1
  H  H22  1  0.93468500  0.80565900  0.77718400  1
  H  H23  1  0.06531500  0.19434100  0.22281600  1
  H  H24  1  0.89808200  0.57356800  0.85856200  1
  H  H25  1  0.10191800  0.42643200  0.14143800  1
  H  H26  1  0.83224300  0.56580700  0.99812200  1
  H  H27  1  0.16775700  0.43419300  0.00187800  1
  H  H28  1  0.80692000  0.99666800  0.68987400  1
  H  H29  1  0.19308000  0.00333200  0.31012600  1
  H  H30  1  0.82464900  0.14963000  0.62114100  1
  H  H31  1  0.17535100  0.85037000  0.37885900  1
  H  H32  1  0.35144600  0.56985700  0.35003400  1
  H  H33  1  0.64855400  0.43014300  0.64996600  1
  H  H34  1  0.57566100  0.54433900  0.37669700  1
  H  H35  1  0.42433900  0.45566100  0.62330300  1
  O  O36  1  0.58251000  0.74319400  0.06660800  1
  O  O37  1  0.41749000  0.25680600  0.93339200  1
  O  O38  1  0.28798100  0.79923300  0.09083300  1
  O  O39  1  0.71201900  0.20076700  0.90916700  1
  O  O40  1  0.34921600  0.83050800  0.87803600  1
  O  O41  1  0.65078400  0.16949200  0.12196400  1
  O  O42  1  0.49780200  0.81994200  0.69954900  1
  O  O43  1  0.50219800  0.18005800  0.30045100  1
  O  O44  1  0.16790400  0.86631300  0.63780200  1
  O  O45  1  0.83209600  0.13368700  0.36219800  1
  O  O46  1  0.24408200  0.56885000  0.64284000  1
  O  O47  1  0.75591800  0.43115000  0.35716000  1
  O  O48  1  0.14374800  0.27822100  0.64889200  1
  O  O49  1  0.85625200  0.72177900  0.35110800  1
  O  O50  1  0.94308100  0.50455600  0.68739500  1
  O  O51  1  0.05691900  0.49544400  0.31260500  1
  O  O52  1  0.26685600  0.53005200  0.88404500  1
  O  O53  1  0.73314400  0.46994800  0.11595500  1
  O  O54  1  0.94445200  0.93431500  0.81730400  1
  O  O55  1  0.05554800  0.06568500  0.18269600  1
  O  O56  1  0.88187500  0.64544900  0.95285500  1
  O  O57  1  0.11812500  0.35455100  0.04714500  1
  O  O58  1  0.72837800  0.04783300  0.60633400  1
  O  O59  1  0.27162200  0.95216700  0.39366600  1
  O  O60  1  0.49004700  0.63325600  0.39649200  1
  O  O61  1  0.50995300  0.36674400  0.60350800  1
