# generated using pymatgen
data_AlH12(NO5)3
_symmetry_space_group_name_H-M   'P 1'
_cell_length_a   12.01494027
_cell_length_b   12.01494027
_cell_length_c   12.01494027
_cell_angle_alpha   109.47122063
_cell_angle_beta   109.47122063
_cell_angle_gamma   109.47122063
_symmetry_Int_Tables_number   1
_chemical_formula_structural   AlH12(NO5)3
_chemical_formula_sum   'Al4 H48 N12 O60'
_cell_volume   1335.18965197
_cell_formula_units_Z   4
loop_
 _symmetry_equiv_pos_site_id
 _symmetry_equiv_pos_as_xyz
  1  'x, y, z'
loop_
 _atom_site_type_symbol
 _atom_site_label
 _atom_site_symmetry_multiplicity
 _atom_site_fract_x
 _atom_site_fract_y
 _atom_site_fract_z
 _atom_site_occupancy
  Al  Al0  1  0.00000000  0.50000000  0.00000000  1
  Al  Al1  1  0.50000000  0.00000000  0.00000000  1
  Al  Al2  1  0.00000000  0.00000000  0.50000000  1
  Al  Al3  1  0.50000000  0.50000000  0.50000000  1
  H  H4  1  0.91913400  0.62162500  0.87262800  1
  H  H5  1  0.25100300  0.87837500  0.79750800  1
  H  H6  1  0.24899700  0.04650500  0.62737200  1
  H  H7  1  0.58086600  0.45349500  0.70249200  1
  H  H8  1  0.87262800  0.91913400  0.62162500  1
  H  H9  1  0.79750800  0.25100300  0.87837500  1
  H  H10  1  0.62737200  0.24899700  0.04650500  1
  H  H11  1  0.70249200  0.58086600  0.45349500  1
  H  H12  1  0.62162500  0.87262800  0.91913400  1
  H  H13  1  0.87837500  0.79750800  0.25100300  1
  H  H14  1  0.04650500  0.62737200  0.24899700  1
  H  H15  1  0.45349500  0.70249200  0.58086600  1
  H  H16  1  0.08086600  0.37837500  0.12737200  1
  H  H17  1  0.74899700  0.12162500  0.20249200  1
  H  H18  1  0.75100300  0.95349500  0.37262800  1
  H  H19  1  0.41913400  0.54650500  0.29750800  1
  H  H20  1  0.12737200  0.08086600  0.37837500  1
  H  H21  1  0.20249200  0.74899700  0.12162500  1
  H  H22  1  0.37262800  0.75100300  0.95349500  1
  H  H23  1  0.29750800  0.41913400  0.54650500  1
  H  H24  1  0.37837500  0.12737200  0.08086600  1
  H  H25  1  0.12162500  0.20249200  0.74899700  1
  H  H26  1  0.95349500  0.37262800  0.75100300  1
  H  H27  1  0.54650500  0.29750800  0.41913400  1
  H  H28  1  0.88306500  0.64764100  0.99414500  1
  H  H29  1  0.34650300  0.85235900  0.73542400  1
  H  H30  1  0.15349700  0.88892000  0.50585500  1
  H  H31  1  0.61693500  0.61108000  0.76457600  1
  H  H32  1  0.99414500  0.88306500  0.64764100  1
  H  H33  1  0.73542400  0.34650300  0.85235900  1
  H  H34  1  0.50585500  0.15349700  0.88892000  1
  H  H35  1  0.76457600  0.61693500  0.61108000  1
  H  H36  1  0.64764100  0.99414500  0.88306500  1
  H  H37  1  0.85235900  0.73542400  0.34650300  1
  H  H38  1  0.88892000  0.50585500  0.15349700  1
  H  H39  1  0.61108000  0.76457600  0.61693500  1
  H  H40  1  0.11693500  0.35235900  0.00585500  1
  H  H41  1  0.65349700  0.14764100  0.26457600  1
  H  H42  1  0.84650300  0.11108000  0.49414500  1
  H  H43  1  0.38306500  0.38892000  0.23542400  1
  H  H44  1  0.00585500  0.11693500  0.35235900  1
  H  H45  1  0.26457600  0.65349700  0.14764100  1
  H  H46  1  0.49414500  0.84650300  0.11108000  1
  H  H47  1  0.23542400  0.38306500  0.38892000  1
  H  H48  1  0.35235900  0.00585500  0.11693500  1
  H  H49  1  0.14764100  0.26457600  0.65349700  1
  H  H50  1  0.11108000  0.49414500  0.84650300  1
  H  H51  1  0.38892000  0.23542400  0.38306500  1
  N  N52  1  0.21533500  0.96533500  0.25000000  1
  N  N53  1  0.28466500  0.53466500  0.75000000  1
  N  N54  1  0.25000000  0.21533500  0.96533500  1
  N  N55  1  0.75000000  0.28466500  0.53466500  1
  N  N56  1  0.96533500  0.25000000  0.21533500  1
  N  N57  1  0.53466500  0.75000000  0.28466500  1
  N  N58  1  0.78466500  0.03466500  0.75000000  1
  N  N59  1  0.71533500  0.46533500  0.25000000  1
  N  N60  1  0.75000000  0.78466500  0.03466500  1
  N  N61  1  0.25000000  0.71533500  0.46533500  1
  N  N62  1  0.03466500  0.75000000  0.78466500  1
  N  N63  1  0.46533500  0.25000000  0.71533500  1
  O  O64  1  0.91935700  0.59838600  0.94463400  1
  O  O65  1  0.34624900  0.90161400  0.82097100  1
  O  O66  1  0.15375100  0.97472200  0.55536600  1
  O  O67  1  0.58064300  0.52527800  0.67902900  1
  O  O68  1  0.94463400  0.91935700  0.59838600  1
  O  O69  1  0.82097100  0.34624900  0.90161400  1
  O  O70  1  0.55536600  0.15375100  0.97472200  1
  O  O71  1  0.67902900  0.58064300  0.52527800  1
  O  O72  1  0.59838600  0.94463400  0.91935700  1
  O  O73  1  0.90161400  0.82097100  0.34624900  1
  O  O74  1  0.97472200  0.55536600  0.15375100  1
  O  O75  1  0.52527800  0.67902900  0.58064300  1
  O  O76  1  0.08064300  0.40161400  0.05536600  1
  O  O77  1  0.65375100  0.09838600  0.17902900  1
  O  O78  1  0.84624900  0.02527800  0.44463400  1
  O  O79  1  0.41935700  0.47472200  0.32097100  1
  O  O80  1  0.05536600  0.08064300  0.40161400  1
  O  O81  1  0.17902900  0.65375100  0.09838600  1
  O  O82  1  0.44463400  0.84624900  0.02527800  1
  O  O83  1  0.32097100  0.41935700  0.47472200  1
  O  O84  1  0.40161400  0.05536600  0.08064300  1
  O  O85  1  0.09838600  0.17902900  0.65375100  1
  O  O86  1  0.02527800  0.44463400  0.84624900  1
  O  O87  1  0.47472200  0.32097100  0.41935700  1
  O  O88  1  0.27977300  0.93321200  0.19022100  1
  O  O89  1  0.25700900  0.56678800  0.84656000  1
  O  O90  1  0.24299100  0.08955200  0.30977900  1
  O  O91  1  0.22022700  0.41044800  0.65344000  1
  O  O92  1  0.19022100  0.27977300  0.93321200  1
  O  O93  1  0.84656000  0.25700900  0.56678800  1
  O  O94  1  0.30977900  0.24299100  0.08955200  1
  O  O95  1  0.65344000  0.22022700  0.41044800  1
  O  O96  1  0.93321200  0.19022100  0.27977300  1
  O  O97  1  0.56678800  0.84656000  0.25700900  1
  O  O98  1  0.08955200  0.30977900  0.24299100  1
  O  O99  1  0.41044800  0.65344000  0.22022700  1
  O  O100  1  0.72022700  0.06678800  0.80977900  1
  O  O101  1  0.74299100  0.43321200  0.15344000  1
  O  O102  1  0.75700900  0.91044800  0.69022100  1
  O  O103  1  0.77977300  0.58955200  0.34656000  1
  O  O104  1  0.80977900  0.72022700  0.06678800  1
  O  O105  1  0.15344000  0.74299100  0.43321200  1
  O  O106  1  0.69022100  0.75700900  0.91044800  1
  O  O107  1  0.34656000  0.77977300  0.58955200  1
  O  O108  1  0.06678800  0.80977900  0.72022700  1
  O  O109  1  0.43321200  0.15344000  0.74299100  1
  O  O110  1  0.91044800  0.69022100  0.75700900  1
  O  O111  1  0.58955200  0.34656000  0.77977300  1
  O  O112  1  0.12598600  0.87598600  0.25000000  1
  O  O113  1  0.37401400  0.62401400  0.75000000  1
  O  O114  1  0.25000000  0.12598600  0.87598600  1
  O  O115  1  0.75000000  0.37401400  0.62401400  1
  O  O116  1  0.87598600  0.25000000  0.12598600  1
  O  O117  1  0.62401400  0.75000000  0.37401400  1
  O  O118  1  0.87401400  0.12401400  0.75000000  1
  O  O119  1  0.62598600  0.37598600  0.25000000  1
  O  O120  1  0.75000000  0.87401400  0.12401400  1
  O  O121  1  0.25000000  0.62598600  0.37598600  1
  O  O122  1  0.12401400  0.75000000  0.87401400  1
  O  O123  1  0.37598600  0.25000000  0.62598600  1
