# generated using pymatgen
data_Ca13Si10H12(O17F5)2
_symmetry_space_group_name_H-M   'P 1'
_cell_length_a   13.51721595
_cell_length_b   13.51721595
_cell_length_c   13.51721577
_cell_angle_alpha   40.88008405
_cell_angle_beta   40.88008405
_cell_angle_gamma   40.88008659
_symmetry_Int_Tables_number   1
_chemical_formula_structural   Ca13Si10H12(O17F5)2
_chemical_formula_sum   'Ca13 Si10 H12 O34 F10'
_cell_volume   954.84131180
_cell_formula_units_Z   1
loop_
 _symmetry_equiv_pos_site_id
 _symmetry_equiv_pos_as_xyz
  1  'x, y, z'
loop_
 _atom_site_type_symbol
 _atom_site_label
 _atom_site_symmetry_multiplicity
 _atom_site_fract_x
 _atom_site_fract_y
 _atom_site_fract_z
 _atom_site_occupancy
  Ca  Ca0  1  0.00000000  0.00000000  0.00000000  1
  Ca  Ca1  1  0.41984200  0.70369600  0.83716800  1
  Ca  Ca2  1  0.83716800  0.41984200  0.70369600  1
  Ca  Ca3  1  0.70369600  0.83716800  0.41984200  1
  Ca  Ca4  1  0.58015800  0.29630400  0.16283200  1
  Ca  Ca5  1  0.16283200  0.58015800  0.29630400  1
  Ca  Ca6  1  0.29630400  0.16283200  0.58015800  1
  Ca  Ca7  1  0.37097900  0.80083700  0.54305200  1
  Ca  Ca8  1  0.54305200  0.37097900  0.80083700  1
  Ca  Ca9  1  0.80083700  0.54305200  0.37097900  1
  Ca  Ca10  1  0.62902100  0.19916300  0.45694800  1
  Ca  Ca11  1  0.45694800  0.62902100  0.19916300  1
  Ca  Ca12  1  0.19916300  0.45694800  0.62902100  1
  Si  Si13  1  0.88321400  0.88321400  0.88321400  1
  Si  Si14  1  0.11678600  0.11678600  0.11678600  1
  Si  Si15  1  0.14268200  0.62661200  0.01273000  1
  Si  Si16  1  0.01273000  0.14268200  0.62661200  1
  Si  Si17  1  0.62661200  0.01273000  0.14268200  1
  Si  Si18  1  0.85731800  0.37338800  0.98727000  1
  Si  Si19  1  0.98727000  0.85731800  0.37338800  1
  Si  Si20  1  0.37338800  0.98727000  0.85731800  1
  Si  Si21  1  0.26838700  0.26838700  0.26838700  1
  Si  Si22  1  0.73161300  0.73161300  0.73161300  1
  H  H23  1  0.23484300  0.80131000  0.45523000  1
  H  H24  1  0.45523000  0.23484300  0.80131000  1
  H  H25  1  0.80131000  0.45523000  0.23484300  1
  H  H26  1  0.76515700  0.19869000  0.54477000  1
  H  H27  1  0.54477000  0.76515700  0.19869000  1
  H  H28  1  0.19869000  0.54477000  0.76515700  1
  H  H29  1  0.23928100  0.98040900  0.30238900  1
  H  H30  1  0.30238900  0.23928100  0.98040900  1
  H  H31  1  0.98040900  0.30238900  0.23928100  1
  H  H32  1  0.76071900  0.01959100  0.69761100  1
  H  H33  1  0.69761100  0.76071900  0.01959100  1
  H  H34  1  0.01959100  0.69761100  0.76071900  1
  O  O35  1  0.84013000  0.84013000  0.84013000  1
  O  O36  1  0.15987000  0.15987000  0.15987000  1
  O  O37  1  0.02596500  0.95850200  0.71729500  1
  O  O38  1  0.71729500  0.02596500  0.95850200  1
  O  O39  1  0.95850200  0.71729500  0.02596500  1
  O  O40  1  0.97403500  0.04149800  0.28270500  1
  O  O41  1  0.28270500  0.97403500  0.04149800  1
  O  O42  1  0.04149800  0.28270500  0.97403500  1
  O  O43  1  0.17282900  0.14449400  0.43887000  1
  O  O44  1  0.43887000  0.17282900  0.14449400  1
  O  O45  1  0.14449400  0.43887000  0.17282900  1
  O  O46  1  0.82717100  0.85550600  0.56113000  1
  O  O47  1  0.56113000  0.82717100  0.85550600  1
  O  O48  1  0.85550600  0.56113000  0.82717100  1
  O  O49  1  0.30013500  0.61558200  0.83663600  1
  O  O50  1  0.83663600  0.30013500  0.61558200  1
  O  O51  1  0.61558200  0.83663600  0.30013500  1
  O  O52  1  0.69986500  0.38441800  0.16336400  1
  O  O53  1  0.16336400  0.69986500  0.38441800  1
  O  O54  1  0.38441800  0.16336400  0.69986500  1
  O  O55  1  0.31185800  0.31185800  0.31185800  1
  O  O56  1  0.68814200  0.68814200  0.68814200  1
  O  O57  1  0.04671000  0.14322100  0.71886800  1
  O  O58  1  0.71886800  0.04671000  0.14322100  1
  O  O59  1  0.14322100  0.71886800  0.04671000  1
  O  O60  1  0.95329000  0.85677900  0.28113200  1
  O  O61  1  0.28113200  0.95329000  0.85677900  1
  O  O62  1  0.85677900  0.28113200  0.95329000  1
  O  O63  1  0.29777600  0.86573300  0.37658100  1
  O  O64  1  0.37658100  0.29777600  0.86573300  1
  O  O65  1  0.86573300  0.37658100  0.29777600  1
  O  O66  1  0.70222400  0.13426700  0.62341900  1
  O  O67  1  0.62341900  0.70222400  0.13426700  1
  O  O68  1  0.13426700  0.62341900  0.70222400  1
  F  F69  1  0.40749200  0.92279500  0.57819800  1
  F  F70  1  0.57819800  0.40749200  0.92279500  1
  F  F71  1  0.92279500  0.57819800  0.40749200  1
  F  F72  1  0.59250800  0.07720500  0.42180200  1
  F  F73  1  0.42180200  0.59250800  0.07720500  1
  F  F74  1  0.07720500  0.42180200  0.59250800  1
  F  F75  1  0.61463900  0.61463900  0.61463900  1
  F  F76  1  0.38536100  0.38536100  0.38536100  1
  F  F77  1  0.54368300  0.54368300  0.54368300  1
  F  F78  1  0.45631700  0.45631700  0.45631700  1
