# generated using pymatgen
data_La8Cu7O19
_symmetry_space_group_name_H-M   'P 1'
_cell_length_a   3.78543051
_cell_length_b   7.23219726
_cell_length_c   34.33104270
_cell_angle_alpha   87.14983903
_cell_angle_beta   86.80688254
_cell_angle_gamma   74.85468905
_symmetry_Int_Tables_number   1
_chemical_formula_structural   La8Cu7O19
_chemical_formula_sum   'La16 Cu14 O38'
_cell_volume   905.22287863
_cell_formula_units_Z   2
loop_
 _symmetry_equiv_pos_site_id
 _symmetry_equiv_pos_as_xyz
  1  'x, y, z'
loop_
 _atom_site_type_symbol
 _atom_site_label
 _atom_site_symmetry_multiplicity
 _atom_site_fract_x
 _atom_site_fract_y
 _atom_site_fract_z
 _atom_site_occupancy
  La  La0  1  0.46151200  0.94715000  0.18213800  1
  La  La1  1  0.34143600  0.07810000  0.28876000  1
  La  La2  1  0.53344400  0.05137500  0.81818300  1
  La  La3  1  0.66160900  0.92068200  0.71143300  1
  La  La4  1  0.40559200  0.44582100  0.68203800  1
  La  La5  1  0.70377600  0.42176400  0.21139200  1
  La  La6  1  0.75293100  0.79057100  0.60614500  1
  La  La7  1  0.58978000  0.55243800  0.31796300  1
  La  La8  1  0.84296700  0.29139500  0.10610000  1
  La  La9  1  0.56047700  0.31861000  0.57648600  1
  La  La10  1  0.45719400  0.18059400  0.92400200  1
  La  La11  1  0.24314400  0.20937900  0.39403300  1
  La  La12  1  0.29696600  0.57572000  0.78865200  1
  La  La13  1  0.54228000  0.81804500  0.07628700  1
  La  La14  1  0.43588100  0.68228400  0.42341400  1
  La  La15  1  0.15420700  0.70716400  0.89395600  1
  Cu  Cu16  1  0.76208400  0.99061600  0.46917300  1
  Cu  Cu17  1  0.02594300  0.74985100  0.25009400  1
  Cu  Cu18  1  0.77437000  0.49455700  0.96901800  1
  Cu  Cu19  1  0.22623700  0.50529300  0.03110800  1
  Cu  Cu20  1  0.13835100  0.61929400  0.14223000  1
  Cu  Cu21  1  0.23448400  0.00867700  0.53094700  1
  Cu  Cu22  1  0.77491800  0.15154500  0.02287700  1
  Cu  Cu23  1  0.85952300  0.37921600  0.85803100  1
  Cu  Cu24  1  0.97395500  0.24803200  0.75010300  1
  Cu  Cu25  1  0.94886000  0.34923600  0.47682300  1
  Cu  Cu26  1  0.04642000  0.65140600  0.52312000  1
  Cu  Cu27  1  0.90065500  0.88247200  0.35777500  1
  Cu  Cu28  1  0.09621400  0.11814300  0.64205300  1
  Cu  Cu29  1  0.22314600  0.84652100  0.97707800  1
  O  O30  1  0.67469200  0.71950800  0.83476300  1
  O  O31  1  0.64010400  0.61715800  0.14219600  1
  O  O32  1  0.08384000  0.67794600  0.19702800  1
  O  O33  1  0.67296600  0.34767900  0.43011000  1
  O  O34  1  0.40015800  0.88485500  0.35786100  1
  O  O35  1  0.79011100  0.59297200  0.73023800  1
  O  O36  1  0.81650000  0.44111800  0.91312700  1
  O  O37  1  0.44910400  0.15387600  0.06957100  1
  O  O38  1  0.76174300  0.44007800  0.02852900  1
  O  O39  1  0.22590500  0.06378300  0.47154300  1
  O  O40  1  0.21355500  0.40472400  0.26984600  1
  O  O41  1  0.76255600  0.22130800  0.33435900  1
  O  O42  1  0.23876900  0.55940400  0.97147000  1
  O  O43  1  0.18310700  0.55675600  0.08712600  1
  O  O44  1  0.76984100  0.93704800  0.52858400  1
  O  O45  1  0.52697200  0.74971200  0.25013200  1
  O  O46  1  0.32240400  0.65302300  0.56991600  1
  O  O47  1  0.07390400  0.36827000  0.53021600  1
  O  O48  1  0.59579200  0.11632500  0.64214600  1
  O  O49  1  0.97300600  0.12955400  0.96959000  1
  O  O50  1  0.16953200  0.05706500  0.58679900  1
  O  O51  1  0.92206400  0.63272900  0.46957500  1
  O  O52  1  0.82751500  0.94385100  0.41311800  1
  O  O53  1  0.47370300  0.24736000  0.75014300  1
  O  O54  1  0.02616100  0.86793500  0.03055400  1
  O  O55  1  0.88759200  0.46469500  0.62908700  1
  O  O56  1  0.32161400  0.27872300  0.16563900  1
  O  O57  1  0.10620100  0.53497700  0.37058700  1
  O  O58  1  0.54928300  0.84474700  0.93033600  1
  O  O59  1  0.91502600  0.31982700  0.80325400  1
  O  O60  1  0.35737200  0.38148500  0.85802500  1
  O  O61  1  0.23019800  0.77711600  0.66534100  1
  O  O62  1  0.11778800  0.90262300  0.76937100  1
  O  O63  1  0.98799900  0.03318600  0.87056500  1
  O  O64  1  0.88323300  0.09495800  0.23032700  1
  O  O65  1  0.00956800  0.96557200  0.12945000  1
  O  O66  1  0.03835600  0.17829200  0.69680000  1
  O  O67  1  0.96077700  0.82148900  0.30311200  1
