# generated using pymatgen
data_K4ZnH6(S2O9)2
_symmetry_space_group_name_H-M   'P 1'
_cell_length_a   7.39828700
_cell_length_b   12.27145500
_cell_length_c   21.67202900
_cell_angle_alpha   90.00000000
_cell_angle_beta   90.00000000
_cell_angle_gamma   90.00000000
_symmetry_Int_Tables_number   1
_chemical_formula_structural   K4ZnH6(S2O9)2
_chemical_formula_sum   'K16 Zn4 H24 S16 O72'
_cell_volume   1967.55466410
_cell_formula_units_Z   4
loop_
 _symmetry_equiv_pos_site_id
 _symmetry_equiv_pos_as_xyz
  1  'x, y, z'
loop_
 _atom_site_type_symbol
 _atom_site_label
 _atom_site_symmetry_multiplicity
 _atom_site_fract_x
 _atom_site_fract_y
 _atom_site_fract_z
 _atom_site_occupancy
  K  K0  1  0.60529300  0.36496700  0.18432700  1
  K  K1  1  0.89470700  0.36496700  0.31567300  1
  K  K2  1  0.10529300  0.13503300  0.81567300  1
  K  K3  1  0.39470700  0.13503300  0.68432700  1
  K  K4  1  0.39470700  0.63503300  0.81567300  1
  K  K5  1  0.10529300  0.63503300  0.68432700  1
  K  K6  1  0.89470700  0.86496700  0.18432700  1
  K  K7  1  0.60529300  0.86496700  0.31567300  1
  K  K8  1  0.23968800  0.66243400  0.43034400  1
  K  K9  1  0.26031200  0.66243400  0.06965600  1
  K  K10  1  0.73968800  0.83756600  0.56965600  1
  K  K11  1  0.76031200  0.83756600  0.93034400  1
  K  K12  1  0.76031200  0.33756600  0.56965600  1
  K  K13  1  0.73968800  0.33756600  0.93034400  1
  K  K14  1  0.26031200  0.16243400  0.43034400  1
  K  K15  1  0.23968800  0.16243400  0.06965600  1
  Zn  Zn16  1  0.25000000  0.66281900  0.25000000  1
  Zn  Zn17  1  0.75000000  0.83718100  0.75000000  1
  Zn  Zn18  1  0.75000000  0.33718100  0.75000000  1
  Zn  Zn19  1  0.25000000  0.16281900  0.25000000  1
  H  H20  1  0.27506700  0.89701000  0.06892800  1
  H  H21  1  0.22493300  0.89701000  0.43107200  1
  H  H22  1  0.77506700  0.60299000  0.93107200  1
  H  H23  1  0.72493300  0.60299000  0.56892800  1
  H  H24  1  0.72493300  0.10299000  0.93107200  1
  H  H25  1  0.77506700  0.10299000  0.56892800  1
  H  H26  1  0.22493300  0.39701000  0.06892800  1
  H  H27  1  0.27506700  0.39701000  0.43107200  1
  H  H28  1  0.55203000  0.11139700  0.22991100  1
  H  H29  1  0.94797000  0.11139700  0.27008900  1
  H  H30  1  0.05203000  0.38860300  0.77008900  1
  H  H31  1  0.44797000  0.38860300  0.72991100  1
  H  H32  1  0.44797000  0.88860300  0.77008900  1
  H  H33  1  0.05203000  0.88860300  0.72991100  1
  H  H34  1  0.94797000  0.61139700  0.22991100  1
  H  H35  1  0.55203000  0.61139700  0.27008900  1
  H  H36  1  0.60706000  0.13811300  0.33191200  1
  H  H37  1  0.89294000  0.13811300  0.16808800  1
  H  H38  1  0.10706000  0.36188700  0.66808800  1
  H  H39  1  0.39294000  0.36188700  0.83191200  1
  H  H40  1  0.39294000  0.86188700  0.66808800  1
  H  H41  1  0.10706000  0.86188700  0.83191200  1
  H  H42  1  0.89294000  0.63811300  0.33191200  1
  H  H43  1  0.60706000  0.63811300  0.16808800  1
  S  S44  1  0.73903400  0.14319500  0.07297300  1
  S  S45  1  0.76096600  0.14319500  0.42702700  1
  S  S46  1  0.23903400  0.35680500  0.92702700  1
  S  S47  1  0.26096600  0.35680500  0.57297300  1
  S  S48  1  0.26096600  0.85680500  0.92702700  1
  S  S49  1  0.23903400  0.85680500  0.57297300  1
  S  S50  1  0.76096600  0.64319500  0.07297300  1
  S  S51  1  0.73903400  0.64319500  0.42702700  1
  S  S52  1  0.35475000  0.91624400  0.16343100  1
  S  S53  1  0.14525000  0.91624400  0.33656900  1
  S  S54  1  0.85475000  0.58375600  0.83656900  1
  S  S55  1  0.64525000  0.58375600  0.66343100  1
  S  S56  1  0.64525000  0.08375600  0.83656900  1
  S  S57  1  0.85475000  0.08375600  0.66343100  1
  S  S58  1  0.14525000  0.41624400  0.16343100  1
  S  S59  1  0.35475000  0.41624400  0.33656900  1
  O  O60  1  0.58386900  0.20141400  0.10407200  1
  O  O61  1  0.91613100  0.20141400  0.39592800  1
  O  O62  1  0.08386900  0.29858600  0.89592800  1
  O  O63  1  0.41613100  0.29858600  0.60407200  1
  O  O64  1  0.41613100  0.79858600  0.89592800  1
  O  O65  1  0.08386900  0.79858600  0.60407200  1
  O  O66  1  0.91613100  0.70141400  0.10407200  1
  O  O67  1  0.58386900  0.70141400  0.39592800  1
  O  O68  1  0.85970600  0.22513900  0.04151600  1
  O  O69  1  0.64029400  0.22513900  0.45848400  1
  O  O70  1  0.35970600  0.27486100  0.95848400  1
  O  O71  1  0.14029400  0.27486100  0.54151600  1
  O  O72  1  0.14029400  0.77486100  0.95848400  1
  O  O73  1  0.35970600  0.77486100  0.54151600  1
  O  O74  1  0.64029400  0.72513900  0.04151600  1
  O  O75  1  0.85970600  0.72513900  0.45848400  1
  O  O76  1  0.86541400  0.09145200  0.13058300  1
  O  O77  1  0.63458600  0.09145200  0.36941700  1
  O  O78  1  0.36541400  0.40854800  0.86941700  1
  O  O79  1  0.13458600  0.40854800  0.63058300  1
  O  O80  1  0.13458600  0.90854800  0.86941700  1
  O  O81  1  0.36541400  0.90854800  0.63058300  1
  O  O82  1  0.63458600  0.59145200  0.13058300  1
  O  O83  1  0.86541400  0.59145200  0.36941700  1
  O  O84  1  0.07487900  0.02079900  0.99270100  1
  O  O85  1  0.42512100  0.02079900  0.50729900  1
  O  O86  1  0.57487900  0.47920100  0.00729900  1
  O  O87  1  0.92512100  0.47920100  0.49270100  1
  O  O88  1  0.92512100  0.97920100  0.00729900  1
  O  O89  1  0.57487900  0.97920100  0.49270100  1
  O  O90  1  0.42512100  0.52079900  0.99270100  1
  O  O91  1  0.07487900  0.52079900  0.50729900  1
  O  O92  1  0.26049000  0.81184200  0.17251800  1
  O  O93  1  0.23951000  0.81184200  0.32748200  1
  O  O94  1  0.76049000  0.68815800  0.82748200  1
  O  O95  1  0.73951000  0.68815800  0.67251800  1
  O  O96  1  0.73951000  0.18815800  0.82748200  1
  O  O97  1  0.76049000  0.18815800  0.67251800  1
  O  O98  1  0.23951000  0.31184200  0.17251800  1
  O  O99  1  0.26049000  0.31184200  0.32748200  1
  O  O100  1  0.23856300  0.00963900  0.17835400  1
  O  O101  1  0.26143700  0.00963900  0.32164600  1
  O  O102  1  0.73856300  0.49036100  0.82164600  1
  O  O103  1  0.76143700  0.49036100  0.67835400  1
  O  O104  1  0.76143700  0.99036100  0.82164600  1
  O  O105  1  0.73856300  0.99036100  0.67835400  1
  O  O106  1  0.26143700  0.50963900  0.17835400  1
  O  O107  1  0.23856300  0.50963900  0.32164600  1
  O  O108  1  0.38482500  0.92311900  0.08936100  1
  O  O109  1  0.11517500  0.92311900  0.41063900  1
  O  O110  1  0.88482500  0.57688100  0.91063900  1
  O  O111  1  0.61517500  0.57688100  0.58936100  1
  O  O112  1  0.61517500  0.07688100  0.91063900  1
  O  O113  1  0.88482500  0.07688100  0.58936100  1
  O  O114  1  0.11517500  0.42311900  0.08936100  1
  O  O115  1  0.38482500  0.42311900  0.41063900  1
  O  O116  1  0.53624100  0.92227800  0.18902900  1
  O  O117  1  0.96375900  0.92227800  0.31097100  1
  O  O118  1  0.03624100  0.57772200  0.81097100  1
  O  O119  1  0.46375900  0.57772200  0.68902900  1
  O  O120  1  0.46375900  0.07772200  0.81097100  1
  O  O121  1  0.03624100  0.07772200  0.68902900  1
  O  O122  1  0.96375900  0.42227800  0.18902900  1
  O  O123  1  0.53624100  0.42227800  0.31097100  1
  O  O124  1  0.50517700  0.16898000  0.25642100  1
  O  O125  1  0.99482300  0.16898000  0.24357900  1
  O  O126  1  0.00517700  0.33102000  0.74357900  1
  O  O127  1  0.49482300  0.33102000  0.75642100  1
  O  O128  1  0.49482300  0.83102000  0.74357900  1
  O  O129  1  0.00517700  0.83102000  0.75642100  1
  O  O130  1  0.99482300  0.66898000  0.25642100  1
  O  O131  1  0.50517700  0.66898000  0.24357900  1
