# generated using pymatgen
data_S
_symmetry_space_group_name_H-M   'P 1'
_cell_length_a   6.63979685
_cell_length_b   6.63979685
_cell_length_c   6.63979723
_cell_angle_alpha   113.09406432
_cell_angle_beta   113.09406432
_cell_angle_gamma   113.09406891
_symmetry_Int_Tables_number   1
_chemical_formula_structural   S
_chemical_formula_sum   S6
_cell_volume   189.19913597
_cell_formula_units_Z   6
loop_
 _symmetry_equiv_pos_site_id
 _symmetry_equiv_pos_as_xyz
  1  'x, y, z'
loop_
 _atom_site_type_symbol
 _atom_site_label
 _atom_site_symmetry_multiplicity
 _atom_site_fract_x
 _atom_site_fract_y
 _atom_site_fract_z
 _atom_site_occupancy
  S  S0  1  0.12431200  0.22822800  0.89756600  1
  S  S1  1  0.22822800  0.89756600  0.12431200  1
  S  S2  1  0.89756600  0.12431200  0.22822800  1
  S  S3  1  0.87568800  0.77177200  0.10243400  1
  S  S4  1  0.77177200  0.10243400  0.87568800  1
  S  S5  1  0.10243400  0.87568800  0.77177200  1
