# generated using pymatgen
data_PH8SN3O
_symmetry_space_group_name_H-M   'P 1'
_cell_length_a   6.94685800
_cell_length_b   6.35270500
_cell_length_c   10.48843222
_cell_angle_alpha   84.16938276
_cell_angle_beta   90.00000000
_cell_angle_gamma   90.00000000
_symmetry_Int_Tables_number   1
_chemical_formula_structural   PH8SN3O
_chemical_formula_sum   'P2 H16 S2 N6 O2'
_cell_volume   460.47394333
_cell_formula_units_Z   2
loop_
 _symmetry_equiv_pos_site_id
 _symmetry_equiv_pos_as_xyz
  1  'x, y, z'
loop_
 _atom_site_type_symbol
 _atom_site_label
 _atom_site_symmetry_multiplicity
 _atom_site_fract_x
 _atom_site_fract_y
 _atom_site_fract_z
 _atom_site_occupancy
  P  P0  1  0.28497600  0.56886600  0.34439600  1
  P  P1  1  0.78497600  0.43113400  0.65560400  1
  H  H2  1  0.11617100  0.83155800  0.25223300  1
  H  H3  1  0.61617100  0.16844200  0.74776700  1
  H  H4  1  0.02840900  0.36326800  0.35242900  1
  H  H5  1  0.52840900  0.63673200  0.64757100  1
  H  H6  1  0.94524100  0.41204300  0.57486400  1
  H  H7  1  0.44524100  0.58795700  0.42513600  1
  H  H8  1  0.50144600  0.20717600  0.04716600  1
  H  H9  1  0.00144600  0.79282400  0.95283400  1
  H  H10  1  0.37658300  0.54313000  0.22295500  1
  H  H11  1  0.87658300  0.45687000  0.77704500  1
  H  H12  1  0.65865600  0.74377300  0.05817900  1
  H  H13  1  0.15865600  0.25622700  0.94182100  1
  H  H14  1  0.69601800  0.85302500  0.06391400  1
  H  H15  1  0.19601800  0.14697500  0.93608600  1
  H  H16  1  0.75462800  0.27639200  0.97019800  1
  H  H17  1  0.25462800  0.72360800  0.02980200  1
  S  S18  1  0.07294000  0.64840500  0.04414700  1
  S  S19  1  0.57294000  0.35159500  0.95585300  1
  N  N20  1  0.06675700  0.93420200  0.73229400  1
  N  N21  1  0.56675700  0.06579800  0.26770600  1
  N  N22  1  0.12975900  0.91885800  0.63568400  1
  N  N23  1  0.62975900  0.08114200  0.36431600  1
  N  N24  1  0.14478100  0.39484100  0.40668100  1
  N  N25  1  0.64478100  0.60515900  0.59331900  1
  O  O26  1  0.21563500  0.81576900  0.31952800  1
  O  O27  1  0.71563500  0.18423100  0.68047200  1
