# generated using pymatgen
data_K5NaFe2(CO2)12
_symmetry_space_group_name_H-M   'P 1'
_cell_length_a   13.81398900
_cell_length_b   13.81398900
_cell_length_c   13.81398900
_cell_angle_alpha   90.00000000
_cell_angle_beta   90.00000000
_cell_angle_gamma   90.00000000
_symmetry_Int_Tables_number   1
_chemical_formula_structural   K5NaFe2(CO2)12
_chemical_formula_sum   'K20 Na4 Fe8 C48 O96'
_cell_volume   2636.07229987
_cell_formula_units_Z   4
loop_
 _symmetry_equiv_pos_site_id
 _symmetry_equiv_pos_as_xyz
  1  'x, y, z'
loop_
 _atom_site_type_symbol
 _atom_site_label
 _atom_site_symmetry_multiplicity
 _atom_site_fract_x
 _atom_site_fract_y
 _atom_site_fract_z
 _atom_site_occupancy
  K  K0  1  0.87500000  0.74104400  0.00895600  1
  K  K1  1  0.49104400  0.12500000  0.24104400  1
  K  K2  1  0.33018200  0.83018200  0.66981800  1
  K  K3  1  0.58018200  0.58018200  0.58018200  1
  K  K4  1  0.16981800  0.16981800  0.16981800  1
  K  K5  1  0.25895600  0.50895600  0.62500000  1
  K  K6  1  0.37500000  0.75895600  0.99104400  1
  K  K7  1  0.83018200  0.66981800  0.33018200  1
  K  K8  1  0.12500000  0.24104400  0.49104400  1
  K  K9  1  0.91981800  0.41981800  0.08018200  1
  K  K10  1  0.00895600  0.87500000  0.74104400  1
  K  K11  1  0.74104400  0.00895600  0.87500000  1
  K  K12  1  0.08018200  0.91981800  0.41981800  1
  K  K13  1  0.24104400  0.49104400  0.12500000  1
  K  K14  1  0.62500000  0.25895600  0.50895600  1
  K  K15  1  0.66981800  0.33018200  0.83018200  1
  K  K16  1  0.41981800  0.08018200  0.91981800  1
  K  K17  1  0.75895600  0.99104400  0.37500000  1
  K  K18  1  0.50895600  0.62500000  0.25895600  1
  K  K19  1  0.99104400  0.37500000  0.75895600  1
  Na  Na20  1  0.12500000  0.62500000  0.87500000  1
  Na  Na21  1  0.37500000  0.37500000  0.37500000  1
  Na  Na22  1  0.62500000  0.87500000  0.12500000  1
  Na  Na23  1  0.87500000  0.12500000  0.62500000  1
  Fe  Fe24  1  0.48939900  0.98939900  0.51060100  1
  Fe  Fe25  1  0.73939900  0.73939900  0.73939900  1
  Fe  Fe26  1  0.51060100  0.48939900  0.98939900  1
  Fe  Fe27  1  0.76060100  0.26060100  0.23939900  1
  Fe  Fe28  1  0.98939900  0.51060100  0.48939900  1
  Fe  Fe29  1  0.23939900  0.76060100  0.26060100  1
  Fe  Fe30  1  0.01060100  0.01060100  0.01060100  1
  Fe  Fe31  1  0.26060100  0.23939900  0.76060100  1
  C  C32  1  0.05592800  0.64033900  0.63619000  1
  C  C33  1  0.19963700  0.04571800  0.72963000  1
  C  C34  1  0.97963000  0.20428200  0.94963700  1
  C  C35  1  0.95428200  0.22963000  0.30036300  1
  C  C36  1  0.86381000  0.94407200  0.14033900  1
  C  C37  1  0.69407200  0.11381000  0.10966100  1
  C  C38  1  0.85966100  0.36381000  0.55592800  1
  C  C39  1  0.80036300  0.54571800  0.77037000  1
  C  C40  1  0.61381000  0.39033900  0.30592800  1
  C  C41  1  0.10966100  0.69407200  0.11381000  1
  C  C42  1  0.77037000  0.80036300  0.54571800  1
  C  C43  1  0.44407200  0.35966100  0.13619000  1
  C  C44  1  0.72963000  0.19963700  0.04571800  1
  C  C45  1  0.02037000  0.70428200  0.55036300  1
  C  C46  1  0.45428200  0.27037000  0.69963700  1
  C  C47  1  0.89033900  0.19407200  0.38619000  1
  C  C48  1  0.94963700  0.97963000  0.20428200  1
  C  C49  1  0.69963700  0.45428200  0.27037000  1
  C  C50  1  0.63619000  0.05592800  0.64033900  1
  C  C51  1  0.44963700  0.52037000  0.79571800  1
  C  C52  1  0.27037000  0.69963700  0.45428200  1
  C  C53  1  0.52037000  0.79571800  0.44963700  1
  C  C54  1  0.11381000  0.10966100  0.69407200  1
  C  C55  1  0.39033900  0.30592800  0.61381000  1
  C  C56  1  0.94407200  0.14033900  0.86381000  1
  C  C57  1  0.29571800  0.05036300  0.47963000  1
  C  C58  1  0.38619000  0.89033900  0.19407200  1
  C  C59  1  0.79571800  0.44963700  0.52037000  1
  C  C60  1  0.04571800  0.72963000  0.19963700  1
  C  C61  1  0.47963000  0.29571800  0.05036300  1
  C  C62  1  0.05036300  0.47963000  0.29571800  1
  C  C63  1  0.30036300  0.95428200  0.22963000  1
  C  C64  1  0.88619000  0.60966100  0.80592800  1
  C  C65  1  0.60966100  0.80592800  0.88619000  1
  C  C66  1  0.54571800  0.77037000  0.80036300  1
  C  C67  1  0.30592800  0.61381000  0.39033900  1
  C  C68  1  0.19407200  0.38619000  0.89033900  1
  C  C69  1  0.55036300  0.02037000  0.70428200  1
  C  C70  1  0.22963000  0.30036300  0.95428200  1
  C  C71  1  0.35966100  0.13619000  0.44407200  1
  C  C72  1  0.36381000  0.55592800  0.85966100  1
  C  C73  1  0.55592800  0.85966100  0.36381000  1
  C  C74  1  0.20428200  0.94963700  0.97963000  1
  C  C75  1  0.70428200  0.55036300  0.02037000  1
  C  C76  1  0.64033900  0.63619000  0.05592800  1
  C  C77  1  0.13619000  0.44407200  0.35966100  1
  C  C78  1  0.80592800  0.88619000  0.60966100  1
  C  C79  1  0.14033900  0.86381000  0.94407200  1
  O  O80  1  0.20250600  0.70731300  0.12705400  1
  O  O81  1  0.75106700  0.27708500  0.09382600  1
  O  O82  1  0.73500200  0.19024600  0.95631100  1
  O  O83  1  0.84416800  0.95804700  0.57228900  1
  O  O84  1  0.26499800  0.69024600  0.54368900  1
  O  O85  1  0.45804700  0.92771100  0.15583200  1
  O  O86  1  0.79368900  0.55975400  0.01499800  1
  O  O87  1  0.29195300  0.59416800  0.82228900  1
  O  O88  1  0.04268700  0.54749400  0.62294600  1
  O  O89  1  0.65583200  0.04195300  0.07228900  1
  O  O90  1  0.95731300  0.04749400  0.87705400  1
  O  O91  1  0.12294600  0.45731300  0.45250600  1
  O  O92  1  0.01499800  0.79368900  0.55975400  1
  O  O93  1  0.99893300  0.65617400  0.47291500  1
  O  O94  1  0.67771100  0.70804700  0.09416800  1
  O  O95  1  0.72291500  0.59382600  0.74893300  1
  O  O96  1  0.00106700  0.15617400  0.02708500  1
  O  O97  1  0.30975400  0.04368900  0.23500200  1
  O  O98  1  0.07228900  0.65583200  0.04195300  1
  O  O99  1  0.94024600  0.98500200  0.29368900  1
  O  O100  1  0.09382600  0.75106700  0.27708500  1
  O  O101  1  0.23500200  0.30975400  0.04368900  1
  O  O102  1  0.54195300  0.42771100  0.34416800  1
  O  O103  1  0.59416800  0.82228900  0.29195300  1
  O  O104  1  0.98500200  0.29368900  0.94024600  1
  O  O105  1  0.82228900  0.29195300  0.59416800  1
  O  O106  1  0.24893300  0.77708500  0.40617400  1
  O  O107  1  0.80975400  0.45631100  0.76499800  1
  O  O108  1  0.90583200  0.17771100  0.79195300  1
  O  O109  1  0.70731300  0.12705400  0.20250600  1
  O  O110  1  0.29368900  0.94024600  0.98500200  1
  O  O111  1  0.92771100  0.15583200  0.45804700  1
  O  O112  1  0.95804700  0.57228900  0.84416800  1
  O  O113  1  0.20804700  0.40583200  0.32228900  1
  O  O114  1  0.95250600  0.37705400  0.54268700  1
  O  O115  1  0.54268700  0.95250600  0.37705400  1
  O  O116  1  0.49893300  0.84382600  0.52708500  1
  O  O117  1  0.48500200  0.20631100  0.05975400  1
  O  O118  1  0.32228900  0.20804700  0.40583200  1
  O  O119  1  0.17771100  0.79195300  0.90583200  1
  O  O120  1  0.15583200  0.45804700  0.92771100  1
  O  O121  1  0.12705400  0.20250600  0.70731300  1
  O  O122  1  0.42771100  0.34416800  0.54195300  1
  O  O123  1  0.40617400  0.24893300  0.77708500  1
  O  O124  1  0.90617400  0.25106700  0.22291500  1
  O  O125  1  0.20731300  0.37294600  0.79749400  1
  O  O126  1  0.04368900  0.23500200  0.30975400  1
  O  O127  1  0.45250600  0.12294600  0.45731300  1
  O  O128  1  0.05975400  0.48500200  0.20631100  1
  O  O129  1  0.40583200  0.32228900  0.20804700  1
  O  O130  1  0.79749400  0.20731300  0.37294600  1
  O  O131  1  0.55975400  0.01499800  0.79368900  1
  O  O132  1  0.54749400  0.62294600  0.04268700  1
  O  O133  1  0.47291500  0.99893300  0.65617400  1
  O  O134  1  0.02708500  0.00106700  0.15617400  1
  O  O135  1  0.74893300  0.72291500  0.59382600  1
  O  O136  1  0.70250600  0.79268700  0.87294600  1
  O  O137  1  0.20631100  0.05975400  0.48500200  1
  O  O138  1  0.45631100  0.76499800  0.80975400  1
  O  O139  1  0.34416800  0.54195300  0.42771100  1
  O  O140  1  0.77708500  0.40617400  0.24893300  1
  O  O141  1  0.84382600  0.52708500  0.49893300  1
  O  O142  1  0.04195300  0.07228900  0.65583200  1
  O  O143  1  0.79268700  0.87294600  0.70250600  1
  O  O144  1  0.19024600  0.95631100  0.73500200  1
  O  O145  1  0.69024600  0.54368900  0.26499800  1
  O  O146  1  0.52708500  0.49893300  0.84382600  1
  O  O147  1  0.70804700  0.09416800  0.67771100  1
  O  O148  1  0.04749400  0.87705400  0.95731300  1
  O  O149  1  0.37294600  0.79749400  0.20731300  1
  O  O150  1  0.59382600  0.74893300  0.72291500  1
  O  O151  1  0.45731300  0.45250600  0.12294600  1
  O  O152  1  0.97291500  0.50106700  0.34382600  1
  O  O153  1  0.57228900  0.84416800  0.95804700  1
  O  O154  1  0.15617400  0.02708500  0.00106700  1
  O  O155  1  0.70631100  0.44024600  0.51499800  1
  O  O156  1  0.79195300  0.90583200  0.17771100  1
  O  O157  1  0.29749400  0.29268700  0.62705400  1
  O  O158  1  0.09416800  0.67771100  0.70804700  1
  O  O159  1  0.62705400  0.29749400  0.29268700  1
  O  O160  1  0.37705400  0.54268700  0.95250600  1
  O  O161  1  0.27708500  0.09382600  0.75106700  1
  O  O162  1  0.34382600  0.97291500  0.50106700  1
  O  O163  1  0.50106700  0.34382600  0.97291500  1
  O  O164  1  0.54368900  0.26499800  0.69024600  1
  O  O165  1  0.25106700  0.22291500  0.90617400  1
  O  O166  1  0.22291500  0.90617400  0.25106700  1
  O  O167  1  0.44024600  0.51499800  0.70631100  1
  O  O168  1  0.95631100  0.73500200  0.19024600  1
  O  O169  1  0.62294600  0.04268700  0.54749400  1
  O  O170  1  0.87294600  0.70250600  0.79268700  1
  O  O171  1  0.76499800  0.80975400  0.45631100  1
  O  O172  1  0.87705400  0.95731300  0.04749400  1
  O  O173  1  0.51499800  0.70631100  0.44024600  1
  O  O174  1  0.65617400  0.47291500  0.99893300  1
  O  O175  1  0.29268700  0.62705400  0.29749400  1
