# generated using pymatgen
data_MnH12N2(Cl2O)2
_symmetry_space_group_name_H-M   'P 1'
_cell_length_a   7.55796721
_cell_length_b   7.55390675
_cell_length_c   8.44323885
_cell_angle_alpha   89.96677174
_cell_angle_beta   89.98402212
_cell_angle_gamma   90.00345052
_symmetry_Int_Tables_number   1
_chemical_formula_structural   MnH12N2(Cl2O)2
_chemical_formula_sum   'Mn2 H24 N4 Cl8 O4'
_cell_volume   482.04280691
_cell_formula_units_Z   2
loop_
 _symmetry_equiv_pos_site_id
 _symmetry_equiv_pos_as_xyz
  1  'x, y, z'
loop_
 _atom_site_type_symbol
 _atom_site_label
 _atom_site_symmetry_multiplicity
 _atom_site_fract_x
 _atom_site_fract_y
 _atom_site_fract_z
 _atom_site_occupancy
  Mn  Mn0  1  0.49963900  0.50032400  0.50034000  1
  Mn  Mn1  1  0.00116900  0.00094800  0.99964400  1
  H  H2  1  0.42603700  0.42615800  0.16828800  1
  H  H3  1  0.92635300  0.92625700  0.66762100  1
  H  H4  1  0.07425000  0.07404200  0.66731600  1
  H  H5  1  0.57406300  0.57389800  0.16783300  1
  H  H6  1  0.92617000  0.07399300  0.33197800  1
  H  H7  1  0.42554000  0.57364600  0.83286100  1
  H  H8  1  0.57349800  0.42594600  0.83217100  1
  H  H9  1  0.07420300  0.92623500  0.33187400  1
  H  H10  1  0.08621800  0.57049100  0.32133100  1
  H  H11  1  0.58747600  0.07002400  0.82131100  1
  H  H12  1  0.42916700  0.91186200  0.32105000  1
  H  H13  1  0.92823800  0.41321100  0.82109800  1
  H  H14  1  0.07033700  0.41239300  0.17899100  1
  H  H15  1  0.57115600  0.91247600  0.67849900  1
  H  H16  1  0.58791000  0.92820000  0.17913900  1
  H  H17  1  0.08666600  0.42928100  0.67890600  1
  H  H18  1  0.57088300  0.08628900  0.32145300  1
  H  H19  1  0.07014400  0.58749300  0.82112700  1
  H  H20  1  0.91186500  0.42873100  0.32108800  1
  H  H21  1  0.41328500  0.92803100  0.82122400  1
  H  H22  1  0.41355800  0.06996200  0.17848200  1
  H  H23  1  0.91246300  0.57124200  0.67846700  1
  H  H24  1  0.92864800  0.58685000  0.17855100  1
  H  H25  1  0.42923100  0.08672900  0.67919800  1
  N  N26  1  0.50039100  0.99908900  0.25003000  1
  N  N27  1  0.99938900  0.50035000  0.74989000  1
  N  N28  1  0.99928700  0.49958700  0.24998900  1
  N  N29  1  0.50030200  0.99932900  0.75006200  1
  Cl  Cl30  1  0.24179300  0.24119400  0.02203600  1
  Cl  Cl31  1  0.74033000  0.74125000  0.52156500  1
  Cl  Cl32  1  0.73972100  0.25983300  0.47804300  1
  Cl  Cl33  1  0.24114000  0.75959500  0.97802900  1
  Cl  Cl34  1  0.76003400  0.24101100  0.97773600  1
  Cl  Cl35  1  0.25860900  0.74103600  0.47794000  1
  Cl  Cl36  1  0.25914600  0.26025000  0.52284000  1
  Cl  Cl37  1  0.76078200  0.76025600  0.02212600  1
  O  O38  1  0.00078700  0.00084300  0.26269300  1
  O  O39  1  0.50016700  0.50084200  0.76324400  1
  O  O40  1  0.49965700  0.50061900  0.23720200  1
  O  O41  1  0.00029800  0.00020600  0.73673700  1
