# generated using pymatgen
data_CsNi2F6
_symmetry_space_group_name_H-M   'P 1'
_cell_length_a   7.26618241
_cell_length_b   7.26618241
_cell_length_c   7.26618241
_cell_angle_alpha   120.58665633
_cell_angle_beta   117.93790627
_cell_angle_gamma   91.29755409
_symmetry_Int_Tables_number   1
_chemical_formula_structural   CsNi2F6
_chemical_formula_sum   'Cs2 Ni4 F12'
_cell_volume   274.04189503
_cell_formula_units_Z   2
loop_
 _symmetry_equiv_pos_site_id
 _symmetry_equiv_pos_as_xyz
  1  'x, y, z'
loop_
 _atom_site_type_symbol
 _atom_site_label
 _atom_site_symmetry_multiplicity
 _atom_site_fract_x
 _atom_site_fract_y
 _atom_site_fract_z
 _atom_site_occupancy
  Cs  Cs0  1  0.37764200  0.62764200  0.75000000  1
  Cs  Cs1  1  0.62235800  0.37235800  0.25000000  1
  Ni  Ni2  1  0.50000000  0.00000000  0.50000000  1
  Ni  Ni3  1  0.00000000  0.00000000  0.00000000  1
  Ni  Ni4  1  0.00000000  0.00000000  0.50000000  1
  Ni  Ni5  1  0.00000000  0.50000000  0.00000000  1
  F  F6  1  0.67429100  0.30844200  0.73841100  1
  F  F7  1  0.07003100  0.30844200  0.13415100  1
  F  F8  1  0.32570900  0.06412100  0.63415100  1
  F  F9  1  0.32570900  0.69155800  0.26158900  1
  F  F10  1  0.32130300  0.07130300  0.25000000  1
  F  F11  1  0.92272700  0.67272700  0.25000000  1
  F  F12  1  0.67429100  0.93587900  0.36584900  1
  F  F13  1  0.92996900  0.06412100  0.23841100  1
  F  F14  1  0.92996900  0.69155800  0.86584900  1
  F  F15  1  0.07727300  0.32727300  0.75000000  1
  F  F16  1  0.07003100  0.93587900  0.76158900  1
  F  F17  1  0.67869700  0.92869700  0.75000000  1
