# generated using pymatgen
data_P5HC(NCl6)3
_symmetry_space_group_name_H-M   'P 1'
_cell_length_a   13.84122595
_cell_length_b   13.84122595
_cell_length_c   15.41892600
_cell_angle_alpha   90.00000000
_cell_angle_beta   90.00000000
_cell_angle_gamma   106.21354093
_symmetry_Int_Tables_number   1
_chemical_formula_structural   P5HC(NCl6)3
_chemical_formula_sum   'P20 H4 C4 N12 Cl72'
_cell_volume   2836.46534214
_cell_formula_units_Z   4
loop_
 _symmetry_equiv_pos_site_id
 _symmetry_equiv_pos_as_xyz
  1  'x, y, z'
loop_
 _atom_site_type_symbol
 _atom_site_label
 _atom_site_symmetry_multiplicity
 _atom_site_fract_x
 _atom_site_fract_y
 _atom_site_fract_z
 _atom_site_occupancy
  P  P0  1  0.43615700  0.43615700  0.28894000  1
  P  P1  1  0.56384300  0.56384300  0.71106000  1
  P  P2  1  0.06384300  0.06384300  0.78894000  1
  P  P3  1  0.93615700  0.93615700  0.21106000  1
  P  P4  1  0.25749400  0.25749400  0.23756000  1
  P  P5  1  0.74250600  0.74250600  0.76244000  1
  P  P6  1  0.24250600  0.24250600  0.73756000  1
  P  P7  1  0.75749400  0.75749400  0.26244000  1
  P  P8  1  0.61449800  0.35911200  0.27187800  1
  P  P9  1  0.64088800  0.38550200  0.72812200  1
  P  P10  1  0.14088800  0.88550200  0.77187800  1
  P  P11  1  0.11449800  0.85911200  0.22812200  1
  P  P12  1  0.38550200  0.64088800  0.72812200  1
  P  P13  1  0.35911200  0.61449800  0.27187800  1
  P  P14  1  0.85911200  0.11449800  0.22812200  1
  P  P15  1  0.88550200  0.14088800  0.77187800  1
  P  P16  1  0.50000000  0.00000000  0.50000000  1
  P  P17  1  0.00000000  0.50000000  0.50000000  1
  P  P18  1  0.50000000  0.00000000  0.00000000  1
  P  P19  1  0.00000000  0.50000000  0.00000000  1
  H  H20  1  0.00011500  0.00011500  0.60096400  1
  H  H21  1  0.99988500  0.99988500  0.39903600  1
  H  H22  1  0.49988500  0.49988500  0.10096400  1
  H  H23  1  0.50011500  0.50011500  0.89903600  1
  C  C24  1  0.03081400  0.03081400  0.53731700  1
  C  C25  1  0.96918600  0.96918600  0.46268300  1
  C  C26  1  0.46918600  0.46918600  0.03731700  1
  C  C27  1  0.53081400  0.53081400  0.96268300  1
  N  N28  1  0.35000900  0.35000900  0.24399200  1
  N  N29  1  0.64999100  0.64999100  0.75600800  1
  N  N30  1  0.14999100  0.14999100  0.74399200  1
  N  N31  1  0.85000900  0.85000900  0.25600800  1
  N  N32  1  0.54676700  0.43165300  0.26349700  1
  N  N33  1  0.56834700  0.45323300  0.73650300  1
  N  N34  1  0.06834700  0.95323300  0.76349700  1
  N  N35  1  0.04676700  0.93165300  0.23650300  1
  N  N36  1  0.45323300  0.56834700  0.73650300  1
  N  N37  1  0.43165300  0.54676700  0.26349700  1
  N  N38  1  0.93165300  0.04676700  0.23650300  1
  N  N39  1  0.95323300  0.06834700  0.76349700  1
  Cl  Cl40  1  0.41839500  0.41839500  0.41962700  1
  Cl  Cl41  1  0.58160500  0.58160500  0.58037300  1
  Cl  Cl42  1  0.08160500  0.08160500  0.91962700  1
  Cl  Cl43  1  0.91839500  0.91839500  0.08037300  1
  Cl  Cl44  1  0.19989100  0.19989100  0.35139200  1
  Cl  Cl45  1  0.80010900  0.80010900  0.64860800  1
  Cl  Cl46  1  0.30010900  0.30010900  0.85139200  1
  Cl  Cl47  1  0.69989100  0.69989100  0.14860800  1
  Cl  Cl48  1  0.28517400  0.14377200  0.17236300  1
  Cl  Cl49  1  0.85622800  0.71482600  0.82763700  1
  Cl  Cl50  1  0.35622800  0.21482600  0.67236300  1
  Cl  Cl51  1  0.78517400  0.64377200  0.32763700  1
  Cl  Cl52  1  0.71482600  0.85622800  0.82763700  1
  Cl  Cl53  1  0.14377200  0.28517400  0.17236300  1
  Cl  Cl54  1  0.64377200  0.78517400  0.32763700  1
  Cl  Cl55  1  0.21482600  0.35622800  0.67236300  1
  Cl  Cl56  1  0.68586100  0.36830800  0.38564700  1
  Cl  Cl57  1  0.63169200  0.31413900  0.61435300  1
  Cl  Cl58  1  0.13169200  0.81413900  0.88564700  1
  Cl  Cl59  1  0.18586100  0.86830800  0.11435300  1
  Cl  Cl60  1  0.31413900  0.63169200  0.61435300  1
  Cl  Cl61  1  0.36830800  0.68586100  0.38564700  1
  Cl  Cl62  1  0.86830800  0.18586100  0.11435300  1
  Cl  Cl63  1  0.81413900  0.13169200  0.88564700  1
  Cl  Cl64  1  0.54579900  0.21339700  0.25579300  1
  Cl  Cl65  1  0.78660300  0.45420100  0.74420700  1
  Cl  Cl66  1  0.28660300  0.95420100  0.75579300  1
  Cl  Cl67  1  0.04579900  0.71339700  0.24420700  1
  Cl  Cl68  1  0.45420100  0.78660300  0.74420700  1
  Cl  Cl69  1  0.21339700  0.54579900  0.25579300  1
  Cl  Cl70  1  0.71339700  0.04579900  0.24420700  1
  Cl  Cl71  1  0.95420100  0.28660300  0.75579300  1
  Cl  Cl72  1  0.72371000  0.39251700  0.18374700  1
  Cl  Cl73  1  0.60748300  0.27629000  0.81625300  1
  Cl  Cl74  1  0.10748300  0.77629000  0.68374700  1
  Cl  Cl75  1  0.22371000  0.89251700  0.31625300  1
  Cl  Cl76  1  0.27629000  0.60748300  0.81625300  1
  Cl  Cl77  1  0.39251700  0.72371000  0.18374700  1
  Cl  Cl78  1  0.89251700  0.22371000  0.31625300  1
  Cl  Cl79  1  0.77629000  0.10748300  0.68374700  1
  Cl  Cl80  1  0.48813400  0.96105200  0.36266300  1
  Cl  Cl81  1  0.03894800  0.51186600  0.63733700  1
  Cl  Cl82  1  0.53894800  0.01186600  0.86266300  1
  Cl  Cl83  1  0.98813400  0.46105200  0.13733700  1
  Cl  Cl84  1  0.51186600  0.03894800  0.63733700  1
  Cl  Cl85  1  0.96105200  0.48813400  0.36266300  1
  Cl  Cl86  1  0.46105200  0.98813400  0.13733700  1
  Cl  Cl87  1  0.01186600  0.53894800  0.86266300  1
  Cl  Cl88  1  0.43063000  0.11969200  0.47469200  1
  Cl  Cl89  1  0.88030800  0.56937000  0.52530800  1
  Cl  Cl90  1  0.38030800  0.06937000  0.97469200  1
  Cl  Cl91  1  0.93063000  0.61969200  0.02530800  1
  Cl  Cl92  1  0.56937000  0.88030800  0.52530800  1
  Cl  Cl93  1  0.11969200  0.43063000  0.47469200  1
  Cl  Cl94  1  0.61969200  0.93063000  0.02530800  1
  Cl  Cl95  1  0.06937000  0.38030800  0.97469200  1
  Cl  Cl96  1  0.64723200  0.10375600  0.47737100  1
  Cl  Cl97  1  0.89624400  0.35276800  0.52262900  1
  Cl  Cl98  1  0.39624400  0.85276800  0.97737100  1
  Cl  Cl99  1  0.14723200  0.60375600  0.02262900  1
  Cl  Cl100  1  0.35276800  0.89624400  0.52262900  1
  Cl  Cl101  1  0.10375600  0.64723200  0.47737100  1
  Cl  Cl102  1  0.60375600  0.14723200  0.02262900  1
  Cl  Cl103  1  0.85276800  0.39624400  0.97737100  1
  Cl  Cl104  1  0.15827100  0.02618400  0.53158700  1
  Cl  Cl105  1  0.97381600  0.84172900  0.46841300  1
  Cl  Cl106  1  0.47381600  0.34172900  0.03158700  1
  Cl  Cl107  1  0.65827100  0.52618400  0.96841300  1
  Cl  Cl108  1  0.84172900  0.97381600  0.46841300  1
  Cl  Cl109  1  0.02618400  0.15827100  0.53158700  1
  Cl  Cl110  1  0.52618400  0.65827100  0.96841300  1
  Cl  Cl111  1  0.34172900  0.47381600  0.03158700  1
