# generated using pymatgen
data_La5(Mo2O7)3
_symmetry_space_group_name_H-M   'P 1'
_cell_length_a   5.91046000
_cell_length_b   11.33710000
_cell_length_c   25.77772600
_cell_angle_alpha   90.00000000
_cell_angle_beta   90.00000000
_cell_angle_gamma   90.00000000
_symmetry_Int_Tables_number   1
_chemical_formula_structural   La5(Mo2O7)3
_chemical_formula_sum   'La20 Mo24 O84'
_cell_volume   1727.30035798
_cell_formula_units_Z   4
loop_
 _symmetry_equiv_pos_site_id
 _symmetry_equiv_pos_as_xyz
  1  'x, y, z'
loop_
 _atom_site_type_symbol
 _atom_site_label
 _atom_site_symmetry_multiplicity
 _atom_site_fract_x
 _atom_site_fract_y
 _atom_site_fract_z
 _atom_site_occupancy
  La  La0  1  0.25307800  0.47514000  0.96935200  1
  La  La1  1  0.25964300  0.06761300  0.81381800  1
  La  La2  1  0.75964300  0.43238700  0.18618200  1
  La  La3  1  0.77844900  0.68646100  0.05097000  1
  La  La4  1  0.27844900  0.81353900  0.94903000  1
  La  La5  1  0.22155100  0.18646100  0.44903000  1
  La  La6  1  0.75207100  0.27865800  0.89976500  1
  La  La7  1  0.25687700  0.43791300  0.81610000  1
  La  La8  1  0.24792900  0.77865800  0.60023500  1
  La  La9  1  0.24312300  0.56208700  0.31610000  1
  La  La10  1  0.24692200  0.52486000  0.46935200  1
  La  La11  1  0.24035700  0.93238700  0.31381800  1
  La  La12  1  0.74312300  0.93791300  0.68390000  1
  La  La13  1  0.25207100  0.22134200  0.10023500  1
  La  La14  1  0.75687700  0.06208700  0.18390000  1
  La  La15  1  0.74692200  0.97514000  0.53064800  1
  La  La16  1  0.72155100  0.31353900  0.55097000  1
  La  La17  1  0.74035700  0.56761300  0.68618200  1
  La  La18  1  0.75307800  0.02486000  0.03064800  1
  La  La19  1  0.74792900  0.72134200  0.39976500  1
  Mo  Mo20  1  0.50205700  0.25074800  0.68883100  1
  Mo  Mo21  1  0.73653700  0.80083800  0.27787000  1
  Mo  Mo22  1  0.74735700  0.97404500  0.89452400  1
  Mo  Mo23  1  0.49794300  0.75074800  0.81116900  1
  Mo  Mo24  1  0.26056600  0.92531300  0.08094500  1
  Mo  Mo25  1  0.26346300  0.30083800  0.22213000  1
  Mo  Mo26  1  0.24266700  0.83764400  0.46070700  1
  Mo  Mo27  1  0.74266700  0.66235600  0.53929300  1
  Mo  Mo28  1  0.23943400  0.07468700  0.58094500  1
  Mo  Mo29  1  0.00600700  0.75206700  0.81579500  1
  Mo  Mo30  1  0.23653700  0.69916200  0.72213000  1
  Mo  Mo31  1  0.99794300  0.74925200  0.18883100  1
  Mo  Mo32  1  0.24735700  0.52595500  0.10547600  1
  Mo  Mo33  1  0.25733300  0.16235600  0.96070700  1
  Mo  Mo34  1  0.73943400  0.42531300  0.41905500  1
  Mo  Mo35  1  0.25264300  0.47404500  0.60547600  1
  Mo  Mo36  1  0.49399300  0.24793300  0.31579500  1
  Mo  Mo37  1  0.76056600  0.57468700  0.91905500  1
  Mo  Mo38  1  0.99399300  0.25206700  0.68420500  1
  Mo  Mo39  1  0.50600700  0.74793300  0.18420500  1
  Mo  Mo40  1  0.75733300  0.33764400  0.03929300  1
  Mo  Mo41  1  0.00205700  0.24925200  0.31116900  1
  Mo  Mo42  1  0.75264300  0.02595500  0.39452400  1
  Mo  Mo43  1  0.76346300  0.19916200  0.77787000  1
  O  O44  1  0.47290100  0.02767800  0.11402700  1
  O  O45  1  0.25565600  0.67321800  0.85604800  1
  O  O46  1  0.51246500  0.33306000  0.45526400  1
  O  O47  1  0.74434400  0.17321800  0.64395200  1
  O  O48  1  0.45060900  0.41623900  0.05967900  1
  O  O49  1  0.16844500  0.60205000  0.04461500  1
  O  O50  1  0.31912400  0.71037500  0.42047800  1
  O  O51  1  0.48820300  0.39967200  0.26420500  1
  O  O52  1  0.23735300  0.85100100  0.77331200  1
  O  O53  1  0.75565600  0.82678200  0.14395200  1
  O  O54  1  0.02168000  0.88675600  0.87367100  1
  O  O55  1  0.80698600  0.45567900  0.98428400  1
  O  O56  1  0.25046200  0.32679300  0.72700300  1
  O  O57  1  0.48967300  0.60097200  0.76180900  1
  O  O58  1  0.28612800  0.43076900  0.16624700  1
  O  O59  1  0.98607300  0.54032400  0.39527800  1
  O  O60  1  0.24866300  0.82395100  0.14279400  1
  O  O61  1  0.94819800  0.41081400  0.09395300  1
  O  O62  1  0.97290100  0.47232200  0.88597300  1
  O  O63  1  0.49167600  0.73411200  0.32042500  1
  O  O64  1  0.48621900  0.88761500  0.86083700  1
  O  O65  1  0.52168000  0.61324400  0.12632900  1
  O  O66  1  0.94474000  0.75376600  0.48181700  1
  O  O67  1  0.51378100  0.38761500  0.63916300  1
  O  O68  1  0.98967300  0.89902800  0.23819100  1
  O  O69  1  0.55180200  0.58918600  0.59395300  1
  O  O70  1  0.75133700  0.32395100  0.35720600  1
  O  O71  1  0.00832400  0.26588800  0.82042500  1
  O  O72  1  0.74953800  0.82679300  0.77299700  1
  O  O73  1  0.01032700  0.39902800  0.26180900  1
  O  O74  1  0.18087600  0.28962500  0.92047800  1
  O  O75  1  0.74866300  0.67604900  0.85720600  1
  O  O76  1  0.66844500  0.89795000  0.95538500  1
  O  O77  1  0.99167600  0.76588800  0.67957500  1
  O  O78  1  0.48790400  0.76390400  0.67813800  1
  O  O79  1  0.98790400  0.73609600  0.32186200  1
  O  O80  1  0.69301400  0.54432100  0.48428400  1
  O  O81  1  0.76264700  0.35100100  0.72668800  1
  O  O82  1  0.05526000  0.25376600  0.01818300  1
  O  O83  1  0.52709900  0.52767800  0.38597300  1
  O  O84  1  0.48607300  0.95967600  0.60472200  1
  O  O85  1  0.30698600  0.04432100  0.01571600  1
  O  O86  1  0.81912400  0.78962500  0.57952200  1
  O  O87  1  0.26264700  0.14899900  0.27331200  1
  O  O88  1  0.51392700  0.45967600  0.89527800  1
  O  O89  1  0.71387200  0.93076900  0.33375300  1
  O  O90  1  0.44474000  0.74623400  0.51818300  1
  O  O91  1  0.44819800  0.08918600  0.90604700  1
  O  O92  1  0.98188600  0.35508500  0.46438100  1
  O  O93  1  0.98753500  0.66694000  0.95526400  1
  O  O94  1  0.51032700  0.10097200  0.73819100  1
  O  O95  1  0.95060900  0.08376100  0.94032100  1
  O  O96  1  0.48188600  0.14491500  0.53561900  1
  O  O97  1  0.24953800  0.67320700  0.22700300  1
  O  O98  1  0.54939100  0.91623900  0.44032100  1
  O  O99  1  0.05180200  0.91081400  0.40604700  1
  O  O100  1  0.01392700  0.04032400  0.10472200  1
  O  O101  1  0.97832000  0.38675600  0.62632900  1
  O  O102  1  0.02709900  0.97232200  0.61402700  1
  O  O103  1  0.75046200  0.17320700  0.27299700  1
  O  O104  1  0.83155500  0.10205000  0.45538500  1
  O  O105  1  0.98820300  0.10032800  0.73579500  1
  O  O106  1  0.78612800  0.06923100  0.83375300  1
  O  O107  1  0.01811400  0.85508500  0.03561900  1
  O  O108  1  0.47832000  0.11324400  0.37367100  1
  O  O109  1  0.01209600  0.23609600  0.17813800  1
  O  O110  1  0.73735300  0.64899900  0.22668800  1
  O  O111  1  0.04939100  0.58376100  0.55967900  1
  O  O112  1  0.24434400  0.32678200  0.35604800  1
  O  O113  1  0.55526000  0.24623400  0.98181700  1
  O  O114  1  0.01246500  0.16694000  0.54473600  1
  O  O115  1  0.51179700  0.89967200  0.23579500  1
  O  O116  1  0.01179700  0.60032800  0.76420500  1
  O  O117  1  0.01378100  0.11238500  0.36083700  1
  O  O118  1  0.98621900  0.61238500  0.13916300  1
  O  O119  1  0.51209600  0.26390400  0.82186200  1
  O  O120  1  0.33155500  0.39795000  0.54461500  1
  O  O121  1  0.50832400  0.23411200  0.17957500  1
  O  O122  1  0.21387200  0.56923100  0.66624700  1
  O  O123  1  0.25133700  0.17604900  0.64279400  1
  O  O124  1  0.51811400  0.64491500  0.96438100  1
  O  O125  1  0.68087600  0.21037500  0.07952200  1
  O  O126  1  0.19301400  0.95567900  0.51571600  1
  O  O127  1  0.48753500  0.83306000  0.04473600  1
