# generated using pymatgen
data_U(WO4)2
_symmetry_space_group_name_H-M   'P 1'
_cell_length_a   9.73690300
_cell_length_b   10.33973400
_cell_length_c   14.57120600
_cell_angle_alpha   90.00000000
_cell_angle_beta   90.00000000
_cell_angle_gamma   90.00000000
_symmetry_Int_Tables_number   1
_chemical_formula_structural   U(WO4)2
_chemical_formula_sum   'U8 W16 O64'
_cell_volume   1466.98511709
_cell_formula_units_Z   8
loop_
 _symmetry_equiv_pos_site_id
 _symmetry_equiv_pos_as_xyz
  1  'x, y, z'
loop_
 _atom_site_type_symbol
 _atom_site_label
 _atom_site_symmetry_multiplicity
 _atom_site_fract_x
 _atom_site_fract_y
 _atom_site_fract_z
 _atom_site_occupancy
  U  U0  1  0.72557800  0.03408700  0.38772800  1
  U  U1  1  0.27442200  0.46591300  0.88772800  1
  U  U2  1  0.22557800  0.96591300  0.11227200  1
  U  U3  1  0.77442200  0.53408700  0.61227200  1
  U  U4  1  0.27442200  0.96591300  0.61227200  1
  U  U5  1  0.72557800  0.53408700  0.11227200  1
  U  U6  1  0.77442200  0.03408700  0.88772800  1
  U  U7  1  0.22557800  0.46591300  0.38772800  1
  W  W8  1  0.68478800  0.39674900  0.85214300  1
  W  W9  1  0.49436000  0.72636200  0.44139000  1
  W  W10  1  0.49436000  0.22636200  0.05861000  1
  W  W11  1  0.18478800  0.10325100  0.85214300  1
  W  W12  1  0.81521200  0.39674900  0.35214300  1
  W  W13  1  0.50564000  0.27363800  0.55861000  1
  W  W14  1  0.00564000  0.72636200  0.94139000  1
  W  W15  1  0.99436000  0.27363800  0.05861000  1
  W  W16  1  0.81521200  0.89674900  0.14785700  1
  W  W17  1  0.00564000  0.22636200  0.55861000  1
  W  W18  1  0.99436000  0.77363800  0.44139000  1
  W  W19  1  0.68478800  0.89674900  0.64785700  1
  W  W20  1  0.31521200  0.10325100  0.35214300  1
  W  W21  1  0.18478800  0.60325100  0.64785700  1
  W  W22  1  0.31521200  0.60325100  0.14785700  1
  W  W23  1  0.50564000  0.77363800  0.94139000  1
  O  O24  1  0.25153400  0.57220000  0.03306300  1
  O  O25  1  0.73587900  0.23394600  0.82158600  1
  O  O26  1  0.23587900  0.76605400  0.67841400  1
  O  O27  1  0.26294400  0.99227800  0.77082600  1
  O  O28  1  0.58668200  0.64571300  0.53233600  1
  O  O29  1  0.00091400  0.41649800  0.35113600  1
  O  O30  1  0.12763400  0.83664100  0.99246600  1
  O  O31  1  0.09247300  0.60684000  0.86738600  1
  O  O32  1  0.11127800  0.17151600  0.12333100  1
  O  O33  1  0.08668200  0.35428700  0.96766400  1
  O  O34  1  0.25153400  0.07220000  0.46693700  1
  O  O35  1  0.99908600  0.58350200  0.64886400  1
  O  O36  1  0.88872200  0.82848400  0.87666900  1
  O  O37  1  0.76294400  0.00772200  0.72917400  1
  O  O38  1  0.50091400  0.58350200  0.14886400  1
  O  O39  1  0.58668200  0.14571300  0.96766400  1
  O  O40  1  0.26412100  0.26605400  0.32158600  1
  O  O41  1  0.37236600  0.83664100  0.49246600  1
  O  O42  1  0.91331800  0.14571300  0.46766400  1
  O  O43  1  0.40752700  0.10684000  0.13261400  1
  O  O44  1  0.41331800  0.85428700  0.03233600  1
  O  O45  1  0.99908600  0.08350200  0.85113600  1
  O  O46  1  0.38872200  0.67151600  0.87666900  1
  O  O47  1  0.62763400  0.66335900  0.99246600  1
  O  O48  1  0.76294400  0.50772200  0.77082600  1
  O  O49  1  0.87236600  0.66335900  0.49246600  1
  O  O50  1  0.24846600  0.07220000  0.96693700  1
  O  O51  1  0.75153400  0.42780000  0.46693700  1
  O  O52  1  0.24846600  0.57220000  0.53306300  1
  O  O53  1  0.61127800  0.32848400  0.12333100  1
  O  O54  1  0.26294400  0.49227800  0.72917400  1
  O  O55  1  0.37236600  0.33664100  0.00753400  1
  O  O56  1  0.38872200  0.17151600  0.62333100  1
  O  O57  1  0.23587900  0.26605400  0.82158600  1
  O  O58  1  0.73587900  0.73394600  0.67841400  1
  O  O59  1  0.11127800  0.67151600  0.37666900  1
  O  O60  1  0.59247300  0.39316000  0.63261400  1
  O  O61  1  0.08668200  0.85428700  0.53233600  1
  O  O62  1  0.50091400  0.08350200  0.35113600  1
  O  O63  1  0.49908600  0.41649800  0.85113600  1
  O  O64  1  0.23705600  0.49227800  0.22917400  1
  O  O65  1  0.73705600  0.50772200  0.27082600  1
  O  O66  1  0.62763400  0.16335900  0.50753400  1
  O  O67  1  0.90752700  0.89316000  0.36738600  1
  O  O68  1  0.90752700  0.39316000  0.13261400  1
  O  O69  1  0.61127800  0.82848400  0.37666900  1
  O  O70  1  0.00091400  0.91649800  0.14886400  1
  O  O71  1  0.12763400  0.33664100  0.50753400  1
  O  O72  1  0.91331800  0.64571300  0.03233600  1
  O  O73  1  0.59247300  0.89316000  0.86738600  1
  O  O74  1  0.76412100  0.73394600  0.17841400  1
  O  O75  1  0.40752700  0.60684000  0.36738600  1
  O  O76  1  0.23705600  0.99227800  0.27082600  1
  O  O77  1  0.09247300  0.10684000  0.63261400  1
  O  O78  1  0.76412100  0.23394600  0.32158600  1
  O  O79  1  0.74846600  0.42780000  0.96693700  1
  O  O80  1  0.87236600  0.16335900  0.00753400  1
  O  O81  1  0.75153400  0.92780000  0.03306300  1
  O  O82  1  0.74846600  0.92780000  0.53306300  1
  O  O83  1  0.88872200  0.32848400  0.62333100  1
  O  O84  1  0.41331800  0.35428700  0.46766400  1
  O  O85  1  0.73705600  0.00772200  0.22917400  1
  O  O86  1  0.49908600  0.91649800  0.64886400  1
  O  O87  1  0.26412100  0.76605400  0.17841400  1
