# generated using pymatgen
data_K4MoC5N6O
_symmetry_space_group_name_H-M   'P 1'
_cell_length_a   8.60117300
_cell_length_b   14.40792300
_cell_length_c   21.42939300
_cell_angle_alpha   90.00000000
_cell_angle_beta   90.00000000
_cell_angle_gamma   90.00000000
_symmetry_Int_Tables_number   1
_chemical_formula_structural   K4MoC5N6O
_chemical_formula_sum   'K32 Mo8 C40 N48 O8'
_cell_volume   2655.63834814
_cell_formula_units_Z   8
loop_
 _symmetry_equiv_pos_site_id
 _symmetry_equiv_pos_as_xyz
  1  'x, y, z'
loop_
 _atom_site_type_symbol
 _atom_site_label
 _atom_site_symmetry_multiplicity
 _atom_site_fract_x
 _atom_site_fract_y
 _atom_site_fract_z
 _atom_site_occupancy
  K  K0  1  0.87500800  0.88693900  0.04816600  1
  K  K1  1  0.87448400  0.15091600  0.35996100  1
  K  K2  1  0.12499200  0.38693900  0.45183400  1
  K  K3  1  0.62507200  0.90243500  0.25034700  1
  K  K4  1  0.37463100  0.88401400  0.04581800  1
  K  K5  1  0.37492800  0.40243500  0.24965300  1
  K  K6  1  0.12499200  0.11306100  0.95183400  1
  K  K7  1  0.87463100  0.88401400  0.45418200  1
  K  K8  1  0.12536900  0.38401400  0.04581800  1
  K  K9  1  0.87492800  0.09756500  0.75034700  1
  K  K10  1  0.12507200  0.59756500  0.74965300  1
  K  K11  1  0.12551600  0.65091600  0.14003900  1
  K  K12  1  0.62499200  0.11306100  0.54816600  1
  K  K13  1  0.62551600  0.65091600  0.35996100  1
  K  K14  1  0.62499200  0.38693900  0.04816600  1
  K  K15  1  0.37500800  0.88693900  0.45183400  1
  K  K16  1  0.62507200  0.59756500  0.75034700  1
  K  K17  1  0.37500800  0.61306100  0.95183400  1
  K  K18  1  0.87448400  0.34908400  0.85996100  1
  K  K19  1  0.12507200  0.90243500  0.24965300  1
  K  K20  1  0.87463100  0.61598600  0.95418200  1
  K  K21  1  0.62536900  0.11598600  0.95418200  1
  K  K22  1  0.87492800  0.40243500  0.25034700  1
  K  K23  1  0.62551600  0.84908400  0.85996100  1
  K  K24  1  0.62536900  0.38401400  0.45418200  1
  K  K25  1  0.37448400  0.15091600  0.14003900  1
  K  K26  1  0.12536900  0.11598600  0.54581800  1
  K  K27  1  0.37463100  0.61598600  0.54581800  1
  K  K28  1  0.12551600  0.84908400  0.64003900  1
  K  K29  1  0.37448400  0.34908400  0.64003900  1
  K  K30  1  0.87500800  0.61306100  0.54816600  1
  K  K31  1  0.37492800  0.09756500  0.74965300  1
  Mo  Mo32  1  0.12535100  0.66532300  0.38111800  1
  Mo  Mo33  1  0.37464900  0.33467700  0.88111800  1
  Mo  Mo34  1  0.37464900  0.16532300  0.38111800  1
  Mo  Mo35  1  0.12535100  0.83467700  0.88111800  1
  Mo  Mo36  1  0.87464900  0.33467700  0.61888200  1
  Mo  Mo37  1  0.87464900  0.16532300  0.11888200  1
  Mo  Mo38  1  0.62535100  0.83467700  0.61888200  1
  Mo  Mo39  1  0.62535100  0.66532300  0.11888200  1
  C  C40  1  0.44772000  0.74427300  0.65768600  1
  C  C41  1  0.44955500  0.56542700  0.09357400  1
  C  C42  1  0.87486400  0.41448200  0.71028900  1
  C  C43  1  0.44955500  0.93457300  0.59357400  1
  C  C44  1  0.05228000  0.24427300  0.65768600  1
  C  C45  1  0.05044500  0.43457300  0.59357400  1
  C  C46  1  0.55044500  0.43457300  0.90642600  1
  C  C47  1  0.19722400  0.24420800  0.84249900  1
  C  C48  1  0.80277600  0.75579200  0.15750100  1
  C  C49  1  0.80277600  0.74420800  0.65750100  1
  C  C50  1  0.62513600  0.91448200  0.71028900  1
  C  C51  1  0.69722400  0.24420800  0.65750100  1
  C  C52  1  0.12513600  0.91448200  0.78971100  1
  C  C53  1  0.94772000  0.75572700  0.34231400  1
  C  C54  1  0.87486400  0.08551800  0.21028900  1
  C  C55  1  0.69722400  0.25579200  0.15750100  1
  C  C56  1  0.05228000  0.25572700  0.15768600  1
  C  C57  1  0.37486400  0.41448200  0.78971100  1
  C  C58  1  0.30277600  0.74420800  0.84249900  1
  C  C59  1  0.12513600  0.58551800  0.28971100  1
  C  C60  1  0.80249300  0.93369700  0.59382700  1
  C  C61  1  0.19750700  0.06630300  0.40617300  1
  C  C62  1  0.30249300  0.56630300  0.40617300  1
  C  C63  1  0.37486400  0.08551800  0.28971100  1
  C  C64  1  0.94772000  0.74427300  0.84231400  1
  C  C65  1  0.19750700  0.43369700  0.90617300  1
  C  C66  1  0.94955500  0.56542700  0.40642600  1
  C  C67  1  0.55228000  0.24427300  0.84231400  1
  C  C68  1  0.80249300  0.56630300  0.09382700  1
  C  C69  1  0.94955500  0.93457300  0.90642600  1
  C  C70  1  0.69750700  0.43369700  0.59382700  1
  C  C71  1  0.19722400  0.25579200  0.34249900  1
  C  C72  1  0.55228000  0.25572700  0.34231400  1
  C  C73  1  0.05044500  0.06542700  0.09357400  1
  C  C74  1  0.30249300  0.93369700  0.90617300  1
  C  C75  1  0.55044500  0.06542700  0.40642600  1
  C  C76  1  0.30277600  0.75579200  0.34249900  1
  C  C77  1  0.62513600  0.58551800  0.21028900  1
  C  C78  1  0.69750700  0.06630300  0.09382700  1
  C  C79  1  0.44772000  0.75572700  0.15768600  1
  N  N80  1  0.62511600  0.72131400  0.04223200  1
  N  N81  1  0.39860100  0.98677100  0.92326200  1
  N  N82  1  0.59882300  0.30880000  0.17198800  1
  N  N83  1  0.62485400  0.53962800  0.25586600  1
  N  N84  1  0.65112900  0.30847000  0.32778000  1
  N  N85  1  0.12511600  0.77868600  0.95776800  1
  N  N86  1  0.12485400  0.96037200  0.74413400  1
  N  N87  1  0.10139900  0.01322900  0.42326200  1
  N  N88  1  0.62485400  0.96037200  0.75586600  1
  N  N89  1  0.40117700  0.80880000  0.32801200  1
  N  N90  1  0.60139900  0.48677100  0.57673800  1
  N  N91  1  0.64427800  0.48866800  0.92395900  1
  N  N92  1  0.15112900  0.30847000  0.17222000  1
  N  N93  1  0.62511600  0.77868600  0.54223200  1
  N  N94  1  0.87488400  0.22131400  0.04223200  1
  N  N95  1  0.34887100  0.69153000  0.67222000  1
  N  N96  1  0.35572200  0.98866800  0.57604100  1
  N  N97  1  0.85572200  0.98866800  0.92395900  1
  N  N98  1  0.09882300  0.19120000  0.82801200  1
  N  N99  1  0.59882300  0.19120000  0.67198800  1
  N  N100  1  0.87514600  0.46037200  0.75586600  1
  N  N101  1  0.12511600  0.72131400  0.45776800  1
  N  N102  1  0.37488400  0.27868600  0.95776800  1
  N  N103  1  0.10139900  0.48677100  0.92326200  1
  N  N104  1  0.37514600  0.03962800  0.24413400  1
  N  N105  1  0.14427800  0.01133200  0.07604100  1
  N  N106  1  0.89860100  0.51322900  0.07673800  1
  N  N107  1  0.14427800  0.48866800  0.57604100  1
  N  N108  1  0.15112900  0.19153000  0.67222000  1
  N  N109  1  0.90117700  0.80880000  0.17198800  1
  N  N110  1  0.85572200  0.51133200  0.42395900  1
  N  N111  1  0.84887100  0.80847000  0.32778000  1
  N  N112  1  0.84887100  0.69153000  0.82778000  1
  N  N113  1  0.09882300  0.30880000  0.32801200  1
  N  N114  1  0.60139900  0.01322900  0.07673800  1
  N  N115  1  0.87514600  0.03962800  0.25586600  1
  N  N116  1  0.40117700  0.69120000  0.82801200  1
  N  N117  1  0.65112900  0.19153000  0.82778000  1
  N  N118  1  0.37488400  0.22131400  0.45776800  1
  N  N119  1  0.34887100  0.80847000  0.17222000  1
  N  N120  1  0.12485400  0.53962800  0.24413400  1
  N  N121  1  0.89860100  0.98677100  0.57673800  1
  N  N122  1  0.64427800  0.01133200  0.42395900  1
  N  N123  1  0.39860100  0.51322900  0.42326200  1
  N  N124  1  0.87488400  0.27868600  0.54223200  1
  N  N125  1  0.35572200  0.51133200  0.07604100  1
  N  N126  1  0.90117700  0.69120000  0.67198800  1
  N  N127  1  0.37514600  0.46037200  0.74413400  1
  O  O128  1  0.87517700  0.25742900  0.98851900  1
  O  O129  1  0.12482300  0.75742900  0.51148100  1
  O  O130  1  0.87517700  0.24257100  0.48851900  1
  O  O131  1  0.12482300  0.74257100  0.01148100  1
  O  O132  1  0.62482300  0.75742900  0.98851900  1
  O  O133  1  0.62482300  0.74257100  0.48851900  1
  O  O134  1  0.37517700  0.24257100  0.01148100  1
  O  O135  1  0.37517700  0.25742900  0.51148100  1
