# generated using pymatgen
data_K5CeNi2(NO2)12
_symmetry_space_group_name_H-M   'P 1'
_cell_length_a   10.71452900
_cell_length_b   10.71452900
_cell_length_c   10.71452900
_cell_angle_alpha   90.00000000
_cell_angle_beta   90.00000000
_cell_angle_gamma   90.00000000
_symmetry_Int_Tables_number   1
_chemical_formula_structural   K5CeNi2(NO2)12
_chemical_formula_sum   'K10 Ce2 Ni4 N24 O48'
_cell_volume   1230.04005475
_cell_formula_units_Z   2
loop_
 _symmetry_equiv_pos_site_id
 _symmetry_equiv_pos_as_xyz
  1  'x, y, z'
loop_
 _atom_site_type_symbol
 _atom_site_label
 _atom_site_symmetry_multiplicity
 _atom_site_fract_x
 _atom_site_fract_y
 _atom_site_fract_z
 _atom_site_occupancy
  K  K0  1  0.25000000  0.25000000  0.75000000  1
  K  K1  1  0.25000000  0.75000000  0.25000000  1
  K  K2  1  0.00000000  0.50000000  0.50000000  1
  K  K3  1  0.50000000  0.00000000  0.00000000  1
  K  K4  1  0.50000000  0.00000000  0.50000000  1
  K  K5  1  0.75000000  0.75000000  0.75000000  1
  K  K6  1  0.50000000  0.50000000  0.00000000  1
  K  K7  1  0.00000000  0.50000000  0.00000000  1
  K  K8  1  0.75000000  0.25000000  0.25000000  1
  K  K9  1  0.00000000  0.00000000  0.50000000  1
  Ce  Ce10  1  0.00000000  0.00000000  0.00000000  1
  Ce  Ce11  1  0.50000000  0.50000000  0.50000000  1
  Ni  Ni12  1  0.75000000  0.75000000  0.25000000  1
  Ni  Ni13  1  0.25000000  0.75000000  0.75000000  1
  Ni  Ni14  1  0.75000000  0.25000000  0.75000000  1
  Ni  Ni15  1  0.25000000  0.25000000  0.25000000  1
  N  N16  1  0.25476600  0.25702100  0.44584100  1
  N  N17  1  0.55415900  0.74523400  0.25702100  1
  N  N18  1  0.44584100  0.74523400  0.74297900  1
  N  N19  1  0.25702100  0.55415900  0.74523400  1
  N  N20  1  0.74523400  0.74297900  0.44584100  1
  N  N21  1  0.75702100  0.05415900  0.75476600  1
  N  N22  1  0.05415900  0.75476600  0.75702100  1
  N  N23  1  0.55415900  0.25476600  0.74297900  1
  N  N24  1  0.25702100  0.44584100  0.25476600  1
  N  N25  1  0.75476600  0.24297900  0.94584100  1
  N  N26  1  0.74297900  0.55415900  0.25476600  1
  N  N27  1  0.24523400  0.24297900  0.05415900  1
  N  N28  1  0.25476600  0.74297900  0.55415900  1
  N  N29  1  0.75702100  0.94584100  0.24523400  1
  N  N30  1  0.44584100  0.25476600  0.25702100  1
  N  N31  1  0.24297900  0.94584100  0.75476600  1
  N  N32  1  0.24297900  0.05415900  0.24523400  1
  N  N33  1  0.94584100  0.75476600  0.24297900  1
  N  N34  1  0.74297900  0.44584100  0.74523400  1
  N  N35  1  0.74523400  0.25702100  0.55415900  1
  N  N36  1  0.24523400  0.75702100  0.94584100  1
  N  N37  1  0.75476600  0.75702100  0.05415900  1
  N  N38  1  0.94584100  0.24523400  0.75702100  1
  N  N39  1  0.05415900  0.24523400  0.24297900  1
  O  O40  1  0.25626900  0.00723100  0.65633100  1
  O  O41  1  0.75626900  0.50723100  0.84366900  1
  O  O42  1  0.15633100  0.75626900  0.49276900  1
  O  O43  1  0.99276900  0.34366900  0.25626900  1
  O  O44  1  0.65633100  0.25626900  0.00723100  1
  O  O45  1  0.00595500  0.85509500  0.22300900  1
  O  O46  1  0.14490500  0.22300900  0.99404500  1
  O  O47  1  0.72300900  0.49404500  0.35509500  1
  O  O48  1  0.34366900  0.74373100  0.00723100  1
  O  O49  1  0.77699100  0.00595500  0.14490500  1
  O  O50  1  0.84366900  0.75626900  0.50723100  1
  O  O51  1  0.14490500  0.77699100  0.00595500  1
  O  O52  1  0.49276900  0.15633100  0.75626900  1
  O  O53  1  0.64490500  0.72300900  0.50595500  1
  O  O54  1  0.77699100  0.99404500  0.85509500  1
  O  O55  1  0.65633100  0.74373100  0.99276900  1
  O  O56  1  0.64490500  0.27699100  0.49404500  1
  O  O57  1  0.00723100  0.65633100  0.25626900  1
  O  O58  1  0.84366900  0.24373100  0.49276900  1
  O  O59  1  0.85509500  0.77699100  0.99404500  1
  O  O60  1  0.27699100  0.49404500  0.64490500  1
  O  O61  1  0.00723100  0.34366900  0.74373100  1
  O  O62  1  0.00595500  0.14490500  0.77699100  1
  O  O63  1  0.49276900  0.84366900  0.24373100  1
  O  O64  1  0.75626900  0.49276900  0.15633100  1
  O  O65  1  0.99404500  0.14490500  0.22300900  1
  O  O66  1  0.15633100  0.24373100  0.50723100  1
  O  O67  1  0.74373100  0.00723100  0.34366900  1
  O  O68  1  0.34366900  0.25626900  0.99276900  1
  O  O69  1  0.27699100  0.50595500  0.35509500  1
  O  O70  1  0.49404500  0.35509500  0.72300900  1
  O  O71  1  0.35509500  0.72300900  0.49404500  1
  O  O72  1  0.99276900  0.65633100  0.74373100  1
  O  O73  1  0.50595500  0.64490500  0.72300900  1
  O  O74  1  0.50723100  0.84366900  0.75626900  1
  O  O75  1  0.25626900  0.99276900  0.34366900  1
  O  O76  1  0.49404500  0.64490500  0.27699100  1
  O  O77  1  0.50723100  0.15633100  0.24373100  1
  O  O78  1  0.74373100  0.99276900  0.65633100  1
  O  O79  1  0.24373100  0.49276900  0.84366900  1
  O  O80  1  0.85509500  0.22300900  0.00595500  1
  O  O81  1  0.99404500  0.85509500  0.77699100  1
  O  O82  1  0.22300900  0.99404500  0.14490500  1
  O  O83  1  0.35509500  0.27699100  0.50595500  1
  O  O84  1  0.24373100  0.50723100  0.15633100  1
  O  O85  1  0.72300900  0.50595500  0.64490500  1
  O  O86  1  0.50595500  0.35509500  0.27699100  1
  O  O87  1  0.22300900  0.00595500  0.85509500  1
