# generated using pymatgen
data_Li5Co9(P2O7)8
_symmetry_space_group_name_H-M   'P 1'
_cell_length_a   10.71074798
_cell_length_b   9.62331804
_cell_length_c   12.62677834
_cell_angle_alpha   83.37091466
_cell_angle_beta   65.42450339
_cell_angle_gamma   108.65587955
_symmetry_Int_Tables_number   1
_chemical_formula_structural   Li5Co9(P2O7)8
_chemical_formula_sum   'Li5 Co9 P16 O56'
_cell_volume   1073.75243681
_cell_formula_units_Z   1
loop_
 _symmetry_equiv_pos_site_id
 _symmetry_equiv_pos_as_xyz
  1  'x, y, z'
loop_
 _atom_site_type_symbol
 _atom_site_label
 _atom_site_symmetry_multiplicity
 _atom_site_fract_x
 _atom_site_fract_y
 _atom_site_fract_z
 _atom_site_occupancy
  Li  Li0  1  0.79691100  0.14268400  0.68378200  1
  Li  Li1  1  0.49259700  0.05123300  0.91401900  1
  Li  Li2  1  0.46837200  0.07249600  0.42481900  1
  Li  Li3  1  0.98571100  0.55818100  0.41201100  1
  Li  Li4  1  0.32990500  0.64940800  0.16653100  1
  Co  Co5  1  0.00099700  0.99882500  0.00236700  1
  Co  Co6  1  0.29422100  0.69217400  0.92275200  1
  Co  Co7  1  0.80733600  0.20223300  0.41571000  1
  Co  Co8  1  0.44477700  0.44632700  0.31771500  1
  Co  Co9  1  0.55628400  0.55592600  0.68952200  1
  Co  Co10  1  0.93966500  0.93365900  0.80206500  1
  Co  Co11  1  0.19125400  0.78811900  0.58170200  1
  Co  Co12  1  0.70570300  0.30513200  0.07314100  1
  Co  Co13  1  0.06202900  0.06066800  0.20120500  1
  P  P14  1  0.40869100  0.20919500  0.13120800  1
  P  P15  1  0.08239300  0.29184600  0.37331000  1
  P  P16  1  0.23355500  0.53407600  0.72729500  1
  P  P17  1  0.44857800  0.76801000  0.33824500  1
  P  P18  1  0.58839600  0.78869000  0.86967600  1
  P  P19  1  0.72788600  0.03711100  0.22813900  1
  P  P20  1  0.95466800  0.25983900  0.84159100  1
  P  P21  1  0.77245400  0.45659600  0.26894800  1
  P  P22  1  0.31526800  0.36877100  0.98400700  1
  P  P23  1  0.90224700  0.71088900  0.63011100  1
  P  P24  1  0.18257700  0.13000400  0.51538700  1
  P  P25  1  0.04628200  0.73028100  0.15768900  1
  P  P26  1  0.68244300  0.63345900  0.02115500  1
  P  P27  1  0.56220400  0.23027000  0.64911300  1
  P  P28  1  0.81275200  0.87767200  0.48582600  1
  P  P29  1  0.27677300  0.96567000  0.77063300  1
  O  O30  1  0.63093000  0.85578400  0.27822100  1
  O  O31  1  0.89028100  0.05190800  0.15461000  1
  O  O32  1  0.69958400  0.10071300  0.33816000  1
  O  O33  1  0.20090400  0.60249300  0.83335000  1
  O  O34  1  0.97568300  0.77408800  0.70908500  1
  O  O35  1  0.17671100  0.59554400  0.64579700  1
  O  O36  1  0.01859900  0.66816700  0.53537400  1
  O  O37  1  0.51949100  0.72368700  0.79048900  1
  O  O38  1  0.68041600  0.72609300  0.53162100  1
  O  O39  1  0.56201500  0.60054200  0.15114300  1
  O  O40  1  0.60839500  0.65151200  0.93496400  1
  O  O41  1  0.80752800  0.39133800  0.16117400  1
  O  O42  1  0.01065100  0.22610100  0.29388400  1
  O  O43  1  0.61290100  0.17792700  0.73619200  1
  O  O44  1  0.90159300  0.86142100  0.56026200  1
  O  O45  1  0.86431900  0.64013700  0.22143300  1
  O  O46  1  0.89358200  0.33141500  0.94201400  1
  O  O47  1  0.74176300  0.59195700  0.70434000  1
  O  O48  1  0.81941400  0.79022300  0.97229600  1
  O  O49  1  0.33499100  0.90811800  0.85103200  1
  O  O50  1  0.17837600  0.21213400  0.03356700  1
  O  O51  1  0.74301800  0.92346700  0.80002000  1
  O  O52  1  0.60815900  0.42851000  0.34240300  1
  O  O53  1  0.39724000  0.78666100  0.24619500  1
  O  O54  1  0.90068000  0.26620600  0.75013900  1
  O  O55  1  0.31547000  0.28159600  0.47294300  1
  O  O56  1  0.06787500  0.89860700  0.10926400  1
  O  O57  1  0.13597200  0.35271800  0.77781500  1
  O  O58  1  0.10772900  0.66821800  0.04999300  1
  O  O59  1  0.27338900  0.50233100  0.01591300  1
  O  O60  1  0.77736400  0.01578800  0.51417500  1
  O  O61  1  0.41942700  0.59974100  0.39058000  1
  O  O62  1  0.23288100  0.00091700  0.48594400  1
  O  O63  1  0.11552300  0.95595000  0.84671100  1
  O  O64  1  0.47426600  0.27110600  0.21387400  1
  O  O65  1  0.23328900  0.42648800  0.30358900  1
  O  O66  1  0.39622500  0.35335900  0.06486200  1
  O  O67  1  0.93395200  0.09438100  0.89633000  1
  O  O68  1  0.06495800  0.08822600  0.65041700  1
  O  O69  1  0.10068500  0.70633100  0.24753800  1
  O  O70  1  0.83957700  0.40533500  0.34609900  1
  O  O71  1  0.29103600  0.89639500  0.66669900  1
  O  O72  1  0.94920500  0.31674000  0.47148000  1
  O  O73  1  0.60098900  0.40081100  0.61045300  1
  O  O74  1  0.92248200  0.91050700  0.34996300  1
  O  O75  1  0.24848900  0.08458000  0.20098000  1
  O  O76  1  0.42327200  0.39729600  0.85136500  1
  O  O77  1  0.61289000  0.17388200  0.53379900  1
  O  O78  1  0.39203300  0.84185000  0.44050900  1
  O  O79  1  0.72800100  0.50139400  0.99589900  1
  O  O80  1  0.46457000  0.82197100  0.96811300  1
  O  O81  1  0.66704800  0.10067200  0.15329900  1
  O  O82  1  0.09865100  0.15064300  0.43743700  1
  O  O83  1  0.52548000  0.17055500  0.03341300  1
  O  O84  1  0.37991200  0.14685400  0.71250300  1
  O  O85  1  0.39579800  0.55210400  0.65879400  1
