# generated using pymatgen
data_K4Zr3Mn(PO4)6
_symmetry_space_group_name_H-M   'P 1'
_cell_length_a   10.36498100
_cell_length_b   10.37655200
_cell_length_c   10.38096102
_cell_angle_alpha   89.96424036
_cell_angle_beta   90.00000000
_cell_angle_gamma   90.00000000
_symmetry_Int_Tables_number   1
_chemical_formula_structural   K4Zr3Mn(PO4)6
_chemical_formula_sum   'K8 Zr6 Mn2 P12 O48'
_cell_volume   1116.50083680
_cell_formula_units_Z   2
loop_
 _symmetry_equiv_pos_site_id
 _symmetry_equiv_pos_as_xyz
  1  'x, y, z'
loop_
 _atom_site_type_symbol
 _atom_site_label
 _atom_site_symmetry_multiplicity
 _atom_site_fract_x
 _atom_site_fract_y
 _atom_site_fract_z
 _atom_site_occupancy
  K  K0  1  0.43638200  0.19004500  0.56150100  1
  K  K1  1  0.70088500  0.05607500  0.20925400  1
  K  K2  1  0.20088500  0.94392500  0.79074600  1
  K  K3  1  0.93638200  0.80995500  0.43849900  1
  K  K4  1  0.56876600  0.67775200  0.92894300  1
  K  K5  1  0.29955400  0.54323900  0.30892600  1
  K  K6  1  0.79955400  0.45676100  0.69107400  1
  K  K7  1  0.06876600  0.32224800  0.07105700  1
  Zr  Zr8  1  0.08440200  0.16782600  0.41508200  1
  Zr  Zr9  1  0.85609200  0.10651000  0.85357200  1
  Zr  Zr10  1  0.35609200  0.89349000  0.14642800  1
  Zr  Zr11  1  0.58440200  0.83217400  0.58491800  1
  Zr  Zr12  1  0.91349600  0.66121400  0.08640700  1
  Zr  Zr13  1  0.41349600  0.33878600  0.91359300  1
  Mn  Mn14  1  0.14816800  0.60058600  0.64476700  1
  Mn  Mn15  1  0.64816800  0.39941400  0.35523300  1
  P  P16  1  0.37437000  0.21337500  0.23023100  1
  P  P17  1  0.76864100  0.12302500  0.53664400  1
  P  P18  1  0.53801200  0.01989800  0.87344600  1
  P  P19  1  0.03801200  0.98010200  0.12655400  1
  P  P20  1  0.26864100  0.87697500  0.46335600  1
  P  P21  1  0.87437000  0.78662500  0.76976900  1
  P  P22  1  0.62443900  0.70967200  0.26808200  1
  P  P23  1  0.23109300  0.62697800  0.95960400  1
  P  P24  1  0.46095700  0.51715300  0.62285000  1
  P  P25  1  0.96095700  0.48284700  0.37715000  1
  P  P26  1  0.73109300  0.37302200  0.04039600  1
  P  P27  1  0.12443900  0.29032800  0.73191800  1
  O  O28  1  0.14774200  0.24357900  0.59125000  1
  O  O29  1  0.24297400  0.22628900  0.30262200  1
  O  O30  1  0.70114600  0.22087700  0.45225800  1
  O  O31  1  0.02654700  0.19515700  0.79724000  1
  O  O32  1  0.76859200  0.16580900  0.68144100  1
  O  O33  1  0.49394300  0.16044600  0.85129200  1
  O  O34  1  0.91139200  0.09917400  0.49530500  1
  O  O35  1  0.41603300  0.06841400  0.22981100  1
  O  O36  1  0.02018300  0.05696600  0.25278700  1
  O  O37  1  0.95231400  0.04682600  0.02397600  1
  O  O38  1  0.68039300  0.01740600  0.91913800  1
  O  O39  1  0.19576000  0.00776500  0.47516200  1
  O  O40  1  0.69576000  0.99223500  0.52483800  1
  O  O41  1  0.18039300  0.98259400  0.08086200  1
  O  O42  1  0.45231400  0.95317400  0.97602400  1
  O  O43  1  0.52018300  0.94303400  0.74721300  1
  O  O44  1  0.91603300  0.93158600  0.77018900  1
  O  O45  1  0.41139200  0.90082600  0.50469500  1
  O  O46  1  0.99394300  0.83955400  0.14870800  1
  O  O47  1  0.26859200  0.83419100  0.31855900  1
  O  O48  1  0.52654700  0.80484300  0.20276000  1
  O  O49  1  0.20114600  0.77912300  0.54774200  1
  O  O50  1  0.74297400  0.77371100  0.69737800  1
  O  O51  1  0.64774200  0.75642100  0.40875000  1
  O  O52  1  0.85018200  0.74480300  0.91198800  1
  O  O53  1  0.75296500  0.72918900  0.19223900  1
  O  O54  1  0.29685500  0.72529400  0.05373000  1
  O  O55  1  0.97345500  0.70397500  0.70189100  1
  O  O56  1  0.23811200  0.67727700  0.82292200  1
  O  O57  1  0.50533400  0.66056900  0.64843100  1
  O  O58  1  0.09041700  0.60340100  0.00678100  1
  O  O59  1  0.57337100  0.57308900  0.26033700  1
  O  O60  1  0.97469400  0.55341100  0.24247400  1
  O  O61  1  0.05430100  0.54942800  0.46826000  1
  O  O62  1  0.32185100  0.51257500  0.57605000  1
  O  O63  1  0.80618400  0.50211700  0.02002900  1
  O  O64  1  0.30618400  0.49788300  0.97997100  1
  O  O65  1  0.82185100  0.48742500  0.42395000  1
  O  O66  1  0.55430100  0.45057200  0.53174000  1
  O  O67  1  0.47469400  0.44658900  0.75752600  1
  O  O68  1  0.07337100  0.42691100  0.73966300  1
  O  O69  1  0.59041700  0.39659900  0.99321900  1
  O  O70  1  0.00533400  0.33943100  0.35156900  1
  O  O71  1  0.73811200  0.32272300  0.17707800  1
  O  O72  1  0.47345500  0.29602500  0.29810900  1
  O  O73  1  0.79685500  0.27470600  0.94627000  1
  O  O74  1  0.25296500  0.27081100  0.80776100  1
  O  O75  1  0.35018200  0.25519700  0.08801200  1
