# generated using pymatgen
data_FePO4
_symmetry_space_group_name_H-M   'P 1'
_cell_length_a   10.37544664
_cell_length_b   10.37544664
_cell_length_c   17.86506661
_cell_angle_alpha   71.57870992
_cell_angle_beta   71.57870992
_cell_angle_gamma   58.82227872
_symmetry_Int_Tables_number   1
_chemical_formula_structural   FePO4
_chemical_formula_sum   'Fe16 P16 O64'
_cell_volume   1533.32379173
_cell_formula_units_Z   16
loop_
 _symmetry_equiv_pos_site_id
 _symmetry_equiv_pos_as_xyz
  1  'x, y, z'
loop_
 _atom_site_type_symbol
 _atom_site_label
 _atom_site_symmetry_multiplicity
 _atom_site_fract_x
 _atom_site_fract_y
 _atom_site_fract_z
 _atom_site_occupancy
  Fe  Fe0  1  0.37174500  0.93650400  0.68874300  1
  Fe  Fe1  1  0.87118100  0.50018100  0.68731200  1
  Fe  Fe2  1  0.99913600  0.87093100  0.18586900  1
  Fe  Fe3  1  0.37414700  0.43674600  0.69008500  1
  Fe  Fe4  1  0.18886400  0.25280300  0.93820100  1
  Fe  Fe5  1  0.12143500  0.75379800  0.93881200  1
  Fe  Fe6  1  0.61952200  0.75849300  0.93953200  1
  Fe  Fe7  1  0.87093100  0.99913600  0.68586900  1
  Fe  Fe8  1  0.75379800  0.12143500  0.43881200  1
  Fe  Fe9  1  0.25578700  0.68788900  0.43840000  1
  Fe  Fe10  1  0.43674600  0.37414700  0.19008500  1
  Fe  Fe11  1  0.25280300  0.18886400  0.43820100  1
  Fe  Fe12  1  0.68788900  0.25578700  0.93840000  1
  Fe  Fe13  1  0.50018100  0.87118100  0.18731200  1
  Fe  Fe14  1  0.75849300  0.61952200  0.43953200  1
  Fe  Fe15  1  0.93650400  0.37174500  0.18874300  1
  P  P16  1  0.68344300  0.06669800  0.12527300  1
  P  P17  1  0.12420900  0.56282900  0.12608500  1
  P  P18  1  0.87318100  0.44360400  0.87509700  1
  P  P19  1  0.18420700  0.06357400  0.12512900  1
  P  P20  1  0.94294400  0.81047300  0.37643300  1
  P  P21  1  0.94099900  0.30868100  0.37717800  1
  P  P22  1  0.44360400  0.87318100  0.37509700  1
  P  P23  1  0.56282900  0.12420900  0.62608500  1
  P  P24  1  0.06357400  0.18420700  0.62512900  1
  P  P25  1  0.43891100  0.37170000  0.37537900  1
  P  P26  1  0.56452300  0.62337200  0.62608100  1
  P  P27  1  0.06669800  0.68344300  0.62527300  1
  P  P28  1  0.81047300  0.94294400  0.87643300  1
  P  P29  1  0.62337200  0.56452300  0.12608100  1
  P  P30  1  0.37170000  0.43891100  0.87537900  1
  P  P31  1  0.30868100  0.94099900  0.87717800  1
  O  O32  1  0.16089000  0.13626000  0.54403300  1
  O  O33  1  0.82879800  0.91216600  0.43961900  1
  O  O34  1  0.40270600  0.90975500  0.29203100  1
  O  O35  1  0.92896700  0.66049200  0.40045400  1
  O  O36  1  0.65934300  0.15740100  0.54380600  1
  O  O37  1  0.16253900  0.08047400  0.69081700  1
  O  O38  1  0.91691600  0.16491000  0.64690900  1
  O  O39  1  0.10822900  0.27165100  0.37074900  1
  O  O40  1  0.51942500  0.50427300  0.62407100  1
  O  O41  1  0.63452000  0.16413700  0.04423600  1
  O  O42  1  0.56407500  0.66219900  0.19138000  1
  O  O43  1  0.66224300  0.06121700  0.69091500  1
  O  O44  1  0.08047400  0.16253900  0.19081700  1
  O  O45  1  0.61326700  0.74889900  0.37213900  1
  O  O46  1  0.77042200  0.41493800  0.14571200  1
  O  O47  1  0.01425400  0.85542600  0.61869400  1
  O  O48  1  0.65757700  0.66070800  0.04394100  1
  O  O49  1  0.10916600  0.77318200  0.37296400  1
  O  O50  1  0.01154000  0.35564900  0.61995400  1
  O  O51  1  0.92667800  0.15867700  0.40223700  1
  O  O52  1  0.90975500  0.40270600  0.79203100  1
  O  O53  1  0.42219000  0.01759200  0.39558300  1
  O  O54  1  0.33479100  0.81529500  0.43981400  1
  O  O55  1  0.51472900  0.00737000  0.62380900  1
  O  O56  1  0.16413700  0.63452000  0.54423600  1
  O  O57  1  0.13626000  0.16089000  0.04403300  1
  O  O58  1  0.91979200  0.66413500  0.64791800  1
  O  O59  1  0.81529500  0.33479100  0.93981400  1
  O  O60  1  0.66070800  0.65757700  0.54394100  1
  O  O61  1  0.85542600  0.01425400  0.11869400  1
  O  O62  1  0.01759200  0.42219000  0.89558300  1
  O  O63  1  0.16491000  0.91691600  0.14690900  1
  O  O64  1  0.89089900  0.39915100  0.29522300  1
  O  O65  1  0.51718200  0.41996600  0.89383800  1
  O  O66  1  0.90262200  0.89989700  0.29246500  1
  O  O67  1  0.66219900  0.56407500  0.69138000  1
  O  O68  1  0.15867700  0.92667800  0.90223700  1
  O  O69  1  0.00737000  0.51472900  0.12380900  1
  O  O70  1  0.41555300  0.27208400  0.64641100  1
  O  O71  1  0.33455700  0.31198000  0.44302300  1
  O  O72  1  0.89989700  0.90262200  0.79246500  1
  O  O73  1  0.91216600  0.82879800  0.93961900  1
  O  O74  1  0.31198000  0.33455700  0.94302300  1
  O  O75  1  0.38879300  0.40755300  0.29525300  1
  O  O76  1  0.77318200  0.10916600  0.87296400  1
  O  O77  1  0.27165100  0.10822900  0.87074900  1
  O  O78  1  0.06121700  0.66224300  0.19091500  1
  O  O79  1  0.74889900  0.61326700  0.87213900  1
  O  O80  1  0.60993600  0.25020400  0.37015400  1
  O  O81  1  0.41996600  0.51718200  0.39383800  1
  O  O82  1  0.27208400  0.41555300  0.14641100  1
  O  O83  1  0.39915100  0.89089900  0.79522300  1
  O  O84  1  0.66413500  0.91979200  0.14791800  1
  O  O85  1  0.50427300  0.51942500  0.12407100  1
  O  O86  1  0.40755300  0.38879300  0.79525300  1
  O  O87  1  0.66049200  0.92896700  0.90045400  1
  O  O88  1  0.40994900  0.83233500  0.94153100  1
  O  O89  1  0.58158000  0.16534500  0.19106400  1
  O  O90  1  0.41493800  0.77042200  0.64571200  1
  O  O91  1  0.83233500  0.40994900  0.44153100  1
  O  O92  1  0.25020400  0.60993600  0.87015400  1
  O  O93  1  0.15740100  0.65934300  0.04380600  1
  O  O94  1  0.35564900  0.01154000  0.11995400  1
  O  O95  1  0.16534500  0.58158000  0.69106400  1
