# generated using pymatgen
data_CoH8Se2(ClO4)2
_symmetry_space_group_name_H-M   'P 1'
_cell_length_a   18.06900700
_cell_length_b   5.19973300
_cell_length_c   7.23846973
_cell_angle_alpha   79.59253464
_cell_angle_beta   90.00000000
_cell_angle_gamma   90.00000000
_symmetry_Int_Tables_number   1
_chemical_formula_structural   CoH8Se2(ClO4)2
_chemical_formula_sum   'Co2 H16 Se4 Cl4 O16'
_cell_volume   668.89450168
_cell_formula_units_Z   2
loop_
 _symmetry_equiv_pos_site_id
 _symmetry_equiv_pos_as_xyz
  1  'x, y, z'
loop_
 _atom_site_type_symbol
 _atom_site_label
 _atom_site_symmetry_multiplicity
 _atom_site_fract_x
 _atom_site_fract_y
 _atom_site_fract_z
 _atom_site_occupancy
  Co  Co0  1  0.50000000  0.00000000  0.00000000  1
  Co  Co1  1  0.00000000  0.00000000  0.50000000  1
  H  H2  1  0.84942600  0.86244400  0.20978600  1
  H  H3  1  0.38212600  0.22225500  0.86477300  1
  H  H4  1  0.04184500  0.75387800  0.14777100  1
  H  H5  1  0.54184500  0.24612200  0.35222900  1
  H  H6  1  0.42245600  0.47070000  0.93350000  1
  H  H7  1  0.07754400  0.47070000  0.43350000  1
  H  H8  1  0.95815500  0.24612200  0.85222900  1
  H  H9  1  0.15057400  0.13755600  0.79021400  1
  H  H10  1  0.45815500  0.75387800  0.64777100  1
  H  H11  1  0.57754400  0.52930000  0.06650000  1
  H  H12  1  0.11787400  0.22225500  0.36477300  1
  H  H13  1  0.88212600  0.77774500  0.63522700  1
  H  H14  1  0.61787400  0.77774500  0.13522700  1
  H  H15  1  0.65057400  0.86244400  0.70978600  1
  H  H16  1  0.34942600  0.13755600  0.29021400  1
  H  H17  1  0.92245600  0.52930000  0.56650000  1
  Se  Se18  1  0.69432200  0.64964300  0.63945600  1
  Se  Se19  1  0.30567800  0.35035700  0.36054400  1
  Se  Se20  1  0.19432200  0.35035700  0.86054400  1
  Se  Se21  1  0.80567800  0.64964300  0.13945600  1
  Cl  Cl22  1  0.41502100  0.58015000  0.35827000  1
  Cl  Cl23  1  0.08497900  0.58015000  0.85827000  1
  Cl  Cl24  1  0.91502100  0.41985000  0.14173000  1
  Cl  Cl25  1  0.58497900  0.41985000  0.64173000  1
  O  O26  1  0.91235700  0.72911100  0.53490700  1
  O  O27  1  0.06116300  0.89390300  0.20872000  1
  O  O28  1  0.06669900  0.76235600  0.40879400  1
  O  O29  1  0.41235700  0.27088900  0.96509300  1
  O  O30  1  0.43330100  0.76235600  0.90879400  1
  O  O31  1  0.71138200  0.78997300  0.41816100  1
  O  O32  1  0.08764300  0.27088900  0.46509300  1
  O  O33  1  0.93330100  0.23764400  0.59120600  1
  O  O34  1  0.43883700  0.89390300  0.70872000  1
  O  O35  1  0.56669900  0.23764400  0.09120600  1
  O  O36  1  0.28861800  0.21002700  0.58183900  1
  O  O37  1  0.78861800  0.78997300  0.91816100  1
  O  O38  1  0.93883700  0.10609700  0.79128000  1
  O  O39  1  0.58764300  0.72911100  0.03490700  1
  O  O40  1  0.21138200  0.21002700  0.08183900  1
  O  O41  1  0.56116300  0.10609700  0.29128000  1
