# generated using pymatgen
data_Fe3PWC15BrO15
_symmetry_space_group_name_H-M   'P 1'
_cell_length_a   28.67705800
_cell_length_b   9.22500300
_cell_length_c   13.04433201
_cell_angle_alpha   45.77904904
_cell_angle_beta   90.00000000
_cell_angle_gamma   90.00000000
_symmetry_Int_Tables_number   1
_chemical_formula_structural   Fe3PWC15BrO15
_chemical_formula_sum   'Fe12 P4 W4 C60 Br4 O60'
_cell_volume   2473.05328047
_cell_formula_units_Z   4
loop_
 _symmetry_equiv_pos_site_id
 _symmetry_equiv_pos_as_xyz
  1  'x, y, z'
loop_
 _atom_site_type_symbol
 _atom_site_label
 _atom_site_symmetry_multiplicity
 _atom_site_fract_x
 _atom_site_fract_y
 _atom_site_fract_z
 _atom_site_occupancy
  Fe  Fe0  1  0.54229300  0.02552400  0.79311400  1
  Fe  Fe1  1  0.93007400  0.83839500  0.22005900  1
  Fe  Fe2  1  0.18809100  0.97933600  0.70980200  1
  Fe  Fe3  1  0.81190900  0.02066400  0.29019800  1
  Fe  Fe4  1  0.68809100  0.02066400  0.79019800  1
  Fe  Fe5  1  0.95770700  0.02552400  0.29311400  1
  Fe  Fe6  1  0.31190900  0.97933600  0.20980200  1
  Fe  Fe7  1  0.04229300  0.97447600  0.70688600  1
  Fe  Fe8  1  0.06992600  0.16160500  0.77994100  1
  Fe  Fe9  1  0.45770700  0.97447600  0.20688600  1
  Fe  Fe10  1  0.56992600  0.83839500  0.72005900  1
  Fe  Fe11  1  0.43007400  0.16160500  0.27994100  1
  P  P12  1  0.61445400  0.05545200  0.70586800  1
  P  P13  1  0.88554600  0.05545200  0.20586800  1
  P  P14  1  0.11445400  0.94454800  0.79413200  1
  P  P15  1  0.38554600  0.94454800  0.29413200  1
  W  W16  1  0.15984800  0.61032100  0.01142700  1
  W  W17  1  0.34015200  0.61032100  0.51142700  1
  W  W18  1  0.84015200  0.38967900  0.98857300  1
  W  W19  1  0.65984800  0.38967900  0.48857300  1
  C  C20  1  0.40483300  0.48557500  0.53640400  1
  C  C21  1  0.51792200  0.68118100  0.78979400  1
  C  C22  1  0.59249300  0.82781300  0.59592700  1
  C  C23  1  0.09249300  0.17218700  0.90407300  1
  C  C24  1  0.39526600  0.36777300  0.13257300  1
  C  C25  1  0.74748000  0.09930800  0.78093400  1
  C  C26  1  0.96217200  0.24815300  0.26208100  1
  C  C27  1  0.16946800  0.32437200  0.20940500  1
  C  C28  1  0.53782800  0.24815300  0.76208100  1
  C  C29  1  0.43318500  0.13677200  0.03146300  1
  C  C30  1  0.81144100  0.51163200  0.06113200  1
  C  C31  1  0.98365900  0.07577500  0.63904900  1
  C  C32  1  0.66946800  0.67562800  0.29059500  1
  C  C33  1  0.86711700  0.30708600  0.88628600  1
  C  C34  1  0.68754600  0.77531800  0.96861000  1
  C  C35  1  0.09516700  0.48557500  0.03640400  1
  C  C36  1  0.68855900  0.51163200  0.56113200  1
  C  C37  1  0.81245400  0.77531800  0.46861000  1
  C  C38  1  0.33053200  0.32437200  0.70940500  1
  C  C39  1  0.60473400  0.63222700  0.86742700  1
  C  C40  1  0.31245400  0.22468200  0.03139000  1
  C  C41  1  0.16137300  0.85763700  0.65726900  1
  C  C42  1  0.10473400  0.36777300  0.63257300  1
  C  C43  1  0.01792200  0.31881900  0.71020600  1
  C  C44  1  0.20226100  0.08276600  0.78524400  1
  C  C45  1  0.22608200  0.66965300  0.04045800  1
  C  C46  1  0.40750700  0.17218700  0.40407300  1
  C  C47  1  0.90483300  0.51442500  0.96359600  1
  C  C48  1  0.01634100  0.92422500  0.36095100  1
  C  C49  1  0.90750700  0.82781300  0.09592700  1
  C  C50  1  0.31144100  0.48836800  0.43886800  1
  C  C51  1  0.03782800  0.75184700  0.73791900  1
  C  C52  1  0.24748000  0.90069200  0.71906600  1
  C  C53  1  0.89526600  0.63222700  0.36742700  1
  C  C54  1  0.72608200  0.33034700  0.45954200  1
  C  C55  1  0.75252000  0.09930800  0.28093400  1
  C  C56  1  0.70226100  0.91723400  0.71475600  1
  C  C57  1  0.46217200  0.75184700  0.23791900  1
  C  C58  1  0.98207800  0.68118100  0.28979400  1
  C  C59  1  0.18754600  0.22468200  0.53139000  1
  C  C60  1  0.93318500  0.86322800  0.46853700  1
  C  C61  1  0.51634100  0.07577500  0.13904900  1
  C  C62  1  0.48207800  0.31881900  0.21020600  1
  C  C63  1  0.56681500  0.86322800  0.96853700  1
  C  C64  1  0.13288300  0.69291400  0.11371400  1
  C  C65  1  0.48365900  0.92422500  0.86095100  1
  C  C66  1  0.77391800  0.33034700  0.95954200  1
  C  C67  1  0.25252000  0.90069200  0.21906600  1
  C  C68  1  0.27391800  0.66965300  0.54045800  1
  C  C69  1  0.83862700  0.14236300  0.34273100  1
  C  C70  1  0.66137300  0.14236300  0.84273100  1
  C  C71  1  0.59516700  0.51442500  0.46359600  1
  C  C72  1  0.36711700  0.69291400  0.61371400  1
  C  C73  1  0.79773900  0.91723400  0.21475600  1
  C  C74  1  0.18855900  0.48836800  0.93886800  1
  C  C75  1  0.33862700  0.85763700  0.15726900  1
  C  C76  1  0.06681500  0.13677200  0.53146300  1
  C  C77  1  0.29773900  0.08276600  0.28524400  1
  C  C78  1  0.83053200  0.67562800  0.79059500  1
  C  C79  1  0.63288300  0.30708600  0.38628600  1
  Br  Br80  1  0.98034700  0.13878300  0.06361100  1
  Br  Br81  1  0.51965300  0.13878300  0.56361100  1
  Br  Br82  1  0.48034700  0.86121700  0.43638900  1
  Br  Br83  1  0.01965300  0.86121700  0.93638900  1
  O  O84  1  0.73717900  0.31164100  0.93255200  1
  O  O85  1  0.46436000  0.61433300  0.25103600  1
  O  O86  1  0.14380300  0.78570500  0.62213700  1
  O  O87  1  0.85619700  0.21429500  0.37786300  1
  O  O88  1  0.96436000  0.38566700  0.24896400  1
  O  O89  1  0.94627300  0.13508100  0.59578000  1
  O  O90  1  0.29547600  0.40527300  0.40971500  1
  O  O91  1  0.43938400  0.39864900  0.56720600  1
  O  O92  1  0.70452400  0.59472700  0.59028500  1
  O  O93  1  0.37263100  0.50158700  0.03849200  1
  O  O94  1  0.03564000  0.61433300  0.75103600  1
  O  O95  1  0.20452400  0.40527300  0.90971500  1
  O  O96  1  0.18864100  0.38375100  0.41662500  1
  O  O97  1  0.17563200  0.15871700  0.31749400  1
  O  O98  1  0.79547600  0.59472700  0.09028500  1
  O  O99  1  0.12736900  0.50158700  0.53849200  1
  O  O100  1  0.28881500  0.15541400  0.32753400  1
  O  O101  1  0.56061600  0.60135100  0.43279400  1
  O  O102  1  0.76282100  0.31164100  0.43255200  1
  O  O103  1  0.31135900  0.38375100  0.91662500  1
  O  O104  1  0.48478200  0.58180300  0.83593500  1
  O  O105  1  0.78517600  0.14646400  0.77708900  1
  O  O106  1  0.01521800  0.58180300  0.33593500  1
  O  O107  1  0.98478200  0.41819700  0.66406500  1
  O  O108  1  0.11907600  0.72851900  0.17733600  1
  O  O109  1  0.81135900  0.61624900  0.58337500  1
  O  O110  1  0.51521800  0.41819700  0.16406500  1
  O  O111  1  0.71118500  0.84458600  0.67246600  1
  O  O112  1  0.64380300  0.21429500  0.87786300  1
  O  O113  1  0.06061600  0.39864900  0.06720600  1
  O  O114  1  0.41723800  0.23992100  0.91779800  1
  O  O115  1  0.23717900  0.68835900  0.56744800  1
  O  O116  1  0.39257300  0.18848300  0.47789800  1
  O  O117  1  0.28517600  0.85353600  0.72291100  1
  O  O118  1  0.91723800  0.76007900  0.58220200  1
  O  O119  1  0.55372700  0.13508100  0.09578000  1
  O  O120  1  0.08276200  0.23992100  0.41779800  1
  O  O121  1  0.67563200  0.84128300  0.18250600  1
  O  O122  1  0.05372700  0.86491900  0.40422000  1
  O  O123  1  0.32436800  0.15871700  0.81749400  1
  O  O124  1  0.58276200  0.76007900  0.08220200  1
  O  O125  1  0.68864100  0.61624900  0.08337500  1
  O  O126  1  0.21482400  0.85353600  0.22291100  1
  O  O127  1  0.53564000  0.38566700  0.74896400  1
  O  O128  1  0.71482400  0.14646400  0.27708900  1
  O  O129  1  0.60742700  0.81151700  0.52210200  1
  O  O130  1  0.38092400  0.72851900  0.67733600  1
  O  O131  1  0.35619700  0.78570500  0.12213700  1
  O  O132  1  0.61907600  0.27148100  0.32266400  1
  O  O133  1  0.44627300  0.86491900  0.90422000  1
  O  O134  1  0.82436800  0.84128300  0.68250600  1
  O  O135  1  0.62736900  0.49841300  0.96150800  1
  O  O136  1  0.93938400  0.60135100  0.93279400  1
  O  O137  1  0.78881500  0.84458600  0.17246600  1
  O  O138  1  0.89257300  0.81151700  0.02210200  1
  O  O139  1  0.87263100  0.49841300  0.46150800  1
  O  O140  1  0.26282100  0.68835900  0.06744800  1
  O  O141  1  0.21118500  0.15541400  0.82753400  1
  O  O142  1  0.88092400  0.27148100  0.82266400  1
  O  O143  1  0.10742700  0.18848300  0.97789800  1
