# generated using pymatgen
data_CoPO4
_symmetry_space_group_name_H-M   'P 1'
_cell_length_a   8.66013122
_cell_length_b   8.66013122
_cell_length_c   8.66013213
_cell_angle_alpha   108.18150030
_cell_angle_beta   108.18150030
_cell_angle_gamma   108.18150028
_symmetry_Int_Tables_number   1
_chemical_formula_structural   CoPO4
_chemical_formula_sum   'Co6 P6 O24'
_cell_volume   522.49002244
_cell_formula_units_Z   6
loop_
 _symmetry_equiv_pos_site_id
 _symmetry_equiv_pos_as_xyz
  1  'x, y, z'
loop_
 _atom_site_type_symbol
 _atom_site_label
 _atom_site_symmetry_multiplicity
 _atom_site_fract_x
 _atom_site_fract_y
 _atom_site_fract_z
 _atom_site_occupancy
  Co  Co0  1  0.23979600  0.05701800  0.47148200  1
  Co  Co1  1  0.76315900  0.95557300  0.54723000  1
  Co  Co2  1  0.95557300  0.54723000  0.76315900  1
  Co  Co3  1  0.05701800  0.47148200  0.23979600  1
  Co  Co4  1  0.47148200  0.23979600  0.05701800  1
  Co  Co5  1  0.54723000  0.76315900  0.95557300  1
  P  P6  1  0.20434300  0.42922200  0.61212700  1
  P  P7  1  0.61212700  0.20434300  0.42922200  1
  P  P8  1  0.91022200  0.71644000  0.12052400  1
  P  P9  1  0.71644000  0.12052400  0.91022200  1
  P  P10  1  0.12052400  0.91022200  0.71644000  1
  P  P11  1  0.42922200  0.61212700  0.20434300  1
  O  O12  1  0.09336200  0.38798500  0.41356800  1
  O  O13  1  0.29032300  0.61605900  0.28026900  1
  O  O14  1  0.08175400  0.41474300  0.71041700  1
  O  O15  1  0.26563000  0.00993000  0.91867400  1
  O  O16  1  0.62469900  0.71553000  0.36444100  1
  O  O17  1  0.41474300  0.71041700  0.08175400  1
  O  O18  1  0.41356800  0.09336200  0.38798500  1
  O  O19  1  0.61605900  0.28026900  0.29032300  1
  O  O20  1  0.59313800  0.21827300  0.91312900  1
  O  O21  1  0.91312900  0.59313800  0.21827300  1
  O  O22  1  0.38798500  0.41356800  0.09336200  1
  O  O23  1  0.91867400  0.26563000  0.00993000  1
  O  O24  1  0.66705200  0.99836700  0.71303800  1
  O  O25  1  0.36444100  0.62469900  0.71553000  1
  O  O26  1  0.28026900  0.29032300  0.61605900  1
  O  O27  1  0.00993000  0.91867400  0.26563000  1
  O  O28  1  0.21827300  0.91312900  0.59313800  1
  O  O29  1  0.99836700  0.71303800  0.66705200  1
  O  O30  1  0.68287800  0.00132400  0.00987400  1
  O  O31  1  0.71303800  0.66705200  0.99836700  1
  O  O32  1  0.71553000  0.36444100  0.62469900  1
  O  O33  1  0.00987400  0.68287800  0.00132400  1
  O  O34  1  0.71041700  0.08175400  0.41474300  1
  O  O35  1  0.00132400  0.00987400  0.68287800  1
