# generated using pymatgen
data_BaYb2(MoO4)4
_symmetry_space_group_name_H-M   'P 1'
_cell_length_a   6.92296989
_cell_length_b   6.92296989
_cell_length_c   19.83515392
_cell_angle_alpha   89.37285855
_cell_angle_beta   89.37285855
_cell_angle_gamma   135.15999664
_symmetry_Int_Tables_number   1
_chemical_formula_structural   BaYb2(MoO4)4
_chemical_formula_sum   'Ba2 Yb4 Mo8 O32'
_cell_volume   670.05491498
_cell_formula_units_Z   2
loop_
 _symmetry_equiv_pos_site_id
 _symmetry_equiv_pos_as_xyz
  1  'x, y, z'
loop_
 _atom_site_type_symbol
 _atom_site_label
 _atom_site_symmetry_multiplicity
 _atom_site_fract_x
 _atom_site_fract_y
 _atom_site_fract_z
 _atom_site_occupancy
  Ba  Ba0  1  0.96701500  0.03298500  0.75000000  1
  Ba  Ba1  1  0.03298500  0.96701500  0.25000000  1
  Yb  Yb2  1  0.15206000  0.85584900  0.03044100  1
  Yb  Yb3  1  0.84794000  0.14415100  0.96955900  1
  Yb  Yb4  1  0.85584900  0.15206000  0.53044100  1
  Yb  Yb5  1  0.14415100  0.84794000  0.46955900  1
  Mo  Mo6  1  0.25665600  0.73922300  0.85424100  1
  Mo  Mo7  1  0.73922300  0.25665600  0.35424100  1
  Mo  Mo8  1  0.42878700  0.54610700  0.08935700  1
  Mo  Mo9  1  0.54610700  0.42878700  0.58935700  1
  Mo  Mo10  1  0.57121300  0.45389300  0.91064300  1
  Mo  Mo11  1  0.74334400  0.26077700  0.14575900  1
  Mo  Mo12  1  0.26077700  0.74334400  0.64575900  1
  Mo  Mo13  1  0.45389300  0.57121300  0.41064300  1
  O  O14  1  0.77577600  0.67845200  0.39818400  1
  O  O15  1  0.38960200  0.08803900  0.36649900  1
  O  O16  1  0.16978100  0.50799800  0.04608800  1
  O  O17  1  0.50799800  0.16978100  0.54608800  1
  O  O18  1  0.54161700  0.70940600  0.16915900  1
  O  O19  1  0.09743100  0.48804900  0.71031000  1
  O  O20  1  0.26912400  0.99843200  0.67267600  1
  O  O21  1  0.26492600  0.23172100  0.96482800  1
  O  O22  1  0.91196100  0.61039800  0.13350100  1
  O  O23  1  0.90256900  0.51195100  0.28969000  1
  O  O24  1  0.45838300  0.29059400  0.83084100  1
  O  O25  1  0.51195100  0.90256900  0.78969000  1
  O  O26  1  0.70940600  0.54161700  0.66915900  1
  O  O27  1  0.29059400  0.45838300  0.33084100  1
  O  O28  1  0.48804900  0.09743100  0.21031000  1
  O  O29  1  0.00156800  0.73087600  0.82732400  1
  O  O30  1  0.22422400  0.32154800  0.60181600  1
  O  O31  1  0.23172100  0.26492600  0.46482800  1
  O  O32  1  0.99843200  0.26912400  0.17267600  1
  O  O33  1  0.83021900  0.49200200  0.95391200  1
  O  O34  1  0.76827900  0.73507400  0.53517200  1
  O  O35  1  0.32154800  0.22422400  0.10181600  1
  O  O36  1  0.08803900  0.38960200  0.86649900  1
  O  O37  1  0.49200200  0.83021900  0.45391200  1
  O  O38  1  0.40769900  0.93105200  0.93197800  1
  O  O39  1  0.73507400  0.76827900  0.03517200  1
  O  O40  1  0.06894800  0.59230100  0.56802200  1
  O  O41  1  0.61039800  0.91196100  0.63350100  1
  O  O42  1  0.59230100  0.06894800  0.06802200  1
  O  O43  1  0.67845200  0.77577600  0.89818400  1
  O  O44  1  0.93105200  0.40769900  0.43197800  1
  O  O45  1  0.73087600  0.00156800  0.32732400  1
