# generated using pymatgen
data_Mn3(PO4)4
_symmetry_space_group_name_H-M   'P 1'
_cell_length_a   8.24182411
_cell_length_b   13.37008000
_cell_length_c   5.92825003
_cell_angle_alpha   90.00000000
_cell_angle_beta   99.08842163
_cell_angle_gamma   90.00000000
_symmetry_Int_Tables_number   1
_chemical_formula_structural   Mn3(PO4)4
_chemical_formula_sum   'Mn6 P8 O32'
_cell_volume   645.05553182
_cell_formula_units_Z   2
loop_
 _symmetry_equiv_pos_site_id
 _symmetry_equiv_pos_as_xyz
  1  'x, y, z'
loop_
 _atom_site_type_symbol
 _atom_site_label
 _atom_site_symmetry_multiplicity
 _atom_site_fract_x
 _atom_site_fract_y
 _atom_site_fract_z
 _atom_site_occupancy
  Mn  Mn0  1  0.28627900  0.56260700  0.19147000  1
  Mn  Mn1  1  0.71372100  0.06260700  0.30853000  1
  Mn  Mn2  1  0.68557300  0.79439500  0.87202500  1
  Mn  Mn3  1  0.72608000  0.42931000  0.84796600  1
  Mn  Mn4  1  0.27392000  0.92931000  0.65203400  1
  Mn  Mn5  1  0.31442700  0.29439500  0.62797500  1
  P  P6  1  0.08972300  0.12181800  0.35505700  1
  P  P7  1  0.42768500  0.59677000  0.73041000  1
  P  P8  1  0.88690700  0.87276500  0.62067200  1
  P  P9  1  0.57231500  0.09677000  0.76959000  1
  P  P10  1  0.58192900  0.40893700  0.32666600  1
  P  P11  1  0.91027700  0.62181800  0.14494300  1
  P  P12  1  0.11309300  0.37276500  0.87932800  1
  P  P13  1  0.41807100  0.90893700  0.17333400  1
  O  O14  1  0.34183500  0.86903700  0.37814900  1
  O  O15  1  0.83052900  0.94265500  0.41506500  1
  O  O16  1  0.49538300  0.01297500  0.24470900  1
  O  O17  1  0.69157700  0.11322800  0.59561300  1
  O  O18  1  0.84710200  0.55363800  0.94268800  1
  O  O19  1  0.65816500  0.36903700  0.12185100  1
  O  O20  1  0.10801600  0.07826200  0.12218400  1
  O  O21  1  0.51193300  0.49399100  0.76959400  1
  O  O22  1  0.48806700  0.99399100  0.73040600  1
  O  O23  1  0.45914900  0.18771300  0.75707900  1
  O  O24  1  0.50461800  0.51297500  0.25529100  1
  O  O25  1  0.54085100  0.68771300  0.74292100  1
  O  O26  1  0.90605600  0.14713400  0.35455100  1
  O  O27  1  0.06973700  0.85022800  0.62101000  1
  O  O28  1  0.45496200  0.33721500  0.40145700  1
  O  O29  1  0.83392600  0.90961700  0.85012100  1
  O  O30  1  0.16947100  0.44265500  0.08493500  1
  O  O31  1  0.21430500  0.27266300  0.89772000  1
  O  O32  1  0.31087300  0.60252600  0.49745000  1
  O  O33  1  0.15289800  0.05363800  0.55731200  1
  O  O34  1  0.89198400  0.57826200  0.37781600  1
  O  O35  1  0.93026300  0.35022800  0.87899000  1
  O  O36  1  0.09394400  0.64713400  0.14544900  1
  O  O37  1  0.18555900  0.22204600  0.37450200  1
  O  O38  1  0.78569500  0.77266300  0.60228000  1
  O  O39  1  0.54503800  0.83721500  0.09854300  1
  O  O40  1  0.72848500  0.42002200  0.52559200  1
  O  O41  1  0.68912700  0.10252600  0.00255000  1
  O  O42  1  0.30842300  0.61322800  0.90438700  1
  O  O43  1  0.16607400  0.40961700  0.64987900  1
  O  O44  1  0.27151500  0.92002200  0.97440800  1
  O  O45  1  0.81444100  0.72204600  0.12549800  1
