# generated using pymatgen
data_CsVCu3Se4
_symmetry_space_group_name_H-M   'P 1'
_cell_length_a   6.27310554
_cell_length_b   6.27275503
_cell_length_c   6.27185503
_cell_angle_alpha   90.05635708
_cell_angle_beta   89.96602068
_cell_angle_gamma   90.03348378
_symmetry_Int_Tables_number   1
_chemical_formula_structural   CsVCu3Se4
_chemical_formula_sum   'Cs1 V1 Cu3 Se4'
_cell_volume   246.79512272
_cell_formula_units_Z   1
loop_
 _symmetry_equiv_pos_site_id
 _symmetry_equiv_pos_as_xyz
  1  'x, y, z'
loop_
 _atom_site_type_symbol
 _atom_site_label
 _atom_site_symmetry_multiplicity
 _atom_site_fract_x
 _atom_site_fract_y
 _atom_site_fract_z
 _atom_site_occupancy
  Cs  Cs0  1  0.50033600  0.49980100  0.50019600  1
  V  V1  1  0.99989200  0.00007100  0.99991200  1
  Cu  Cu2  1  0.99980200  0.49970600  0.99984500  1
  Cu  Cu3  1  0.99964800  0.00015600  0.50028600  1
  Cu  Cu4  1  0.50040600  0.00021000  0.99987500  1
  Se  Se5  1  0.21309800  0.21322900  0.21312100  1
  Se  Se6  1  0.78686300  0.78686200  0.21312500  1
  Se  Se7  1  0.21305500  0.78680100  0.78678800  1
  Se  Se8  1  0.78690000  0.21316300  0.78685100  1
