# generated using pymatgen
data_Eu(Ni5P3)2
_symmetry_space_group_name_H-M   'P 1'
_cell_length_a   6.46993500
_cell_length_b   8.74014800
_cell_length_c   15.94946900
_cell_angle_alpha   90.00000000
_cell_angle_beta   90.00000000
_cell_angle_gamma   90.00000000
_symmetry_Int_Tables_number   1
_chemical_formula_structural   Eu(Ni5P3)2
_chemical_formula_sum   'Eu4 Ni40 P24'
_cell_volume   901.91359464
_cell_formula_units_Z   4
loop_
 _symmetry_equiv_pos_site_id
 _symmetry_equiv_pos_as_xyz
  1  'x, y, z'
loop_
 _atom_site_type_symbol
 _atom_site_label
 _atom_site_symmetry_multiplicity
 _atom_site_fract_x
 _atom_site_fract_y
 _atom_site_fract_z
 _atom_site_occupancy
  Eu  Eu0  1  0.75000000  0.98232300  0.74878100  1
  Eu  Eu1  1  0.25000000  0.01767700  0.25121900  1
  Eu  Eu2  1  0.75000000  0.51767700  0.24878100  1
  Eu  Eu3  1  0.25000000  0.48232300  0.75121900  1
  Ni  Ni4  1  0.45166900  0.01190600  0.92273200  1
  Ni  Ni5  1  0.75000000  0.89506500  0.20608000  1
  Ni  Ni6  1  0.95166900  0.51190600  0.57726800  1
  Ni  Ni7  1  0.44996800  0.54936500  0.07515900  1
  Ni  Ni8  1  0.75000000  0.77352100  0.55442700  1
  Ni  Ni9  1  0.99917300  0.73167000  0.91634000  1
  Ni  Ni10  1  0.54833100  0.51190600  0.57726800  1
  Ni  Ni11  1  0.25000000  0.81022500  0.04135800  1
  Ni  Ni12  1  0.50082700  0.73167000  0.91634000  1
  Ni  Ni13  1  0.75000000  0.13681800  0.29162200  1
  Ni  Ni14  1  0.00082700  0.26833000  0.08366000  1
  Ni  Ni15  1  0.99917300  0.76833000  0.41634000  1
  Ni  Ni16  1  0.45166900  0.48809400  0.42273200  1
  Ni  Ni17  1  0.04833100  0.48809400  0.42273200  1
  Ni  Ni18  1  0.04833100  0.01190600  0.92273200  1
  Ni  Ni19  1  0.05003200  0.95063500  0.57515900  1
  Ni  Ni20  1  0.75000000  0.31022500  0.45864200  1
  Ni  Ni21  1  0.75000000  0.60493500  0.70608000  1
  Ni  Ni22  1  0.25000000  0.27352100  0.94557300  1
  Ni  Ni23  1  0.75000000  0.72647900  0.05442700  1
  Ni  Ni24  1  0.95166900  0.98809400  0.07726800  1
  Ni  Ni25  1  0.25000000  0.10493500  0.79392000  1
  Ni  Ni26  1  0.75000000  0.18977500  0.95864200  1
  Ni  Ni27  1  0.50082700  0.76833000  0.41634000  1
  Ni  Ni28  1  0.25000000  0.63681800  0.20837800  1
  Ni  Ni29  1  0.55003200  0.45063500  0.92484100  1
  Ni  Ni30  1  0.49917300  0.26833000  0.08366000  1
  Ni  Ni31  1  0.25000000  0.39506500  0.29392000  1
  Ni  Ni32  1  0.55003200  0.04936500  0.42484100  1
  Ni  Ni33  1  0.25000000  0.86318200  0.70837800  1
  Ni  Ni34  1  0.25000000  0.68977500  0.54135800  1
  Ni  Ni35  1  0.05003200  0.54936500  0.07515900  1
  Ni  Ni36  1  0.75000000  0.36318200  0.79162200  1
  Ni  Ni37  1  0.94996800  0.45063500  0.92484100  1
  Ni  Ni38  1  0.94996800  0.04936500  0.42484100  1
  Ni  Ni39  1  0.49917300  0.23167000  0.58366000  1
  Ni  Ni40  1  0.44996800  0.95063500  0.57515900  1
  Ni  Ni41  1  0.25000000  0.22647900  0.44557300  1
  Ni  Ni42  1  0.00082700  0.23167000  0.58366000  1
  Ni  Ni43  1  0.54833100  0.98809400  0.07726800  1
  P  P44  1  0.75000000  0.44501400  0.04248700  1
  P  P45  1  0.99185000  0.23093800  0.85380900  1
  P  P46  1  0.75000000  0.91823200  0.95997500  1
  P  P47  1  0.75000000  0.60918200  0.84199700  1
  P  P48  1  0.25000000  0.08176800  0.04002500  1
  P  P49  1  0.00815000  0.73093800  0.64619100  1
  P  P50  1  0.25000000  0.55498600  0.95751300  1
  P  P51  1  0.99185000  0.26906200  0.35380900  1
  P  P52  1  0.75000000  0.58176800  0.45997500  1
  P  P53  1  0.49185000  0.76906200  0.14619100  1
  P  P54  1  0.25000000  0.41823200  0.54002500  1
  P  P55  1  0.25000000  0.94501400  0.45751300  1
  P  P56  1  0.50815000  0.23093800  0.85380900  1
  P  P57  1  0.25000000  0.85459000  0.84429800  1
  P  P58  1  0.00815000  0.76906200  0.14619100  1
  P  P59  1  0.75000000  0.35459000  0.65570200  1
  P  P60  1  0.49185000  0.73093800  0.64619100  1
  P  P61  1  0.25000000  0.64541000  0.34429800  1
  P  P62  1  0.75000000  0.05498600  0.54248700  1
  P  P63  1  0.25000000  0.10918200  0.65800300  1
  P  P64  1  0.50815000  0.26906200  0.35380900  1
  P  P65  1  0.75000000  0.89081800  0.34199700  1
  P  P66  1  0.25000000  0.39081800  0.15800300  1
  P  P67  1  0.75000000  0.14541000  0.15570200  1
