# generated using pymatgen
data_FePO4
_symmetry_space_group_name_H-M   'P 1'
_cell_length_a   10.38457960
_cell_length_b   10.38457960
_cell_length_c   17.17231827
_cell_angle_alpha   82.24640448
_cell_angle_beta   82.24640448
_cell_angle_gamma   59.44506508
_symmetry_Int_Tables_number   1
_chemical_formula_structural   FePO4
_chemical_formula_sum   'Fe16 P16 O64'
_cell_volume   1575.34859329
_cell_formula_units_Z   16
loop_
 _symmetry_equiv_pos_site_id
 _symmetry_equiv_pos_as_xyz
  1  'x, y, z'
loop_
 _atom_site_type_symbol
 _atom_site_label
 _atom_site_symmetry_multiplicity
 _atom_site_fract_x
 _atom_site_fract_y
 _atom_site_fract_z
 _atom_site_occupancy
  Fe  Fe0  1  0.69791500  0.81788400  0.00566100  1
  Fe  Fe1  1  0.63892200  0.31859100  0.00447900  1
  Fe  Fe2  1  0.32186300  0.13795500  0.50407300  1
  Fe  Fe3  1  0.19692700  0.82268200  0.00439200  1
  Fe  Fe4  1  0.25759900  0.07150200  0.25526700  1
  Fe  Fe5  1  0.31859100  0.63892200  0.50447900  1
  Fe  Fe6  1  0.07508400  0.75823200  0.75485300  1
  Fe  Fe7  1  0.20316400  0.57233400  0.25280900  1
  Fe  Fe8  1  0.07150200  0.25759900  0.75526700  1
  Fe  Fe9  1  0.57233400  0.20316400  0.75280900  1
  Fe  Fe10  1  0.57493700  0.70389700  0.75204400  1
  Fe  Fe11  1  0.82268200  0.19692700  0.50439200  1
  Fe  Fe12  1  0.13795500  0.32186300  0.00407300  1
  Fe  Fe13  1  0.70389700  0.57493700  0.25204400  1
  Fe  Fe14  1  0.75823200  0.07508400  0.25485300  1
  Fe  Fe15  1  0.81788400  0.69791500  0.50566100  1
  P  P16  1  0.91333700  0.10483000  0.68987900  1
  P  P17  1  0.54171400  0.66199400  0.94065700  1
  P  P18  1  0.16489500  0.98497500  0.43918600  1
  P  P19  1  0.66344700  0.04312600  0.44154300  1
  P  P20  1  0.60436300  0.91508900  0.19060500  1
  P  P21  1  0.04312600  0.66344700  0.94154300  1
  P  P22  1  0.04692700  0.41356900  0.18880100  1
  P  P23  1  0.98497500  0.16489500  0.93918600  1
  P  P24  1  0.91508900  0.60436300  0.69060500  1
  P  P25  1  0.10483000  0.91333700  0.18987900  1
  P  P26  1  0.16082300  0.48275400  0.43912700  1
  P  P27  1  0.41356900  0.04692700  0.68880100  1
  P  P28  1  0.41468400  0.54722200  0.68925300  1
  P  P29  1  0.66199400  0.54171400  0.44065700  1
  P  P30  1  0.48275400  0.16082300  0.93912700  1
  P  P31  1  0.54722200  0.41468400  0.18925300  1
  O  O32  1  0.11551400  0.27810800  0.25073700  1
  O  O33  1  0.17636800  0.66959300  0.96846800  1
  O  O34  1  0.48367100  0.23953800  0.85629900  1
  O  O35  1  0.04558300  0.94830600  0.71334200  1
  O  O36  1  0.54480600  0.05973500  0.71243300  1
  O  O37  1  0.49866700  0.74064000  0.85751400  1
  O  O38  1  0.36541300  0.13117800  0.60742100  1
  O  O39  1  0.40557700  0.74428800  0.00050100  1
  O  O40  1  0.82964600  0.17771100  0.96083600  1
  O  O41  1  0.22139500  0.96450800  0.18843400  1
  O  O42  1  0.56126200  0.54659600  0.21101300  1
  O  O43  1  0.14009300  0.77799600  0.25111200  1
  O  O44  1  0.67539000  0.66903200  0.96610900  1
  O  O45  1  0.71859700  0.96916100  0.18902600  1
  O  O46  1  0.49635700  0.58482400  0.43879300  1
  O  O47  1  0.66959300  0.17636800  0.46846800  1
  O  O48  1  0.90658200  0.74026500  0.00215100  1
  O  O49  1  0.77799600  0.14009300  0.75111200  1
  O  O50  1  0.58482400  0.49635700  0.93879300  1
  O  O51  1  0.61055300  0.86619000  0.10840600  1
  O  O52  1  0.17419100  0.32775900  0.46316500  1
  O  O53  1  0.27810800  0.11551400  0.75073700  1
  O  O54  1  0.51324200  0.23812500  0.99993900  1
  O  O55  1  0.78000900  0.64144200  0.75233300  1
  O  O56  1  0.74064000  0.49866700  0.35751400  1
  O  O57  1  0.99692300  0.10461000  0.43487500  1
  O  O58  1  0.36175100  0.63111100  0.60824400  1
  O  O59  1  0.64144200  0.78000900  0.25233300  1
  O  O60  1  0.74428800  0.40557700  0.50050100  1
  O  O61  1  0.94830600  0.04558300  0.21334200  1
  O  O62  1  0.99300900  0.60380000  0.43741400  1
  O  O63  1  0.01509200  0.23641700  0.00328400  1
  O  O64  1  0.44646500  0.04572900  0.21356500  1
  O  O65  1  0.74971900  0.99929100  0.36003100  1
  O  O66  1  0.66903200  0.67539000  0.46610800  1
  O  O67  1  0.10863300  0.86753500  0.10722200  1
  O  O68  1  0.17771100  0.82964600  0.46083600  1
  O  O69  1  0.86753500  0.10863300  0.60722200  1
  O  O70  1  0.23812500  0.51324200  0.49993900  1
  O  O71  1  0.87855200  0.46871400  0.18506100  1
  O  O72  1  0.10461000  0.99692300  0.93487500  1
  O  O73  1  0.23953800  0.48367100  0.35629900  1
  O  O74  1  0.37907800  0.46953300  0.18600800  1
  O  O75  1  0.61637100  0.28164800  0.25249900  1
  O  O76  1  0.60380000  0.99300900  0.93741400  1
  O  O77  1  0.46953300  0.37907800  0.68600800  1
  O  O78  1  0.74026500  0.90658200  0.50215100  1
  O  O79  1  0.13117800  0.36541300  0.10742100  1
  O  O80  1  0.32775900  0.17419100  0.96316500  1
  O  O81  1  0.05973500  0.54480600  0.21243300  1
  O  O82  1  0.23641700  0.01509200  0.50328400  1
  O  O83  1  0.96450800  0.22139500  0.68843400  1
  O  O84  1  0.49821700  0.08726000  0.43655600  1
  O  O85  1  0.28164800  0.61637100  0.75249900  1
  O  O86  1  0.96916100  0.71859700  0.68902600  1
  O  O87  1  0.98794400  0.25036500  0.85874600  1
  O  O88  1  0.46871400  0.87855200  0.68506100  1
  O  O89  1  0.25036500  0.98794400  0.35874600  1
  O  O90  1  0.08726000  0.49821700  0.93655600  1
  O  O91  1  0.86619000  0.61055300  0.60840600  1
  O  O92  1  0.04572900  0.44646500  0.71356500  1
  O  O93  1  0.54659600  0.56126200  0.71101300  1
  O  O94  1  0.63111100  0.36175100  0.10824400  1
  O  O95  1  0.99929100  0.74971900  0.86003100  1
