# generated using pymatgen
data_K3VC5N5O
_symmetry_space_group_name_H-M   'P 1'
_cell_length_a   8.61473700
_cell_length_b   9.88745000
_cell_length_c   13.55932900
_cell_angle_alpha   90.00000000
_cell_angle_beta   90.00000000
_cell_angle_gamma   90.00000000
_symmetry_Int_Tables_number   1
_chemical_formula_structural   K3VC5N5O
_chemical_formula_sum   'K12 V4 C20 N20 O4'
_cell_volume   1154.95356082
_cell_formula_units_Z   4
loop_
 _symmetry_equiv_pos_site_id
 _symmetry_equiv_pos_as_xyz
  1  'x, y, z'
loop_
 _atom_site_type_symbol
 _atom_site_label
 _atom_site_symmetry_multiplicity
 _atom_site_fract_x
 _atom_site_fract_y
 _atom_site_fract_z
 _atom_site_occupancy
  K  K0  1  0.63028200  0.71739200  0.97902600  1
  K  K1  1  0.37539800  0.00085000  0.75239500  1
  K  K2  1  0.87539800  0.50085000  0.74760500  1
  K  K3  1  0.36512900  0.74245400  0.49029900  1
  K  K4  1  0.36971800  0.21739200  0.02097400  1
  K  K5  1  0.13487100  0.74245400  0.99029900  1
  K  K6  1  0.86512900  0.24245400  0.00970100  1
  K  K7  1  0.13028200  0.21739200  0.52097400  1
  K  K8  1  0.86971800  0.71739200  0.47902600  1
  K  K9  1  0.12460200  0.00085000  0.25239500  1
  K  K10  1  0.63487100  0.24245400  0.50970100  1
  K  K11  1  0.62460200  0.50085000  0.24760500  1
  V  V12  1  0.87284200  0.92043400  0.77462400  1
  V  V13  1  0.62715800  0.92043400  0.27462400  1
  V  V14  1  0.37284200  0.42043400  0.72537600  1
  V  V15  1  0.12715800  0.42043400  0.22537600  1
  C  C16  1  0.79875300  0.01335900  0.36498700  1
  C  C17  1  0.80026100  0.89877900  0.16281700  1
  C  C18  1  0.45413900  0.90489000  0.16249100  1
  C  C19  1  0.95317900  0.51249200  0.13556900  1
  C  C20  1  0.04682100  0.01249200  0.86443100  1
  C  C21  1  0.69973900  0.89877900  0.66281700  1
  C  C22  1  0.19973900  0.39877900  0.83718300  1
  C  C23  1  0.12961300  0.63143700  0.29385800  1
  C  C24  1  0.54682100  0.51249200  0.63556900  1
  C  C25  1  0.70124700  0.01335900  0.86498700  1
  C  C26  1  0.29875300  0.51335900  0.13501300  1
  C  C27  1  0.04586100  0.90489000  0.66249100  1
  C  C28  1  0.30026100  0.39877900  0.33718300  1
  C  C29  1  0.37038700  0.63143700  0.79385800  1
  C  C30  1  0.87038700  0.13143700  0.70614200  1
  C  C31  1  0.95413900  0.40489000  0.33750900  1
  C  C32  1  0.54586100  0.40489000  0.83750900  1
  C  C33  1  0.20124700  0.51335900  0.63501300  1
  C  C34  1  0.45317900  0.01249200  0.36443100  1
  C  C35  1  0.62961300  0.13143700  0.20614200  1
  N  N36  1  0.63021600  0.23616700  0.16500700  1
  N  N37  1  0.36978400  0.73616700  0.83499300  1
  N  N38  1  0.64499000  0.55851300  0.58574700  1
  N  N39  1  0.85501000  0.55851300  0.08574700  1
  N  N40  1  0.13021600  0.73616700  0.33499300  1
  N  N41  1  0.89647900  0.06074000  0.41458300  1
  N  N42  1  0.86978400  0.23616700  0.66500700  1
  N  N43  1  0.64439300  0.40047800  0.89723800  1
  N  N44  1  0.60153100  0.88738100  0.60336400  1
  N  N45  1  0.60352100  0.06074000  0.91458300  1
  N  N46  1  0.10352100  0.56074000  0.58541700  1
  N  N47  1  0.10153100  0.38738100  0.89663600  1
  N  N48  1  0.35501000  0.05851300  0.41425300  1
  N  N49  1  0.89846900  0.88738100  0.10336400  1
  N  N50  1  0.39647900  0.56074000  0.08541700  1
  N  N51  1  0.85560700  0.40047800  0.39723800  1
  N  N52  1  0.14439300  0.90047800  0.60276200  1
  N  N53  1  0.14499000  0.05851300  0.91425300  1
  N  N54  1  0.35560700  0.90047800  0.10276200  1
  N  N55  1  0.39846900  0.38738100  0.39663600  1
  O  O56  1  0.86965500  0.76563300  0.82573400  1
  O  O57  1  0.13034500  0.26563300  0.17426600  1
  O  O58  1  0.63034500  0.76563300  0.32573400  1
  O  O59  1  0.36965500  0.26563300  0.67426600  1
