# generated using pymatgen
data_Bi2W3(CO)15
_symmetry_space_group_name_H-M   'P 1'
_cell_length_a   7.08458900
_cell_length_b   11.02920690
_cell_length_c   17.56259875
_cell_angle_alpha   87.50489934
_cell_angle_beta   83.00821836
_cell_angle_gamma   73.28452363
_symmetry_Int_Tables_number   1
_chemical_formula_structural   Bi2W3(CO)15
_chemical_formula_sum   'Bi4 W6 C30 O30'
_cell_volume   1304.48305763
_cell_formula_units_Z   2
loop_
 _symmetry_equiv_pos_site_id
 _symmetry_equiv_pos_as_xyz
  1  'x, y, z'
loop_
 _atom_site_type_symbol
 _atom_site_label
 _atom_site_symmetry_multiplicity
 _atom_site_fract_x
 _atom_site_fract_y
 _atom_site_fract_z
 _atom_site_occupancy
  Bi  Bi0  1  0.93572800  0.24451600  0.25721000  1
  Bi  Bi1  1  0.34983600  0.23965400  0.22601100  1
  Bi  Bi2  1  0.06427200  0.75548400  0.74279000  1
  Bi  Bi3  1  0.65016400  0.76034600  0.77398900  1
  W  W4  1  0.94774400  0.51462300  0.69323500  1
  W  W5  1  0.74737000  0.97698300  0.66843700  1
  W  W6  1  0.13288400  0.22247900  0.08304600  1
  W  W7  1  0.05225600  0.48537700  0.30676500  1
  W  W8  1  0.25263000  0.02301700  0.33156300  1
  W  W9  1  0.86711600  0.77752100  0.91695400  1
  C  C10  1  0.97602300  0.03836100  0.39238300  1
  C  C11  1  0.22908600  0.44110200  0.72893100  1
  C  C12  1  0.92828800  0.42418900  0.40965300  1
  C  C13  1  0.12156900  0.21373900  0.96832700  1
  C  C14  1  0.32942400  0.04172200  0.08316700  1
  C  C15  1  0.87843100  0.78626100  0.03167300  1
  C  C16  1  0.37092000  0.29696300  0.04671900  1
  C  C17  1  0.93364300  0.40244200  0.08477200  1
  C  C18  1  0.06635700  0.59755800  0.91522800  1
  C  C19  1  0.67882500  0.55368200  0.64772000  1
  C  C20  1  0.30712600  0.12913500  0.41730900  1
  C  C21  1  0.65910700  0.14086100  0.60740300  1
  C  C22  1  0.02397700  0.96163900  0.60761700  1
  C  C23  1  0.99514400  0.65812300  0.35422300  1
  C  C24  1  0.45072800  0.03020300  0.71389100  1
  C  C25  1  0.34089300  0.85913900  0.39259700  1
  C  C26  1  0.77091400  0.55889800  0.27106900  1
  C  C27  1  0.17870900  0.54655700  0.20394300  1
  C  C28  1  0.32117500  0.44631800  0.35228000  1
  C  C29  1  0.07171200  0.57581100  0.59034700  1
  C  C30  1  0.67057600  0.95827800  0.91683300  1
  C  C31  1  0.19009500  0.91792700  0.24747900  1
  C  C32  1  0.82129100  0.45344300  0.79605700  1
  C  C33  1  0.69287400  0.87086500  0.58269100  1
  C  C34  1  0.80990500  0.08207300  0.75252100  1
  C  C35  1  0.62908000  0.70303700  0.95328100  1
  C  C36  1  0.54927200  0.96979700  0.28610900  1
  C  C37  1  0.90179900  0.14057000  0.09164700  1
  C  C38  1  0.00485600  0.34187700  0.64577700  1
  C  C39  1  0.09820100  0.85943000  0.90835300  1
  O  O40  1  0.33480300  0.18721300  0.46622400  1
  O  O41  1  0.39395600  0.76314200  0.42457200  1
  O  O42  1  0.25329100  0.57710800  0.14663400  1
  O  O43  1  0.61429600  0.60885400  0.25311000  1
  O  O44  1  0.71695200  0.93072100  0.26382200  1
  O  O45  1  0.17181200  0.95939700  0.56978200  1
  O  O46  1  0.50015000  0.66267500  0.97869200  1
  O  O47  1  0.84223300  0.14585300  0.79713300  1
  O  O48  1  0.53405100  0.56720800  0.61899900  1
  O  O49  1  0.17855100  0.49712900  0.91538300  1
  O  O50  1  0.56321800  0.06031300  0.91833400  1
  O  O51  1  0.82144900  0.50287100  0.08461700  1
  O  O52  1  0.22336000  0.90829700  0.91030300  1
  O  O53  1  0.74670900  0.42289200  0.85336600  1
  O  O54  1  0.49985000  0.33732500  0.02130800  1
  O  O55  1  0.77664000  0.09170300  0.08969700  1
  O  O56  1  0.28304800  0.06927900  0.73617800  1
  O  O57  1  0.38570400  0.39114600  0.74689000  1
  O  O58  1  0.11765600  0.21148100  0.90255000  1
  O  O59  1  0.04083200  0.24283100  0.61795400  1
  O  O60  1  0.82818800  0.04060300  0.43021800  1
  O  O61  1  0.66519700  0.81278700  0.53377600  1
  O  O62  1  0.60604400  0.23685800  0.57542800  1
  O  O63  1  0.46594900  0.43279200  0.38100100  1
  O  O64  1  0.88234400  0.78851900  0.09745000  1
  O  O65  1  0.43678200  0.93968700  0.08166600  1
  O  O66  1  0.14115900  0.60500500  0.53155000  1
  O  O67  1  0.85884100  0.39499500  0.46845000  1
  O  O68  1  0.15776700  0.85414700  0.20286700  1
  O  O69  1  0.95916800  0.75716900  0.38204600  1
