# generated using pymatgen
data_Mn3(AgO2)4
_symmetry_space_group_name_H-M   'P 1'
_cell_length_a   12.82725998
_cell_length_b   12.82725998
_cell_length_c   15.73718400
_cell_angle_alpha   90.00000000
_cell_angle_beta   90.00000000
_cell_angle_gamma   119.99999991
_symmetry_Int_Tables_number   1
_chemical_formula_structural   Mn3(AgO2)4
_chemical_formula_sum   'Mn36 Ag48 O96'
_cell_volume   2242.46384089
_cell_formula_units_Z   12
loop_
 _symmetry_equiv_pos_site_id
 _symmetry_equiv_pos_as_xyz
  1  'x, y, z'
loop_
 _atom_site_type_symbol
 _atom_site_label
 _atom_site_symmetry_multiplicity
 _atom_site_fract_x
 _atom_site_fract_y
 _atom_site_fract_z
 _atom_site_occupancy
  Mn  Mn0  1  0.04187300  0.70581300  0.83331300  1
  Mn  Mn1  1  0.43177400  0.94627700  0.53083600  1
  Mn  Mn2  1  0.12168500  0.66791700  0.99983100  1
  Mn  Mn3  1  0.33606000  0.29418700  0.83335400  1
  Mn  Mn4  1  0.70581300  0.04187300  0.16668700  1
  Mn  Mn5  1  0.54623300  0.87831500  0.66649800  1
  Mn  Mn6  1  0.23684400  0.84792700  0.13800300  1
  Mn  Mn7  1  0.29418700  0.33606000  0.16664600  1
  Mn  Mn8  1  0.33208300  0.45376700  0.33316500  1
  Mn  Mn9  1  0.63010100  0.00000000  0.83333300  1
  Mn  Mn10  1  0.84792700  0.23684400  0.86199700  1
  Mn  Mn11  1  0.10024700  0.28131400  0.86349600  1
  Mn  Mn12  1  0.00000000  0.79062600  0.66666700  1
  Mn  Mn13  1  0.45376700  0.33208300  0.66683500  1
  Mn  Mn14  1  0.36989900  0.36989900  0.50000000  1
  Mn  Mn15  1  0.05372300  0.48549700  0.86417000  1
  Mn  Mn16  1  0.56822600  0.51450300  0.80249700  1
  Mn  Mn17  1  0.66791700  0.12168500  0.00016900  1
  Mn  Mn18  1  0.18106700  0.89975300  0.53016300  1
  Mn  Mn19  1  0.51450300  0.56822600  0.19750300  1
  Mn  Mn20  1  0.95812700  0.66394000  0.50002100  1
  Mn  Mn21  1  0.79062600  0.00000000  0.33333300  1
  Mn  Mn22  1  0.87831500  0.54623300  0.33350200  1
  Mn  Mn23  1  0.89975300  0.18106700  0.46983700  1
  Mn  Mn24  1  0.15207300  0.38891800  0.47133700  1
  Mn  Mn25  1  0.66394000  0.95812700  0.49997900  1
  Mn  Mn26  1  0.71868600  0.81893300  0.19682900  1
  Mn  Mn27  1  0.38891800  0.15207300  0.52866300  1
  Mn  Mn28  1  0.20937400  0.20937400  0.00000000  1
  Mn  Mn29  1  0.61108200  0.76315600  0.80467000  1
  Mn  Mn30  1  0.48549700  0.05372300  0.13583000  1
  Mn  Mn31  1  0.94627700  0.43177400  0.46916400  1
  Mn  Mn32  1  0.81893300  0.71868600  0.80317100  1
  Mn  Mn33  1  0.28131400  0.10024700  0.13650400  1
  Mn  Mn34  1  0.76315600  0.61108200  0.19533000  1
  Mn  Mn35  1  0.00000000  0.63010100  0.16666700  1
  Ag  Ag36  1  0.36948300  0.83327100  0.91354600  1
  Ag  Ag37  1  0.79450900  0.55502700  0.98123700  1
  Ag  Ag38  1  0.44497300  0.23948200  0.31457100  1
  Ag  Ag39  1  0.22844800  0.65447100  0.57738600  1
  Ag  Ag40  1  0.68293400  0.60129500  0.59251400  1
  Ag  Ag41  1  0.67897800  0.29712500  0.24109800  1
  Ag  Ag42  1  0.96152800  0.85623900  0.34644900  1
  Ag  Ag43  1  0.53621100  0.16672900  0.75312000  1
  Ag  Ag44  1  0.06511000  0.06511000  0.50000000  1
  Ag  Ag45  1  0.39870500  0.08163900  0.92584700  1
  Ag  Ag46  1  0.00000000  0.46821000  0.66666700  1
  Ag  Ag47  1  0.32102200  0.61814700  0.09223500  1
  Ag  Ag48  1  0.46821000  0.00000000  0.33333300  1
  Ag  Ag49  1  0.53179000  0.53179000  0.00000000  1
  Ag  Ag50  1  0.42602400  0.77155200  0.24405300  1
  Ag  Ag51  1  0.57397600  0.34552900  0.08928000  1
  Ag  Ag52  1  0.77155200  0.42602400  0.75594700  1
  Ag  Ag53  1  0.34552900  0.57397600  0.91072000  1
  Ag  Ag54  1  0.31706600  0.91836100  0.74081900  1
  Ag  Ag55  1  0.16982300  0.00000000  0.83333300  1
  Ag  Ag56  1  0.03847200  0.89471100  0.98688400  1
  Ag  Ag57  1  0.38185300  0.70287500  0.42556900  1
  Ag  Ag58  1  0.77110700  0.77110700  0.00000000  1
  Ag  Ag59  1  0.63051700  0.46378900  0.41978700  1
  Ag  Ag60  1  0.93489000  0.00000000  0.83333300  1
  Ag  Ag61  1  0.14376100  0.10528900  0.67978300  1
  Ag  Ag62  1  0.08163900  0.39870500  0.07415300  1
  Ag  Ag63  1  0.16672900  0.53621100  0.24688000  1
  Ag  Ag64  1  0.23948200  0.44497300  0.68542900  1
  Ag  Ag65  1  0.76051800  0.20549100  0.64790400  1
  Ag  Ag66  1  0.85623900  0.96152800  0.65355100  1
  Ag  Ag67  1  0.00000000  0.16982300  0.16666700  1
  Ag  Ag68  1  0.91836100  0.31706600  0.25918100  1
  Ag  Ag69  1  0.70287500  0.38185300  0.57443100  1
  Ag  Ag70  1  0.83327100  0.36948300  0.08645400  1
  Ag  Ag71  1  0.65447100  0.22844800  0.42261400  1
  Ag  Ag72  1  0.46378900  0.63051700  0.58021300  1
  Ag  Ag73  1  0.00000000  0.22889300  0.66666700  1
  Ag  Ag74  1  0.22889300  0.00000000  0.33333300  1
  Ag  Ag75  1  0.00000000  0.93489000  0.16666700  1
  Ag  Ag76  1  0.10528900  0.14376100  0.32021700  1
  Ag  Ag77  1  0.60129500  0.68293400  0.40748600  1
  Ag  Ag78  1  0.83017700  0.83017700  0.50000000  1
  Ag  Ag79  1  0.61814700  0.32102200  0.90776500  1
  Ag  Ag80  1  0.29712500  0.67897800  0.75890200  1
  Ag  Ag81  1  0.20549100  0.76051800  0.35209600  1
  Ag  Ag82  1  0.89471100  0.03847200  0.01311600  1
  Ag  Ag83  1  0.55502700  0.79450900  0.01876300  1
  O  O84  1  0.91166100  0.85151200  0.72734100  1
  O  O85  1  0.94556100  0.76407300  0.88539200  1
  O  O86  1  0.14848800  0.06014900  0.06067400  1
  O  O87  1  0.06014900  0.14848800  0.93932600  1
  O  O88  1  0.93985100  0.08833900  0.39400700  1
  O  O89  1  0.25917100  0.34841200  0.92178500  1
  O  O90  1  0.60537900  0.42529000  0.72326900  1
  O  O91  1  0.99991400  0.33345200  0.40435900  1
  O  O92  1  0.23592700  0.18148800  0.21872600  1
  O  O93  1  0.08833900  0.93985100  0.60599300  1
  O  O94  1  0.10595900  0.61294500  0.78222300  1
  O  O95  1  0.12025000  0.83916200  0.75529300  1
  O  O96  1  0.08924000  0.74082900  0.58845200  1
  O  O97  1  0.95494600  0.50226000  0.24691400  1
  O  O98  1  0.00008600  0.33353800  0.92897500  1
  O  O99  1  0.42529000  0.60537900  0.27673100  1
  O  O100  1  0.65158800  0.91076000  0.25511800  1
  O  O101  1  0.76407300  0.94556100  0.11460800  1
  O  O102  1  0.80760400  0.76017000  0.13465100  1
  O  O103  1  0.27205600  0.75394000  0.05907000  1
  O  O104  1  0.59236600  0.01620000  0.58664600  1
  O  O105  1  0.49301400  0.38705500  0.88444400  1
  O  O106  1  0.34841200  0.25917100  0.07821500  1
  O  O107  1  0.19239600  0.95256600  0.19868200  1
  O  O108  1  0.81851200  0.05443900  0.55205900  1
  O  O109  1  0.17025200  0.78707100  0.91280800  1
  O  O110  1  0.28042900  0.84958300  0.47404200  1
  O  O111  1  0.71786900  0.15723800  0.78215900  1
  O  O112  1  0.57471000  0.18009000  0.05660200  1
  O  O113  1  0.75394000  0.27205600  0.94093000  1
  O  O114  1  0.48188400  0.72794400  0.72573700  1
  O  O115  1  0.05443900  0.81851200  0.44794100  1
  O  O116  1  0.68382000  0.92281100  0.74656200  1
  O  O117  1  0.47691100  0.09145000  0.46786800  1
  O  O118  1  0.71891200  0.87975000  0.42195900  1
  O  O119  1  0.45268500  0.49774000  0.41975300  1
  O  O120  1  0.82974800  0.61682000  0.42052600  1
  O  O121  1  0.92281100  0.68382000  0.25343800  1
  O  O122  1  0.33353800  0.00008600  0.07102500  1
  O  O123  1  0.50698600  0.89404100  0.44888900  1
  O  O124  1  0.33345200  0.99991400  0.59564100  1
  O  O125  1  0.78707100  0.17025200  0.08719200  1
  O  O126  1  0.07718900  0.76100900  0.07989600  1
  O  O127  1  0.31618000  0.23899100  0.58677100  1
  O  O128  1  0.38705500  0.49301400  0.11555600  1
  O  O129  1  0.51811600  0.24606000  0.60759700  1
  O  O130  1  0.42383300  0.40763400  0.25331200  1
  O  O131  1  0.04743400  0.23983000  0.53201500  1
  O  O132  1  0.72794400  0.48188400  0.27426300  1
  O  O133  1  0.87975000  0.71891200  0.57804100  1
  O  O134  1  0.18148800  0.23592700  0.78127400  1
  O  O135  1  0.38318000  0.21292900  0.75385900  1
  O  O136  1  0.71957100  0.56915400  0.85929100  1
  O  O137  1  0.43084600  0.15041700  0.19262500  1
  O  O138  1  0.61453800  0.52308900  0.13453500  1
  O  O139  1  0.15723800  0.71786900  0.21784100  1
  O  O140  1  0.90855000  0.38546200  0.80120200  1
  O  O141  1  0.28108800  0.16083800  0.91137400  1
  O  O142  1  0.61682000  0.82974800  0.57947400  1
  O  O143  1  0.84958300  0.28042900  0.52595800  1
  O  O144  1  0.91076000  0.65158800  0.74488200  1
  O  O145  1  0.81991000  0.39462100  0.38993500  1
  O  O146  1  0.54731500  0.04505400  0.91358100  1
  O  O147  1  0.40763400  0.42383300  0.74668800  1
  O  O148  1  0.52308900  0.61453800  0.86546500  1
  O  O149  1  0.98380000  0.57616700  0.91997900  1
  O  O150  1  0.84276200  0.56063100  0.11549200  1
  O  O151  1  0.24606000  0.51811600  0.39240300  1
  O  O152  1  0.85151200  0.91166100  0.27265900  1
  O  O153  1  0.49774000  0.45268500  0.58024700  1
  O  O154  1  0.56915400  0.71957100  0.14070900  1
  O  O155  1  0.83916200  0.12025000  0.24470700  1
  O  O156  1  0.23983000  0.04743400  0.46798500  1
  O  O157  1  0.66646200  0.66654800  0.26230800  1
  O  O158  1  0.61294500  0.10595900  0.21777700  1
  O  O159  1  0.18009000  0.57471000  0.94339800  1
  O  O160  1  0.38546200  0.90855000  0.19879800  1
  O  O161  1  0.76100900  0.07718900  0.92010400  1
  O  O162  1  0.04505400  0.54731500  0.08641900  1
  O  O163  1  0.76017000  0.80760400  0.86534900  1
  O  O164  1  0.09145000  0.47691100  0.53213200  1
  O  O165  1  0.21292900  0.38318000  0.24614100  1
  O  O166  1  0.50226000  0.95494600  0.75308600  1
  O  O167  1  0.74082900  0.08924000  0.41154800  1
  O  O168  1  0.15041700  0.43084600  0.80737500  1
  O  O169  1  0.57616700  0.98380000  0.08002100  1
  O  O170  1  0.56063100  0.84276200  0.88450800  1
  O  O171  1  0.16083800  0.28108800  0.08862600  1
  O  O172  1  0.39462100  0.81991000  0.61006500  1
  O  O173  1  0.66654800  0.66646200  0.73769200  1
  O  O174  1  0.28213100  0.43936900  0.55117400  1
  O  O175  1  0.23899100  0.31618000  0.41322900  1
  O  O176  1  0.43936900  0.28213100  0.44882600  1
  O  O177  1  0.89404100  0.50698600  0.55111100  1
  O  O178  1  0.95256600  0.19239600  0.80131800  1
  O  O179  1  0.01620000  0.59236600  0.41335400  1
