# generated using pymatgen
data_Sr3LaMn2(WO6)2
_symmetry_space_group_name_H-M   'P 1'
_cell_length_a   5.81735200
_cell_length_b   5.79494200
_cell_length_c   16.17666734
_cell_angle_alpha   89.70990834
_cell_angle_beta   90.00000000
_cell_angle_gamma   90.00000000
_symmetry_Int_Tables_number   1
_chemical_formula_structural   Sr3LaMn2(WO6)2
_chemical_formula_sum   'Sr6 La2 Mn4 W4 O24'
_cell_volume   545.32816037
_cell_formula_units_Z   2
loop_
 _symmetry_equiv_pos_site_id
 _symmetry_equiv_pos_as_xyz
  1  'x, y, z'
loop_
 _atom_site_type_symbol
 _atom_site_label
 _atom_site_symmetry_multiplicity
 _atom_site_fract_x
 _atom_site_fract_y
 _atom_site_fract_z
 _atom_site_occupancy
  Sr  Sr0  1  0.02265300  0.23312200  0.99948100  1
  Sr  Sr1  1  0.02163800  0.24104900  0.50137300  1
  Sr  Sr2  1  0.47733500  0.74128900  0.75523500  1
  Sr  Sr3  1  0.52265300  0.76687800  0.00051900  1
  Sr  Sr4  1  0.52163800  0.75895100  0.49862700  1
  Sr  Sr5  1  0.97733500  0.25871100  0.24476500  1
  La  La6  1  0.47028900  0.73845500  0.24144700  1
  La  La7  1  0.97028900  0.26154500  0.75855300  1
  Mn  Mn8  1  0.00004500  0.74754800  0.87750800  1
  Mn  Mn9  1  0.99812400  0.75118400  0.37450100  1
  Mn  Mn10  1  0.50004500  0.25245200  0.12249200  1
  Mn  Mn11  1  0.49812400  0.24881600  0.62549900  1
  W  W12  1  0.99875200  0.75299600  0.12491500  1
  W  W13  1  0.00004700  0.75024700  0.62428400  1
  W  W14  1  0.49875200  0.24700400  0.87508500  1
  W  W15  1  0.50004700  0.24975300  0.37571600  1
  O  O16  1  0.98661200  0.67122800  0.50694600  1
  O  O17  1  0.98650900  0.66633300  0.01018700  1
  O  O18  1  0.77910200  0.01840700  0.10694400  1
  O  O19  1  0.78110700  0.99977600  0.60366400  1
  O  O20  1  0.77122600  0.03374200  0.89277700  1
  O  O21  1  0.75718500  0.04093100  0.39809700  1
  O  O22  1  0.72552300  0.54037300  0.15326600  1
  O  O23  1  0.74978300  0.53017300  0.64859700  1
  O  O24  1  0.73219000  0.50399300  0.84780100  1
  O  O25  1  0.71132600  0.50877000  0.35216500  1
  O  O26  1  0.51875100  0.17264300  0.75476100  1
  O  O27  1  0.51180500  0.15829300  0.25932600  1
  O  O28  1  0.48661200  0.32877200  0.49305400  1
  O  O29  1  0.48650900  0.33366700  0.98981300  1
  O  O30  1  0.28110700  0.00022400  0.39633600  1
  O  O31  1  0.27910200  0.98159300  0.89305600  1
  O  O32  1  0.27122600  0.96625800  0.10722300  1
  O  O33  1  0.25718500  0.95906900  0.60190300  1
  O  O34  1  0.24978300  0.46982700  0.35140300  1
  O  O35  1  0.22552300  0.45962700  0.84673400  1
  O  O36  1  0.23219000  0.49600700  0.15219900  1
  O  O37  1  0.21132600  0.49123000  0.64783500  1
  O  O38  1  0.01875100  0.82735700  0.24523900  1
  O  O39  1  0.01180500  0.84170700  0.74067400  1
