# generated using pymatgen
data_BH5(NF2)2
_symmetry_space_group_name_H-M   'P 1'
_cell_length_a   7.54063017
_cell_length_b   7.54063017
_cell_length_c   12.45861285
_cell_angle_alpha   68.88250998
_cell_angle_beta   68.88250998
_cell_angle_gamma   41.68613228
_symmetry_Int_Tables_number   1
_chemical_formula_structural   BH5(NF2)2
_chemical_formula_sum   'B4 H20 N8 F16'
_cell_volume   434.71164933
_cell_formula_units_Z   4
loop_
 _symmetry_equiv_pos_site_id
 _symmetry_equiv_pos_as_xyz
  1  'x, y, z'
loop_
 _atom_site_type_symbol
 _atom_site_label
 _atom_site_symmetry_multiplicity
 _atom_site_fract_x
 _atom_site_fract_y
 _atom_site_fract_z
 _atom_site_occupancy
  B  B0  1  0.96358400  0.81998800  0.42187400  1
  B  B1  1  0.18001200  0.03641600  0.07812600  1
  B  B2  1  0.03641600  0.18001200  0.57812600  1
  B  B3  1  0.81998800  0.96358400  0.92187400  1
  H  H4  1  0.22141100  0.61160800  0.12390100  1
  H  H5  1  0.38839200  0.77858900  0.37609900  1
  H  H6  1  0.77858900  0.38839200  0.87609900  1
  H  H7  1  0.61160800  0.22141100  0.62390100  1
  H  H8  1  0.28947100  0.37555300  0.08287200  1
  H  H9  1  0.62444700  0.71052900  0.41712800  1
  H  H10  1  0.71052900  0.62444700  0.91712800  1
  H  H11  1  0.37555300  0.28947100  0.58287200  1
  H  H12  1  0.05054200  0.52046700  0.19819200  1
  H  H13  1  0.47953300  0.94945800  0.30180800  1
  H  H14  1  0.94945800  0.47953300  0.80180800  1
  H  H15  1  0.52046700  0.05054200  0.69819200  1
  H  H16  1  0.61778500  0.17523800  0.18988600  1
  H  H17  1  0.82476200  0.38221500  0.31011400  1
  H  H18  1  0.38221500  0.82476200  0.81011400  1
  H  H19  1  0.17523800  0.61778500  0.68988600  1
  H  H20  1  0.37584100  0.32728000  0.30011700  1
  H  H21  1  0.67272000  0.62415900  0.19988300  1
  H  H22  1  0.62415900  0.67272000  0.69988300  1
  H  H23  1  0.32728000  0.37584100  0.80011700  1
  N  N24  1  0.23778800  0.45316600  0.15392000  1
  N  N25  1  0.54683400  0.76221200  0.34608000  1
  N  N26  1  0.76221200  0.54683400  0.84608000  1
  N  N27  1  0.45316600  0.23778800  0.65392000  1
  N  N28  1  0.43635500  0.23952600  0.23171300  1
  N  N29  1  0.76047400  0.56364500  0.26828700  1
  N  N30  1  0.56364500  0.76047400  0.76828700  1
  N  N31  1  0.23952600  0.43635500  0.73171300  1
  F  F32  1  0.92900900  0.77735300  0.33245500  1
  F  F33  1  0.22264700  0.07099100  0.16754500  1
  F  F34  1  0.07099100  0.22264700  0.66754500  1
  F  F35  1  0.77735300  0.92900900  0.83245500  1
  F  F36  1  0.83383700  0.78813400  0.52961900  1
  F  F37  1  0.21186600  0.16616300  0.97038100  1
  F  F38  1  0.16616300  0.21186600  0.47038100  1
  F  F39  1  0.78813400  0.83383700  0.02961900  1
  F  F40  1  0.24665700  0.62526900  0.42577800  1
  F  F41  1  0.37473100  0.75334300  0.07422200  1
  F  F42  1  0.75334300  0.37473100  0.57422200  1
  F  F43  1  0.62526900  0.24665700  0.92577800  1
  F  F44  1  0.85461900  0.08185100  0.39918700  1
  F  F45  1  0.91814900  0.14538100  0.10081300  1
  F  F46  1  0.14538100  0.91814900  0.60081300  1
  F  F47  1  0.08185100  0.85461900  0.89918700  1
