# generated using pymatgen
data_Rb8W13O43
_symmetry_space_group_name_H-M   'P 1'
_cell_length_a   7.30054000
_cell_length_b   7.38552729
_cell_length_c   24.02124774
_cell_angle_alpha   91.51337231
_cell_angle_beta   96.01955144
_cell_angle_gamma   117.69687538
_symmetry_Int_Tables_number   1
_chemical_formula_structural   Rb8W13O43
_chemical_formula_sum   'Rb8 W13 O43'
_cell_volume   1136.29755248
_cell_formula_units_Z   1
loop_
 _symmetry_equiv_pos_site_id
 _symmetry_equiv_pos_as_xyz
  1  'x, y, z'
loop_
 _atom_site_type_symbol
 _atom_site_label
 _atom_site_symmetry_multiplicity
 _atom_site_fract_x
 _atom_site_fract_y
 _atom_site_fract_z
 _atom_site_occupancy
  Rb  Rb0  1  0.99355400  0.47962400  0.91222300  1
  Rb  Rb1  1  0.54734700  0.73191900  0.84466700  1
  Rb  Rb2  1  0.47319600  0.74428900  0.65709500  1
  Rb  Rb3  1  0.03763700  0.98876500  0.59800400  1
  Rb  Rb4  1  0.97306400  0.96450000  0.41840000  1
  Rb  Rb5  1  0.57658100  0.24681200  0.36269200  1
  Rb  Rb6  1  0.41653700  0.22129800  0.14512000  1
  Rb  Rb7  1  0.02149100  0.46876200  0.08730700  1
  W  W8  1  0.43602500  0.96040100  0.00526900  1
  W  W9  1  0.52706800  0.50326300  0.99765800  1
  W  W10  1  0.94847200  0.22849100  0.75812200  1
  W  W11  1  0.02920700  0.76026900  0.74721600  1
  W  W12  1  0.20496500  0.11227300  0.87828700  1
  W  W13  1  0.52650100  0.01416500  0.50073400  1
  W  W14  1  0.48237700  0.72835600  0.24878100  1
  W  W15  1  0.69136200  0.36232700  0.63129300  1
  W  W16  1  0.78226500  0.89430800  0.11935600  1
  W  W17  1  0.00150000  0.75496600  0.24887000  1
  W  W18  1  0.97788600  0.23882500  0.25209300  1
  W  W19  1  0.20926800  0.61977400  0.38130200  1
  W  W20  1  0.45188300  0.48329500  0.50718500  1
  O  O21  1  0.17819700  0.26959400  0.81701300  1
  O  O22  1  0.76467600  0.61029600  0.96460300  1
  O  O23  1  0.08309300  0.52431900  0.76267100  1
  O  O24  1  0.40024000  0.36294900  0.91653100  1
  O  O25  1  0.16101800  0.89710500  0.82268500  1
  O  O26  1  0.51986300  0.77684400  0.97813200  1
  O  O27  1  0.76039900  0.64028600  0.76514500  1
  O  O28  1  0.26160000  0.88808300  0.71196700  1
  O  O29  1  0.66532900  0.51908900  0.56831700  1
  O  O30  1  0.33048800  0.98257300  0.92946300  1
  O  O31  1  0.58101500  0.77721400  0.51510900  1
  O  O32  1  0.44465500  0.72258700  0.32586700  1
  O  O33  1  0.89402800  0.61506600  0.66689500  1
  O  O34  1  0.96620000  0.04500200  0.90260900  1
  O  O35  1  0.67970200  0.16515100  0.57550500  1
  O  O36  1  0.74960800  0.13846000  0.80114600  1
  O  O37  1  0.97171800  0.00504000  0.72756000  1
  O  O38  1  0.27818100  0.89452800  0.53115900  1
  O  O39  1  0.09886300  0.75391300  0.32531300  1
  O  O40  1  0.79473300  0.22861700  0.68669000  1
  O  O41  1  0.76312300  0.13138500  0.46590600  1
  O  O42  1  0.09020600  0.05054300  0.26358100  1
  O  O43  1  0.00912500  0.02567800  0.08661700  1
  O  O44  1  0.27992900  0.82666900  0.23043800  1
  O  O45  1  0.36792100  0.87340300  0.42424100  1
  O  O46  1  0.44668200  0.30088600  0.65121600  1
  O  O47  1  0.23131100  0.39190100  0.54207400  1
  O  O48  1  0.08168900  0.36648200  0.32734300  1
  O  O49  1  0.46539000  0.24790300  0.47979800  1
  O  O50  1  0.71751900  0.04772800  0.26931600  1
  O  O51  1  0.27994500  0.45207800  0.23207400  1
  O  O52  1  0.61594700  0.99792800  0.07684600  1
  O  O53  1  0.34871200  0.49771700  0.42893900  1
  O  O54  1  0.54628000  0.25638300  0.01916100  1
  O  O55  1  0.89809300  0.14700200  0.17432700  1
  O  O56  1  0.97590000  0.53882600  0.41190300  1
  O  O57  1  0.91477600  0.46461300  0.23488200  1
  O  O58  1  0.64754600  0.63376600  0.07482700  1
  O  O59  1  0.72442500  0.68073500  0.26658000  1
  O  O60  1  0.25121800  0.41685100  0.00640100  1
  O  O61  1  0.91836000  0.77594200  0.17202300  1
  O  O62  1  0.55401400  0.77713500  0.17409500  1
  O  O63  1  0.20019500  0.82350200  0.03190700  1
