# generated using pymatgen
data_NiB18(H11C2)2
_symmetry_space_group_name_H-M   'P 1'
_cell_length_a   10.56051700
_cell_length_b   12.34823100
_cell_length_c   13.60251626
_cell_angle_alpha   67.53190434
_cell_angle_beta   90.00000000
_cell_angle_gamma   90.00000000
_symmetry_Int_Tables_number   1
_chemical_formula_structural   NiB18(H11C2)2
_chemical_formula_sum   'Ni4 B72 H88 C16'
_cell_volume   1639.17233482
_cell_formula_units_Z   4
loop_
 _symmetry_equiv_pos_site_id
 _symmetry_equiv_pos_as_xyz
  1  'x, y, z'
loop_
 _atom_site_type_symbol
 _atom_site_label
 _atom_site_symmetry_multiplicity
 _atom_site_fract_x
 _atom_site_fract_y
 _atom_site_fract_z
 _atom_site_occupancy
  Ni  Ni0  1  0.56492800  0.74325500  0.74443200  1
  Ni  Ni1  1  0.06492800  0.25674500  0.75556800  1
  Ni  Ni2  1  0.43507200  0.25674500  0.25556800  1
  Ni  Ni3  1  0.93507200  0.74325500  0.24443200  1
  B  B4  1  0.70463700  0.60766500  0.85643000  1
  B  B5  1  0.20463700  0.39233500  0.64357000  1
  B  B6  1  0.29536300  0.39233500  0.14357000  1
  B  B7  1  0.79536300  0.60766500  0.35643000  1
  B  B8  1  0.86205800  0.64820500  0.80814800  1
  B  B9  1  0.36205800  0.35179500  0.69185200  1
  B  B10  1  0.13794200  0.35179500  0.19185200  1
  B  B11  1  0.63794200  0.64820500  0.30814800  1
  B  B12  1  0.81888800  0.80371600  0.69551000  1
  B  B13  1  0.31888800  0.19628400  0.80449000  1
  B  B14  1  0.18111200  0.19628400  0.30449000  1
  B  B15  1  0.68111200  0.80371600  0.19551000  1
  B  B16  1  0.62998500  0.87364600  0.79574800  1
  B  B17  1  0.12998500  0.12635400  0.70425200  1
  B  B18  1  0.37001500  0.12635400  0.20425200  1
  B  B19  1  0.87001500  0.87364600  0.29574800  1
  B  B20  1  0.63519000  0.72288300  0.89355400  1
  B  B21  1  0.13519000  0.27711700  0.60644600  1
  B  B22  1  0.36481000  0.27711700  0.10644600  1
  B  B23  1  0.86481000  0.72288300  0.39355400  1
  B  B24  1  0.79789600  0.67564700  0.91935600  1
  B  B25  1  0.29789600  0.32435300  0.58064400  1
  B  B26  1  0.20210400  0.32435300  0.08064400  1
  B  B27  1  0.70210400  0.67564700  0.41935600  1
  B  B28  1  0.75876000  0.82338500  0.88694700  1
  B  B29  1  0.25876000  0.17661500  0.61305300  1
  B  B30  1  0.24124000  0.17661500  0.11305300  1
  B  B31  1  0.74124000  0.82338500  0.38694700  1
  B  B32  1  0.41481900  0.85093700  0.65279700  1
  B  B33  1  0.91481900  0.14906300  0.84720300  1
  B  B34  1  0.58518100  0.14906300  0.34720300  1
  B  B35  1  0.08518100  0.85093700  0.15279700  1
  B  B36  1  0.32062200  0.79844300  0.57167900  1
  B  B37  1  0.82062200  0.20155700  0.92832100  1
  B  B38  1  0.67937800  0.20155700  0.42832100  1
  B  B39  1  0.17937800  0.79844300  0.07167900  1
  B  B40  1  0.36413700  0.65332900  0.59659000  1
  B  B41  1  0.86413700  0.34667100  0.90341000  1
  B  B42  1  0.63586300  0.34667100  0.40341000  1
  B  B43  1  0.13586300  0.65332900  0.09659000  1
  B  B44  1  0.42319400  0.61500400  0.81595100  1
  B  B45  1  0.92319400  0.38499600  0.68404900  1
  B  B46  1  0.57680600  0.38499600  0.18404900  1
  B  B47  1  0.07680600  0.61500400  0.31595100  1
  B  B48  1  0.37701000  0.76376600  0.79368000  1
  B  B49  1  0.87701000  0.23623400  0.70632000  1
  B  B50  1  0.62299000  0.23623400  0.20632000  1
  B  B51  1  0.12299000  0.76376600  0.29368000  1
  B  B52  1  0.25868100  0.80408500  0.69143800  1
  B  B53  1  0.75868100  0.19591500  0.80856200  1
  B  B54  1  0.74131900  0.19591500  0.30856200  1
  B  B55  1  0.24131900  0.80408500  0.19143800  1
  B  B56  1  0.26340300  0.65771600  0.79075700  1
  B  B57  1  0.76340300  0.34228400  0.70924300  1
  B  B58  1  0.73659700  0.34228400  0.20924300  1
  B  B59  1  0.23659700  0.65771600  0.29075700  1
  B  B60  1  0.88652900  0.78723700  0.81921900  1
  B  B61  1  0.38652900  0.21276300  0.68078100  1
  B  B62  1  0.11347100  0.21276300  0.18078100  1
  B  B63  1  0.61347100  0.78723700  0.31921900  1
  B  B64  1  0.79019100  0.91231600  0.75214900  1
  B  B65  1  0.29019100  0.08768400  0.74785100  1
  B  B66  1  0.20980900  0.08768400  0.24785100  1
  B  B67  1  0.70980900  0.91231600  0.25214900  1
  B  B68  1  0.22588900  0.68154500  0.65745900  1
  B  B69  1  0.72588900  0.31845500  0.84254100  1
  B  B70  1  0.77411100  0.31845500  0.34254100  1
  B  B71  1  0.27411100  0.68154500  0.15745900  1
  B  B72  1  0.32954400  0.56437300  0.73034100  1
  B  B73  1  0.82954400  0.43562700  0.76965900  1
  B  B74  1  0.67045600  0.43562700  0.26965900  1
  B  B75  1  0.17045600  0.56437300  0.23034100  1
  H  H76  1  0.72045100  0.60241200  0.68705100  1
  H  H77  1  0.22045100  0.39758800  0.81294900  1
  H  H78  1  0.27954900  0.39758800  0.31294900  1
  H  H79  1  0.77954900  0.60241200  0.18705100  1
  H  H80  1  0.65808700  0.93420200  0.60544700  1
  H  H81  1  0.15808700  0.06579800  0.89455300  1
  H  H82  1  0.34191300  0.06579800  0.39455300  1
  H  H83  1  0.84191300  0.93420200  0.10544700  1
  H  H84  1  0.66316900  0.51150600  0.88693000  1
  H  H85  1  0.16316900  0.48849400  0.61307000  1
  H  H86  1  0.33683100  0.48849400  0.11307000  1
  H  H87  1  0.83683100  0.51150600  0.38693000  1
  H  H88  1  0.96665300  0.60831400  0.83015700  1
  H  H89  1  0.46665300  0.39168600  0.66984300  1
  H  H90  1  0.03334700  0.39168600  0.16984300  1
  H  H91  1  0.53334700  0.60831400  0.33015700  1
  H  H92  1  0.86876900  0.80961400  0.61506400  1
  H  H93  1  0.36876900  0.19038600  0.88493600  1
  H  H94  1  0.13123100  0.19038600  0.38493600  1
  H  H95  1  0.63123100  0.80961400  0.11506400  1
  H  H96  1  0.55760100  0.94618500  0.79854500  1
  H  H97  1  0.05760100  0.05381500  0.70145500  1
  H  H98  1  0.44239900  0.05381500  0.20145500  1
  H  H99  1  0.94239900  0.94618500  0.29854500  1
  H  H100  1  0.56052300  0.68862800  0.96482300  1
  H  H101  1  0.06052300  0.31137200  0.53517700  1
  H  H102  1  0.43947700  0.31137200  0.03517700  1
  H  H103  1  0.93947700  0.68862800  0.46482300  1
  H  H104  1  0.83496500  0.61770400  0.00719700  1
  H  H105  1  0.33496500  0.38229600  0.49280300  1
  H  H106  1  0.16503500  0.38229600  0.99280300  1
  H  H107  1  0.66503500  0.61770400  0.50719700  1
  H  H108  1  0.99470000  0.80577900  0.83256400  1
  H  H109  1  0.49470000  0.19422100  0.66743600  1
  H  H110  1  0.00530000  0.19422100  0.16743600  1
  H  H111  1  0.50530000  0.80577900  0.33256400  1
  H  H112  1  0.83233800  0.00888600  0.71894000  1
  H  H113  1  0.33233800  0.99111400  0.78106000  1
  H  H114  1  0.16766200  0.99111400  0.28106000  1
  H  H115  1  0.66766200  0.00888600  0.21894000  1
  H  H116  1  0.77202600  0.86296600  0.95397600  1
  H  H117  1  0.27202600  0.13703400  0.54602400  1
  H  H118  1  0.22797400  0.13703400  0.04602400  1
  H  H119  1  0.72797400  0.86296600  0.45397600  1
  H  H120  1  0.54327100  0.77432500  0.54210800  1
  H  H121  1  0.04327100  0.22567500  0.95789200  1
  H  H122  1  0.45672900  0.22567500  0.45789200  1
  H  H123  1  0.95672900  0.77432500  0.04210800  1
  H  H124  1  0.54741800  0.56302400  0.68698400  1
  H  H125  1  0.04741800  0.43697600  0.81301600  1
  H  H126  1  0.45258200  0.43697600  0.31301600  1
  H  H127  1  0.95258200  0.56302400  0.18698400  1
  H  H128  1  0.44466600  0.95118300  0.61520200  1
  H  H129  1  0.94466600  0.04881700  0.88479800  1
  H  H130  1  0.55533400  0.04881700  0.38479800  1
  H  H131  1  0.05533400  0.95118300  0.11520200  1
  H  H132  1  0.29783800  0.86290700  0.48290700  1
  H  H133  1  0.79783800  0.13709300  0.01709300  1
  H  H134  1  0.70216200  0.13709300  0.51709300  1
  H  H135  1  0.20216200  0.86290700  0.98290700  1
  H  H136  1  0.37950400  0.61315700  0.53099600  1
  H  H137  1  0.87950400  0.38684300  0.96900400  1
  H  H138  1  0.62049600  0.38684300  0.46900400  1
  H  H139  1  0.12049600  0.61315700  0.03099600  1
  H  H140  1  0.45440600  0.53882600  0.89670100  1
  H  H141  1  0.95440600  0.46117400  0.60329900  1
  H  H142  1  0.54559400  0.46117400  0.10329900  1
  H  H143  1  0.04559400  0.53882600  0.39670100  1
  H  H144  1  0.37243100  0.80234100  0.86138800  1
  H  H145  1  0.87243100  0.19765900  0.63861200  1
  H  H146  1  0.62756900  0.19765900  0.13861200  1
  H  H147  1  0.12756900  0.80234100  0.36138800  1
  H  H148  1  0.17947800  0.87319600  0.69130600  1
  H  H149  1  0.67947900  0.12680400  0.80869400  1
  H  H150  1  0.82052200  0.12680400  0.30869400  1
  H  H151  1  0.32052200  0.87319600  0.19130600  1
  H  H152  1  0.12242200  0.66347000  0.63214700  1
  H  H153  1  0.62242200  0.33653000  0.86785300  1
  H  H154  1  0.87757800  0.33653000  0.36785300  1
  H  H155  1  0.37757800  0.66347000  0.13214700  1
  H  H156  1  0.38090800  0.38239600  0.82991300  1
  H  H157  1  0.88090800  0.61760400  0.67008700  1
  H  H158  1  0.61909200  0.61760400  0.17008700  1
  H  H159  1  0.11909200  0.38239600  0.32991300  1
  H  H160  1  0.18743200  0.62237000  0.86079400  1
  H  H161  1  0.68743200  0.37763000  0.63920600  1
  H  H162  1  0.81256800  0.37763000  0.13920600  1
  H  H163  1  0.31256800  0.62237000  0.36079400  1
  C  C164  1  0.80855600  0.57430300  0.73159000  1
  C  C165  1  0.30855600  0.42569700  0.76841000  1
  C  C166  1  0.19144400  0.42569700  0.26841000  1
  C  C167  1  0.69144400  0.57430300  0.23159000  1
  C  C168  1  0.68867600  0.87213300  0.68325600  1
  C  C169  1  0.18867600  0.12786700  0.81674400  1
  C  C170  1  0.31132400  0.12786700  0.31674400  1
  C  C171  1  0.81132400  0.87213300  0.18325600  1
  C  C172  1  0.47146100  0.75241800  0.60473100  1
  C  C173  1  0.97146100  0.24758200  0.89526900  1
  C  C174  1  0.52853900  0.24758200  0.39526900  1
  C  C175  1  0.02853900  0.75241800  0.10473100  1
  C  C176  1  0.47622600  0.62204500  0.69530700  1
  C  C177  1  0.97622600  0.37795500  0.80469300  1
  C  C178  1  0.52377400  0.37795500  0.30469300  1
  C  C179  1  0.02377400  0.62204500  0.19530700  1
