# generated using pymatgen
data_H18RuC6S3N3ClO3
_symmetry_space_group_name_H-M   'P 1'
_cell_length_a   12.04808400
_cell_length_b   8.28275500
_cell_length_c   17.26462801
_cell_angle_alpha   61.59113009
_cell_angle_beta   90.00000000
_cell_angle_gamma   90.00000000
_symmetry_Int_Tables_number   1
_chemical_formula_structural   H18RuC6S3N3ClO3
_chemical_formula_sum   'H72 Ru4 C24 S12 N12 Cl4 O12'
_cell_volume   1515.38460412
_cell_formula_units_Z   4
loop_
 _symmetry_equiv_pos_site_id
 _symmetry_equiv_pos_as_xyz
  1  'x, y, z'
loop_
 _atom_site_type_symbol
 _atom_site_label
 _atom_site_symmetry_multiplicity
 _atom_site_fract_x
 _atom_site_fract_y
 _atom_site_fract_z
 _atom_site_occupancy
  H  H0  1  0.03111000  0.70645500  0.29280200  1
  H  H1  1  0.46889000  0.70645500  0.79280200  1
  H  H2  1  0.96889000  0.29354500  0.70719800  1
  H  H3  1  0.53111000  0.29354500  0.20719800  1
  H  H4  1  0.96935100  0.56754500  0.25019300  1
  H  H5  1  0.53064900  0.56754500  0.75019300  1
  H  H6  1  0.03064900  0.43245500  0.74980700  1
  H  H7  1  0.46935100  0.43245500  0.24980700  1
  H  H8  1  0.03743600  0.45794500  0.35498700  1
  H  H9  1  0.46256400  0.45794500  0.85498700  1
  H  H10  1  0.96256400  0.54205500  0.64501300  1
  H  H11  1  0.53743600  0.54205500  0.14501300  1
  H  H12  1  0.12847200  0.26042400  0.30324700  1
  H  H13  1  0.37152800  0.26042400  0.80324700  1
  H  H14  1  0.87152800  0.73957600  0.69675300  1
  H  H15  1  0.62847200  0.73957600  0.19675300  1
  H  H16  1  0.08419000  0.37815300  0.19049600  1
  H  H17  1  0.41581000  0.37815300  0.69049600  1
  H  H18  1  0.91581000  0.62184700  0.80950400  1
  H  H19  1  0.58419000  0.62184700  0.30950400  1
  H  H20  1  0.22973500  0.33288800  0.21487300  1
  H  H21  1  0.27026500  0.33288800  0.71487300  1
  H  H22  1  0.77026500  0.66711200  0.78512700  1
  H  H23  1  0.72973500  0.66711200  0.28512700  1
  H  H24  1  0.09973300  0.48860200  0.03140900  1
  H  H25  1  0.40026700  0.48860200  0.53140900  1
  H  H26  1  0.90026700  0.51139800  0.96859100  1
  H  H27  1  0.59973300  0.51139800  0.46859100  1
  H  H28  1  0.09319200  0.71534400  0.93902600  1
  H  H29  1  0.40680800  0.71534400  0.43902600  1
  H  H30  1  0.90680800  0.28465600  0.06097400  1
  H  H31  1  0.59319200  0.28465600  0.56097400  1
  H  H32  1  0.19147800  0.54984600  0.93892400  1
  H  H33  1  0.30852200  0.54984600  0.43892400  1
  H  H34  1  0.80852200  0.45015400  0.06107600  1
  H  H35  1  0.69147800  0.45015400  0.56107600  1
  H  H36  1  0.35638600  0.75346100  0.90148500  1
  H  H37  1  0.14361400  0.75346100  0.40148500  1
  H  H38  1  0.64361400  0.24653900  0.09851500  1
  H  H39  1  0.85638600  0.24653900  0.59851500  1
  H  H40  1  0.26778600  0.93980800  0.88966800  1
  H  H41  1  0.23221400  0.93980800  0.38966800  1
  H  H42  1  0.73221400  0.06019200  0.11033200  1
  H  H43  1  0.76778600  0.06019200  0.61033200  1
  H  H44  1  0.39382700  0.89153000  0.95295200  1
  H  H45  1  0.10617300  0.89153000  0.45295200  1
  H  H46  1  0.60617300  0.10847000  0.04704800  1
  H  H47  1  0.89382700  0.10847000  0.54704800  1
  H  H48  1  0.35223500  0.19088500  0.96798000  1
  H  H49  1  0.14776500  0.19088500  0.46798000  1
  H  H50  1  0.64776500  0.80911500  0.03202000  1
  H  H51  1  0.85223500  0.80911500  0.53202000  1
  H  H52  1  0.27663700  0.24908000  0.04132700  1
  H  H53  1  0.22336300  0.24908000  0.54132700  1
  H  H54  1  0.72336300  0.75092000  0.95867300  1
  H  H55  1  0.77663700  0.75092000  0.45867300  1
  H  H56  1  0.42559300  0.23359100  0.04736500  1
  H  H57  1  0.07440700  0.23359100  0.54736500  1
  H  H58  1  0.57440700  0.76640900  0.95263500  1
  H  H59  1  0.92559300  0.76640900  0.45263500  1
  H  H60  1  0.43282900  0.02567200  0.20886400  1
  H  H61  1  0.06717100  0.02567200  0.70886400  1
  H  H62  1  0.56717100  0.97432800  0.79113600  1
  H  H63  1  0.93282900  0.97432800  0.29113600  1
  H  H64  1  0.28301100  0.03648700  0.21601200  1
  H  H65  1  0.21698900  0.03648700  0.71601200  1
  H  H66  1  0.71698900  0.96351300  0.78398800  1
  H  H67  1  0.78301100  0.96351300  0.28398800  1
  H  H68  1  0.35281500  0.81786300  0.26741900  1
  H  H69  1  0.14718500  0.81786300  0.76741900  1
  H  H70  1  0.64718500  0.18213700  0.73258100  1
  H  H71  1  0.85281500  0.18213700  0.23258100  1
  Ru  Ru72  1  0.17095100  0.82963800  0.09765400  1
  Ru  Ru73  1  0.32904900  0.82963800  0.59765400  1
  Ru  Ru74  1  0.82904900  0.17036200  0.90234600  1
  Ru  Ru75  1  0.67095100  0.17036200  0.40234600  1
  C  C76  1  0.03753600  0.57804800  0.28956800  1
  C  C77  1  0.46246400  0.57804800  0.78956800  1
  C  C78  1  0.96246400  0.42195200  0.71043200  1
  C  C79  1  0.53753600  0.42195200  0.21043200  1
  C  C80  1  0.15095200  0.36416500  0.23642300  1
  C  C81  1  0.34904800  0.36416500  0.73642300  1
  C  C82  1  0.84904800  0.63583500  0.76357700  1
  C  C83  1  0.65095200  0.63583500  0.26357700  1
  C  C84  1  0.14782700  0.59930000  0.97932500  1
  C  C85  1  0.35217300  0.59930000  0.47932500  1
  C  C86  1  0.85217300  0.40070000  0.02067500  1
  C  C87  1  0.64782700  0.40070000  0.52067500  1
  C  C88  1  0.32532700  0.83229200  0.93300200  1
  C  C89  1  0.17467300  0.83229200  0.43300200  1
  C  C90  1  0.67467300  0.16770800  0.06699800  1
  C  C91  1  0.82532700  0.16770800  0.56699800  1
  C  C92  1  0.34958700  0.17914500  0.03380400  1
  C  C93  1  0.15041300  0.17914500  0.53380400  1
  C  C94  1  0.65041300  0.82085500  0.96619600  1
  C  C95  1  0.84958700  0.82085500  0.46619600  1
  C  C96  1  0.35373900  0.95752400  0.21210000  1
  C  C97  1  0.14626100  0.95752400  0.71210000  1
  C  C98  1  0.64626100  0.04247600  0.78790000  1
  C  C99  1  0.85373900  0.04247600  0.28790000  1
  S  S100  1  0.16736800  0.57989700  0.23727300  1
  S  S101  1  0.33263200  0.57989700  0.73727300  1
  S  S102  1  0.83263200  0.42010300  0.76272700  1
  S  S103  1  0.66736800  0.42010300  0.26272700  1
  S  S104  1  0.34061600  0.93917000  0.11265300  1
  S  S105  1  0.15938400  0.93917000  0.61265300  1
  S  S106  1  0.65938400  0.06083000  0.88734700  1
  S  S107  1  0.84061600  0.06083000  0.38734700  1
  S  S108  1  0.25095800  0.67474800  0.03108200  1
  S  S109  1  0.24904200  0.67474800  0.53108200  1
  S  S110  1  0.74904200  0.32525200  0.96891800  1
  S  S111  1  0.75095800  0.32525200  0.46891800  1
  N  N112  1  0.15006700  0.05993400  0.96684100  1
  N  N113  1  0.34993300  0.05993400  0.46684100  1
  N  N114  1  0.84993300  0.94006600  0.03315900  1
  N  N115  1  0.65006700  0.94006600  0.53315900  1
  N  N116  1  0.07005300  0.15506400  0.94521900  1
  N  N117  1  0.42994700  0.15506400  0.44521900  1
  N  N118  1  0.92994700  0.84493600  0.05478100  1
  N  N119  1  0.57005300  0.84493600  0.55478100  1
  N  N120  1  0.99296900  0.25590600  0.92121700  1
  N  N121  1  0.50703100  0.25590600  0.42121700  1
  N  N122  1  0.00703100  0.74409400  0.07878300  1
  N  N123  1  0.49296900  0.74409400  0.57878300  1
  Cl  Cl124  1  0.08180000  0.02397900  0.15162100  1
  Cl  Cl125  1  0.41820000  0.02397900  0.65162100  1
  Cl  Cl126  1  0.91820000  0.97602100  0.84837900  1
  Cl  Cl127  1  0.58180000  0.97602100  0.34837900  1
  O  O128  1  0.25802800  0.55491000  0.30087000  1
  O  O129  1  0.24197200  0.55491000  0.80087000  1
  O  O130  1  0.74197200  0.44509000  0.69913000  1
  O  O131  1  0.75802800  0.44509000  0.19913000  1
  O  O132  1  0.32592300  0.51658100  0.08249500  1
  O  O133  1  0.17407700  0.51658100  0.58249500  1
  O  O134  1  0.67407700  0.48341900  0.91750500  1
  O  O135  1  0.82592300  0.48341900  0.41750500  1
  O  O136  1  0.44369400  0.84950900  0.10415300  1
  O  O137  1  0.05630600  0.84950900  0.60415300  1
  O  O138  1  0.55630600  0.15049100  0.89584700  1
  O  O139  1  0.94369400  0.15049100  0.39584700  1
