# generated using pymatgen
data_Fe3Co(BiO3)4
_symmetry_space_group_name_H-M   'P 1'
_cell_length_a   5.65566300
_cell_length_b   5.71858053
_cell_length_c   9.68260393
_cell_angle_alpha   73.92136886
_cell_angle_beta   75.66948697
_cell_angle_gamma   62.41153903
_symmetry_Int_Tables_number   1
_chemical_formula_structural   Fe3Co(BiO3)4
_chemical_formula_sum   'Fe3 Co1 Bi4 O12'
_cell_volume   264.06652259
_cell_formula_units_Z   1
loop_
 _symmetry_equiv_pos_site_id
 _symmetry_equiv_pos_as_xyz
  1  'x, y, z'
loop_
 _atom_site_type_symbol
 _atom_site_label
 _atom_site_symmetry_multiplicity
 _atom_site_fract_x
 _atom_site_fract_y
 _atom_site_fract_z
 _atom_site_occupancy
  Fe  Fe0  1  0.89772600  0.81588100  0.35685700  1
  Fe  Fe1  1  0.15453700  0.06713600  0.60932400  1
  Fe  Fe2  1  0.43806800  0.30316600  0.85300600  1
  Co  Co3  1  0.66139400  0.53528700  0.11186800  1
  Bi  Bi4  1  0.00840500  0.01266100  0.98983800  1
  Bi  Bi5  1  0.19692200  0.27143000  0.25142100  1
  Bi  Bi6  1  0.47801400  0.54776700  0.48060000  1
  Bi  Bi7  1  0.72411500  0.74599000  0.75989900  1
  O  O8  1  0.27653700  0.63333700  0.22554300  1
  O  O9  1  0.12623500  0.33878600  0.99977900  1
  O  O10  1  0.04427000  0.41171600  0.47917800  1
  O  O11  1  0.81734700  0.15353100  0.21064100  1
  O  O12  1  0.78733400  0.61854200  0.25093500  1
  O  O13  1  0.07683800  0.89563400  0.47506200  1
  O  O14  1  0.82463900  0.10439900  0.74640300  1
  O  O15  1  0.54048100  0.90870600  0.47406000  1
  O  O16  1  0.63183700  0.85089500  0.97908800  1
  O  O17  1  0.35612700  0.63624600  0.71287900  1
  O  O18  1  0.33174200  0.10502300  0.75165800  1
  O  O19  1  0.62943100  0.39786600  0.95995900  1
