# generated using pymatgen
data_Mn3(P2O7)2
_symmetry_space_group_name_H-M   'P 1'
_cell_length_a   5.33529384
_cell_length_b   6.49564063
_cell_length_c   16.28408385
_cell_angle_alpha   81.32794819
_cell_angle_beta   80.30372793
_cell_angle_gamma   72.56517539
_symmetry_Int_Tables_number   1
_chemical_formula_structural   Mn3(P2O7)2
_chemical_formula_sum   'Mn6 P8 O28'
_cell_volume   527.69720429
_cell_formula_units_Z   2
loop_
 _symmetry_equiv_pos_site_id
 _symmetry_equiv_pos_as_xyz
  1  'x, y, z'
loop_
 _atom_site_type_symbol
 _atom_site_label
 _atom_site_symmetry_multiplicity
 _atom_site_fract_x
 _atom_site_fract_y
 _atom_site_fract_z
 _atom_site_occupancy
  Mn  Mn0  1  0.17170500  0.28742800  0.58552000  1
  Mn  Mn1  1  0.95015300  0.39229400  0.17295900  1
  Mn  Mn2  1  0.25547200  0.97516700  0.32080700  1
  Mn  Mn3  1  0.04984700  0.60770600  0.82704100  1
  Mn  Mn4  1  0.74452800  0.02483300  0.67919300  1
  Mn  Mn5  1  0.82829500  0.71257200  0.41448000  1
  P  P6  1  0.55259200  0.22897300  0.07806200  1
  P  P7  1  0.28175400  0.78135900  0.54194400  1
  P  P8  1  0.60640300  0.56483100  0.68478100  1
  P  P9  1  0.16745900  0.10015400  0.79096500  1
  P  P10  1  0.71824600  0.21864100  0.45805600  1
  P  P11  1  0.83254100  0.89984600  0.20903500  1
  P  P12  1  0.39359700  0.43516900  0.31521900  1
  P  P13  1  0.44740800  0.77102700  0.92193800  1
  O  O14  1  0.74981400  0.67321600  0.91035300  1
  O  O15  1  0.33111600  0.13639200  0.70407400  1
  O  O16  1  0.35231400  0.85943800  0.00610600  1
  O  O17  1  0.39539200  0.97100200  0.84684700  1
  O  O18  1  0.20573700  0.65967000  0.33530100  1
  O  O19  1  0.66888400  0.86360800  0.29592600  1
  O  O20  1  0.57785300  0.15723900  0.54442600  1
  O  O21  1  0.79426300  0.34033000  0.66469900  1
  O  O22  1  0.53014800  0.68305800  0.59440600  1
  O  O23  1  0.99101500  0.95334500  0.78478300  1
  O  O24  1  0.01010300  0.31057300  0.82678400  1
  O  O25  1  0.76108700  0.69942800  0.71319900  1
  O  O26  1  0.98989700  0.68942700  0.17321600  1
  O  O27  1  0.35445300  0.54589900  0.73925200  1
  O  O28  1  0.09731500  0.97942300  0.58405600  1
  O  O29  1  0.42214700  0.84276100  0.45557400  1
  O  O30  1  0.29796300  0.61547200  0.90790000  1
  O  O31  1  0.00898500  0.04665500  0.21521700  1
  O  O32  1  0.90268500  0.02057700  0.41594400  1
  O  O33  1  0.23891300  0.30057200  0.28680100  1
  O  O34  1  0.86232900  0.38866800  0.45864100  1
  O  O35  1  0.70203700  0.38452800  0.09210000  1
  O  O36  1  0.13767100  0.61133200  0.54135900  1
  O  O37  1  0.64554800  0.45410100  0.26074800  1
  O  O38  1  0.46985200  0.31694200  0.40559400  1
  O  O39  1  0.64768600  0.14056200  0.99389400  1
  O  O40  1  0.25018600  0.32678400  0.08964700  1
  O  O41  1  0.60460800  0.02899800  0.15315300  1
