# generated using pymatgen
data_NaSr9Fe5(MoO6)5
_symmetry_space_group_name_H-M   'P 1'
_cell_length_a   20.57466765
_cell_length_b   20.57466765
_cell_length_c   5.63027624
_cell_angle_alpha   82.13227003
_cell_angle_beta   82.13227003
_cell_angle_gamma   157.67394828
_symmetry_Int_Tables_number   1
_chemical_formula_structural   NaSr9Fe5(MoO6)5
_chemical_formula_sum   'Na1 Sr9 Fe5 Mo5 O30'
_cell_volume   640.25836319
_cell_formula_units_Z   1
loop_
 _symmetry_equiv_pos_site_id
 _symmetry_equiv_pos_as_xyz
  1  'x, y, z'
loop_
 _atom_site_type_symbol
 _atom_site_label
 _atom_site_symmetry_multiplicity
 _atom_site_fract_x
 _atom_site_fract_y
 _atom_site_fract_z
 _atom_site_occupancy
  Na  Na0  1  0.44923300  0.55076700  0.00000000  1
  Sr  Sr1  1  0.94848500  0.05151500  0.00000000  1
  Sr  Sr2  1  0.35131800  0.64868200  0.00000000  1
  Sr  Sr3  1  0.75037500  0.24962500  0.00000000  1
  Sr  Sr4  1  0.85054600  0.14945400  0.00000000  1
  Sr  Sr5  1  0.15008800  0.84991200  0.00000000  1
  Sr  Sr6  1  0.25042500  0.74957500  0.00000000  1
  Sr  Sr7  1  0.54954600  0.45045400  0.00000000  1
  Sr  Sr8  1  0.65002000  0.34998000  0.00000000  1
  Sr  Sr9  1  0.04963700  0.95036300  0.00000000  1
  Fe  Fe10  1  0.40243300  0.59756700  0.50000000  1
  Fe  Fe11  1  0.49909500  0.50090500  0.50000000  1
  Fe  Fe12  1  0.79973400  0.20026600  0.50000000  1
  Fe  Fe13  1  0.20066200  0.79933800  0.50000000  1
  Fe  Fe14  1  0.59836000  0.40164000  0.50000000  1
  Mo  Mo15  1  0.89902900  0.10097100  0.50000000  1
  Mo  Mo16  1  0.30078800  0.69921200  0.50000000  1
  Mo  Mo17  1  0.69952800  0.30047200  0.50000000  1
  Mo  Mo18  1  0.99887500  0.00112500  0.50000000  1
  Mo  Mo19  1  0.10065100  0.89934900  0.50000000  1
  O  O20  1  0.45110600  0.54889400  0.50000000  1
  O  O21  1  0.11877800  0.32018000  0.99650900  1
  O  O22  1  0.63614800  0.83455500  0.55073600  1
  O  O23  1  0.84995600  0.15004400  0.50000000  1
  O  O24  1  0.95149900  0.04850100  0.50000000  1
  O  O25  1  0.16544500  0.36385200  0.44926400  1
  O  O26  1  0.51320700  0.91312500  0.01572300  1
  O  O27  1  0.67982000  0.88122200  0.00349100  1
  O  O28  1  0.01753600  0.41723700  0.56044800  1
  O  O29  1  0.24994600  0.75005400  0.50000000  1
  O  O30  1  0.35058600  0.64941400  0.50000000  1
  O  O31  1  0.58276300  0.98246400  0.43955200  1
  O  O32  1  0.92186900  0.52261200  0.99536400  1
  O  O33  1  0.08687500  0.48679300  0.98427700  1
  O  O34  1  0.42848100  0.02902100  0.55844800  1
  O  O35  1  0.64937000  0.35063000  0.50000000  1
  O  O36  1  0.74997900  0.25002100  0.50000000  1
  O  O37  1  0.97097900  0.57151900  0.44155200  1
  O  O38  1  0.31200800  0.11353800  0.01818100  1
  O  O39  1  0.47738800  0.07813100  0.00463600  1
  O  O40  1  0.81783000  0.61805400  0.56189500  1
  O  O41  1  0.04894000  0.95106000  0.50000000  1
  O  O42  1  0.14994900  0.85005100  0.50000000  1
  O  O43  1  0.38194600  0.18217000  0.43810500  1
  O  O44  1  0.73631000  0.73426400  0.98048400  1
  O  O45  1  0.88646200  0.68799200  0.98181900  1
  O  O46  1  0.21251500  0.21140700  0.55862600  1
  O  O47  1  0.54912000  0.45088000  0.50000000  1
  O  O48  1  0.78859300  0.78748500  0.44137400  1
  O  O49  1  0.26573600  0.26369000  0.01951600  1
