# generated using pymatgen
data_NaB2H5O6
_symmetry_space_group_name_H-M   'P 1'
_cell_length_a   9.67183210
_cell_length_b   9.67183210
_cell_length_c   9.67183244
_cell_angle_alpha   71.39745356
_cell_angle_beta   71.39745356
_cell_angle_gamma   71.39745237
_symmetry_Int_Tables_number   1
_chemical_formula_structural   NaB2H5O6
_chemical_formula_sum   'Na6 B12 H30 O36'
_cell_volume   788.55099953
_cell_formula_units_Z   6
loop_
 _symmetry_equiv_pos_site_id
 _symmetry_equiv_pos_as_xyz
  1  'x, y, z'
loop_
 _atom_site_type_symbol
 _atom_site_label
 _atom_site_symmetry_multiplicity
 _atom_site_fract_x
 _atom_site_fract_y
 _atom_site_fract_z
 _atom_site_occupancy
  Na  Na0  1  0.17458700  0.50000000  0.82541300  1
  Na  Na1  1  0.50000000  0.82541300  0.17458700  1
  Na  Na2  1  0.82541300  0.17458700  0.50000000  1
  Na  Na3  1  0.50000000  0.50000000  0.50000000  1
  Na  Na4  1  0.91472000  0.91472000  0.91472000  1
  Na  Na5  1  0.08528000  0.08528000  0.08528000  1
  B  B6  1  0.88388000  0.52435100  0.44729800  1
  B  B7  1  0.52435100  0.44729800  0.88388000  1
  B  B8  1  0.44729800  0.88388000  0.52435100  1
  B  B9  1  0.11612000  0.55270200  0.47564900  1
  B  B10  1  0.47564900  0.11612000  0.55270200  1
  B  B11  1  0.55270200  0.47564900  0.11612000  1
  B  B12  1  0.76981600  0.46962300  0.89343800  1
  B  B13  1  0.46962300  0.89343800  0.76981600  1
  B  B14  1  0.89343800  0.76981600  0.46962300  1
  B  B15  1  0.23018400  0.10656200  0.53037700  1
  B  B16  1  0.53037700  0.23018400  0.10656200  1
  B  B17  1  0.10656200  0.53037700  0.23018400  1
  H  H18  1  0.73598300  0.43594400  0.61741300  1
  H  H19  1  0.43594400  0.61741300  0.73598300  1
  H  H20  1  0.61741300  0.73598300  0.43594400  1
  H  H21  1  0.26401700  0.38258700  0.56405600  1
  H  H22  1  0.56405600  0.26401700  0.38258700  1
  H  H23  1  0.38258700  0.56405600  0.26401700  1
  H  H24  1  0.94269700  0.47390800  0.71453100  1
  H  H25  1  0.47390800  0.71453100  0.94269700  1
  H  H26  1  0.71453100  0.94269700  0.47390800  1
  H  H27  1  0.05730300  0.28546900  0.52609200  1
  H  H28  1  0.52609200  0.05730300  0.28546900  1
  H  H29  1  0.28546900  0.52609200  0.05730300  1
  H  H30  1  0.05819200  0.76213600  0.64188400  1
  H  H31  1  0.76213600  0.64188400  0.05819200  1
  H  H32  1  0.64188400  0.05819200  0.76213600  1
  H  H33  1  0.94180800  0.35811600  0.23786400  1
  H  H34  1  0.23786400  0.94180800  0.35811600  1
  H  H35  1  0.35811600  0.23786400  0.94180800  1
  H  H36  1  0.16515700  0.83330700  0.66848200  1
  H  H37  1  0.83330700  0.66848200  0.16515700  1
  H  H38  1  0.66848200  0.16515700  0.83330700  1
  H  H39  1  0.83484300  0.33151800  0.16669300  1
  H  H40  1  0.16669300  0.83484300  0.33151800  1
  H  H41  1  0.33151800  0.16669300  0.83484300  1
  H  H42  1  0.84686600  0.97175500  0.25882200  1
  H  H43  1  0.97175500  0.25882200  0.84686600  1
  H  H44  1  0.25882200  0.84686600  0.97175500  1
  H  H45  1  0.15313400  0.74117800  0.02824500  1
  H  H46  1  0.02824500  0.15313400  0.74117800  1
  H  H47  1  0.74117800  0.02824500  0.15313400  1
  O  O48  1  0.53512800  0.00000000  0.46487200  1
  O  O49  1  0.00000000  0.46487200  0.53512800  1
  O  O50  1  0.46487200  0.53512800  0.00000000  1
  O  O51  1  0.04003600  0.71358500  0.48494000  1
  O  O52  1  0.71358500  0.48494000  0.04003600  1
  O  O53  1  0.48494000  0.04003600  0.71358500  1
  O  O54  1  0.95996400  0.51506000  0.28641500  1
  O  O55  1  0.28641500  0.95996400  0.51506000  1
  O  O56  1  0.51506000  0.28641500  0.95996400  1
  O  O57  1  0.68584100  0.44810200  0.81539600  1
  O  O58  1  0.44810200  0.81539600  0.68584100  1
  O  O59  1  0.81539600  0.68584100  0.44810200  1
  O  O60  1  0.31415900  0.18460400  0.55189800  1
  O  O61  1  0.55189800  0.31415900  0.18460400  1
  O  O62  1  0.18460400  0.55189800  0.31415900  1
  O  O63  1  0.76928200  0.43917100  0.50853400  1
  O  O64  1  0.43917100  0.50853400  0.76928200  1
  O  O65  1  0.50853400  0.76928200  0.43917100  1
  O  O66  1  0.23071800  0.49146600  0.56082900  1
  O  O67  1  0.56082900  0.23071800  0.49146600  1
  O  O68  1  0.49146600  0.56082900  0.23071800  1
  O  O69  1  0.91939700  0.47226200  0.82484000  1
  O  O70  1  0.47226200  0.82484000  0.91939700  1
  O  O71  1  0.82484000  0.91939700  0.47226200  1
  O  O72  1  0.08060300  0.17516000  0.52773800  1
  O  O73  1  0.52773800  0.08060300  0.17516000  1
  O  O74  1  0.17516000  0.52773800  0.08060300  1
  O  O75  1  0.08621900  0.77832200  0.72464700  1
  O  O76  1  0.77832200  0.72464700  0.08621900  1
  O  O77  1  0.72464700  0.08621900  0.77832200  1
  O  O78  1  0.91378100  0.27535300  0.22167800  1
  O  O79  1  0.22167800  0.91378100  0.27535300  1
  O  O80  1  0.27535300  0.22167800  0.91378100  1
  O  O81  1  0.84854100  0.00000000  0.15145900  1
  O  O82  1  0.00000000  0.15145900  0.84854100  1
  O  O83  1  0.15145900  0.84854100  0.00000000  1
