# generated using pymatgen
data_RbSi2Mo3P6O25
_symmetry_space_group_name_H-M   'P 1'
_cell_length_a   9.21373289
_cell_length_b   9.21373289
_cell_length_c   13.12597400
_cell_angle_alpha   90.00000000
_cell_angle_beta   90.00000000
_cell_angle_gamma   120.00000637
_symmetry_Int_Tables_number   1
_chemical_formula_structural   RbSi2Mo3P6O25
_chemical_formula_sum   'Rb2 Si4 Mo6 P12 O50'
_cell_volume   965.01347718
_cell_formula_units_Z   2
loop_
 _symmetry_equiv_pos_site_id
 _symmetry_equiv_pos_as_xyz
  1  'x, y, z'
loop_
 _atom_site_type_symbol
 _atom_site_label
 _atom_site_symmetry_multiplicity
 _atom_site_fract_x
 _atom_site_fract_y
 _atom_site_fract_z
 _atom_site_occupancy
  Rb  Rb0  1  0.66666700  0.33333300  0.75000000  1
  Rb  Rb1  1  0.33333300  0.66666700  0.25000000  1
  Si  Si2  1  0.00000000  0.00000000  0.86636800  1
  Si  Si3  1  0.00000000  0.00000000  0.63363200  1
  Si  Si4  1  0.00000000  0.00000000  0.36636800  1
  Si  Si5  1  0.00000000  0.00000000  0.13363200  1
  Mo  Mo6  1  0.66666700  0.33333300  0.25000000  1
  Mo  Mo7  1  0.66666700  0.33333300  0.49243700  1
  Mo  Mo8  1  0.66666700  0.33333300  0.00756300  1
  Mo  Mo9  1  0.33333300  0.66666700  0.99243700  1
  Mo  Mo10  1  0.33333300  0.66666700  0.50756300  1
  Mo  Mo11  1  0.33333300  0.66666700  0.75000000  1
  P  P12  1  0.93536100  0.55971100  0.10340200  1
  P  P13  1  0.44028900  0.06463900  0.39659800  1
  P  P14  1  0.93536100  0.37565000  0.39659800  1
  P  P15  1  0.44028900  0.37565000  0.10340200  1
  P  P16  1  0.62435000  0.06463900  0.10340200  1
  P  P17  1  0.37565000  0.44028900  0.60340200  1
  P  P18  1  0.62435000  0.55971100  0.39659800  1
  P  P19  1  0.37565000  0.93536100  0.89659800  1
  P  P20  1  0.55971100  0.62435000  0.89659800  1
  P  P21  1  0.06463900  0.62435000  0.60340200  1
  P  P22  1  0.55971100  0.93536100  0.60340200  1
  P  P23  1  0.06463900  0.44028900  0.89659800  1
  O  O24  1  0.59041800  0.11166900  0.58602300  1
  O  O25  1  0.47874900  0.88833100  0.08602300  1
  O  O26  1  0.61695900  0.77017700  0.96995800  1
  O  O27  1  0.84678100  0.22982300  0.46995800  1
  O  O28  1  0.66723700  0.56542700  0.28574100  1
  O  O29  1  0.10181000  0.43457300  0.78574100  1
  O  O30  1  0.88833100  0.40958200  0.91397700  1
  O  O31  1  0.47874900  0.59041800  0.41397700  1
  O  O32  1  0.66723700  0.10181000  0.21425900  1
  O  O33  1  0.56542700  0.89819000  0.71425900  1
  O  O34  1  0.22982300  0.38304100  0.53004200  1
  O  O35  1  0.84678100  0.61695900  0.03004200  1
  O  O36  1  0.80852900  0.88898300  0.19245300  1
  O  O37  1  0.91954600  0.11101700  0.69245300  1
  O  O38  1  0.11166900  0.52125100  0.41397700  1
  O  O39  1  0.59041800  0.47874900  0.91397700  1
  O  O40  1  0.88898300  0.08045400  0.80754700  1
  O  O41  1  0.80852900  0.91954600  0.30754700  1
  O  O42  1  0.77017700  0.15321900  0.03004200  1
  O  O43  1  0.61695900  0.84678100  0.53004200  1
  O  O44  1  0.11101700  0.19147100  0.30754700  1
  O  O45  1  0.91954600  0.80852900  0.80754700  1
  O  O46  1  0.43457300  0.33276300  0.21425900  1
  O  O47  1  0.10181000  0.66723700  0.71425900  1
  O  O48  1  0.00000000  0.00000000  0.00000000  1
  O  O49  1  0.00000000  0.00000000  0.50000000  1
  O  O50  1  0.89819000  0.33276300  0.28574100  1
  O  O51  1  0.56542700  0.66723700  0.78574100  1
  O  O52  1  0.08045400  0.19147100  0.19245300  1
  O  O53  1  0.88898300  0.80852900  0.69245300  1
  O  O54  1  0.38304100  0.15321900  0.46995800  1
  O  O55  1  0.22982300  0.84678100  0.96995800  1
  O  O56  1  0.19147100  0.08045400  0.69245300  1
  O  O57  1  0.11101700  0.91954600  0.19245300  1
  O  O58  1  0.40958200  0.52125100  0.08602300  1
  O  O59  1  0.88833100  0.47874900  0.58602300  1
  O  O60  1  0.08045400  0.88898300  0.30754700  1
  O  O61  1  0.19147100  0.11101700  0.80754700  1
  O  O62  1  0.15321900  0.38304100  0.96995800  1
  O  O63  1  0.77017700  0.61695900  0.46995800  1
  O  O64  1  0.43457300  0.10181000  0.28574100  1
  O  O65  1  0.33276300  0.89819000  0.78574100  1
  O  O66  1  0.52125100  0.40958200  0.58602300  1
  O  O67  1  0.11166900  0.59041800  0.08602300  1
  O  O68  1  0.89819000  0.56542700  0.21425900  1
  O  O69  1  0.33276300  0.43457300  0.71425900  1
  O  O70  1  0.15321900  0.77017700  0.53004200  1
  O  O71  1  0.38304100  0.22982300  0.03004200  1
  O  O72  1  0.52125100  0.11166900  0.91397700  1
  O  O73  1  0.40958200  0.88833100  0.41397700  1
