# generated using pymatgen
data_Fe4Sn(CO)16
_symmetry_space_group_name_H-M   'P 1'
_cell_length_a   19.34370600
_cell_length_b   10.99276700
_cell_length_c   16.07763355
_cell_angle_alpha   47.93678256
_cell_angle_beta   90.00000000
_cell_angle_gamma   90.00000000
_symmetry_Int_Tables_number   1
_chemical_formula_structural   Fe4Sn(CO)16
_chemical_formula_sum   'Fe16 Sn4 C64 O64'
_cell_volume   2538.10950234
_cell_formula_units_Z   4
loop_
 _symmetry_equiv_pos_site_id
 _symmetry_equiv_pos_as_xyz
  1  'x, y, z'
loop_
 _atom_site_type_symbol
 _atom_site_label
 _atom_site_symmetry_multiplicity
 _atom_site_fract_x
 _atom_site_fract_y
 _atom_site_fract_z
 _atom_site_occupancy
  Fe  Fe0  1  0.84688300  0.91081300  0.63832000  1
  Fe  Fe1  1  0.60276200  0.23250800  0.23259100  1
  Fe  Fe2  1  0.34688300  0.08918700  0.86168000  1
  Fe  Fe3  1  0.15311700  0.08918700  0.36168000  1
  Fe  Fe4  1  0.02241800  0.05535700  0.77023000  1
  Fe  Fe5  1  0.97758200  0.94464300  0.22977000  1
  Fe  Fe6  1  0.16314700  0.30496500  0.11711600  1
  Fe  Fe7  1  0.83685300  0.69503500  0.88288400  1
  Fe  Fe8  1  0.89723800  0.23250800  0.73259100  1
  Fe  Fe9  1  0.39723800  0.76749200  0.76740900  1
  Fe  Fe10  1  0.33685300  0.30496500  0.61711600  1
  Fe  Fe11  1  0.52241800  0.94464300  0.72977000  1
  Fe  Fe12  1  0.65311700  0.91081300  0.13832000  1
  Fe  Fe13  1  0.47758200  0.05535700  0.27023000  1
  Fe  Fe14  1  0.10276200  0.76749200  0.26740900  1
  Fe  Fe15  1  0.66314700  0.69503500  0.38288400  1
  Sn  Sn16  1  0.10058400  0.02107600  0.24870200  1
  Sn  Sn17  1  0.89941600  0.97892400  0.75129800  1
  Sn  Sn18  1  0.39941600  0.02107600  0.74870200  1
  Sn  Sn19  1  0.60058400  0.97892400  0.25129800  1
  C  C20  1  0.03264000  0.16254400  0.62362800  1
  C  C21  1  0.93658600  0.86162400  0.64005800  1
  C  C22  1  0.23529300  0.19070100  0.12804700  1
  C  C23  1  0.94014800  0.37529400  0.73577400  1
  C  C24  1  0.76470700  0.80929900  0.87195300  1
  C  C25  1  0.30953300  0.70805400  0.79977400  1
  C  C26  1  0.14085900  0.37298300  0.98381100  1
  C  C27  1  0.41929400  0.18888600  0.26542700  1
  C  C28  1  0.08394800  0.39229600  0.11737200  1
  C  C29  1  0.12518400  0.91321400  0.12024600  1
  C  C30  1  0.49767600  0.92953400  0.41689000  1
  C  C31  1  0.42875100  0.89039600  0.30452100  1
  C  C32  1  0.35204100  0.91534500  0.00749400  1
  C  C33  1  0.99767600  0.07046600  0.08311000  1
  C  C34  1  0.37481600  0.91321400  0.62024600  1
  C  C35  1  0.19046700  0.70805400  0.29977400  1
  C  C36  1  0.56341400  0.86162400  0.14005800  1
  C  C37  1  0.73185900  0.99903300  0.13797400  1
  C  C38  1  0.58456500  0.35443200  0.08531900  1
  C  C39  1  0.46736000  0.16254400  0.12362800  1
  C  C40  1  0.07124900  0.89039600  0.80452100  1
  C  C41  1  0.80915400  0.75332500  0.64620100  1
  C  C42  1  0.64795900  0.08465500  0.99250600  1
  C  C43  1  0.08070600  0.18888600  0.76542700  1
  C  C44  1  0.69084600  0.75332500  0.14620100  1
  C  C45  1  0.69046700  0.29194600  0.20022600  1
  C  C46  1  0.53264000  0.83745600  0.87637200  1
  C  C47  1  0.62518400  0.08678600  0.37975400  1
  C  C48  1  0.28320300  0.45895800  0.59420200  1
  C  C49  1  0.91929400  0.81111400  0.23457300  1
  C  C50  1  0.00232400  0.92953400  0.91689000  1
  C  C51  1  0.76814100  0.99903300  0.63797400  1
  C  C52  1  0.30915400  0.24667500  0.85379900  1
  C  C53  1  0.91605200  0.60770400  0.88262800  1
  C  C54  1  0.08456500  0.64556800  0.41468100  1
  C  C55  1  0.23185900  0.00096700  0.36202600  1
  C  C56  1  0.43658600  0.13837600  0.85994200  1
  C  C57  1  0.14795900  0.91534500  0.50749400  1
  C  C58  1  0.78320300  0.54104200  0.90579800  1
  C  C59  1  0.19084600  0.24667500  0.35379900  1
  C  C60  1  0.96736000  0.83745600  0.37637200  1
  C  C61  1  0.44014800  0.62470600  0.76422600  1
  C  C62  1  0.05985200  0.62470600  0.26422600  1
  C  C63  1  0.50232400  0.07046600  0.58311000  1
  C  C64  1  0.35914100  0.37298300  0.48381100  1
  C  C65  1  0.55985200  0.37529400  0.23577400  1
  C  C66  1  0.41543500  0.64556800  0.91468100  1
  C  C67  1  0.26470700  0.19070100  0.62804700  1
  C  C68  1  0.21679700  0.45895800  0.09420200  1
  C  C69  1  0.87481600  0.08678600  0.87975400  1
  C  C70  1  0.41605200  0.39229600  0.61737200  1
  C  C71  1  0.85914100  0.62701700  0.01618900  1
  C  C72  1  0.06341400  0.13837600  0.35994200  1
  C  C73  1  0.58394800  0.60770400  0.38262800  1
  C  C74  1  0.91543500  0.35443200  0.58531900  1
  C  C75  1  0.26814100  0.00096700  0.86202600  1
  C  C76  1  0.80953300  0.29194600  0.70022600  1
  C  C77  1  0.64085900  0.62701700  0.51618900  1
  C  C78  1  0.58070600  0.81111400  0.73457300  1
  C  C79  1  0.71679700  0.54104200  0.40579800  1
  C  C80  1  0.73529300  0.80929900  0.37195300  1
  C  C81  1  0.85204100  0.08465500  0.49250600  1
  C  C82  1  0.57124900  0.10960400  0.69547900  1
  C  C83  1  0.92875100  0.10960400  0.19547900  1
  O  O84  1  0.42351300  0.55839100  0.01083800  1
  O  O85  1  0.57648700  0.44160900  0.98916200  1
  O  O86  1  0.87269900  0.57991100  0.10384700  1
  O  O87  1  0.12036600  0.27036500  0.76272600  1
  O  O88  1  0.25261000  0.66454800  0.82342100  1
  O  O89  1  0.28623300  0.34694900  0.85091900  1
  O  O90  1  0.45432900  0.22242700  0.03260900  1
  O  O91  1  0.53524400  0.47122700  0.23573300  1
  O  O92  1  0.95432900  0.77757300  0.46739100  1
  O  O93  1  0.96475600  0.47122700  0.73573300  1
  O  O94  1  0.24739000  0.66454800  0.32342100  1
  O  O95  1  0.24881300  0.55857800  0.57946200  1
  O  O96  1  0.03524400  0.52877300  0.26426700  1
  O  O97  1  0.25118700  0.55857800  0.07946200  1
  O  O98  1  0.21712700  0.12595900  0.62802900  1
  O  O99  1  0.46475600  0.52877300  0.76426700  1
  O  O100  1  0.64684000  0.19855300  0.89752700  1
  O  O101  1  0.50624300  0.83585200  0.13426300  1
  O  O102  1  0.53309300  0.54381000  0.39145800  1
  O  O103  1  0.75118700  0.44142200  0.42053800  1
  O  O104  1  0.35316000  0.80144700  0.10247300  1
  O  O105  1  0.00624300  0.16414800  0.36573700  1
  O  O106  1  0.28287300  0.12595900  0.12802900  1
  O  O107  1  0.96690700  0.54381000  0.89145800  1
  O  O108  1  0.14684000  0.80144700  0.60247300  1
  O  O109  1  0.64539600  0.00284800  0.47119500  1
  O  O110  1  0.04567100  0.22242700  0.53260900  1
  O  O111  1  0.12730100  0.42008900  0.89615300  1
  O  O112  1  0.21709600  0.93532200  0.87382900  1
  O  O113  1  0.89687600  0.21931000  0.17031300  1
  O  O114  1  0.50584600  0.84208400  0.51304600  1
  O  O115  1  0.00584600  0.15791600  0.98695400  1
  O  O116  1  0.37963400  0.27036500  0.26272600  1
  O  O117  1  0.71709600  0.06467800  0.62617100  1
  O  O118  1  0.35460400  0.99715200  0.52880500  1
  O  O119  1  0.78623300  0.65305100  0.64908100  1
  O  O120  1  0.87963400  0.72963500  0.23727400  1
  O  O121  1  0.21376700  0.34694900  0.35091900  1
  O  O122  1  0.03309300  0.45619000  0.10854200  1
  O  O123  1  0.54567100  0.77757300  0.96739100  1
  O  O124  1  0.60312400  0.21931000  0.67031300  1
  O  O125  1  0.99415400  0.84208400  0.01304600  1
  O  O126  1  0.62730100  0.57991100  0.60384700  1
  O  O127  1  0.85316000  0.19855300  0.39752700  1
  O  O128  1  0.46690700  0.45619000  0.60854200  1
  O  O129  1  0.28290400  0.93532200  0.37382900  1
  O  O130  1  0.74739000  0.33545200  0.17657900  1
  O  O131  1  0.49415400  0.15791600  0.48695400  1
  O  O132  1  0.78290400  0.06467800  0.12617100  1
  O  O133  1  0.10312400  0.78069000  0.82968700  1
  O  O134  1  0.49375700  0.16414800  0.86573700  1
  O  O135  1  0.78287300  0.87404100  0.37197100  1
  O  O136  1  0.85460400  0.00284800  0.97119500  1
  O  O137  1  0.62036600  0.72963500  0.73727400  1
  O  O138  1  0.75261000  0.33545200  0.67657900  1
  O  O139  1  0.92351300  0.44160900  0.48916200  1
  O  O140  1  0.39687600  0.78069000  0.32968700  1
  O  O141  1  0.07648700  0.55839100  0.51083800  1
  O  O142  1  0.74881300  0.44142200  0.92053800  1
  O  O143  1  0.99375700  0.83585200  0.63426300  1
  O  O144  1  0.71376700  0.65305100  0.14908100  1
  O  O145  1  0.14539600  0.99715200  0.02880500  1
  O  O146  1  0.37269900  0.42008900  0.39615300  1
  O  O147  1  0.71712700  0.87404100  0.87197100  1
