# generated using pymatgen
data_CdP2(HO2)4
_symmetry_space_group_name_H-M   'P 1'
_cell_length_a   11.66178599
_cell_length_b   11.66178599
_cell_length_c   11.66178585
_cell_angle_alpha   89.40689488
_cell_angle_beta   89.40689488
_cell_angle_gamma   89.40689171
_symmetry_Int_Tables_number   1
_chemical_formula_structural   CdP2(HO2)4
_chemical_formula_sum   'Cd6 P12 H24 O48'
_cell_volume   1585.71766171
_cell_formula_units_Z   6
loop_
 _symmetry_equiv_pos_site_id
 _symmetry_equiv_pos_as_xyz
  1  'x, y, z'
loop_
 _atom_site_type_symbol
 _atom_site_label
 _atom_site_symmetry_multiplicity
 _atom_site_fract_x
 _atom_site_fract_y
 _atom_site_fract_z
 _atom_site_occupancy
  Cd  Cd0  1  0.63274100  0.39323400  0.85422400  1
  Cd  Cd1  1  0.85422400  0.63274100  0.39323400  1
  Cd  Cd2  1  0.39323400  0.85422400  0.63274100  1
  Cd  Cd3  1  0.36725900  0.60676600  0.14577600  1
  Cd  Cd4  1  0.14577600  0.36725900  0.60676600  1
  Cd  Cd5  1  0.60676600  0.14577600  0.36725900  1
  P  P6  1  0.36620600  0.01762300  0.27874000  1
  P  P7  1  0.27874000  0.36620600  0.01762300  1
  P  P8  1  0.01762300  0.27874000  0.36620600  1
  P  P9  1  0.63379400  0.98237700  0.72126000  1
  P  P10  1  0.72126000  0.63379400  0.98237700  1
  P  P11  1  0.98237700  0.72126000  0.63379400  1
  P  P12  1  0.20785300  0.12392600  0.45852700  1
  P  P13  1  0.45852700  0.20785300  0.12392600  1
  P  P14  1  0.12392600  0.45852700  0.20785300  1
  P  P15  1  0.79214700  0.87607400  0.54147300  1
  P  P16  1  0.54147300  0.79214700  0.87607400  1
  P  P17  1  0.87607400  0.54147300  0.79214700  1
  H  H18  1  0.78037400  0.31299700  0.55931600  1
  H  H19  1  0.55931600  0.78037400  0.31299700  1
  H  H20  1  0.31299700  0.55931600  0.78037400  1
  H  H21  1  0.21962600  0.68700300  0.44068400  1
  H  H22  1  0.44068400  0.21962600  0.68700300  1
  H  H23  1  0.68700300  0.44068400  0.21962600  1
  H  H24  1  0.66308000  0.42597000  0.27799400  1
  H  H25  1  0.27799400  0.66308000  0.42597000  1
  H  H26  1  0.42597000  0.27799400  0.66308000  1
  H  H27  1  0.33692000  0.57403000  0.72200600  1
  H  H28  1  0.72200600  0.33692000  0.57403000  1
  H  H29  1  0.57403000  0.72200600  0.33692000  1
  H  H30  1  0.51736900  0.22748200  0.94470200  1
  H  H31  1  0.94470200  0.51736900  0.22748200  1
  H  H32  1  0.22748200  0.94470200  0.51736900  1
  H  H33  1  0.48263100  0.77251800  0.05529800  1
  H  H34  1  0.05529800  0.48263100  0.77251800  1
  H  H35  1  0.77251800  0.05529800  0.48263100  1
  H  H36  1  0.87845100  0.92388900  0.21671800  1
  H  H37  1  0.21671800  0.87845100  0.92388900  1
  H  H38  1  0.92388900  0.21671800  0.87845100  1
  H  H39  1  0.12154900  0.07611100  0.78328200  1
  H  H40  1  0.78328300  0.12154900  0.07611100  1
  H  H41  1  0.07611100  0.78328200  0.12154900  1
  O  O42  1  0.87436200  0.28559000  0.35507800  1
  O  O43  1  0.35507800  0.87436200  0.28559000  1
  O  O44  1  0.28559000  0.35507800  0.87436200  1
  O  O45  1  0.12563800  0.71441000  0.64492200  1
  O  O46  1  0.64492200  0.12563800  0.71441000  1
  O  O47  1  0.71441000  0.64492200  0.12563800  1
  O  O48  1  0.99338100  0.68037800  0.50906800  1
  O  O49  1  0.50906800  0.99338100  0.68037800  1
  O  O50  1  0.68037800  0.50906800  0.99338100  1
  O  O51  1  0.00661900  0.31962200  0.49093200  1
  O  O52  1  0.49093200  0.00661900  0.31962200  1
  O  O53  1  0.31962200  0.49093200  0.00661900  1
  O  O54  1  0.20301400  0.55293900  0.23738700  1
  O  O55  1  0.23738700  0.20301400  0.55293900  1
  O  O56  1  0.55293900  0.23738700  0.20301400  1
  O  O57  1  0.79698600  0.44706100  0.76261300  1
  O  O58  1  0.76261300  0.79698600  0.44706100  1
  O  O59  1  0.44706100  0.76261300  0.79698600  1
  O  O60  1  0.00039000  0.49477800  0.16608100  1
  O  O61  1  0.16608100  0.00039000  0.49477800  1
  O  O62  1  0.49477800  0.16608100  0.00039000  1
  O  O63  1  0.99961000  0.50522200  0.83391900  1
  O  O64  1  0.83391900  0.99961000  0.50522200  1
  O  O65  1  0.50522200  0.83391900  0.99961000  1
  O  O66  1  0.38001400  0.31875200  0.10925400  1
  O  O67  1  0.10925400  0.38001400  0.31875200  1
  O  O68  1  0.31875200  0.10925400  0.38001400  1
  O  O69  1  0.61998600  0.68124800  0.89074600  1
  O  O70  1  0.89074600  0.61998600  0.68124800  1
  O  O71  1  0.68124800  0.89074600  0.61998600  1
  O  O72  1  0.38000600  0.10575500  0.16512600  1
  O  O73  1  0.16512600  0.38000600  0.10575500  1
  O  O74  1  0.10575500  0.16512600  0.38000600  1
  O  O75  1  0.61999400  0.89424500  0.83487400  1
  O  O76  1  0.83487400  0.61999400  0.89424500  1
  O  O77  1  0.89424500  0.83487400  0.61999400  1
  O  O78  1  0.23540700  0.87054900  0.24495100  1
  O  O79  1  0.24495100  0.23540700  0.87054900  1
  O  O80  1  0.87054900  0.24495100  0.23540700  1
  O  O81  1  0.76459300  0.12945100  0.75504900  1
  O  O82  1  0.75504900  0.76459300  0.12945100  1
  O  O83  1  0.12945100  0.75504900  0.76459300  1
  O  O84  1  0.22945100  0.22956100  0.99466000  1
  O  O85  1  0.99466000  0.22945100  0.22956100  1
  O  O86  1  0.22956100  0.99466000  0.22945100  1
  O  O87  1  0.77054900  0.77043900  0.00534000  1
  O  O88  1  0.00534000  0.77054900  0.77043900  1
  O  O89  1  0.77043900  0.00534000  0.77054900  1
