# generated using pymatgen
data_CuH9CSN4Cl3O
_symmetry_space_group_name_H-M   'P 1'
_cell_length_a   7.50572300
_cell_length_b   8.94107244
_cell_length_c   9.66660034
_cell_angle_alpha   112.36730949
_cell_angle_beta   98.40295828
_cell_angle_gamma   92.15123607
_symmetry_Int_Tables_number   1
_chemical_formula_structural   CuH9CSN4Cl3O
_chemical_formula_sum   'Cu2 H18 C2 S2 N8 Cl6 O2'
_cell_volume   590.38608422
_cell_formula_units_Z   2
loop_
 _symmetry_equiv_pos_site_id
 _symmetry_equiv_pos_as_xyz
  1  'x, y, z'
loop_
 _atom_site_type_symbol
 _atom_site_label
 _atom_site_symmetry_multiplicity
 _atom_site_fract_x
 _atom_site_fract_y
 _atom_site_fract_z
 _atom_site_occupancy
  Cu  Cu0  1  0.77537100  0.90818300  0.88540100  1
  Cu  Cu1  1  0.22462900  0.09181700  0.11459900  1
  H  H2  1  0.75071700  0.36281600  0.96620500  1
  H  H3  1  0.24928300  0.63718400  0.03379500  1
  H  H4  1  0.71754700  0.52992000  0.67970400  1
  H  H5  1  0.28245300  0.47008000  0.32029600  1
  H  H6  1  0.93896900  0.49349500  0.72871800  1
  H  H7  1  0.06103100  0.50650500  0.27128200  1
  H  H8  1  0.79930900  0.49508700  0.36667800  1
  H  H9  1  0.20069100  0.50491300  0.63332200  1
  H  H10  1  0.43425100  0.91779900  0.25309200  1
  H  H11  1  0.56574900  0.08220100  0.74690800  1
  H  H12  1  0.85708600  0.09294800  0.38394800  1
  H  H13  1  0.14291400  0.90705200  0.61605200  1
  H  H14  1  0.62604700  0.75478600  0.46854000  1
  H  H15  1  0.37395300  0.24521400  0.53146000  1
  H  H16  1  0.77336700  0.40507700  0.33539100  1
  H  H17  1  0.22663300  0.59492300  0.66460900  1
  H  H18  1  0.69931000  0.40280400  0.12106000  1
  H  H19  1  0.30069000  0.59719600  0.87894000  1
  C  C20  1  0.74215200  0.79435500  0.15465300  1
  C  C21  1  0.25784800  0.20564500  0.84534700  1
  S  S22  1  0.65298900  0.03913600  0.08792000  1
  S  S23  1  0.34701100  0.96086400  0.91208000  1
  N  N24  1  0.89353800  0.72608300  0.81568600  1
  N  N25  1  0.10646200  0.27391700  0.18431400  1
  N  N26  1  0.84640200  0.57974500  0.73895700  1
  N  N27  1  0.15359800  0.42025500  0.26104300  1
  N  N28  1  0.66566900  0.93158800  0.19926900  1
  N  N29  1  0.33433100  0.06841200  0.80073100  1
  N  N30  1  0.81700900  0.67514000  0.12960500  1
  N  N31  1  0.18299100  0.32486000  0.87039500  1
  Cl  Cl32  1  0.02485300  0.80023200  0.50494700  1
  Cl  Cl33  1  0.97514700  0.19976800  0.49505300  1
  Cl  Cl34  1  0.73881000  0.06850400  0.72892900  1
  Cl  Cl35  1  0.26119000  0.93149600  0.27107100  1
  Cl  Cl36  1  0.48652200  0.70869900  0.51154400  1
  Cl  Cl37  1  0.51347800  0.29130100  0.48845600  1
  O  O38  1  0.67158900  0.32080500  0.01799000  1
  O  O39  1  0.32841100  0.67919500  0.98201000  1
