# generated using pymatgen
data_KMgNbO15
_symmetry_space_group_name_H-M   'P 1'
_cell_length_a   12.63494500
_cell_length_b   9.35691700
_cell_length_c   13.52705898
_cell_angle_alpha   60.37807037
_cell_angle_beta   90.00000000
_cell_angle_gamma   90.00000000
_symmetry_Int_Tables_number   1
_chemical_formula_structural   KMgNbO15
_chemical_formula_sum   'K4 Mg4 Nb4 O60'
_cell_volume   1390.21541609
_cell_formula_units_Z   4
loop_
 _symmetry_equiv_pos_site_id
 _symmetry_equiv_pos_as_xyz
  1  'x, y, z'
loop_
 _atom_site_type_symbol
 _atom_site_label
 _atom_site_symmetry_multiplicity
 _atom_site_fract_x
 _atom_site_fract_y
 _atom_site_fract_z
 _atom_site_occupancy
  K  K0  1  0.46828200  0.95815100  0.72968900  1
  K  K1  1  0.96828200  0.04184900  0.77031100  1
  K  K2  1  0.53171800  0.04184900  0.27031100  1
  K  K3  1  0.03171800  0.95815100  0.22968900  1
  Mg  Mg4  1  0.50000000  0.50000000  0.00000000  1
  Mg  Mg5  1  0.00000000  0.50000000  0.50000000  1
  Mg  Mg6  1  0.50000000  0.50000000  0.50000000  1
  Mg  Mg7  1  0.00000000  0.50000000  0.00000000  1
  Nb  Nb8  1  0.25745900  0.15255200  0.41797800  1
  Nb  Nb9  1  0.75745900  0.84744800  0.08202200  1
  Nb  Nb10  1  0.74254100  0.84744800  0.58202200  1
  Nb  Nb11  1  0.24254100  0.15255200  0.91797800  1
  O  O12  1  0.23213900  0.21575300  0.54095000  1
  O  O13  1  0.73213900  0.78424700  0.95905000  1
  O  O14  1  0.76786100  0.78424700  0.45905000  1
  O  O15  1  0.26786100  0.21575300  0.04095000  1
  O  O16  1  0.26466000  0.04761600  0.58855100  1
  O  O17  1  0.76466000  0.95238400  0.91144900  1
  O  O18  1  0.73534000  0.95238400  0.41144900  1
  O  O19  1  0.23534000  0.04761600  0.08855100  1
  O  O20  1  0.28418500  0.92696400  0.42311000  1
  O  O21  1  0.78418500  0.07303600  0.07689000  1
  O  O22  1  0.71581500  0.07303600  0.57689000  1
  O  O23  1  0.21581500  0.92696400  0.92311000  1
  O  O24  1  0.24624700  0.03410900  0.31735000  1
  O  O25  1  0.74624700  0.96589100  0.18265000  1
  O  O26  1  0.75375300  0.96589100  0.68265000  1
  O  O27  1  0.25375300  0.03410900  0.81735000  1
  O  O28  1  0.08957500  0.13204500  0.40061200  1
  O  O29  1  0.58957500  0.86795500  0.09938800  1
  O  O30  1  0.91042500  0.86795500  0.59938800  1
  O  O31  1  0.41042500  0.13204500  0.90061200  1
  O  O32  1  0.12131400  0.29035000  0.33603100  1
  O  O33  1  0.62131400  0.70965000  0.16396900  1
  O  O34  1  0.87868600  0.70965000  0.66396900  1
  O  O35  1  0.37868600  0.29035000  0.83603100  1
  O  O36  1  0.41424800  0.18377000  0.38636400  1
  O  O37  1  0.91424800  0.81623000  0.11363600  1
  O  O38  1  0.58575200  0.81623000  0.61363600  1
  O  O39  1  0.08575200  0.18377000  0.88636400  1
  O  O40  1  0.35569000  0.33512300  0.31701600  1
  O  O41  1  0.85569000  0.66487700  0.18298400  1
  O  O42  1  0.64431000  0.66487700  0.68298400  1
  O  O43  1  0.14431000  0.33512300  0.81701600  1
  O  O44  1  0.36343800  0.68562900  0.97133900  1
  O  O45  1  0.86343800  0.31437100  0.52866100  1
  O  O46  1  0.63656200  0.31437100  0.02866100  1
  O  O47  1  0.13656200  0.68562900  0.47133900  1
  O  O48  1  0.50144800  0.73817800  0.45498800  1
  O  O49  1  0.00144800  0.26182200  0.04501200  1
  O  O50  1  0.49855200  0.26182200  0.54501200  1
  O  O51  1  0.99855200  0.73817800  0.95498800  1
  O  O52  1  0.44697800  0.27873300  0.08503100  1
  O  O53  1  0.94697800  0.72126700  0.41496900  1
  O  O54  1  0.55302200  0.72126700  0.91496900  1
  O  O55  1  0.05302200  0.27873300  0.58503100  1
  O  O56  1  0.42675800  0.29087400  0.60988700  1
  O  O57  1  0.92675800  0.70912600  0.89011300  1
  O  O58  1  0.57324200  0.70912600  0.39011300  1
  O  O59  1  0.07324200  0.29087400  0.10988700  1
  O  O60  1  0.34872100  0.61025000  0.91456600  1
  O  O61  1  0.84872100  0.38975000  0.58543400  1
  O  O62  1  0.65127900  0.38975000  0.08543400  1
  O  O63  1  0.15127900  0.61025000  0.41456600  1
  O  O64  1  0.37618700  0.58564300  0.35625500  1
  O  O65  1  0.87618700  0.41435700  0.14374500  1
  O  O66  1  0.62381300  0.41435700  0.64374500  1
  O  O67  1  0.12381300  0.58564300  0.85625500  1
  O  O68  1  0.12212500  0.71481200  0.76351000  1
  O  O69  1  0.62212500  0.28518800  0.73649000  1
  O  O70  1  0.87787500  0.28518800  0.23649000  1
  O  O71  1  0.37787500  0.71481200  0.26351000  1
