# generated using pymatgen
data_NaAl(H2N)4
_symmetry_space_group_name_H-M   'P 1'
_cell_length_a   7.32103800
_cell_length_b   7.92430000
_cell_length_c   11.15450541
_cell_angle_alpha   75.96357091
_cell_angle_beta   90.00000000
_cell_angle_gamma   90.00000000
_symmetry_Int_Tables_number   1
_chemical_formula_structural   NaAl(H2N)4
_chemical_formula_sum   'Na4 Al4 H32 N16'
_cell_volume   627.79675586
_cell_formula_units_Z   4
loop_
 _symmetry_equiv_pos_site_id
 _symmetry_equiv_pos_as_xyz
  1  'x, y, z'
loop_
 _atom_site_type_symbol
 _atom_site_label
 _atom_site_symmetry_multiplicity
 _atom_site_fract_x
 _atom_site_fract_y
 _atom_site_fract_z
 _atom_site_occupancy
  Na  Na0  1  0.79309200  0.24797700  0.76547400  1
  Na  Na1  1  0.29309200  0.75202300  0.73452600  1
  Na  Na2  1  0.20690800  0.75202300  0.23452600  1
  Na  Na3  1  0.70690800  0.24797700  0.26547400  1
  Al  Al4  1  0.01850700  0.58029800  0.60638000  1
  Al  Al5  1  0.51850700  0.41970200  0.89362000  1
  Al  Al6  1  0.98149300  0.41970200  0.39362000  1
  Al  Al7  1  0.48149300  0.58029800  0.10638000  1
  H  H8  1  0.93380700  0.76230100  0.37313700  1
  H  H9  1  0.43380700  0.23769900  0.12686300  1
  H  H10  1  0.06619300  0.23769900  0.62686300  1
  H  H11  1  0.56619300  0.76230100  0.87313700  1
  H  H12  1  0.63659500  0.67184900  0.35459100  1
  H  H13  1  0.13659500  0.32815100  0.14540900  1
  H  H14  1  0.36340500  0.32815100  0.64540900  1
  H  H15  1  0.86340500  0.67184900  0.85459100  1
  H  H16  1  0.35340400  0.01748500  0.01854800  1
  H  H17  1  0.85340400  0.98251500  0.48145200  1
  H  H18  1  0.64659600  0.98251500  0.98145200  1
  H  H19  1  0.14659600  0.01748500  0.51854800  1
  H  H20  1  0.92045800  0.08909400  0.06289300  1
  H  H21  1  0.42045800  0.91090600  0.43710700  1
  H  H22  1  0.07954200  0.91090600  0.93710700  1
  H  H23  1  0.57954200  0.08909400  0.56289300  1
  H  H24  1  0.27966100  0.67715500  0.05884900  1
  H  H25  1  0.77966100  0.32284500  0.44115100  1
  H  H26  1  0.72033900  0.32284500  0.94115100  1
  H  H27  1  0.22033900  0.67715500  0.55884900  1
  H  H28  1  0.66166500  0.93551400  0.04825900  1
  H  H29  1  0.16166500  0.06448600  0.45174100  1
  H  H30  1  0.33833500  0.06448600  0.95174100  1
  H  H31  1  0.83833500  0.93551400  0.54825900  1
  H  H32  1  0.85663700  0.57373800  0.00691600  1
  H  H33  1  0.35663700  0.42626200  0.49308400  1
  H  H34  1  0.14336300  0.42626200  0.99308400  1
  H  H35  1  0.64336300  0.57373800  0.50691600  1
  H  H36  1  0.83526500  0.78863800  0.96191200  1
  H  H37  1  0.33526500  0.21136200  0.53808800  1
  H  H38  1  0.16473500  0.21136200  0.03808800  1
  H  H39  1  0.66473500  0.78863800  0.46191200  1
  N  N40  1  0.10486300  0.35378200  0.56338000  1
  N  N41  1  0.60486300  0.64621800  0.93662000  1
  N  N42  1  0.89513700  0.64621800  0.43662000  1
  N  N43  1  0.39513700  0.35378200  0.06338000  1
  N  N44  1  0.19766700  0.32723400  0.06084500  1
  N  N45  1  0.69766700  0.67276600  0.43915500  1
  N  N46  1  0.80233300  0.67276600  0.93915500  1
  N  N47  1  0.30233300  0.32723400  0.56084500  1
  N  N48  1  0.55611200  0.92630500  0.72580000  1
  N  N49  1  0.05611200  0.07369500  0.77420000  1
  N  N50  1  0.44388800  0.07369500  0.27420000  1
  N  N51  1  0.94388800  0.92630500  0.22580000  1
  N  N52  1  0.88148700  0.06213900  0.16273200  1
  N  N53  1  0.38148700  0.93786100  0.33726800  1
  N  N54  1  0.11851300  0.93786100  0.83726800  1
  N  N55  1  0.61851300  0.06213900  0.66273200  1
