# generated using pymatgen
data_ZnP2H15C5NO9
_symmetry_space_group_name_H-M   'P 1'
_cell_length_a   10.46189400
_cell_length_b   10.65912900
_cell_length_c   11.90991600
_cell_angle_alpha   90.00000000
_cell_angle_beta   90.00000000
_cell_angle_gamma   90.00000000
_symmetry_Int_Tables_number   1
_chemical_formula_structural   ZnP2H15C5NO9
_chemical_formula_sum   'Zn4 P8 H60 C20 N4 O36'
_cell_volume   1328.13044454
_cell_formula_units_Z   4
loop_
 _symmetry_equiv_pos_site_id
 _symmetry_equiv_pos_as_xyz
  1  'x, y, z'
loop_
 _atom_site_type_symbol
 _atom_site_label
 _atom_site_symmetry_multiplicity
 _atom_site_fract_x
 _atom_site_fract_y
 _atom_site_fract_z
 _atom_site_occupancy
  Zn  Zn0  1  0.44719900  0.70562700  0.37765600  1
  Zn  Zn1  1  0.05280100  0.29437300  0.87765600  1
  Zn  Zn2  1  0.94719900  0.79437300  0.62234400  1
  Zn  Zn3  1  0.55280100  0.20562700  0.12234400  1
  P  P4  1  0.69014200  0.65583700  0.54258100  1
  P  P5  1  0.80985800  0.34416300  0.04258100  1
  P  P6  1  0.19014200  0.84416300  0.45741900  1
  P  P7  1  0.30985800  0.15583700  0.95741900  1
  P  P8  1  0.48659400  0.93358000  0.20162800  1
  P  P9  1  0.01340600  0.06642000  0.70162800  1
  P  P10  1  0.98659400  0.56642000  0.79837200  1
  P  P11  1  0.51340600  0.43358000  0.29837200  1
  H  H12  1  0.71745900  0.54779200  0.38265500  1
  H  H13  1  0.78254100  0.45220800  0.88265500  1
  H  H14  1  0.21745900  0.95220800  0.61734500  1
  H  H15  1  0.28254100  0.04779200  0.11734500  1
  H  H16  1  0.46465500  0.81392800  0.04549100  1
  H  H17  1  0.03534500  0.18607200  0.54549100  1
  H  H18  1  0.96465500  0.68607200  0.95450900  1
  H  H19  1  0.53534500  0.31392800  0.45450900  1
  H  H20  1  0.75322300  0.54566100  0.69348000  1
  H  H21  1  0.74677700  0.45433900  0.19348000  1
  H  H22  1  0.25322300  0.95433900  0.30652000  1
  H  H23  1  0.24677700  0.04566100  0.80652000  1
  H  H24  1  0.73167100  0.97143800  0.68897300  1
  H  H25  1  0.76832900  0.02856200  0.18897300  1
  H  H26  1  0.23167100  0.52856200  0.31102700  1
  H  H27  1  0.26832900  0.47143900  0.81102700  1
  H  H28  1  0.46974700  0.04376300  0.48565900  1
  H  H29  1  0.03025300  0.95623700  0.98565900  1
  H  H30  1  0.96974700  0.45623700  0.51434100  1
  H  H31  1  0.53025300  0.54376300  0.01434100  1
  H  H32  1  0.63855400  0.02107100  0.49316400  1
  H  H33  1  0.86144600  0.97892900  0.99316400  1
  H  H34  1  0.13855400  0.47892900  0.50683600  1
  H  H35  1  0.36144600  0.52107100  0.00683600  1
  H  H36  1  0.53075600  0.88044400  0.62697200  1
  H  H37  1  0.96924400  0.11955600  0.12697200  1
  H  H38  1  0.03075600  0.61955600  0.37302800  1
  H  H39  1  0.46924400  0.38044400  0.87302800  1
  H  H40  1  0.44952600  0.01065600  0.69107900  1
  H  H41  1  0.05047400  0.98934400  0.19107900  1
  H  H42  1  0.94952600  0.48934400  0.30892100  1
  H  H43  1  0.55047400  0.51065600  0.80892100  1
  H  H44  1  0.57459100  0.17214000  0.79078000  1
  H  H45  1  0.92540900  0.82786000  0.29078000  1
  H  H46  1  0.07459100  0.32786000  0.20922000  1
  H  H47  1  0.42540900  0.67214000  0.70922000  1
  H  H48  1  0.74586900  0.15692000  0.79676200  1
  H  H49  1  0.75413100  0.84308000  0.29676200  1
  H  H50  1  0.24586900  0.34308000  0.20323800  1
  H  H51  1  0.25413100  0.65692000  0.70323800  1
  H  H52  1  0.76419000  0.17892100  0.59140300  1
  H  H53  1  0.73581000  0.82107900  0.09140300  1
  H  H54  1  0.26419000  0.32107900  0.40859700  1
  H  H55  1  0.23581000  0.67892100  0.90859700  1
  H  H56  1  0.68132100  0.31115300  0.64704600  1
  H  H57  1  0.81867900  0.68884700  0.14704600  1
  H  H58  1  0.18132100  0.18884700  0.35295400  1
  H  H59  1  0.31867900  0.81115300  0.85295400  1
  H  H60  1  0.62552900  0.83247600  0.81265700  1
  H  H61  1  0.87447100  0.16752400  0.31265700  1
  H  H62  1  0.12552900  0.66752400  0.18734300  1
  H  H63  1  0.37447100  0.33247600  0.68734300  1
  H  H64  1  0.71336100  0.95241700  0.88392100  1
  H  H65  1  0.78663900  0.04758300  0.38392100  1
  H  H66  1  0.21336100  0.54758300  0.11607900  1
  H  H67  1  0.28663900  0.45241700  0.61607900  1
  H  H68  1  0.54266600  0.96487300  0.87258400  1
  H  H69  1  0.95733400  0.03512700  0.37258400  1
  H  H70  1  0.04266600  0.53512700  0.12741600  1
  H  H71  1  0.45733400  0.46487300  0.62741600  1
  C  C72  1  0.55390500  0.05607600  0.53887600  1
  C  C73  1  0.94609500  0.94392400  0.03887600  1
  C  C74  1  0.05390500  0.44392400  0.46112400  1
  C  C75  1  0.44609500  0.55607600  0.96112400  1
  C  C76  1  0.53584300  0.98100400  0.64598500  1
  C  C77  1  0.96415700  0.01899600  0.14598500  1
  C  C78  1  0.03584300  0.51899600  0.35401500  1
  C  C79  1  0.46415700  0.48100400  0.85401500  1
  C  C80  1  0.66051500  0.14244200  0.74486500  1
  C  C81  1  0.83948500  0.85755800  0.24486500  1
  C  C82  1  0.16051500  0.35755800  0.25513500  1
  C  C83  1  0.33948500  0.64244200  0.75513500  1
  C  C84  1  0.67540400  0.20970200  0.63329600  1
  C  C85  1  0.82459600  0.79029800  0.13329600  1
  C  C86  1  0.17540400  0.29029800  0.36670400  1
  C  C87  1  0.32459600  0.70970200  0.86670400  1
  C  C88  1  0.63026800  0.93280600  0.83140400  1
  C  C89  1  0.86973200  0.06719400  0.33140400  1
  C  C90  1  0.13026800  0.56719400  0.16859600  1
  C  C91  1  0.36973200  0.43280600  0.66859600  1
  N  N92  1  0.64635100  0.00339900  0.72434000  1
  N  N93  1  0.85364900  0.99660100  0.22434000  1
  N  N94  1  0.14635100  0.49660100  0.27566000  1
  N  N95  1  0.35364900  0.50339900  0.77566000  1
  O  O96  1  0.57503800  0.04906000  0.20850100  1
  O  O97  1  0.92496200  0.95094000  0.70850100  1
  O  O98  1  0.07503800  0.45094000  0.79149900  1
  O  O99  1  0.42496200  0.54906000  0.29149900  1
  O  O100  1  0.52553000  0.84157900  0.29395200  1
  O  O101  1  0.97447000  0.15842100  0.79395200  1
  O  O102  1  0.02553000  0.65842100  0.70604800  1
  O  O103  1  0.47447000  0.34157900  0.20604800  1
  O  O104  1  0.76570900  0.60892800  0.43562600  1
  O  O105  1  0.73429100  0.39107200  0.93562600  1
  O  O106  1  0.26570900  0.89107200  0.56437400  1
  O  O107  1  0.23429100  0.10892800  0.06437400  1
  O  O108  1  0.55085000  0.68617200  0.51439600  1
  O  O109  1  0.94915000  0.31382800  0.01439600  1
  O  O110  1  0.05085000  0.81382800  0.48560400  1
  O  O111  1  0.44915000  0.18617200  0.98560400  1
  O  O112  1  0.76341500  0.76626100  0.59214100  1
  O  O113  1  0.73658500  0.23373900  0.09214100  1
  O  O114  1  0.26341500  0.73373900  0.40785900  1
  O  O115  1  0.23658500  0.26626100  0.90785900  1
  O  O116  1  0.34246100  0.96357500  0.20321400  1
  O  O117  1  0.15753900  0.03642500  0.70321400  1
  O  O118  1  0.84246100  0.53642500  0.79678600  1
  O  O119  1  0.65753900  0.46357500  0.29678600  1
  O  O120  1  0.52150400  0.87689900  0.07987200  1
  O  O121  1  0.97849600  0.12310100  0.57987200  1
  O  O122  1  0.02150400  0.62310100  0.92012800  1
  O  O123  1  0.47849600  0.37689900  0.42012800  1
  O  O124  1  0.68499900  0.54412500  0.63095200  1
  O  O125  1  0.81500100  0.45587500  0.13095200  1
  O  O126  1  0.18499900  0.95587500  0.36904800  1
  O  O127  1  0.31500100  0.04412500  0.86904800  1
  O  O128  1  0.56699100  0.18819600  0.56097300  1
  O  O129  1  0.93300900  0.81180400  0.06097300  1
  O  O130  1  0.06699100  0.31180400  0.43902700  1
  O  O131  1  0.43300900  0.68819600  0.93902700  1
