# generated using pymatgen
data_AsH6NO4
_symmetry_space_group_name_H-M   'P 1'
_cell_length_a   7.75034700
_cell_length_b   8.05943600
_cell_length_c   8.51060200
_cell_angle_alpha   90.00000000
_cell_angle_beta   90.00000000
_cell_angle_gamma   90.00000000
_symmetry_Int_Tables_number   1
_chemical_formula_structural   AsH6NO4
_chemical_formula_sum   'As4 H24 N4 O16'
_cell_volume   531.60135504
_cell_formula_units_Z   4
loop_
 _symmetry_equiv_pos_site_id
 _symmetry_equiv_pos_as_xyz
  1  'x, y, z'
loop_
 _atom_site_type_symbol
 _atom_site_label
 _atom_site_symmetry_multiplicity
 _atom_site_fract_x
 _atom_site_fract_y
 _atom_site_fract_z
 _atom_site_occupancy
  As  As0  1  0.70910800  0.21420000  0.24010900  1
  As  As1  1  0.29089200  0.71420000  0.25989100  1
  As  As2  1  0.20910800  0.28580000  0.75989100  1
  As  As3  1  0.79089200  0.78580000  0.74010900  1
  H  H4  1  0.75408600  0.72288700  0.40308700  1
  H  H5  1  0.78764100  0.13712200  0.75333900  1
  H  H6  1  0.66354700  0.66051000  0.23181700  1
  H  H7  1  0.62652100  0.28371500  0.73372900  1
  H  H8  1  0.58142500  0.83988300  0.93239900  1
  H  H9  1  0.56983300  0.43025500  0.36881600  1
  H  H10  1  0.43016700  0.93025500  0.13118400  1
  H  H11  1  0.41857500  0.33988300  0.56760100  1
  H  H12  1  0.37347900  0.78371500  0.76627100  1
  H  H13  1  0.33645300  0.16051000  0.26818300  1
  H  H14  1  0.21235900  0.63712200  0.74666100  1
  H  H15  1  0.24591400  0.22288700  0.09691300  1
  H  H16  1  0.25408600  0.77711300  0.59691300  1
  H  H17  1  0.28764100  0.36287800  0.24666100  1
  H  H18  1  0.16354700  0.83949000  0.76818300  1
  H  H19  1  0.12652100  0.21628500  0.26627100  1
  H  H20  1  0.08142500  0.66011700  0.06760100  1
  H  H21  1  0.06983300  0.06974500  0.63118400  1
  H  H22  1  0.93016700  0.56974500  0.86881600  1
  H  H23  1  0.91857500  0.16011700  0.43239900  1
  H  H24  1  0.87347900  0.71628500  0.23372900  1
  H  H25  1  0.83645300  0.33949000  0.73181700  1
  H  H26  1  0.71235900  0.86287800  0.25333900  1
  H  H27  1  0.74591400  0.27711300  0.90308700  1
  N  N28  1  0.74782600  0.25855800  0.77883700  1
  N  N29  1  0.25217400  0.75855800  0.72116300  1
  N  N30  1  0.24782600  0.24144200  0.22116300  1
  N  N31  1  0.75217400  0.74144200  0.27883700  1
  O  O32  1  0.74628500  0.66371300  0.58723000  1
  O  O33  1  0.63213000  0.32820000  0.40603400  1
  O  O34  1  0.58277800  0.04522200  0.21400900  1
  O  O35  1  0.59291800  0.86599900  0.82022100  1
  O  O36  1  0.40708200  0.36599900  0.67977900  1
  O  O37  1  0.41722200  0.54522200  0.28599100  1
  O  O38  1  0.36787000  0.82820000  0.09396600  1
  O  O39  1  0.25371500  0.16371300  0.91277000  1
  O  O40  1  0.24628500  0.83628700  0.41277000  1
  O  O41  1  0.13213000  0.17180000  0.59396600  1
  O  O42  1  0.08277800  0.45477800  0.78599100  1
  O  O43  1  0.09291800  0.63400100  0.17977900  1
  O  O44  1  0.90708200  0.13400100  0.32022100  1
  O  O45  1  0.91722200  0.95477800  0.71400900  1
  O  O46  1  0.86787000  0.67180000  0.90603400  1
  O  O47  1  0.75371500  0.33628700  0.08723000  1
