# generated using pymatgen
data_KErP4(H2O9)2
_symmetry_space_group_name_H-M   'P 1'
_cell_length_a   7.41705820
_cell_length_b   7.41705820
_cell_length_c   15.11834298
_cell_angle_alpha   88.34470577
_cell_angle_beta   88.34470577
_cell_angle_gamma   106.10274717
_symmetry_Int_Tables_number   1
_chemical_formula_structural   KErP4(H2O9)2
_chemical_formula_sum   'K2 Er2 P8 H8 O36'
_cell_volume   798.14735019
_cell_formula_units_Z   2
loop_
 _symmetry_equiv_pos_site_id
 _symmetry_equiv_pos_as_xyz
  1  'x, y, z'
loop_
 _atom_site_type_symbol
 _atom_site_label
 _atom_site_symmetry_multiplicity
 _atom_site_fract_x
 _atom_site_fract_y
 _atom_site_fract_z
 _atom_site_occupancy
  K  K0  1  0.51789800  0.48210200  0.75000000  1
  K  K1  1  0.48210200  0.51789800  0.25000000  1
  Er  Er2  1  0.07928000  0.92072000  0.75000000  1
  Er  Er3  1  0.92072000  0.07928000  0.25000000  1
  P  P4  1  0.98248300  0.22833900  0.58651800  1
  P  P5  1  0.77166100  0.01751700  0.91348200  1
  P  P6  1  0.01751700  0.77166100  0.41348200  1
  P  P7  1  0.22833900  0.98248300  0.08651800  1
  P  P8  1  0.18386400  0.21967100  0.92723300  1
  P  P9  1  0.78032900  0.81613600  0.57276700  1
  P  P10  1  0.81613600  0.78032900  0.07276700  1
  P  P11  1  0.21967100  0.18386400  0.42723300  1
  H  H12  1  0.20932900  0.52433600  0.89157800  1
  H  H13  1  0.47566400  0.79067100  0.60842200  1
  H  H14  1  0.79067100  0.47566400  0.10842200  1
  H  H15  1  0.52433600  0.20932900  0.39157800  1
  H  H16  1  0.77807600  0.43970500  0.91281000  1
  H  H17  1  0.56029500  0.22192400  0.58719000  1
  H  H18  1  0.22192400  0.56029500  0.08719000  1
  H  H19  1  0.43970500  0.77807600  0.41281000  1
  O  O20  1  0.96642600  0.15249700  0.94971400  1
  O  O21  1  0.84750300  0.03357400  0.55028600  1
  O  O22  1  0.03357400  0.84750300  0.05028600  1
  O  O23  1  0.15249700  0.96642600  0.44971400  1
  O  O24  1  0.85691700  0.72046200  0.49382400  1
  O  O25  1  0.27953800  0.14308300  0.00617600  1
  O  O26  1  0.14308300  0.27953800  0.50617600  1
  O  O27  1  0.72046200  0.85691700  0.99382400  1
  O  O28  1  0.07641600  0.75437800  0.88196200  1
  O  O29  1  0.24562200  0.92358400  0.61803800  1
  O  O30  1  0.92358400  0.24562200  0.11803800  1
  O  O31  1  0.75437800  0.07641600  0.38196200  1
  O  O32  1  0.88054000  0.37472900  0.58437200  1
  O  O33  1  0.62527100  0.11946000  0.91562800  1
  O  O34  1  0.11946000  0.62527100  0.41562800  1
  O  O35  1  0.37472900  0.88054000  0.08437200  1
  O  O36  1  0.84240500  0.76992500  0.66235500  1
  O  O37  1  0.23007500  0.15759500  0.83764500  1
  O  O38  1  0.15759500  0.23007500  0.33764500  1
  O  O39  1  0.76992500  0.84240500  0.16235500  1
  O  O40  1  0.24955100  0.43434800  0.93793500  1
  O  O41  1  0.56565200  0.75044900  0.56206500  1
  O  O42  1  0.75044900  0.56565200  0.06206500  1
  O  O43  1  0.43434800  0.24955100  0.43793500  1
  O  O44  1  0.07297800  0.18404000  0.66928900  1
  O  O45  1  0.81596000  0.92702200  0.83071100  1
  O  O46  1  0.92702200  0.81596000  0.33071100  1
  O  O47  1  0.18404000  0.07297800  0.16928900  1
  O  O48  1  0.78387900  0.41651100  0.84932900  1
  O  O49  1  0.58348900  0.21612100  0.65067100  1
  O  O50  1  0.21612100  0.58348900  0.15067100  1
  O  O51  1  0.41651100  0.78387900  0.34932900  1
  O  O52  1  0.17227800  0.66497300  0.83029200  1
  O  O53  1  0.33502700  0.82772200  0.66970800  1
  O  O54  1  0.82772200  0.33502700  0.16970800  1
  O  O55  1  0.66497300  0.17227800  0.33029200  1
