# generated using pymatgen
data_RbB6H8O7
_symmetry_space_group_name_H-M   'P 1'
_cell_length_a   8.31615132
_cell_length_b   8.31615132
_cell_length_c   13.48488735
_cell_angle_alpha   75.11290769
_cell_angle_beta   75.11290769
_cell_angle_gamma   69.20188307
_symmetry_Int_Tables_number   1
_chemical_formula_structural   RbB6H8O7
_chemical_formula_sum   'Rb4 B24 H32 O28'
_cell_volume   828.26849144
_cell_formula_units_Z   4
loop_
 _symmetry_equiv_pos_site_id
 _symmetry_equiv_pos_as_xyz
  1  'x, y, z'
loop_
 _atom_site_type_symbol
 _atom_site_label
 _atom_site_symmetry_multiplicity
 _atom_site_fract_x
 _atom_site_fract_y
 _atom_site_fract_z
 _atom_site_occupancy
  Rb  Rb0  1  0.51778000  0.19533700  0.79169900  1
  Rb  Rb1  1  0.80466300  0.48222000  0.70830100  1
  Rb  Rb2  1  0.48222000  0.80466300  0.20830100  1
  Rb  Rb3  1  0.19533700  0.51778000  0.29169900  1
  B  B4  1  0.07505400  0.78984800  0.88146100  1
  B  B5  1  0.21015200  0.92494600  0.61853900  1
  B  B6  1  0.92494600  0.21015200  0.11853900  1
  B  B7  1  0.78984800  0.07505400  0.38146100  1
  B  B8  1  0.99287800  0.01089500  0.81472600  1
  B  B9  1  0.98910500  0.00712200  0.68527400  1
  B  B10  1  0.00712200  0.98910500  0.18527400  1
  B  B11  1  0.01089500  0.99287800  0.31472600  1
  B  B12  1  0.21631600  0.92835000  0.83266900  1
  B  B13  1  0.07165000  0.78368400  0.66733100  1
  B  B14  1  0.78368400  0.07165000  0.16733100  1
  B  B15  1  0.92835000  0.21631600  0.33266900  1
  B  B16  1  0.29872100  0.70458200  0.81622000  1
  B  B17  1  0.29541800  0.70127900  0.68378000  1
  B  B18  1  0.70127900  0.29541800  0.18378000  1
  B  B19  1  0.70458200  0.29872100  0.31622000  1
  B  B20  1  0.93874800  0.83481100  0.78854200  1
  B  B21  1  0.16518900  0.06125200  0.71145800  1
  B  B22  1  0.06125200  0.16518900  0.21145800  1
  B  B23  1  0.83481100  0.93874800  0.28854200  1
  B  B24  1  0.12847200  0.64651800  0.78971300  1
  B  B25  1  0.35348200  0.87152800  0.71028700  1
  B  B26  1  0.87152800  0.35348200  0.21028700  1
  B  B27  1  0.64651800  0.12847200  0.28971300  1
  H  H28  1  0.90656200  0.83446400  0.01707800  1
  H  H29  1  0.16553600  0.09343800  0.48292200  1
  H  H30  1  0.09343800  0.16553600  0.98292200  1
  H  H31  1  0.83446400  0.90656200  0.51707800  1
  H  H32  1  0.89108300  0.17712700  0.91978200  1
  H  H33  1  0.82287300  0.10891700  0.58021800  1
  H  H34  1  0.10891700  0.82287300  0.08021800  1
  H  H35  1  0.17712700  0.89108300  0.41978200  1
  H  H36  1  0.33839000  0.90750000  0.95056800  1
  H  H37  1  0.09250000  0.66161000  0.54943200  1
  H  H38  1  0.66161000  0.09250000  0.04943200  1
  H  H39  1  0.90750000  0.33839000  0.45056800  1
  H  H40  1  0.47794200  0.62557600  0.90913200  1
  H  H41  1  0.37442400  0.52205800  0.59086800  1
  H  H42  1  0.52205800  0.37442400  0.09086800  1
  H  H43  1  0.62557600  0.47794200  0.40913200  1
  H  H44  1  0.07123500  0.42954200  0.88618300  1
  H  H45  1  0.57045800  0.92876500  0.61381700  1
  H  H46  1  0.92876500  0.57045800  0.11381700  1
  H  H47  1  0.42954200  0.07123500  0.38618300  1
  H  H48  1  0.69929800  0.83630400  0.76800900  1
  H  H49  1  0.16369600  0.30070200  0.73199100  1
  H  H50  1  0.30070200  0.16369600  0.23199100  1
  H  H51  1  0.83630400  0.69929800  0.26800900  1
  H  H52  1  0.35806300  0.25932600  0.05656100  1
  H  H53  1  0.74067400  0.64193700  0.44343900  1
  H  H54  1  0.64193700  0.74067400  0.94343900  1
  H  H55  1  0.25932600  0.35806300  0.55656100  1
  H  H56  1  0.43249500  0.39136200  0.95684100  1
  H  H57  1  0.60863800  0.56750500  0.54315900  1
  H  H58  1  0.56750500  0.60863800  0.04315900  1
  H  H59  1  0.39136200  0.43249500  0.45684100  1
  O  O60  1  0.01605400  0.74401700  0.99350100  1
  O  O61  1  0.25598300  0.98394600  0.50649900  1
  O  O62  1  0.98394600  0.25598300  0.00649900  1
  O  O63  1  0.74401700  0.01605400  0.49350100  1
  O  O64  1  0.85848200  0.14887200  0.86257800  1
  O  O65  1  0.85112800  0.14151800  0.63742200  1
  O  O66  1  0.14151800  0.85112800  0.13742200  1
  O  O67  1  0.14887200  0.85848200  0.36257800  1
  O  O68  1  0.26925500  0.99975600  0.90230300  1
  O  O69  1  0.00024400  0.73074500  0.59769700  1
  O  O70  1  0.73074500  0.00024400  0.09769700  1
  O  O71  1  0.99975600  0.26925500  0.40230300  1
  O  O72  1  0.43658800  0.57128600  0.86653400  1
  O  O73  1  0.42871400  0.56341200  0.63346600  1
  O  O74  1  0.56341200  0.42871400  0.13346600  1
  O  O75  1  0.57128600  0.43658800  0.36653400  1
  O  O76  1  0.12592100  0.46608000  0.81426600  1
  O  O77  1  0.53392000  0.87407900  0.68573400  1
  O  O78  1  0.87407900  0.53392000  0.18573400  1
  O  O79  1  0.46608000  0.12592100  0.31426600  1
  O  O80  1  0.76343100  0.82038300  0.82377000  1
  O  O81  1  0.17961700  0.23656900  0.67623000  1
  O  O82  1  0.23656900  0.17961700  0.17623000  1
  O  O83  1  0.82038300  0.76343100  0.32377000  1
  O  O84  1  0.46469800  0.28110100  0.00975000  1
  O  O85  1  0.71889900  0.53530200  0.49025000  1
  O  O86  1  0.53530200  0.71889900  0.99025000  1
  O  O87  1  0.28110100  0.46469800  0.50975000  1
