# generated using pymatgen
data_NdH12C2N7O13
_symmetry_space_group_name_H-M   'P 1'
_cell_length_a   6.71861000
_cell_length_b   11.17965200
_cell_length_c   20.76426400
_cell_angle_alpha   74.18183502
_cell_angle_beta   90.00000000
_cell_angle_gamma   90.00000000
_symmetry_Int_Tables_number   1
_chemical_formula_structural   NdH12C2N7O13
_chemical_formula_sum   'Nd4 H48 C8 N28 O52'
_cell_volume   1500.57859657
_cell_formula_units_Z   4
loop_
 _symmetry_equiv_pos_site_id
 _symmetry_equiv_pos_as_xyz
  1  'x, y, z'
loop_
 _atom_site_type_symbol
 _atom_site_label
 _atom_site_symmetry_multiplicity
 _atom_site_fract_x
 _atom_site_fract_y
 _atom_site_fract_z
 _atom_site_occupancy
  Nd  Nd0  1  0.75124200  0.73622600  0.63424200  1
  Nd  Nd1  1  0.25124200  0.26377400  0.86575800  1
  Nd  Nd2  1  0.24875800  0.26377400  0.36575800  1
  Nd  Nd3  1  0.74875800  0.73622600  0.13424200  1
  H  H4  1  0.22019200  0.79675700  0.61063200  1
  H  H5  1  0.72019200  0.20324300  0.88936800  1
  H  H6  1  0.77980800  0.20324300  0.38936800  1
  H  H7  1  0.27980800  0.79675700  0.11063200  1
  H  H8  1  0.12056700  0.80049500  0.54088200  1
  H  H9  1  0.62056700  0.19950500  0.95911800  1
  H  H10  1  0.87943300  0.19950500  0.45911800  1
  H  H11  1  0.37943300  0.80049500  0.04088200  1
  H  H12  1  0.52407700  0.49278600  0.72282100  1
  H  H13  1  0.02407700  0.50721400  0.77717900  1
  H  H14  1  0.47592300  0.50721400  0.27717900  1
  H  H15  1  0.97592300  0.49278600  0.22282100  1
  H  H16  1  0.41565300  0.60991900  0.73502400  1
  H  H17  1  0.91565300  0.39008100  0.76497600  1
  H  H18  1  0.58434700  0.39008100  0.26497600  1
  H  H19  1  0.08434700  0.60991900  0.23502400  1
  H  H20  1  0.31978500  0.02534700  0.74078400  1
  H  H21  1  0.81978500  0.97465300  0.75921600  1
  H  H22  1  0.68021500  0.97465300  0.25921600  1
  H  H23  1  0.18021500  0.02534700  0.24078400  1
  H  H24  1  0.40163600  0.87347300  0.76711600  1
  H  H25  1  0.90163600  0.12652700  0.73288400  1
  H  H26  1  0.59836400  0.12652700  0.23288400  1
  H  H27  1  0.09836400  0.87347300  0.26711600  1
  H  H28  1  0.30891200  0.12215200  0.62331100  1
  H  H29  1  0.80891200  0.87784800  0.87668900  1
  H  H30  1  0.69108800  0.87784800  0.37668900  1
  H  H31  1  0.19108800  0.12215200  0.12331100  1
  H  H32  1  0.33248800  0.03145100  0.56700800  1
  H  H33  1  0.83248800  0.96854900  0.93299200  1
  H  H34  1  0.66751200  0.96854900  0.43299200  1
  H  H35  1  0.16751200  0.03145100  0.06700800  1
  H  H36  1  0.25620700  0.44809300  0.58068400  1
  H  H37  1  0.75620700  0.55190700  0.91931600  1
  H  H38  1  0.74379300  0.55190700  0.41931600  1
  H  H39  1  0.24379300  0.44809300  0.08068400  1
  H  H40  1  0.20219500  0.58317100  0.60404900  1
  H  H41  1  0.70219500  0.41682900  0.89595100  1
  H  H42  1  0.79780500  0.41682900  0.39595100  1
  H  H43  1  0.29780500  0.58317100  0.10404900  1
  H  H44  1  0.98287600  0.31418600  0.57666300  1
  H  H45  1  0.48287600  0.68581400  0.92333700  1
  H  H46  1  0.01712400  0.68581400  0.42333700  1
  H  H47  1  0.51712400  0.31418600  0.07666300  1
  H  H48  1  0.75909500  0.33575400  0.61455000  1
  H  H49  1  0.25909500  0.66424600  0.88545000  1
  H  H50  1  0.24090500  0.66424600  0.38545000  1
  H  H51  1  0.74090500  0.33575400  0.11455000  1
  C  C52  1  0.38566400  0.93971300  0.66536600  1
  C  C53  1  0.88566400  0.06028700  0.83463400  1
  C  C54  1  0.61433600  0.06028700  0.33463400  1
  C  C55  1  0.11433600  0.93971300  0.16536600  1
  C  C56  1  0.97013500  0.46347300  0.61650900  1
  C  C57  1  0.47013500  0.53652700  0.88349100  1
  C  C58  1  0.02986500  0.53652700  0.38349100  1
  C  C59  1  0.52986500  0.46347300  0.11650900  1
  N  N60  1  0.37469300  0.94954700  0.72854800  1
  N  N61  1  0.87469300  0.05045300  0.77145200  1
  N  N62  1  0.62530700  0.05045300  0.27145200  1
  N  N63  1  0.12530700  0.94954700  0.22854800  1
  N  N64  1  0.34667100  0.04040300  0.61436800  1
  N  N65  1  0.84667100  0.95959700  0.88563200  1
  N  N66  1  0.65332900  0.95959700  0.38563200  1
  N  N67  1  0.15332900  0.04040300  0.11436800  1
  N  N68  1  0.15974500  0.49768700  0.60177100  1
  N  N69  1  0.65974500  0.50231300  0.89822900  1
  N  N70  1  0.84025500  0.50231300  0.39822900  1
  N  N71  1  0.34025500  0.49768700  0.10177100  1
  N  N72  1  0.90652000  0.35522200  0.60691600  1
  N  N73  1  0.40652000  0.64477800  0.89308400  1
  N  N74  1  0.09348000  0.64477800  0.39308400  1
  N  N75  1  0.59348000  0.35522200  0.10691600  1
  N  N76  1  0.81346600  0.01774400  0.57443000  1
  N  N77  1  0.31346600  0.98225600  0.92557000  1
  N  N78  1  0.18653400  0.98225600  0.42557000  1
  N  N79  1  0.68653400  0.01774400  0.07443000  1
  N  N80  1  0.93030400  0.73722000  0.77200400  1
  N  N81  1  0.43030400  0.26278000  0.72799600  1
  N  N82  1  0.06969600  0.26278000  0.22799600  1
  N  N83  1  0.56969600  0.73722000  0.27200400  1
  N  N84  1  0.60174200  0.67562000  0.50954100  1
  N  N85  1  0.10174200  0.32438000  0.99045900  1
  N  N86  1  0.39825800  0.32438000  0.49045900  1
  N  N87  1  0.89825800  0.67562000  0.00954100  1
  O  O88  1  0.74505200  0.94989200  0.53860300  1
  O  O89  1  0.24505200  0.05010800  0.96139700  1
  O  O90  1  0.25494800  0.05010800  0.46139700  1
  O  O91  1  0.75494800  0.94989200  0.03860300  1
  O  O92  1  0.84451100  0.96400700  0.63615800  1
  O  O93  1  0.34451100  0.03599300  0.86384200  1
  O  O94  1  0.15548900  0.03599300  0.36384200  1
  O  O95  1  0.65548900  0.96400700  0.13615800  1
  O  O96  1  0.84862700  0.13080500  0.55049700  1
  O  O97  1  0.34862700  0.86919500  0.94950300  1
  O  O98  1  0.15137300  0.86919500  0.44950300  1
  O  O99  1  0.65137300  0.13080500  0.05049700  1
  O  O100  1  0.76229800  0.78864000  0.75388600  1
  O  O101  1  0.26229800  0.21136000  0.74611400  1
  O  O102  1  0.23770200  0.21136000  0.24611400  1
  O  O103  1  0.73770200  0.78864000  0.25388600  1
  O  O104  1  0.00890000  0.67659300  0.73326600  1
  O  O105  1  0.50890000  0.32340700  0.76673400  1
  O  O106  1  0.99110000  0.32340700  0.26673400  1
  O  O107  1  0.49110000  0.67659300  0.23326600  1
  O  O108  1  0.01481400  0.74542300  0.82352300  1
  O  O109  1  0.51481400  0.25457700  0.67647700  1
  O  O110  1  0.98518600  0.25457700  0.17647700  1
  O  O111  1  0.48518600  0.74542300  0.32352300  1
  O  O112  1  0.78478300  0.70724200  0.51145300  1
  O  O113  1  0.28478300  0.29275800  0.98854700  1
  O  O114  1  0.21521700  0.29275800  0.48854700  1
  O  O115  1  0.71521700  0.70724200  0.01145300  1
  O  O116  1  0.49140900  0.68497200  0.55848900  1
  O  O117  1  0.99140900  0.31502800  0.94151100  1
  O  O118  1  0.50859100  0.31502800  0.44151100  1
  O  O119  1  0.00859100  0.68497200  0.05848900  1
  O  O120  1  0.53443000  0.63806000  0.46310000  1
  O  O121  1  0.03443000  0.36194000  0.03690000  1
  O  O122  1  0.46557000  0.36194000  0.53690000  1
  O  O123  1  0.96557000  0.63806000  0.96310000  1
  O  O124  1  0.43215700  0.83589700  0.65359500  1
  O  O125  1  0.93215700  0.16410300  0.84640500  1
  O  O126  1  0.56784300  0.16410300  0.34640500  1
  O  O127  1  0.06784300  0.83589700  0.15359500  1
  O  O128  1  0.85184200  0.52769500  0.64223800  1
  O  O129  1  0.35184200  0.47230500  0.85776200  1
  O  O130  1  0.14815800  0.47230500  0.35776200  1
  O  O131  1  0.64815800  0.52769500  0.14223800  1
  O  O132  1  0.09715200  0.77539700  0.58968200  1
  O  O133  1  0.59715200  0.22460300  0.91031800  1
  O  O134  1  0.90284800  0.22460300  0.41031800  1
  O  O135  1  0.40284800  0.77539700  0.08968200  1
  O  O136  1  0.52473000  0.58407600  0.71099600  1
  O  O137  1  0.02473000  0.41592400  0.78900400  1
  O  O138  1  0.47527000  0.41592400  0.28900400  1
  O  O139  1  0.97527000  0.58407600  0.21099600  1
