# generated using pymatgen
data_Ca3B6(H4O5)4
_symmetry_space_group_name_H-M   'P 1'
_cell_length_a   8.15840265
_cell_length_b   8.15840265
_cell_length_c   13.62194827
_cell_angle_alpha   67.03443217
_cell_angle_beta   67.03443217
_cell_angle_gamma   72.05263599
_symmetry_Int_Tables_number   1
_chemical_formula_structural   Ca3B6(H4O5)4
_chemical_formula_sum   'Ca6 B12 H32 O40'
_cell_volume   755.53074064
_cell_formula_units_Z   2
loop_
 _symmetry_equiv_pos_site_id
 _symmetry_equiv_pos_as_xyz
  1  'x, y, z'
loop_
 _atom_site_type_symbol
 _atom_site_label
 _atom_site_symmetry_multiplicity
 _atom_site_fract_x
 _atom_site_fract_y
 _atom_site_fract_z
 _atom_site_occupancy
  Ca  Ca0  1  0.75126400  0.24873600  0.75000000  1
  Ca  Ca1  1  0.24873600  0.75126400  0.25000000  1
  Ca  Ca2  1  0.75259200  0.57060600  0.06946100  1
  Ca  Ca3  1  0.42939400  0.24740800  0.43053900  1
  Ca  Ca4  1  0.24740800  0.42939400  0.93053900  1
  Ca  Ca5  1  0.57060600  0.75259200  0.56946100  1
  B  B6  1  0.40121200  0.07702200  0.66799600  1
  B  B7  1  0.92297800  0.59878800  0.83200400  1
  B  B8  1  0.59878800  0.92297800  0.33200400  1
  B  B9  1  0.07702200  0.40121200  0.16799600  1
  B  B10  1  0.43088200  0.38225900  0.65777400  1
  B  B11  1  0.61774100  0.56911800  0.84222600  1
  B  B12  1  0.56911800  0.61774100  0.34222600  1
  B  B13  1  0.38225900  0.43088200  0.15777400  1
  B  B14  1  0.40625300  0.10571900  0.84337300  1
  B  B15  1  0.89428100  0.59374700  0.65662700  1
  B  B16  1  0.59374700  0.89428100  0.15662700  1
  B  B17  1  0.10571900  0.40625300  0.34337300  1
  H  H18  1  0.04113000  0.34886700  0.51280500  1
  H  H19  1  0.65113300  0.95887000  0.98719500  1
  H  H20  1  0.95887000  0.65113300  0.48719500  1
  H  H21  1  0.34886700  0.04113000  0.01280500  1
  H  H22  1  0.65941900  0.39011000  0.51792900  1
  H  H23  1  0.60989000  0.34058100  0.98207100  1
  H  H24  1  0.34058100  0.60989000  0.48207100  1
  H  H25  1  0.39011000  0.65941900  0.01792900  1
  H  H26  1  0.18383300  0.00396600  0.65801200  1
  H  H27  1  0.99603400  0.81616700  0.84198800  1
  H  H28  1  0.81616700  0.99603400  0.34198800  1
  H  H29  1  0.00396600  0.18383300  0.15801200  1
  H  H30  1  0.20654900  0.60124000  0.66638500  1
  H  H31  1  0.39876000  0.79345100  0.83361500  1
  H  H32  1  0.79345100  0.39876000  0.33361500  1
  H  H33  1  0.60124000  0.20654900  0.16638500  1
  H  H34  1  0.68856300  0.02823000  0.62836300  1
  H  H35  1  0.97177000  0.31143700  0.87163700  1
  H  H36  1  0.31143700  0.97177000  0.37163700  1
  H  H37  1  0.02823000  0.68856300  0.12836300  1
  H  H38  1  0.95649300  0.89071500  0.65729500  1
  H  H39  1  0.10928500  0.04350700  0.84270500  1
  H  H40  1  0.04350700  0.10928500  0.34270500  1
  H  H41  1  0.89071500  0.95649300  0.15729500  1
  H  H42  1  0.00654100  0.08366300  0.56441600  1
  H  H43  1  0.91633700  0.99345900  0.93558400  1
  H  H44  1  0.99345900  0.91633700  0.43558400  1
  H  H45  1  0.08366300  0.00654100  0.06441600  1
  H  H46  1  0.11914200  0.37387900  0.64399300  1
  H  H47  1  0.62612100  0.88085800  0.85600700  1
  H  H48  1  0.88085800  0.62612100  0.35600700  1
  H  H49  1  0.37387900  0.11914200  0.14399300  1
  O  O50  1  0.35963100  0.27779400  0.62117500  1
  O  O51  1  0.72220600  0.64036900  0.87882500  1
  O  O52  1  0.64036900  0.72220600  0.37882500  1
  O  O53  1  0.27779400  0.35963100  0.12117500  1
  O  O54  1  0.42001700  0.29869700  0.77815300  1
  O  O55  1  0.70130300  0.57998300  0.72184700  1
  O  O56  1  0.57998300  0.70130300  0.22184700  1
  O  O57  1  0.29869700  0.42001700  0.27815300  1
  O  O58  1  0.28086600  0.10160600  0.95841700  1
  O  O59  1  0.89839400  0.71913400  0.54158300  1
  O  O60  1  0.71913400  0.89839400  0.04158300  1
  O  O61  1  0.10160600  0.28086600  0.45841700  1
  O  O62  1  0.60920900  0.37070800  0.90489100  1
  O  O63  1  0.62929200  0.39079100  0.59510900  1
  O  O64  1  0.39079100  0.62929200  0.09510900  1
  O  O65  1  0.37070800  0.60920900  0.40489100  1
  O  O66  1  0.34194100  0.02148700  0.79140000  1
  O  O67  1  0.97851300  0.65805900  0.70860000  1
  O  O68  1  0.65805900  0.97851300  0.20860000  1
  O  O69  1  0.02148700  0.34194100  0.29140000  1
  O  O70  1  0.31493800  0.99341400  0.62613800  1
  O  O71  1  0.00658600  0.68506200  0.87386200  1
  O  O72  1  0.68506200  0.00658600  0.37386200  1
  O  O73  1  0.99341400  0.31493800  0.12613800  1
  O  O74  1  0.42469000  0.65867400  0.86816700  1
  O  O75  1  0.34132600  0.57531000  0.63183300  1
  O  O76  1  0.57531000  0.34132600  0.13183300  1
  O  O77  1  0.65867400  0.42469000  0.36816700  1
  O  O78  1  0.59226900  0.00233200  0.61472300  1
  O  O79  1  0.99766800  0.40773100  0.88527700  1
  O  O80  1  0.40773100  0.99766800  0.38527700  1
  O  O81  1  0.00233200  0.59226900  0.11472300  1
  O  O82  1  0.93891200  0.02440400  0.64328400  1
  O  O83  1  0.97559600  0.06108700  0.85671600  1
  O  O84  1  0.06108700  0.97559600  0.35671600  1
  O  O85  1  0.02440400  0.93891200  0.14328400  1
  O  O86  1  0.59166200  0.00939300  0.85482900  1
  O  O87  1  0.99060700  0.40833800  0.64517100  1
  O  O88  1  0.40833800  0.99060700  0.14517100  1
  O  O89  1  0.00939300  0.59166200  0.35482900  1
