# generated using pymatgen
data_Nb10Pb14O39
_symmetry_space_group_name_H-M   'P 1'
_cell_length_a   9.50579700
_cell_length_b   12.92945500
_cell_length_c   17.20716890
_cell_angle_alpha   80.25518104
_cell_angle_beta   90.00000000
_cell_angle_gamma   90.00000000
_symmetry_Int_Tables_number   1
_chemical_formula_structural   Nb10Pb14O39
_chemical_formula_sum   'Nb20 Pb28 O78'
_cell_volume   2084.32892079
_cell_formula_units_Z   2
loop_
 _symmetry_equiv_pos_site_id
 _symmetry_equiv_pos_as_xyz
  1  'x, y, z'
loop_
 _atom_site_type_symbol
 _atom_site_label
 _atom_site_symmetry_multiplicity
 _atom_site_fract_x
 _atom_site_fract_y
 _atom_site_fract_z
 _atom_site_occupancy
  Nb  Nb0  1  0.77871400  0.22971500  0.91479800  1
  Nb  Nb1  1  0.96959500  0.52520900  0.82303700  1
  Nb  Nb2  1  0.57325700  0.49680800  0.81706500  1
  Nb  Nb3  1  0.54572600  0.98439600  0.01627700  1
  Nb  Nb4  1  0.79796500  0.49962500  0.65806300  1
  Nb  Nb5  1  0.29983700  0.99444100  0.84130900  1
  Nb  Nb6  1  0.05487700  0.49676500  0.48980500  1
  Nb  Nb7  1  0.08108800  0.00605300  0.68180800  1
  Nb  Nb8  1  0.48053300  0.98571500  0.67524900  1
  Nb  Nb9  1  0.80481400  0.71790200  0.41952800  1
  Nb  Nb10  1  0.30481400  0.28209800  0.58047200  1
  Nb  Nb11  1  0.98053300  0.01428500  0.32475100  1
  Nb  Nb12  1  0.58108800  0.99394700  0.31819200  1
  Nb  Nb13  1  0.55487700  0.50323500  0.51019500  1
  Nb  Nb14  1  0.79983700  0.00555900  0.15869100  1
  Nb  Nb15  1  0.29796500  0.50037500  0.34193700  1
  Nb  Nb16  1  0.04572600  0.01560400  0.98372300  1
  Nb  Nb17  1  0.07325700  0.50319200  0.18293500  1
  Nb  Nb18  1  0.46959500  0.47479100  0.17696300  1
  Nb  Nb19  1  0.27871400  0.77028500  0.08520200  1
  Pb  Pb20  1  0.24234500  0.28329800  0.87444000  1
  Pb  Pb21  1  0.75306400  0.48867000  0.01541000  1
  Pb  Pb22  1  0.53598300  0.27046200  0.75905000  1
  Pb  Pb23  1  0.95043900  0.74478500  0.93420300  1
  Pb  Pb24  1  0.54524100  0.73460800  0.93365800  1
  Pb  Pb25  1  0.28755200  0.51820700  0.68672300  1
  Pb  Pb26  1  0.78319800  0.75910700  0.72992300  1
  Pb  Pb27  1  0.28270100  0.74017800  0.77546000  1
  Pb  Pb28  1  0.75150700  0.97979200  0.82507100  1
  Pb  Pb29  1  0.07539200  0.77017000  0.57358300  1
  Pb  Pb30  1  0.46394400  0.75562800  0.57576700  1
  Pb  Pb31  1  0.02591500  0.23776700  0.74988500  1
  Pb  Pb32  1  0.26666700  0.78006200  0.37687200  1
  Pb  Pb33  1  0.77523400  0.99116800  0.51303200  1
  Pb  Pb34  1  0.27523400  0.00883200  0.48696800  1
  Pb  Pb35  1  0.76666700  0.21993800  0.62312800  1
  Pb  Pb36  1  0.52591500  0.76223300  0.25011500  1
  Pb  Pb37  1  0.96394400  0.24437200  0.42423300  1
  Pb  Pb38  1  0.57539200  0.22983000  0.42641700  1
  Pb  Pb39  1  0.25150700  0.02020800  0.17492900  1
  Pb  Pb40  1  0.78270100  0.25982200  0.22454000  1
  Pb  Pb41  1  0.28319800  0.24089300  0.27007700  1
  Pb  Pb42  1  0.78755200  0.48179300  0.31327700  1
  Pb  Pb43  1  0.04524100  0.26539200  0.06634200  1
  Pb  Pb44  1  0.45043900  0.25521500  0.06579700  1
  Pb  Pb45  1  0.03598300  0.72953800  0.24095000  1
  Pb  Pb46  1  0.25306400  0.51133000  0.98459000  1
  Pb  Pb47  1  0.74234500  0.71670200  0.12556000  1
  O  O48  1  0.64756600  0.13141800  0.96414400  1
  O  O49  1  0.97869800  0.15692300  0.94226800  1
  O  O50  1  0.40926500  0.39991500  0.81442600  1
  O  O51  1  0.85699500  0.32858200  0.97406300  1
  O  O52  1  0.42118800  0.44513300  0.07607100  1
  O  O53  1  0.07613300  0.45860800  0.08341300  1
  O  O54  1  0.65895600  0.34360500  0.86317900  1
  O  O55  1  0.12444300  0.43649700  0.85140700  1
  O  O56  1  0.76355700  0.55990300  0.78266800  1
  O  O57  1  0.75220400  0.68404900  0.00698900  1
  O  O58  1  0.76895300  0.79402400  0.85359800  1
  O  O59  1  0.26517500  0.85633500  0.87527900  1
  O  O60  1  0.00555000  0.51090500  0.59214700  1
  O  O61  1  0.42114400  0.56049800  0.56974200  1
  O  O62  1  0.72997900  0.94896000  0.06606900  1
  O  O63  1  0.04391800  0.65444200  0.77638600  1
  O  O64  1  0.46522600  0.60536200  0.75734500  1
  O  O65  1  0.93221000  0.43027800  0.73800900  1
  O  O66  1  0.62065000  0.43814800  0.70409400  1
  O  O67  1  0.12896400  0.06434900  0.78432100  1
  O  O68  1  0.44015500  0.06649200  0.76587900  1
  O  O69  1  0.93211500  0.92462300  0.72235700  1
  O  O70  1  0.55628800  0.86037900  0.72646600  1
  O  O71  1  0.23111900  0.55020800  0.44058700  1
  O  O72  1  0.92003200  0.94234300  0.92983200  1
  O  O73  1  0.50169700  0.96972300  0.91037500  1
  O  O74  1  0.78261700  0.63922300  0.62522800  1
  O  O75  1  0.26011500  0.70907800  0.64815200  1
  O  O76  1  0.26986600  0.81590300  0.49487800  1
  O  O77  1  0.27145700  0.93512600  0.71851300  1
  O  O78  1  0.64389900  0.06944300  0.65083600  1
  O  O79  1  0.64357000  0.64812200  0.47257800  1
  O  O80  1  0.97915000  0.65254900  0.45246800  1
  O  O81  1  0.29004500  0.29883800  0.68408000  1
  O  O82  1  0.81126400  0.18783100  0.81123000  1
  O  O83  1  0.60859800  0.04709300  0.41619200  1
  O  O84  1  0.94717200  0.05620400  0.42560600  1
  O  O85  1  0.49841500  0.85735400  0.35805000  1
  O  O86  1  0.82406600  0.86196400  0.41896600  1
  O  O87  1  0.32406600  0.13803600  0.58103400  1
  O  O88  1  0.99841500  0.14264600  0.64195000  1
  O  O89  1  0.44717200  0.94379600  0.57439400  1
  O  O90  1  0.10859800  0.95290700  0.58380800  1
  O  O91  1  0.31126400  0.81216900  0.18877000  1
  O  O92  1  0.79004500  0.70116200  0.31592000  1
  O  O93  1  0.47915000  0.34745100  0.54753200  1
  O  O94  1  0.14357000  0.35187800  0.52742200  1
  O  O95  1  0.14389900  0.93055700  0.34916400  1
  O  O96  1  0.77145700  0.06487400  0.28148700  1
  O  O97  1  0.76986600  0.18409700  0.50512200  1
  O  O98  1  0.76011500  0.29092200  0.35184800  1
  O  O99  1  0.28261700  0.36077700  0.37477200  1
  O  O100  1  0.00169700  0.03027700  0.08962500  1
  O  O101  1  0.42003200  0.05765700  0.07016800  1
  O  O102  1  0.73111900  0.44979200  0.55941300  1
  O  O103  1  0.05628800  0.13962100  0.27353400  1
  O  O104  1  0.43211500  0.07537700  0.27764300  1
  O  O105  1  0.94015500  0.93350800  0.23412100  1
  O  O106  1  0.62896400  0.93565100  0.21567900  1
  O  O107  1  0.12065000  0.56185200  0.29590600  1
  O  O108  1  0.43221000  0.56972200  0.26199100  1
  O  O109  1  0.96522600  0.39463800  0.24265500  1
  O  O110  1  0.54391800  0.34555800  0.22361400  1
  O  O111  1  0.22997900  0.05104000  0.93393100  1
  O  O112  1  0.92114400  0.43950200  0.43025800  1
  O  O113  1  0.50555000  0.48909500  0.40785300  1
  O  O114  1  0.76517500  0.14366500  0.12472100  1
  O  O115  1  0.26895300  0.20597600  0.14640200  1
  O  O116  1  0.25220400  0.31595100  0.99301100  1
  O  O117  1  0.26355700  0.44009700  0.21733200  1
  O  O118  1  0.62444300  0.56350300  0.14859300  1
  O  O119  1  0.15895600  0.65639500  0.13682100  1
  O  O120  1  0.57613300  0.54139200  0.91658700  1
  O  O121  1  0.92118800  0.55486700  0.92392900  1
  O  O122  1  0.35699500  0.67141800  0.02593700  1
  O  O123  1  0.90926500  0.60008500  0.18557400  1
  O  O124  1  0.47869800  0.84307700  0.05773200  1
  O  O125  1  0.14756600  0.86858200  0.03585600  1
