# generated using pymatgen
data_Na2H5RuN5O12
_symmetry_space_group_name_H-M   'P 1'
_cell_length_a   9.87516384
_cell_length_b   9.87516384
_cell_length_c   7.52287632
_cell_angle_alpha   69.58645687
_cell_angle_beta   69.58645687
_cell_angle_gamma   97.11015195
_symmetry_Int_Tables_number   1
_chemical_formula_structural   Na2H5RuN5O12
_chemical_formula_sum   'Na4 H10 Ru2 N10 O24'
_cell_volume   618.70442942
_cell_formula_units_Z   2
loop_
 _symmetry_equiv_pos_site_id
 _symmetry_equiv_pos_as_xyz
  1  'x, y, z'
loop_
 _atom_site_type_symbol
 _atom_site_label
 _atom_site_symmetry_multiplicity
 _atom_site_fract_x
 _atom_site_fract_y
 _atom_site_fract_z
 _atom_site_occupancy
  Na  Na0  1  0.00000000  0.50000000  0.50000000  1
  Na  Na1  1  0.50000000  0.00000000  0.50000000  1
  Na  Na2  1  0.89133900  0.10866100  0.50000000  1
  Na  Na3  1  0.10866100  0.89133900  0.50000000  1
  H  H4  1  0.04362100  0.04362100  0.14324600  1
  H  H5  1  0.95637900  0.95637900  0.85675400  1
  H  H6  1  0.79743400  0.21650600  0.81325500  1
  H  H7  1  0.21650600  0.79743400  0.81325500  1
  H  H8  1  0.20256600  0.78349400  0.18674500  1
  H  H9  1  0.78349400  0.20256600  0.18674500  1
  H  H10  1  0.67816200  0.24332500  0.72629500  1
  H  H11  1  0.24332500  0.67816200  0.72629500  1
  H  H12  1  0.32183800  0.75667500  0.27370500  1
  H  H13  1  0.75667500  0.32183800  0.27370500  1
  Ru  Ru14  1  0.26317500  0.26317500  0.99676400  1
  Ru  Ru15  1  0.73682500  0.73682500  0.00323600  1
  N  N16  1  0.41973100  0.41973100  0.81089400  1
  N  N17  1  0.58026900  0.58026900  0.18910600  1
  N  N18  1  0.13034800  0.33170600  0.82892500  1
  N  N19  1  0.33170600  0.13034800  0.82892500  1
  N  N20  1  0.86965200  0.66829400  0.17107500  1
  N  N21  1  0.66829400  0.86965200  0.17107500  1
  N  N22  1  0.18089700  0.38745900  0.17258800  1
  N  N23  1  0.38745900  0.18089700  0.17258800  1
  N  N24  1  0.81910300  0.61254100  0.82741200  1
  N  N25  1  0.61254100  0.81910300  0.82741200  1
  O  O26  1  0.08878900  0.08878900  0.21389800  1
  O  O27  1  0.91121100  0.91121100  0.78610200  1
  O  O28  1  0.52265800  0.52265800  0.68902100  1
  O  O29  1  0.47734200  0.47734200  0.31097900  1
  O  O30  1  0.01795200  0.23821400  0.86016900  1
  O  O31  1  0.23821400  0.01795200  0.86016900  1
  O  O32  1  0.98204800  0.76178600  0.13983100  1
  O  O33  1  0.76178600  0.98204800  0.13983100  1
  O  O34  1  0.16754000  0.46548700  0.69707400  1
  O  O35  1  0.46548700  0.16754000  0.69707400  1
  O  O36  1  0.83246000  0.53451300  0.30292600  1
  O  O37  1  0.53451300  0.83246000  0.30292600  1
  O  O38  1  0.09988500  0.32166600  0.36582700  1
  O  O39  1  0.32166600  0.09988500  0.36582700  1
  O  O40  1  0.90011500  0.67833400  0.63417300  1
  O  O41  1  0.67833400  0.90011500  0.63417300  1
  O  O42  1  0.21470700  0.52695900  0.08090500  1
  O  O43  1  0.52695900  0.21470700  0.08090500  1
  O  O44  1  0.78529300  0.47304100  0.91909500  1
  O  O45  1  0.47304100  0.78529300  0.91909500  1
  O  O46  1  0.78513200  0.24817000  0.68303500  1
  O  O47  1  0.24817000  0.78513200  0.68303500  1
  O  O48  1  0.21486800  0.75183000  0.31696500  1
  O  O49  1  0.75183000  0.21486800  0.31696500  1
