# generated using pymatgen
data_Cs3Sn4Au
_symmetry_space_group_name_H-M   'P 1'
_cell_length_a   6.74943400
_cell_length_b   7.55143400
_cell_length_c   15.55288500
_cell_angle_alpha   90.00000000
_cell_angle_beta   90.00000000
_cell_angle_gamma   90.00000000
_symmetry_Int_Tables_number   1
_chemical_formula_structural   Cs3Sn4Au
_chemical_formula_sum   'Cs6 Sn8 Au2'
_cell_volume   792.69797120
_cell_formula_units_Z   2
loop_
 _symmetry_equiv_pos_site_id
 _symmetry_equiv_pos_as_xyz
  1  'x, y, z'
loop_
 _atom_site_type_symbol
 _atom_site_label
 _atom_site_symmetry_multiplicity
 _atom_site_fract_x
 _atom_site_fract_y
 _atom_site_fract_z
 _atom_site_occupancy
  Cs  Cs0  1  0.07474900  0.50000000  0.69448600  1
  Cs  Cs1  1  0.92525100  0.00000000  0.19448600  1
  Cs  Cs2  1  0.92525100  0.00000000  0.80551400  1
  Cs  Cs3  1  0.48519100  0.50000000  0.50000000  1
  Cs  Cs4  1  0.51480900  0.00000000  0.00000000  1
  Cs  Cs5  1  0.07474900  0.50000000  0.30551400  1
  Sn  Sn6  1  0.93484700  0.20349700  0.50000000  1
  Sn  Sn7  1  0.36868400  0.50000000  0.10046900  1
  Sn  Sn8  1  0.93484700  0.79650300  0.50000000  1
  Sn  Sn9  1  0.63131600  0.00000000  0.60046900  1
  Sn  Sn10  1  0.63131600  0.00000000  0.39953100  1
  Sn  Sn11  1  0.06515300  0.29650300  0.00000000  1
  Sn  Sn12  1  0.06515300  0.70349700  0.00000000  1
  Sn  Sn13  1  0.36868400  0.50000000  0.89953100  1
  Au  Au14  1  0.71522800  0.50000000  0.00000000  1
  Au  Au15  1  0.28477200  0.00000000  0.50000000  1
