# generated using pymatgen
data_NaFeP3H7O13
_symmetry_space_group_name_H-M   'P 1'
_cell_length_a   8.91854700
_cell_length_b   12.71062600
_cell_length_c   19.10278200
_cell_angle_alpha   90.00000000
_cell_angle_beta   90.00000000
_cell_angle_gamma   90.00000000
_symmetry_Int_Tables_number   1
_chemical_formula_structural   NaFeP3H7O13
_chemical_formula_sum   'Na8 Fe8 P24 H56 O104'
_cell_volume   2165.49739216
_cell_formula_units_Z   8
loop_
 _symmetry_equiv_pos_site_id
 _symmetry_equiv_pos_as_xyz
  1  'x, y, z'
loop_
 _atom_site_type_symbol
 _atom_site_label
 _atom_site_symmetry_multiplicity
 _atom_site_fract_x
 _atom_site_fract_y
 _atom_site_fract_z
 _atom_site_occupancy
  Na  Na0  1  0.19134600  0.98492500  0.26835200  1
  Na  Na1  1  0.30865400  0.51507500  0.76835200  1
  Na  Na2  1  0.69134600  0.51507500  0.73164800  1
  Na  Na3  1  0.80865400  0.98492500  0.23164800  1
  Na  Na4  1  0.80865400  0.01507500  0.73164800  1
  Na  Na5  1  0.69134600  0.48492500  0.23164800  1
  Na  Na6  1  0.30865400  0.48492500  0.26835200  1
  Na  Na7  1  0.19134600  0.01507500  0.76835200  1
  Fe  Fe8  1  0.25149700  0.75376100  0.87505700  1
  Fe  Fe9  1  0.24850300  0.74623900  0.37505700  1
  Fe  Fe10  1  0.75149700  0.74623900  0.12494300  1
  Fe  Fe11  1  0.74850300  0.75376100  0.62494300  1
  Fe  Fe12  1  0.74850300  0.24623900  0.12494300  1
  Fe  Fe13  1  0.75149700  0.25376100  0.62494300  1
  Fe  Fe14  1  0.24850300  0.25376100  0.87505700  1
  Fe  Fe15  1  0.25149700  0.24623900  0.37505700  1
  P  P16  1  0.05108500  0.79152000  0.02132000  1
  P  P17  1  0.44891500  0.70848000  0.52132000  1
  P  P18  1  0.55108500  0.70848000  0.97868000  1
  P  P19  1  0.94891500  0.79152000  0.47868000  1
  P  P20  1  0.94891500  0.20848000  0.97868000  1
  P  P21  1  0.55108500  0.29152000  0.47868000  1
  P  P22  1  0.44891500  0.29152000  0.02132000  1
  P  P23  1  0.05108500  0.20848000  0.52132000  1
  P  P24  1  0.50000000  0.78844700  0.75000000  1
  P  P25  1  0.00000000  0.71155300  0.25000000  1
  P  P26  1  0.50000000  0.21155300  0.25000000  1
  P  P27  1  0.00000000  0.28844700  0.75000000  1
  P  P28  1  0.00000000  0.70746400  0.75000000  1
  P  P29  1  0.50000000  0.79253600  0.25000000  1
  P  P30  1  0.00000000  0.29253600  0.25000000  1
  P  P31  1  0.50000000  0.20746400  0.75000000  1
  P  P32  1  0.15225400  0.50470000  0.91098000  1
  P  P33  1  0.34774600  0.99530000  0.41098000  1
  P  P34  1  0.65225400  0.99530000  0.08902000  1
  P  P35  1  0.84774600  0.50470000  0.58902000  1
  P  P36  1  0.84774600  0.49530000  0.08902000  1
  P  P37  1  0.65225400  0.00470000  0.58902000  1
  P  P38  1  0.34774600  0.00470000  0.91098000  1
  P  P39  1  0.15225400  0.49530000  0.41098000  1
  H  H40  1  0.17311900  0.94457900  0.01839000  1
  H  H41  1  0.32688100  0.55542100  0.51839000  1
  H  H42  1  0.67311800  0.55542100  0.98161000  1
  H  H43  1  0.82688200  0.94457900  0.48161000  1
  H  H44  1  0.82688200  0.05542100  0.98161000  1
  H  H45  1  0.67311800  0.44457900  0.48161000  1
  H  H46  1  0.32688100  0.44457900  0.01839000  1
  H  H47  1  0.17311900  0.05542100  0.51839000  1
  H  H48  1  0.25413500  0.70497300  0.04144700  1
  H  H49  1  0.24586500  0.79502700  0.54144700  1
  H  H50  1  0.75413500  0.79502700  0.95855300  1
  H  H51  1  0.74586500  0.70497300  0.45855300  1
  H  H52  1  0.74586500  0.29502700  0.95855300  1
  H  H53  1  0.75413500  0.20497300  0.45855300  1
  H  H54  1  0.24586500  0.20497300  0.04144700  1
  H  H55  1  0.25413500  0.29502700  0.54144700  1
  H  H56  1  0.62415500  0.84908700  0.83944500  1
  H  H57  1  0.87584500  0.65091300  0.33944500  1
  H  H58  1  0.12415500  0.65091300  0.16055500  1
  H  H59  1  0.37584500  0.84908700  0.66055500  1
  H  H60  1  0.37584500  0.15091300  0.16055500  1
  H  H61  1  0.12415500  0.34908700  0.66055500  1
  H  H62  1  0.87584500  0.34908700  0.83944500  1
  H  H63  1  0.62415500  0.15091300  0.33944500  1
  H  H64  1  0.07716200  0.59589500  0.66623000  1
  H  H65  1  0.42283800  0.90410500  0.16623000  1
  H  H66  1  0.57716200  0.90410500  0.33377000  1
  H  H67  1  0.92283800  0.59589500  0.83377000  1
  H  H68  1  0.92283800  0.40410500  0.33377000  1
  H  H69  1  0.57716200  0.09589500  0.83377000  1
  H  H70  1  0.42283800  0.09589500  0.66623000  1
  H  H71  1  0.07716200  0.40410500  0.16623000  1
  H  H72  1  0.91084800  0.50575600  0.94858600  1
  H  H73  1  0.58915200  0.99424400  0.44858600  1
  H  H74  1  0.41084800  0.99424400  0.05141400  1
  H  H75  1  0.08915200  0.50575600  0.55141400  1
  H  H76  1  0.08915200  0.49424400  0.05141400  1
  H  H77  1  0.41084800  0.00575600  0.55141400  1
  H  H78  1  0.58915200  0.00575600  0.94858600  1
  H  H79  1  0.91084800  0.49424400  0.44858600  1
  H  H80  1  0.05982000  0.99182700  0.12508700  1
  H  H81  1  0.44018000  0.50817300  0.62508700  1
  H  H82  1  0.55982000  0.50817300  0.87491300  1
  H  H83  1  0.94018000  0.99182700  0.37491300  1
  H  H84  1  0.94018000  0.00817300  0.87491300  1
  H  H85  1  0.55982000  0.49182700  0.37491300  1
  H  H86  1  0.44018000  0.49182700  0.12508700  1
  H  H87  1  0.05982000  0.00817300  0.62508700  1
  H  H88  1  0.02655500  0.10047400  0.16320100  1
  H  H89  1  0.47344500  0.39952600  0.66320100  1
  H  H90  1  0.52655500  0.39952600  0.83679900  1
  H  H91  1  0.97344500  0.10047400  0.33679900  1
  H  H92  1  0.97344500  0.89952600  0.83679900  1
  H  H93  1  0.52655500  0.60047400  0.33679900  1
  H  H94  1  0.47344500  0.60047400  0.16320100  1
  H  H95  1  0.02655500  0.89952600  0.66320100  1
  O  O96  1  0.08232800  0.77729300  0.94379500  1
  O  O97  1  0.41767200  0.72270700  0.44379500  1
  O  O98  1  0.58232800  0.72270700  0.05620500  1
  O  O99  1  0.91767200  0.77729300  0.55620500  1
  O  O100  1  0.91767200  0.22270700  0.05620500  1
  O  O101  1  0.58232800  0.27729300  0.55620500  1
  O  O102  1  0.41767200  0.27729300  0.94379500  1
  O  O103  1  0.08232800  0.22270700  0.44379500  1
  O  O104  1  0.89000800  0.76535100  0.04060100  1
  O  O105  1  0.60999200  0.73464900  0.54060100  1
  O  O106  1  0.39000800  0.73464900  0.95939900  1
  O  O107  1  0.10999200  0.76535100  0.45939900  1
  O  O108  1  0.10999200  0.23464900  0.95939900  1
  O  O109  1  0.39000800  0.26535100  0.45939900  1
  O  O110  1  0.60999200  0.26535100  0.04060100  1
  O  O111  1  0.89000800  0.23464900  0.54060100  1
  O  O112  1  0.08592100  0.90789100  0.04516300  1
  O  O113  1  0.41407900  0.59210900  0.54516300  1
  O  O114  1  0.58592100  0.59210900  0.95483700  1
  O  O115  1  0.91407900  0.90789100  0.45483700  1
  O  O116  1  0.91407900  0.09210900  0.95483700  1
  O  O117  1  0.58592100  0.40789100  0.45483700  1
  O  O118  1  0.41407900  0.40789100  0.04516300  1
  O  O119  1  0.08592100  0.09210900  0.54516300  1
  O  O120  1  0.15837600  0.71553900  0.06651400  1
  O  O121  1  0.34162400  0.78446100  0.56651400  1
  O  O122  1  0.65837600  0.78446100  0.93348600  1
  O  O123  1  0.84162400  0.71553900  0.43348600  1
  O  O124  1  0.84162400  0.28446100  0.93348600  1
  O  O125  1  0.65837600  0.21553900  0.43348600  1
  O  O126  1  0.34162400  0.21553900  0.06651400  1
  O  O127  1  0.15837600  0.28446100  0.56651400  1
  O  O128  1  0.41580600  0.72192700  0.80355300  1
  O  O129  1  0.08419400  0.77807300  0.30355300  1
  O  O130  1  0.91580600  0.77807300  0.19644700  1
  O  O131  1  0.58419400  0.72192700  0.69644700  1
  O  O132  1  0.58419400  0.27807300  0.19644700  1
  O  O133  1  0.91580600  0.22192700  0.69644700  1
  O  O134  1  0.08419400  0.22192700  0.80355300  1
  O  O135  1  0.41580600  0.27807300  0.30355300  1
  O  O136  1  0.61095400  0.86663900  0.78959400  1
  O  O137  1  0.88904600  0.63336100  0.28959400  1
  O  O138  1  0.11095400  0.63336100  0.21040600  1
  O  O139  1  0.38904600  0.86663900  0.71040600  1
  O  O140  1  0.38904600  0.13336100  0.21040600  1
  O  O141  1  0.11095400  0.36663900  0.71040600  1
  O  O142  1  0.88904600  0.36663900  0.78959400  1
  O  O143  1  0.61095400  0.13336100  0.28959400  1
  O  O144  1  0.09263600  0.77517700  0.79945500  1
  O  O145  1  0.40736400  0.72482300  0.29945500  1
  O  O146  1  0.59263600  0.72482300  0.20054500  1
  O  O147  1  0.90736400  0.77517700  0.70054500  1
  O  O148  1  0.90736400  0.22482300  0.20054500  1
  O  O149  1  0.59263600  0.27517700  0.70054500  1
  O  O150  1  0.40736400  0.27517700  0.79945500  1
  O  O151  1  0.09263600  0.22482300  0.29945500  1
  O  O152  1  0.11460100  0.63361000  0.70895100  1
  O  O153  1  0.38539900  0.86639000  0.20895100  1
  O  O154  1  0.61460100  0.86639000  0.29104900  1
  O  O155  1  0.88539900  0.63361000  0.79104900  1
  O  O156  1  0.88539900  0.36639000  0.29104900  1
  O  O157  1  0.61460100  0.13361000  0.79104900  1
  O  O158  1  0.38539900  0.13361000  0.70895100  1
  O  O159  1  0.11460100  0.36639000  0.20895100  1
  O  O160  1  0.97419700  0.51682800  0.90401300  1
  O  O161  1  0.52580300  0.98317200  0.40401300  1
  O  O162  1  0.47419700  0.98317200  0.09598700  1
  O  O163  1  0.02580300  0.51682800  0.59598700  1
  O  O164  1  0.02580300  0.48317200  0.09598700  1
  O  O165  1  0.47419700  0.01682800  0.59598700  1
  O  O166  1  0.52580300  0.01682800  0.90401300  1
  O  O167  1  0.97419700  0.48317200  0.40401300  1
  O  O168  1  0.19376800  0.50077800  0.98884300  1
  O  O169  1  0.30623200  0.99922200  0.48884300  1
  O  O170  1  0.69376800  0.99922200  0.01115700  1
  O  O171  1  0.80623200  0.50077800  0.51115700  1
  O  O172  1  0.80623200  0.49922200  0.01115700  1
  O  O173  1  0.69376800  0.00077800  0.51115700  1
  O  O174  1  0.30623200  0.00077800  0.98884300  1
  O  O175  1  0.19376800  0.49922200  0.48884300  1
  O  O176  1  0.21665200  0.59907900  0.87076700  1
  O  O177  1  0.28334800  0.90092100  0.37076700  1
  O  O178  1  0.71665200  0.90092100  0.12923300  1
  O  O179  1  0.78334800  0.59907900  0.62923300  1
  O  O180  1  0.78334800  0.40092100  0.12923300  1
  O  O181  1  0.71665200  0.09907900  0.62923300  1
  O  O182  1  0.28334800  0.09907900  0.87076700  1
  O  O183  1  0.21665200  0.40092100  0.37076700  1
  O  O184  1  0.20208200  0.40674900  0.86969400  1
  O  O185  1  0.29791800  0.09325100  0.36969400  1
  O  O186  1  0.70208200  0.09325100  0.13030600  1
  O  O187  1  0.79791800  0.40674900  0.63030600  1
  O  O188  1  0.79791800  0.59325100  0.13030600  1
  O  O189  1  0.70208200  0.90674900  0.63030600  1
  O  O190  1  0.29791800  0.90674900  0.86969400  1
  O  O191  1  0.20208200  0.59325100  0.36969400  1
  O  O192  1  0.05640600  0.02727600  0.17081200  1
  O  O193  1  0.44359400  0.47272400  0.67081200  1
  O  O194  1  0.55640600  0.47272400  0.82918800  1
  O  O195  1  0.94359400  0.02727600  0.32918800  1
  O  O196  1  0.94359400  0.97272400  0.82918800  1
  O  O197  1  0.55640600  0.52727600  0.32918800  1
  O  O198  1  0.44359400  0.52727600  0.17081200  1
  O  O199  1  0.05640600  0.97272400  0.67081200  1
