# generated using pymatgen
data_Na2WO6
_symmetry_space_group_name_H-M   'P 1'
_cell_length_a   10.53431200
_cell_length_b   8.97620200
_cell_length_c   11.77078600
_cell_angle_alpha   90.00000000
_cell_angle_beta   90.00000000
_cell_angle_gamma   90.00000000
_symmetry_Int_Tables_number   1
_chemical_formula_structural   Na2WO6
_chemical_formula_sum   'Na16 W8 O48'
_cell_volume   1113.02330613
_cell_formula_units_Z   8
loop_
 _symmetry_equiv_pos_site_id
 _symmetry_equiv_pos_as_xyz
  1  'x, y, z'
loop_
 _atom_site_type_symbol
 _atom_site_label
 _atom_site_symmetry_multiplicity
 _atom_site_fract_x
 _atom_site_fract_y
 _atom_site_fract_z
 _atom_site_occupancy
  Na  Na0  1  0.34611000  0.19310600  0.36482800  1
  Na  Na1  1  0.84611000  0.30689400  0.63517200  1
  Na  Na2  1  0.65389000  0.69310600  0.13517200  1
  Na  Na3  1  0.15389000  0.80689400  0.86482800  1
  Na  Na4  1  0.65389000  0.80689400  0.63517200  1
  Na  Na5  1  0.15389000  0.69310600  0.36482800  1
  Na  Na6  1  0.34611000  0.30689400  0.86482800  1
  Na  Na7  1  0.84611000  0.19310600  0.13517200  1
  Na  Na8  1  0.94762800  0.63670100  0.68672500  1
  Na  Na9  1  0.44762800  0.86329900  0.31327500  1
  Na  Na10  1  0.05237200  0.13670100  0.81327500  1
  Na  Na11  1  0.55237200  0.36329900  0.18672500  1
  Na  Na12  1  0.05237200  0.36329900  0.31327500  1
  Na  Na13  1  0.55237200  0.13670100  0.68672500  1
  Na  Na14  1  0.94762800  0.86329900  0.18672500  1
  Na  Na15  1  0.44762800  0.63670100  0.81327500  1
  W  W16  1  0.70942500  0.11532700  0.39268100  1
  W  W17  1  0.20942500  0.38467300  0.60731900  1
  W  W18  1  0.29057500  0.61532700  0.10731900  1
  W  W19  1  0.79057500  0.88467300  0.89268100  1
  W  W20  1  0.29057500  0.88467300  0.60731900  1
  W  W21  1  0.79057500  0.61532700  0.39268100  1
  W  W22  1  0.70942500  0.38467300  0.89268100  1
  W  W23  1  0.20942500  0.11532700  0.10731900  1
  O  O24  1  0.81216400  0.02959100  0.28560900  1
  O  O25  1  0.31216400  0.47040900  0.71439100  1
  O  O26  1  0.18783600  0.52959100  0.21439100  1
  O  O27  1  0.68783600  0.97040900  0.78560900  1
  O  O28  1  0.18783600  0.97040900  0.71439100  1
  O  O29  1  0.68783600  0.52959100  0.28560900  1
  O  O30  1  0.81216400  0.47040900  0.78560900  1
  O  O31  1  0.31216400  0.02959100  0.21439100  1
  O  O32  1  0.56368000  0.17750500  0.32641300  1
  O  O33  1  0.06368000  0.32249500  0.67358700  1
  O  O34  1  0.43632000  0.67750500  0.17358700  1
  O  O35  1  0.93632000  0.82249500  0.82641300  1
  O  O36  1  0.43632000  0.82249500  0.67358700  1
  O  O37  1  0.93632000  0.67750500  0.32641300  1
  O  O38  1  0.56368000  0.32249500  0.82641300  1
  O  O39  1  0.06368000  0.17750500  0.17358700  1
  O  O40  1  0.70663900  0.15597400  0.54586400  1
  O  O41  1  0.20663900  0.34402600  0.45413600  1
  O  O42  1  0.29336100  0.65597400  0.95413600  1
  O  O43  1  0.79336100  0.84402600  0.04586400  1
  O  O44  1  0.29336100  0.84402600  0.45413600  1
  O  O45  1  0.79336100  0.65597400  0.54586400  1
  O  O46  1  0.70663900  0.34402600  0.04586400  1
  O  O47  1  0.20663900  0.15597400  0.95413600  1
  O  O48  1  0.03634400  0.01666200  0.46077100  1
  O  O49  1  0.53634400  0.48333800  0.53922900  1
  O  O50  1  0.96365600  0.51666200  0.03922900  1
  O  O51  1  0.46365600  0.98333800  0.96077100  1
  O  O52  1  0.96365600  0.98333800  0.53922900  1
  O  O53  1  0.46365600  0.51666200  0.46077100  1
  O  O54  1  0.03634400  0.48333800  0.96077100  1
  O  O55  1  0.53634400  0.01666200  0.03922900  1
  O  O56  1  0.83782500  0.28429800  0.36602800  1
  O  O57  1  0.33782500  0.21570200  0.63397200  1
  O  O58  1  0.16217500  0.78429800  0.13397200  1
  O  O59  1  0.66217500  0.71570200  0.86602800  1
  O  O60  1  0.16217500  0.71570200  0.63397200  1
  O  O61  1  0.66217500  0.78429800  0.36602800  1
  O  O62  1  0.83782500  0.21570200  0.86602800  1
  O  O63  1  0.33782500  0.28429800  0.13397200  1
  O  O64  1  0.66063000  0.90920000  0.44869100  1
  O  O65  1  0.16063000  0.59080000  0.55130900  1
  O  O66  1  0.33937000  0.40920000  0.05130900  1
  O  O67  1  0.83937000  0.09080000  0.94869100  1
  O  O68  1  0.33937000  0.09080000  0.55130900  1
  O  O69  1  0.83937000  0.40920000  0.44869100  1
  O  O70  1  0.66063000  0.59080000  0.94869100  1
  O  O71  1  0.16063000  0.90920000  0.05130900  1
