# generated using pymatgen
data_K3ErH9(C3O7)2
_symmetry_space_group_name_H-M   'P 1'
_cell_length_a   7.40412946
_cell_length_b   7.40412946
_cell_length_c   16.39668344
_cell_angle_alpha   87.70131409
_cell_angle_beta   87.70131409
_cell_angle_gamma   77.76105177
_symmetry_Int_Tables_number   1
_chemical_formula_structural   K3ErH9(C3O7)2
_chemical_formula_sum   'K6 Er2 H18 C12 O28'
_cell_volume   877.28814091
_cell_formula_units_Z   2
loop_
 _symmetry_equiv_pos_site_id
 _symmetry_equiv_pos_as_xyz
  1  'x, y, z'
loop_
 _atom_site_type_symbol
 _atom_site_label
 _atom_site_symmetry_multiplicity
 _atom_site_fract_x
 _atom_site_fract_y
 _atom_site_fract_z
 _atom_site_occupancy
  K  K0  1  0.38396200  0.85250200  0.74388200  1
  K  K1  1  0.85250200  0.38396200  0.24388200  1
  K  K2  1  0.31929800  0.43092200  0.37461800  1
  K  K3  1  0.43092200  0.31929800  0.87461800  1
  K  K4  1  0.88777300  0.05294100  0.66757600  1
  K  K5  1  0.05294100  0.88777300  0.16757600  1
  Er  Er6  1  0.51751800  0.96794800  0.50001000  1
  Er  Er7  1  0.96794800  0.51751800  0.00001000  1
  H  H8  1  0.14063000  0.67573800  0.55716000  1
  H  H9  1  0.67573800  0.14063000  0.05716000  1
  H  H10  1  0.71787100  0.51073700  0.52866100  1
  H  H11  1  0.51073700  0.71787100  0.02866100  1
  H  H12  1  0.21616000  0.87268800  0.34595300  1
  H  H13  1  0.87268800  0.21616000  0.84595300  1
  H  H14  1  0.95742200  0.77069700  0.44172900  1
  H  H15  1  0.77069700  0.95742200  0.94172900  1
  H  H16  1  0.93503400  0.25558100  0.44729100  1
  H  H17  1  0.25558100  0.93503400  0.94729100  1
  H  H18  1  0.33499600  0.38217600  0.64585400  1
  H  H19  1  0.38217600  0.33499600  0.14585400  1
  H  H20  1  0.55793700  0.69532700  0.32556100  1
  H  H21  1  0.69532700  0.55793700  0.82556100  1
  H  H22  1  0.51122000  0.70748500  0.23300400  1
  H  H23  1  0.70748500  0.51122000  0.73300400  1
  H  H24  1  0.97884500  0.58918100  0.72122600  1
  H  H25  1  0.58918100  0.97884500  0.22122600  1
  C  C26  1  0.24715300  0.75737600  0.54037100  1
  C  C27  1  0.75737600  0.24715300  0.04037100  1
  C  C28  1  0.74967100  0.57610300  0.58473300  1
  C  C29  1  0.57610300  0.74967100  0.08473300  1
  C  C30  1  0.23534300  0.01751500  0.33918400  1
  C  C31  1  0.01751500  0.23534300  0.83918400  1
  C  C32  1  0.87535900  0.73710400  0.39084000  1
  C  C33  1  0.73710400  0.87535900  0.89084000  1
  C  C34  1  0.80655100  0.19852600  0.44797000  1
  C  C35  1  0.19852600  0.80655100  0.94797000  1
  C  C36  1  0.39564300  0.26492300  0.60618800  1
  C  C37  1  0.26492300  0.39564300  0.10618800  1
  O  O38  1  0.36189000  0.70657300  0.48211600  1
  O  O39  1  0.70657300  0.36189000  0.98211600  1
  O  O40  1  0.25067100  0.89994700  0.58122500  1
  O  O41  1  0.89994700  0.25067100  0.08122500  1
  O  O42  1  0.68400800  0.74957200  0.58980700  1
  O  O43  1  0.74957200  0.68400800  0.08980700  1
  O  O44  1  0.84443800  0.47355200  0.63774500  1
  O  O45  1  0.47355200  0.84443800  0.13774500  1
  O  O46  1  0.34074600  0.06449100  0.39112600  1
  O  O47  1  0.06449100  0.34074600  0.89112600  1
  O  O48  1  0.15502100  0.12056000  0.28340600  1
  O  O49  1  0.12056000  0.15502100  0.78340600  1
  O  O50  1  0.69917700  0.79370800  0.39968300  1
  O  O51  1  0.79370800  0.69917700  0.89968300  1
  O  O52  1  0.96120900  0.64966400  0.33254300  1
  O  O53  1  0.64966400  0.96120900  0.83254300  1
  O  O54  1  0.78918500  0.08270600  0.50694100  1
  O  O55  1  0.08270600  0.78918500  0.00694100  1
  O  O56  1  0.69236400  0.24978700  0.39321100  1
  O  O57  1  0.24978700  0.69236400  0.89321100  1
  O  O58  1  0.50536100  0.12473100  0.63647800  1
  O  O59  1  0.12473100  0.50536100  0.13647800  1
  O  O60  1  0.35153800  0.27442500  0.53160500  1
  O  O61  1  0.27442500  0.35153800  0.03160500  1
  O  O62  1  0.51490600  0.62657300  0.28237300  1
  O  O63  1  0.62657300  0.51490600  0.78237300  1
  O  O64  1  0.06156600  0.67717500  0.72533000  1
  O  O65  1  0.67717500  0.06156600  0.22533000  1
