# generated using pymatgen
data_Cs2H4RuNCl5O3
_symmetry_space_group_name_H-M   'P 1'
_cell_length_a   7.07214000
_cell_length_b   11.94429200
_cell_length_c   16.43605561
_cell_angle_alpha   76.51482001
_cell_angle_beta   90.00000000
_cell_angle_gamma   90.00000000
_symmetry_Int_Tables_number   1
_chemical_formula_structural   Cs2H4RuNCl5O3
_chemical_formula_sum   'Cs8 H16 Ru4 N4 Cl20 O12'
_cell_volume   1350.10433793
_cell_formula_units_Z   4
loop_
 _symmetry_equiv_pos_site_id
 _symmetry_equiv_pos_as_xyz
  1  'x, y, z'
loop_
 _atom_site_type_symbol
 _atom_site_label
 _atom_site_symmetry_multiplicity
 _atom_site_fract_x
 _atom_site_fract_y
 _atom_site_fract_z
 _atom_site_occupancy
  Cs  Cs0  1  0.96173500  0.55133100  0.66134100  1
  Cs  Cs1  1  0.46173500  0.44866900  0.83865900  1
  Cs  Cs2  1  0.03826500  0.44866900  0.33865900  1
  Cs  Cs3  1  0.53826500  0.55133100  0.16134100  1
  Cs  Cs4  1  0.84174000  0.15788700  0.92421700  1
  Cs  Cs5  1  0.34174000  0.84211300  0.57578300  1
  Cs  Cs6  1  0.15826000  0.84211300  0.07578300  1
  Cs  Cs7  1  0.65826000  0.15788700  0.42421700  1
  H  H8  1  0.86357600  0.58572700  0.92202200  1
  H  H9  1  0.36357600  0.41427300  0.57797800  1
  H  H10  1  0.13642400  0.41427300  0.07797800  1
  H  H11  1  0.63642400  0.58572700  0.42202200  1
  H  H12  1  0.88532400  0.63036300  0.00743500  1
  H  H13  1  0.38532400  0.36963700  0.49256500  1
  H  H14  1  0.11467600  0.36963700  0.99256500  1
  H  H15  1  0.61467600  0.63036300  0.50743500  1
  H  H16  1  0.75263200  0.27181600  0.70127100  1
  H  H17  1  0.25263200  0.72818400  0.79872900  1
  H  H18  1  0.24736800  0.72818400  0.29872900  1
  H  H19  1  0.74736800  0.27181600  0.20127100  1
  H  H20  1  0.56060300  0.22102200  0.72840600  1
  H  H21  1  0.06060300  0.77897800  0.77159400  1
  H  H22  1  0.43939700  0.77897800  0.27159400  1
  H  H23  1  0.93939700  0.22102200  0.22840600  1
  Ru  Ru24  1  0.65978100  0.79553800  0.90040900  1
  Ru  Ru25  1  0.15978100  0.20446200  0.59959100  1
  Ru  Ru26  1  0.34021900  0.20446200  0.09959100  1
  Ru  Ru27  1  0.84021900  0.79553800  0.40040900  1
  N  N28  1  0.01985600  0.08601400  0.64059500  1
  N  N29  1  0.51985600  0.91398600  0.85940500  1
  N  N30  1  0.98014400  0.91398600  0.35940500  1
  N  N31  1  0.48014400  0.08601400  0.14059500  1
  Cl  Cl32  1  0.83126400  0.83579700  0.53707800  1
  Cl  Cl33  1  0.33126400  0.16420300  0.96292200  1
  Cl  Cl34  1  0.16873600  0.16420300  0.46292200  1
  Cl  Cl35  1  0.66873600  0.83579700  0.03707800  1
  Cl  Cl36  1  0.67347000  0.73552600  0.77182400  1
  Cl  Cl37  1  0.17347000  0.26447400  0.72817600  1
  Cl  Cl38  1  0.32653000  0.26447400  0.22817600  1
  Cl  Cl39  1  0.82653000  0.73552600  0.27182400  1
  Cl  Cl40  1  0.88773900  0.32518100  0.55745200  1
  Cl  Cl41  1  0.38773900  0.67481900  0.94254800  1
  Cl  Cl42  1  0.11226100  0.67481900  0.44254800  1
  Cl  Cl43  1  0.61226100  0.32518100  0.05745200  1
  Cl  Cl44  1  0.45275800  0.10098700  0.63238600  1
  Cl  Cl45  1  0.95275800  0.89901300  0.86761400  1
  Cl  Cl46  1  0.54724200  0.89901300  0.36761400  1
  Cl  Cl47  1  0.04724200  0.10098700  0.13238600  1
  Cl  Cl48  1  0.46936700  0.55299700  0.61835900  1
  Cl  Cl49  1  0.96936700  0.44700300  0.88164100  1
  Cl  Cl50  1  0.53063300  0.44700300  0.38164100  1
  Cl  Cl51  1  0.03063300  0.55299700  0.11835900  1
  O  O52  1  0.82345100  0.64750800  0.95120700  1
  O  O53  1  0.32345100  0.35249200  0.54879300  1
  O  O54  1  0.17654900  0.35249200  0.04879300  1
  O  O55  1  0.67654900  0.64750800  0.45120700  1
  O  O56  1  0.92244000  0.00736500  0.66721400  1
  O  O57  1  0.42244000  0.99263500  0.83278600  1
  O  O58  1  0.07756000  0.99263500  0.33278600  1
  O  O59  1  0.57756000  0.00736500  0.16721400  1
  O  O60  1  0.66651800  0.25929300  0.74917800  1
  O  O61  1  0.16651800  0.74070700  0.75082200  1
  O  O62  1  0.33348200  0.74070700  0.25082200  1
  O  O63  1  0.83348200  0.25929300  0.24917800  1
