# generated using pymatgen
data_ZnH2(CO2)2
_symmetry_space_group_name_H-M   'P 1'
_cell_length_a   13.80571900
_cell_length_b   7.79878800
_cell_length_c   12.75638555
_cell_angle_alpha   78.29994002
_cell_angle_beta   90.00000000
_cell_angle_gamma   90.00000000
_symmetry_Int_Tables_number   1
_chemical_formula_structural   ZnH2(CO2)2
_chemical_formula_sum   'Zn12 H24 C24 O48'
_cell_volume   1344.91614972
_cell_formula_units_Z   12
loop_
 _symmetry_equiv_pos_site_id
 _symmetry_equiv_pos_as_xyz
  1  'x, y, z'
loop_
 _atom_site_type_symbol
 _atom_site_label
 _atom_site_symmetry_multiplicity
 _atom_site_fract_x
 _atom_site_fract_y
 _atom_site_fract_z
 _atom_site_occupancy
  Zn  Zn0  1  0.01145800  0.49995400  0.10218400  1
  Zn  Zn1  1  0.51145800  0.50004600  0.89781600  1
  Zn  Zn2  1  0.11782800  0.19724400  0.99932000  1
  Zn  Zn3  1  0.61782800  0.80275600  0.00068000  1
  Zn  Zn4  1  0.99549500  0.90935500  0.92485700  1
  Zn  Zn5  1  0.49549500  0.09064500  0.07514300  1
  Zn  Zn6  1  0.76197000  0.72855100  0.42552200  1
  Zn  Zn7  1  0.26197000  0.27144900  0.57447800  1
  Zn  Zn8  1  0.87627700  0.36658600  0.52287000  1
  Zn  Zn9  1  0.37627700  0.63341400  0.47713000  1
  Zn  Zn10  1  0.74594200  0.01233800  0.58512900  1
  Zn  Zn11  1  0.24594200  0.98766200  0.41487100  1
  H  H12  1  0.13784200  0.32121600  0.28949800  1
  H  H13  1  0.63784200  0.67878400  0.71050200  1
  H  H14  1  0.12094900  0.52776500  0.79844600  1
  H  H15  1  0.62094900  0.47223500  0.20155400  1
  H  H16  1  0.92095300  0.73015100  0.24934400  1
  H  H17  1  0.42095300  0.26984900  0.75065600  1
  H  H18  1  0.82535100  0.12213600  0.04770700  1
  H  H19  1  0.32535100  0.87786400  0.95229300  1
  H  H20  1  0.79922200  0.58118700  0.08973000  1
  H  H21  1  0.29922200  0.41881300  0.91027000  1
  H  H22  1  0.13017600  0.04957300  0.71301800  1
  H  H23  1  0.63017600  0.95042700  0.28698200  1
  H  H24  1  0.20700600  0.85391500  0.15723500  1
  H  H25  1  0.70700600  0.14608500  0.84276500  1
  H  H26  1  0.91370900  0.73751200  0.70048400  1
  H  H27  1  0.41370900  0.26248800  0.29951600  1
  H  H28  1  0.52169800  0.93970900  0.53702200  1
  H  H29  1  0.02169800  0.06029100  0.46297800  1
  H  H30  1  0.58552000  0.45074800  0.49879500  1
  H  H31  1  0.08552000  0.54925200  0.50120500  1
  H  H32  1  0.87918500  0.20751200  0.30040700  1
  H  H33  1  0.37918500  0.79248800  0.69959300  1
  H  H34  1  0.92752600  0.23460000  0.77061200  1
  H  H35  1  0.42752600  0.76540000  0.22938800  1
  C  C36  1  0.14151400  0.22453000  0.23701600  1
  C  C37  1  0.64151400  0.77547000  0.76298400  1
  C  C38  1  0.08774900  0.58109500  0.86400100  1
  C  C39  1  0.58774900  0.41890500  0.13599900  1
  C  C40  1  0.92427600  0.59651400  0.29898600  1
  C  C41  1  0.42427600  0.40348600  0.70101400  1
  C  C42  1  0.89381200  0.19673400  0.04323900  1
  C  C43  1  0.39381200  0.80326600  0.95676100  1
  C  C44  1  0.82617300  0.70335700  0.03869900  1
  C  C45  1  0.32617300  0.29664300  0.96130100  1
  C  C46  1  0.14107200  0.15371700  0.75891400  1
  C  C47  1  0.64107200  0.84628300  0.24108600  1
  C  C48  1  0.14825300  0.80197700  0.11407600  1
  C  C49  1  0.64825300  0.19802300  0.88592400  1
  C  C50  1  0.88722600  0.68132800  0.63300500  1
  C  C51  1  0.38722600  0.31867200  0.36699500  1
  C  C52  1  0.56265800  0.84523000  0.50019900  1
  C  C53  1  0.06265800  0.15477000  0.49980100  1
  C  C54  1  0.65231500  0.37511300  0.52234300  1
  C  C55  1  0.15231500  0.62488700  0.47765700  1
  C  C56  1  0.84314000  0.10661700  0.36119900  1
  C  C57  1  0.34314000  0.89338300  0.63880100  1
  C  C58  1  0.89087500  0.12449300  0.74449100  1
  C  C59  1  0.39087500  0.87550700  0.25550900  1
  O  O60  1  0.09886200  0.26933900  0.14591300  1
  O  O61  1  0.59886200  0.73066100  0.85408700  1
  O  O62  1  0.18481800  0.08203200  0.26709200  1
  O  O63  1  0.68481800  0.91796800  0.73290800  1
  O  O64  1  0.07860300  0.47287500  0.95415300  1
  O  O65  1  0.57860300  0.52712500  0.04584700  1
  O  O66  1  0.06263200  0.73903700  0.84372200  1
  O  O67  1  0.56263200  0.26096300  0.15627800  1
  O  O68  1  0.96318700  0.47459900  0.26345200  1
  O  O69  1  0.46318700  0.52540100  0.73654800  1
  O  O70  1  0.88608700  0.57869500  0.39264400  1
  O  O71  1  0.38608700  0.42130500  0.60735600  1
  O  O72  1  0.89569400  0.33048300  0.08451000  1
  O  O73  1  0.39569400  0.66951700  0.91549000  1
  O  O74  1  0.96444500  0.13771900  0.99585900  1
  O  O75  1  0.46444500  0.86228100  0.00414100  1
  O  O76  1  0.91894700  0.71593800  0.02915000  1
  O  O77  1  0.41894700  0.28406200  0.97085000  1
  O  O78  1  0.76781800  0.81945200  0.99444800  1
  O  O79  1  0.26781800  0.18054800  0.00555200  1
  O  O80  1  0.09928700  0.12844500  0.85035700  1
  O  O81  1  0.59928700  0.87155500  0.14964300  1
  O  O82  1  0.19191900  0.28636100  0.71949300  1
  O  O83  1  0.69191900  0.71363900  0.28050700  1
  O  O84  1  0.10609700  0.91427900  0.04063600  1
  O  O85  1  0.60609700  0.08572100  0.95936400  1
  O  O86  1  0.12771400  0.64219900  0.14074700  1
  O  O87  1  0.62771400  0.35780100  0.85925300  1
  O  O88  1  0.82801700  0.77794200  0.56854100  1
  O  O89  1  0.32801700  0.22205800  0.43145900  1
  O  O90  1  0.91702100  0.53185000  0.62567100  1
  O  O91  1  0.41702100  0.46815000  0.37432900  1
  O  O92  1  0.65446900  0.87135200  0.49112600  1
  O  O93  1  0.15446900  0.12864800  0.50887400  1
  O  O94  1  0.51987200  0.72257700  0.46869900  1
  O  O95  1  0.01987200  0.27742300  0.53130100  1
  O  O96  1  0.73185000  0.46402400  0.51008700  1
  O  O97  1  0.23185000  0.53597600  0.48991300  1
  O  O98  1  0.64433000  0.21368200  0.55784400  1
  O  O99  1  0.14433000  0.78631800  0.44215600  1
  O  O100  1  0.82361200  0.15104400  0.45068500  1
  O  O101  1  0.32361200  0.84895600  0.54931500  1
  O  O102  1  0.82494900  0.96099200  0.33754100  1
  O  O103  1  0.32494900  0.03900800  0.66245900  1
  O  O104  1  0.84031000  0.16420000  0.65844600  1
  O  O105  1  0.34031000  0.83580000  0.34155400  1
  O  O106  1  0.90032900  0.97112200  0.79827100  1
  O  O107  1  0.40032900  0.02887800  0.20172900  1
