# generated using pymatgen
data_VH21C7N4Cl7
_symmetry_space_group_name_H-M   'P 1'
_cell_length_a   12.37440919
_cell_length_b   12.37440919
_cell_length_c   21.41289998
_cell_angle_alpha   66.55659440
_cell_angle_beta   66.55659440
_cell_angle_gamma   34.01286850
_symmetry_Int_Tables_number   1
_chemical_formula_structural   VH21C7N4Cl7
_chemical_formula_sum   'V4 H84 C28 N16 Cl28'
_cell_volume   1667.86525514
_cell_formula_units_Z   4
loop_
 _symmetry_equiv_pos_site_id
 _symmetry_equiv_pos_as_xyz
  1  'x, y, z'
loop_
 _atom_site_type_symbol
 _atom_site_label
 _atom_site_symmetry_multiplicity
 _atom_site_fract_x
 _atom_site_fract_y
 _atom_site_fract_z
 _atom_site_occupancy
  V  V0  1  0.80287900  0.23467900  0.29203600  1
  V  V1  1  0.76532100  0.19712100  0.20796400  1
  V  V2  1  0.19712100  0.76532100  0.70796400  1
  V  V3  1  0.23467900  0.80287900  0.79203600  1
  H  H4  1  0.88612000  0.25138000  0.41346300  1
  H  H5  1  0.74862000  0.11388000  0.08653700  1
  H  H6  1  0.11388000  0.74862000  0.58653700  1
  H  H7  1  0.25138000  0.88612000  0.91346300  1
  H  H8  1  0.02912300  0.11923400  0.47470000  1
  H  H9  1  0.88076600  0.97087700  0.02530000  1
  H  H10  1  0.97087700  0.88076600  0.52530000  1
  H  H11  1  0.11923400  0.02912300  0.97470000  1
  H  H12  1  0.72829600  0.43114100  0.07617400  1
  H  H13  1  0.56885900  0.27170400  0.42382600  1
  H  H14  1  0.27170400  0.56885900  0.92382600  1
  H  H15  1  0.43114100  0.72829600  0.57617400  1
  H  H16  1  0.84377600  0.47880600  0.04543900  1
  H  H17  1  0.52119400  0.15622400  0.45456100  1
  H  H18  1  0.15622400  0.52119400  0.95456100  1
  H  H19  1  0.47880600  0.84377600  0.54543900  1
  H  H20  1  0.58448800  0.67570400  0.06645700  1
  H  H21  1  0.32429600  0.41551200  0.43354300  1
  H  H22  1  0.41551200  0.32429600  0.93354300  1
  H  H23  1  0.67570400  0.58448800  0.56645700  1
  H  H24  1  0.75348300  0.65893500  0.13145900  1
  H  H25  1  0.34106500  0.24651700  0.36854100  1
  H  H26  1  0.24651700  0.34106500  0.86854100  1
  H  H27  1  0.65893500  0.75348300  0.63145900  1
  H  H28  1  0.92522500  0.43359200  0.18387500  1
  H  H29  1  0.56640800  0.07477500  0.31612500  1
  H  H30  1  0.07477500  0.56640800  0.81612500  1
  H  H31  1  0.43359200  0.92522500  0.68387500  1
  H  H32  1  0.67934500  0.61909400  0.22006300  1
  H  H33  1  0.38090600  0.32065500  0.27993700  1
  H  H34  1  0.32065500  0.38090600  0.77993700  1
  H  H35  1  0.61909400  0.67934500  0.72006300  1
  H  H36  1  0.42490700  0.59343400  0.28871100  1
  H  H37  1  0.40656600  0.57509300  0.21128900  1
  H  H38  1  0.57509300  0.40656600  0.71128900  1
  H  H39  1  0.59343400  0.42490700  0.78871100  1
  H  H40  1  0.21606300  0.75784500  0.35016000  1
  H  H41  1  0.24215500  0.78393700  0.14984000  1
  H  H42  1  0.78393700  0.24215500  0.64984000  1
  H  H43  1  0.75784500  0.21606300  0.85016000  1
  H  H44  1  0.31076300  0.81945200  0.28782800  1
  H  H45  1  0.18054800  0.68923700  0.21217200  1
  H  H46  1  0.68923700  0.18054800  0.71217200  1
  H  H47  1  0.81945200  0.31076300  0.78782800  1
  H  H48  1  0.34368400  0.98634000  0.30003900  1
  H  H49  1  0.01366000  0.65631600  0.19996100  1
  H  H50  1  0.65631600  0.01366000  0.69996100  1
  H  H51  1  0.98634000  0.34368400  0.80003900  1
  H  H52  1  0.53399400  0.72419300  0.32559600  1
  H  H53  1  0.27580700  0.46600600  0.17440400  1
  H  H54  1  0.46600600  0.27580700  0.67440400  1
  H  H55  1  0.72419300  0.53399400  0.82559600  1
  H  H56  1  0.12953600  0.23616300  0.14994200  1
  H  H57  1  0.76383700  0.87046400  0.35005800  1
  H  H58  1  0.87046400  0.76383700  0.85005800  1
  H  H59  1  0.23616300  0.12953600  0.64994200  1
  H  H60  1  0.11151000  0.14509800  0.11120700  1
  H  H61  1  0.85490200  0.88849000  0.38879300  1
  H  H62  1  0.88849000  0.85490200  0.88879300  1
  H  H63  1  0.14509800  0.11151000  0.61120700  1
  H  H64  1  0.71797100  0.27919500  0.52431700  1
  H  H65  1  0.72080500  0.28202900  0.97568300  1
  H  H66  1  0.28202900  0.72080500  0.47568300  1
  H  H67  1  0.27919500  0.71797100  0.02431700  1
  H  H68  1  0.60657000  0.50926700  0.48307300  1
  H  H69  1  0.49073300  0.39343000  0.01692700  1
  H  H70  1  0.39343000  0.49073300  0.51692700  1
  H  H71  1  0.50926700  0.60657000  0.98307300  1
  H  H72  1  0.76038700  0.36391500  0.54865200  1
  H  H73  1  0.63608500  0.23961300  0.95134800  1
  H  H74  1  0.23961300  0.63608500  0.45134800  1
  H  H75  1  0.36391500  0.76038700  0.04865200  1
  H  H76  1  0.07585900  0.27342100  0.38462900  1
  H  H77  1  0.72657900  0.92414100  0.11537100  1
  H  H78  1  0.92414100  0.72657900  0.61537100  1
  H  H79  1  0.27342100  0.07585900  0.88462900  1
  H  H80  1  0.96438300  0.37330000  0.46394600  1
  H  H81  1  0.62670000  0.03561700  0.03605400  1
  H  H82  1  0.03561700  0.62670000  0.53605400  1
  H  H83  1  0.37330000  0.96438300  0.96394600  1
  H  H84  1  0.81874200  0.50632600  0.39765700  1
  H  H85  1  0.49367400  0.18125800  0.10234300  1
  H  H86  1  0.18125800  0.49367400  0.60234300  1
  H  H87  1  0.50632600  0.81874200  0.89765700  1
  C  C88  1  0.72261600  0.52070800  0.08072400  1
  C  C89  1  0.47929200  0.27738400  0.41927600  1
  C  C90  1  0.27738400  0.47929200  0.91927600  1
  C  C91  1  0.52070800  0.72261600  0.58072400  1
  C  C92  1  0.77635000  0.55438700  0.17229300  1
  C  C93  1  0.44561300  0.22365000  0.32770700  1
  C  C94  1  0.22365000  0.44561300  0.82770700  1
  C  C95  1  0.55438700  0.77635000  0.67229300  1
  C  C96  1  0.28843400  0.74450600  0.29728600  1
  C  C97  1  0.25549400  0.71156600  0.20271400  1
  C  C98  1  0.71156600  0.25549400  0.70271400  1
  C  C99  1  0.74450600  0.28843400  0.79728600  1
  C  C100  1  0.47949500  0.85416100  0.32298600  1
  C  C101  1  0.14583900  0.52050500  0.17701400  1
  C  C102  1  0.52050500  0.14583900  0.67701400  1
  C  C103  1  0.85416100  0.47949500  0.82298600  1
  C  C104  1  0.19227000  0.15484300  0.11059000  1
  C  C105  1  0.84515700  0.80773000  0.38941000  1
  C  C106  1  0.80773000  0.84515700  0.88941000  1
  C  C107  1  0.15484300  0.19227000  0.61059000  1
  C  C108  1  0.73509500  0.36116900  0.50615800  1
  C  C109  1  0.63883100  0.26490500  0.99384200  1
  C  C110  1  0.26490500  0.63883100  0.49384200  1
  C  C111  1  0.36116900  0.73509500  0.00615800  1
  C  C112  1  0.94480400  0.36019200  0.42273000  1
  C  C113  1  0.63980800  0.05519600  0.07727000  1
  C  C114  1  0.05519600  0.63980800  0.57727000  1
  C  C115  1  0.36019200  0.94480400  0.92273000  1
  N  N116  1  0.74569000  0.37501800  0.19794200  1
  N  N117  1  0.62498200  0.25431000  0.30205800  1
  N  N118  1  0.25431000  0.62498200  0.80205800  1
  N  N119  1  0.37501800  0.74569000  0.69794200  1
  N  N120  1  0.74314600  0.48329600  0.15226100  1
  N  N121  1  0.51670400  0.25685400  0.34773900  1
  N  N122  1  0.25685400  0.51670400  0.84773900  1
  N  N123  1  0.48329600  0.74314600  0.65226100  1
  N  N124  1  0.99265400  0.00734600  0.25000000  1
  N  N125  1  0.00734600  0.99265400  0.75000000  1
  N  N126  1  0.16606100  0.83393900  0.25000000  1
  N  N127  1  0.83393900  0.16606100  0.75000000  1
  N  N128  1  0.90869100  0.25973600  0.45258300  1
  N  N129  1  0.74026400  0.09130900  0.04741700  1
  N  N130  1  0.09130900  0.74026400  0.54741700  1
  N  N131  1  0.25973600  0.90869100  0.95258300  1
  Cl  Cl132  1  0.61413600  0.46556800  0.36722100  1
  Cl  Cl133  1  0.53443200  0.38586400  0.13277900  1
  Cl  Cl134  1  0.38586400  0.53443200  0.63277900  1
  Cl  Cl135  1  0.46556800  0.61413600  0.86722100  1
  Cl  Cl136  1  0.91457100  0.01589800  0.40969900  1
  Cl  Cl137  1  0.98410200  0.08542900  0.09030100  1
  Cl  Cl138  1  0.08542900  0.98410200  0.59030100  1
  Cl  Cl139  1  0.01589800  0.91457100  0.90969900  1
  Cl  Cl140  1  0.04392300  0.18080000  0.28677000  1
  Cl  Cl141  1  0.81920000  0.95607700  0.21323000  1
  Cl  Cl142  1  0.95607700  0.81920000  0.71323000  1
  Cl  Cl143  1  0.18080000  0.04392300  0.78677000  1
  Cl  Cl144  1  0.42635700  0.88430900  0.41039500  1
  Cl  Cl145  1  0.11569100  0.57364300  0.08960500  1
  Cl  Cl146  1  0.57364300  0.11569100  0.58960500  1
  Cl  Cl147  1  0.88430900  0.42635700  0.91039500  1
  Cl  Cl148  1  0.65781900  0.82012300  0.27320100  1
  Cl  Cl149  1  0.17987700  0.34218100  0.22679900  1
  Cl  Cl150  1  0.34218100  0.17987700  0.72679900  1
  Cl  Cl151  1  0.82012300  0.65781900  0.77320100  1
  Cl  Cl152  1  0.42535300  0.92352500  0.13050300  1
  Cl  Cl153  1  0.07647500  0.57464700  0.36949700  1
  Cl  Cl154  1  0.57464700  0.07647500  0.86949700  1
  Cl  Cl155  1  0.92352500  0.42535300  0.63050300  1
  Cl  Cl156  1  0.19974000  0.26496900  0.02819500  1
  Cl  Cl157  1  0.73503100  0.80026000  0.47180500  1
  Cl  Cl158  1  0.80026000  0.73503100  0.97180500  1
  Cl  Cl159  1  0.26496900  0.19974000  0.52819500  1
