# generated using pymatgen
data_H30S2O21
_symmetry_space_group_name_H-M   'P 1'
_cell_length_a   14.27135090
_cell_length_b   14.27135090
_cell_length_c   6.94056223
_cell_angle_alpha   82.40576396
_cell_angle_beta   82.40576396
_cell_angle_gamma   149.96795665
_symmetry_Int_Tables_number   1
_chemical_formula_structural   H30S2O21
_chemical_formula_sum   'H30 S2 O21'
_cell_volume   608.52334467
_cell_formula_units_Z   1
loop_
 _symmetry_equiv_pos_site_id
 _symmetry_equiv_pos_as_xyz
  1  'x, y, z'
loop_
 _atom_site_type_symbol
 _atom_site_label
 _atom_site_symmetry_multiplicity
 _atom_site_fract_x
 _atom_site_fract_y
 _atom_site_fract_z
 _atom_site_occupancy
  H  H0  1  0.88936500  0.51033500  0.33849500  1
  H  H1  1  0.51033500  0.88936500  0.33849500  1
  H  H2  1  0.32062100  0.88037800  0.15917900  1
  H  H3  1  0.88037800  0.32062100  0.15917900  1
  H  H4  1  0.15242800  0.73134100  0.83349100  1
  H  H5  1  0.73134100  0.15242800  0.83349100  1
  H  H6  1  0.42668400  0.70050200  0.67399900  1
  H  H7  1  0.70050200  0.42668400  0.67399900  1
  H  H8  1  0.40571600  0.00414200  0.40732200  1
  H  H9  1  0.00414200  0.40571600  0.40732200  1
  H  H10  1  0.83477500  0.55888300  0.25396500  1
  H  H11  1  0.55888300  0.83477500  0.25396500  1
  H  H12  1  0.43698400  0.25929500  0.64683800  1
  H  H13  1  0.25929500  0.43698400  0.64683800  1
  H  H14  1  0.47820800  0.39641000  0.68723200  1
  H  H15  1  0.39641000  0.47820800  0.68723200  1
  H  H16  1  0.95775900  0.95775900  0.69928700  1
  H  H17  1  0.58627400  0.46037300  0.31616200  1
  H  H18  1  0.46037300  0.58627400  0.31616200  1
  H  H19  1  0.82272900  0.46277100  0.75344300  1
  H  H20  1  0.46277100  0.82272900  0.75344300  1
  H  H21  1  0.67667700  0.58472200  0.05712200  1
  H  H22  1  0.58472200  0.67667700  0.05712200  1
  H  H23  1  0.98612500  0.98612500  0.90775100  1
  H  H24  1  0.18138900  0.11380100  0.12893500  1
  H  H25  1  0.11380100  0.18138900  0.12893500  1
  H  H26  1  0.38843900  0.23993900  0.19400100  1
  H  H27  1  0.23993900  0.38843900  0.19400100  1
  H  H28  1  0.23807000  0.03417500  0.16384700  1
  H  H29  1  0.03417500  0.23807000  0.16384700  1
  S  S30  1  0.81083800  0.07254500  0.78686100  1
  S  S31  1  0.07254500  0.81083800  0.78686100  1
  O  O32  1  0.46872100  0.61004200  0.16522900  1
  O  O33  1  0.61004200  0.46872100  0.16522900  1
  O  O34  1  0.62965300  0.95452300  0.25525100  1
  O  O35  1  0.95452300  0.62965300  0.25525100  1
  O  O36  1  0.99061900  0.22614500  0.83584000  1
  O  O37  1  0.22614500  0.99061900  0.83584000  1
  O  O38  1  0.35064500  0.68555600  0.75725100  1
  O  O39  1  0.68555600  0.35064500  0.75725100  1
  O  O40  1  0.43182900  0.95041500  0.19028500  1
  O  O41  1  0.95041500  0.43182900  0.19028500  1
  O  O42  1  0.50805700  0.09913800  0.24471000  1
  O  O43  1  0.09913800  0.50805700  0.24471000  1
  O  O44  1  0.15820800  0.78050500  0.70802100  1
  O  O45  1  0.78050500  0.15820800  0.70802100  1
  O  O46  1  0.38542200  0.38542200  0.86217500  1
  O  O47  1  0.54417700  0.40681400  0.57271200  1
  O  O48  1  0.40681400  0.54417700  0.57271200  1
  O  O49  1  0.87897800  0.87897800  0.86255600  1
  O  O50  1  0.15628500  0.15628500  0.03171100  1
  O  O51  1  0.23435800  0.08801300  0.22927300  1
  O  O52  1  0.08801300  0.23435800  0.22927300  1
