# generated using pymatgen
data_H2C2N2O
_symmetry_space_group_name_H-M   'P 1'
_cell_length_a   5.45827600
_cell_length_b   7.29028300
_cell_length_c   8.68450700
_cell_angle_alpha   90.00000000
_cell_angle_beta   90.00000000
_cell_angle_gamma   90.00000000
_symmetry_Int_Tables_number   1
_chemical_formula_structural   H2C2N2O
_chemical_formula_sum   'H8 C8 N8 O4'
_cell_volume   345.57717428
_cell_formula_units_Z   4
loop_
 _symmetry_equiv_pos_site_id
 _symmetry_equiv_pos_as_xyz
  1  'x, y, z'
loop_
 _atom_site_type_symbol
 _atom_site_label
 _atom_site_symmetry_multiplicity
 _atom_site_fract_x
 _atom_site_fract_y
 _atom_site_fract_z
 _atom_site_occupancy
  H  H0  1  0.25000000  0.08344700  0.91394500  1
  H  H1  1  0.25000000  0.41655300  0.41394500  1
  H  H2  1  0.75000000  0.91655300  0.08605500  1
  H  H3  1  0.75000000  0.58344700  0.58605500  1
  H  H4  1  0.25000000  0.85303200  0.97203300  1
  H  H5  1  0.25000000  0.64696800  0.47203300  1
  H  H6  1  0.75000000  0.14696800  0.02796700  1
  H  H7  1  0.75000000  0.35303200  0.52796700  1
  C  C8  1  0.25000000  0.89610400  0.73716700  1
  C  C9  1  0.25000000  0.60389600  0.23716700  1
  C  C10  1  0.75000000  0.10389600  0.26283300  1
  C  C11  1  0.75000000  0.39610400  0.76283300  1
  C  C12  1  0.25000000  0.05137200  0.62751800  1
  C  C13  1  0.25000000  0.44862800  0.12751800  1
  C  C14  1  0.75000000  0.94862800  0.37248200  1
  C  C15  1  0.75000000  0.55137200  0.87248200  1
  N  N16  1  0.25000000  0.94762200  0.88431500  1
  N  N17  1  0.25000000  0.55237800  0.38431500  1
  N  N18  1  0.75000000  0.05237800  0.11568500  1
  N  N19  1  0.75000000  0.44762200  0.61568500  1
  N  N20  1  0.25000000  0.16760400  0.53576000  1
  N  N21  1  0.25000000  0.33239600  0.03576000  1
  N  N22  1  0.75000000  0.83239600  0.46424000  1
  N  N23  1  0.75000000  0.66760400  0.96424000  1
  O  O24  1  0.25000000  0.73726900  0.68524100  1
  O  O25  1  0.25000000  0.76273100  0.18524100  1
  O  O26  1  0.75000000  0.26273100  0.31475900  1
  O  O27  1  0.75000000  0.23726900  0.81475900  1
