# generated using pymatgen
data_ReH22C4S4N8Cl8O3
_symmetry_space_group_name_H-M   'P 1'
_cell_length_a   9.00240545
_cell_length_b   9.00240545
_cell_length_c   17.08616200
_cell_angle_alpha   90.00000000
_cell_angle_beta   90.00000000
_cell_angle_gamma   99.69923644
_symmetry_Int_Tables_number   1
_chemical_formula_structural   ReH22C4S4N8Cl8O3
_chemical_formula_sum   'Re2 H44 C8 S8 N16 Cl16 O6'
_cell_volume   1364.92544953
_cell_formula_units_Z   2
loop_
 _symmetry_equiv_pos_site_id
 _symmetry_equiv_pos_as_xyz
  1  'x, y, z'
loop_
 _atom_site_type_symbol
 _atom_site_label
 _atom_site_symmetry_multiplicity
 _atom_site_fract_x
 _atom_site_fract_y
 _atom_site_fract_z
 _atom_site_occupancy
  Re  Re0  1  0.84721300  0.15278700  0.75000000  1
  Re  Re1  1  0.15278700  0.84721300  0.25000000  1
  H  H2  1  0.36924600  0.91650000  0.62153700  1
  H  H3  1  0.91650000  0.36924600  0.37846300  1
  H  H4  1  0.36924600  0.91650000  0.87846300  1
  H  H5  1  0.91650000  0.36924600  0.12153700  1
  H  H6  1  0.63075400  0.08350000  0.37846300  1
  H  H7  1  0.08350000  0.63075400  0.62153700  1
  H  H8  1  0.63075400  0.08350000  0.12153700  1
  H  H9  1  0.08350000  0.63075400  0.87846300  1
  H  H10  1  0.38242000  0.09638300  0.66981100  1
  H  H11  1  0.09638300  0.38242000  0.33018900  1
  H  H12  1  0.38242000  0.09638300  0.83018900  1
  H  H13  1  0.09638300  0.38242000  0.16981100  1
  H  H14  1  0.61758000  0.90361700  0.33018900  1
  H  H15  1  0.90361700  0.61758000  0.66981100  1
  H  H16  1  0.61758000  0.90361700  0.16981100  1
  H  H17  1  0.90361700  0.61758000  0.83018900  1
  H  H18  1  0.31134600  0.89926400  0.48754300  1
  H  H19  1  0.89926400  0.31134600  0.51245700  1
  H  H20  1  0.31134600  0.89926400  0.01245700  1
  H  H21  1  0.89926400  0.31134600  0.98754300  1
  H  H22  1  0.68865400  0.10073600  0.51245700  1
  H  H23  1  0.10073600  0.68865400  0.48754300  1
  H  H24  1  0.68865400  0.10073600  0.98754300  1
  H  H25  1  0.10073600  0.68865400  0.01245700  1
  H  H26  1  0.28440400  0.06128700  0.43631300  1
  H  H27  1  0.06128700  0.28440400  0.56368700  1
  H  H28  1  0.28440400  0.06128700  0.06368700  1
  H  H29  1  0.06128700  0.28440400  0.93631300  1
  H  H30  1  0.71559600  0.93871300  0.56368700  1
  H  H31  1  0.93871300  0.71559600  0.43631300  1
  H  H32  1  0.71559600  0.93871300  0.93631300  1
  H  H33  1  0.93871300  0.71559600  0.06368700  1
  H  H34  1  0.46615200  0.30706100  0.75000000  1
  H  H35  1  0.30706100  0.46615200  0.25000000  1
  H  H36  1  0.53384800  0.69293900  0.25000000  1
  H  H37  1  0.69293900  0.53384800  0.75000000  1
  H  H38  1  0.29116900  0.28451200  0.75000000  1
  H  H39  1  0.28451200  0.29116900  0.25000000  1
  H  H40  1  0.70883100  0.71548800  0.25000000  1
  H  H41  1  0.71548800  0.70883100  0.75000000  1
  H  H42  1  0.40508800  0.59491200  0.70388200  1
  H  H43  1  0.59491200  0.40508800  0.29611800  1
  H  H44  1  0.40508800  0.59491200  0.79611800  1
  H  H45  1  0.59491200  0.40508800  0.20388200  1
  C  C46  1  0.33944300  0.09190500  0.55249600  1
  C  C47  1  0.09190500  0.33944300  0.44750400  1
  C  C48  1  0.33944300  0.09190500  0.94750400  1
  C  C49  1  0.09190500  0.33944300  0.05249600  1
  C  C50  1  0.66055700  0.90809500  0.44750400  1
  C  C51  1  0.90809500  0.66055700  0.55249600  1
  C  C52  1  0.66055700  0.90809500  0.05249600  1
  C  C53  1  0.90809500  0.66055700  0.94750400  1
  S  S54  1  0.34259200  0.29118800  0.55576900  1
  S  S55  1  0.29118800  0.34259200  0.44423100  1
  S  S56  1  0.34259200  0.29118800  0.94423100  1
  S  S57  1  0.29118800  0.34259200  0.05576900  1
  S  S58  1  0.65740800  0.70881200  0.44423100  1
  S  S59  1  0.70881200  0.65740800  0.55576900  1
  S  S60  1  0.65740800  0.70881200  0.05576900  1
  S  S61  1  0.70881200  0.65740800  0.94423100  1
  N  N62  1  0.37146600  0.03199600  0.61917300  1
  N  N63  1  0.03199600  0.37146600  0.38082700  1
  N  N64  1  0.37146600  0.03199600  0.88082700  1
  N  N65  1  0.03199600  0.37146600  0.11917300  1
  N  N66  1  0.62853400  0.96800400  0.38082700  1
  N  N67  1  0.96800400  0.62853400  0.61917300  1
  N  N68  1  0.62853400  0.96800400  0.11917300  1
  N  N69  1  0.96800400  0.62853400  0.88082700  1
  N  N70  1  0.31172600  0.01303600  0.48708500  1
  N  N71  1  0.01303600  0.31172600  0.51291500  1
  N  N72  1  0.31172600  0.01303600  0.01291500  1
  N  N73  1  0.01303600  0.31172600  0.98708500  1
  N  N74  1  0.68827400  0.98696400  0.51291500  1
  N  N75  1  0.98696400  0.68827400  0.48708500  1
  N  N76  1  0.68827400  0.98696400  0.98708500  1
  N  N77  1  0.98696400  0.68827400  0.01291500  1
  Cl  Cl78  1  0.72363200  0.27636800  0.65270900  1
  Cl  Cl79  1  0.27636800  0.72363200  0.34729100  1
  Cl  Cl80  1  0.72363200  0.27636800  0.84729100  1
  Cl  Cl81  1  0.27636800  0.72363200  0.15270900  1
  Cl  Cl82  1  0.96824300  0.03175700  0.65115000  1
  Cl  Cl83  1  0.03175700  0.96824300  0.34885000  1
  Cl  Cl84  1  0.96824300  0.03175700  0.84885000  1
  Cl  Cl85  1  0.03175700  0.96824300  0.15115000  1
  Cl  Cl86  1  0.64172800  0.94526600  0.75000000  1
  Cl  Cl87  1  0.94526600  0.64172800  0.25000000  1
  Cl  Cl88  1  0.35827200  0.05473400  0.25000000  1
  Cl  Cl89  1  0.05473400  0.35827200  0.75000000  1
  Cl  Cl90  1  0.32112300  0.67887700  0.58412400  1
  Cl  Cl91  1  0.67887700  0.32112300  0.41587600  1
  Cl  Cl92  1  0.32112300  0.67887700  0.91587600  1
  Cl  Cl93  1  0.67887700  0.32112300  0.08412400  1
  O  O94  1  0.37627600  0.22834000  0.75000000  1
  O  O95  1  0.22834000  0.37627600  0.25000000  1
  O  O96  1  0.62372400  0.77166000  0.25000000  1
  O  O97  1  0.77166000  0.62372400  0.75000000  1
  O  O98  1  0.44788700  0.55211300  0.75000000  1
  O  O99  1  0.55211300  0.44788700  0.25000000  1
