# generated using pymatgen
data_H4CN2O
_symmetry_space_group_name_H-M   'P 1'
_cell_length_a   7.42530800
_cell_length_b   7.42530800
_cell_length_c   16.49971500
_cell_angle_alpha   90.00000000
_cell_angle_beta   90.00000000
_cell_angle_gamma   90.00000000
_symmetry_Int_Tables_number   1
_chemical_formula_structural   H4CN2O
_chemical_formula_sum   'H48 C12 N24 O12'
_cell_volume   909.71506823
_cell_formula_units_Z   12
loop_
 _symmetry_equiv_pos_site_id
 _symmetry_equiv_pos_as_xyz
  1  'x, y, z'
loop_
 _atom_site_type_symbol
 _atom_site_label
 _atom_site_symmetry_multiplicity
 _atom_site_fract_x
 _atom_site_fract_y
 _atom_site_fract_z
 _atom_site_occupancy
  H  H0  1  0.39661800  0.60687500  0.62131300  1
  H  H1  1  0.60338200  0.39312500  0.12131300  1
  H  H2  1  0.10687500  0.10338200  0.37131300  1
  H  H3  1  0.89312500  0.89661800  0.87131300  1
  H  H4  1  0.39312500  0.60338200  0.87868700  1
  H  H5  1  0.60687500  0.39661800  0.37868700  1
  H  H6  1  0.10338200  0.10687500  0.62868700  1
  H  H7  1  0.89661800  0.89312500  0.12868700  1
  H  H8  1  0.82766200  0.19383000  0.83822900  1
  H  H9  1  0.17233800  0.80617000  0.33822900  1
  H  H10  1  0.69383000  0.67233800  0.58822900  1
  H  H11  1  0.30617000  0.32766200  0.08822900  1
  H  H12  1  0.80617000  0.17233800  0.66177100  1
  H  H13  1  0.19383000  0.82766200  0.16177100  1
  H  H14  1  0.67233800  0.69383000  0.41177100  1
  H  H15  1  0.32766200  0.30617000  0.91177100  1
  H  H16  1  0.71905100  0.33474400  0.91202200  1
  H  H17  1  0.28094900  0.66525600  0.41202200  1
  H  H18  1  0.83474400  0.78094900  0.66202200  1
  H  H19  1  0.16525600  0.21905100  0.16202200  1
  H  H20  1  0.66525600  0.28094900  0.58797800  1
  H  H21  1  0.33474400  0.71905100  0.08797800  1
  H  H22  1  0.78094900  0.83474400  0.33797800  1
  H  H23  1  0.21905100  0.16525600  0.83797800  1
  H  H24  1  0.71614900  0.77709800  0.91469400  1
  H  H25  1  0.28385100  0.22290200  0.41469400  1
  H  H26  1  0.27709800  0.78385100  0.66469400  1
  H  H27  1  0.72290200  0.21614900  0.16469400  1
  H  H28  1  0.22290200  0.28385100  0.58530600  1
  H  H29  1  0.77709800  0.71614900  0.08530600  1
  H  H30  1  0.78385100  0.27709800  0.33530600  1
  H  H31  1  0.21614900  0.72290200  0.83530600  1
  H  H32  1  0.59980600  0.91609300  0.01498200  1
  H  H33  1  0.40019400  0.08390700  0.51498200  1
  H  H34  1  0.41609300  0.90019400  0.76498200  1
  H  H35  1  0.58390700  0.09980600  0.26498200  1
  H  H36  1  0.08390700  0.40019400  0.48501800  1
  H  H37  1  0.91609300  0.59980600  0.98501800  1
  H  H38  1  0.90019400  0.41609300  0.23501800  1
  H  H39  1  0.09980600  0.58390700  0.73501800  1
  H  H40  1  0.68087900  0.89590600  0.82555100  1
  H  H41  1  0.31912100  0.10409400  0.32555100  1
  H  H42  1  0.39590600  0.81912100  0.57555100  1
  H  H43  1  0.60409400  0.18087900  0.07555100  1
  H  H44  1  0.10409400  0.31912100  0.67444900  1
  H  H45  1  0.89590600  0.68087900  0.17444900  1
  H  H46  1  0.81912100  0.39590600  0.42444900  1
  H  H47  1  0.18087900  0.60409400  0.92444900  1
  C  C48  1  0.04084600  0.95915400  0.75000000  1
  C  C49  1  0.95915400  0.04084600  0.25000000  1
  C  C50  1  0.45915400  0.45915400  0.50000000  1
  C  C51  1  0.54084600  0.54084600  0.00000000  1
  C  C52  1  0.71107000  0.05991400  0.93126000  1
  C  C53  1  0.28893000  0.94008600  0.43126000  1
  C  C54  1  0.55991400  0.78893000  0.68126000  1
  C  C55  1  0.44008600  0.21107000  0.18126000  1
  C  C56  1  0.94008600  0.28893000  0.56874000  1
  C  C57  1  0.05991400  0.71107000  0.06874000  1
  C  C58  1  0.78893000  0.55991400  0.31874000  1
  C  C59  1  0.21107000  0.44008600  0.81874000  1
  N  N60  1  0.62938800  0.04716900  0.00048500  1
  N  N61  1  0.37061200  0.95283100  0.50048500  1
  N  N62  1  0.54716900  0.87061200  0.75048500  1
  N  N63  1  0.45283100  0.12938800  0.25048500  1
  N  N64  1  0.95283100  0.37061200  0.49951500  1
  N  N65  1  0.04716900  0.62938800  0.99951500  1
  N  N66  1  0.87061200  0.54716900  0.24951500  1
  N  N67  1  0.12938800  0.45283100  0.74951500  1
  N  N68  1  0.76312300  0.21023000  0.89343200  1
  N  N69  1  0.23687700  0.78977000  0.39343200  1
  N  N70  1  0.71023000  0.73687700  0.64343200  1
  N  N71  1  0.28977000  0.26312300  0.14343200  1
  N  N72  1  0.78977000  0.23687700  0.60656800  1
  N  N73  1  0.21023000  0.76312300  0.10656800  1
  N  N74  1  0.73687700  0.71023000  0.35656800  1
  N  N75  1  0.26312300  0.28977000  0.85656800  1
  N  N76  1  0.75564400  0.89814200  0.88456700  1
  N  N77  1  0.24435600  0.10185800  0.38456700  1
  N  N78  1  0.39814200  0.74435600  0.63456700  1
  N  N79  1  0.60185800  0.25564400  0.13456700  1
  N  N80  1  0.10185800  0.24435600  0.61543300  1
  N  N81  1  0.89814200  0.75564400  0.11543300  1
  N  N82  1  0.74435600  0.39814200  0.36543300  1
  N  N83  1  0.25564400  0.60185800  0.86543300  1
  O  O84  1  0.12902300  0.92191000  0.81694000  1
  O  O85  1  0.87097700  0.07809000  0.31694000  1
  O  O86  1  0.42191000  0.37097700  0.56694000  1
  O  O87  1  0.57809000  0.62902300  0.06694000  1
  O  O88  1  0.07809000  0.87097700  0.68306000  1
  O  O89  1  0.92191000  0.12902300  0.18306000  1
  O  O90  1  0.37097700  0.42191000  0.43306000  1
  O  O91  1  0.62902300  0.57809000  0.93306000  1
  O  O92  1  0.91889400  0.08110600  0.75000000  1
  O  O93  1  0.08110600  0.91889400  0.25000000  1
  O  O94  1  0.58110600  0.58110600  0.50000000  1
  O  O95  1  0.41889400  0.41889400  0.00000000  1
