# generated using pymatgen
data_Zr4H22N4O3F20
_symmetry_space_group_name_H-M   'P 1'
_cell_length_a   12.40568450
_cell_length_b   12.40568450
_cell_length_c   15.22810405
_cell_angle_alpha   62.19607814
_cell_angle_beta   62.19607814
_cell_angle_gamma   32.30196964
_symmetry_Int_Tables_number   1
_chemical_formula_structural   Zr4H22N4O3F20
_chemical_formula_sum   'Zr8 H44 N8 O6 F40'
_cell_volume   1094.80399283
_cell_formula_units_Z   2
loop_
 _symmetry_equiv_pos_site_id
 _symmetry_equiv_pos_as_xyz
  1  'x, y, z'
loop_
 _atom_site_type_symbol
 _atom_site_label
 _atom_site_symmetry_multiplicity
 _atom_site_fract_x
 _atom_site_fract_y
 _atom_site_fract_z
 _atom_site_occupancy
  Zr  Zr0  1  0.95278200  0.04088300  0.50390100  1
  Zr  Zr1  1  0.04088300  0.95278200  0.00390100  1
  Zr  Zr2  1  0.12642300  0.17836700  0.26895700  1
  Zr  Zr3  1  0.17836700  0.12642300  0.76895700  1
  Zr  Zr4  1  0.33315000  0.23945200  0.32993900  1
  Zr  Zr5  1  0.23945200  0.33315000  0.82993900  1
  Zr  Zr6  1  0.48720500  0.39288000  0.08965000  1
  Zr  Zr7  1  0.39288000  0.48720500  0.58965000  1
  H  H8  1  0.55274600  0.72537900  0.85653300  1
  H  H9  1  0.72537900  0.55274600  0.35653300  1
  H  H10  1  0.65304500  0.60601800  0.94348600  1
  H  H11  1  0.60601800  0.65304500  0.44348600  1
  H  H12  1  0.61617500  0.69907100  0.93533000  1
  H  H13  1  0.69907100  0.61617500  0.43533000  1
  H  H14  1  0.79831400  0.79785000  0.73669100  1
  H  H15  1  0.79785000  0.79831400  0.23669100  1
  H  H16  1  0.55039100  0.47992900  0.22760200  1
  H  H17  1  0.47992900  0.55039100  0.72760200  1
  H  H18  1  0.41581700  0.67848200  0.27258900  1
  H  H19  1  0.67848200  0.41581700  0.77258900  1
  H  H20  1  0.46481500  0.49346000  0.35532300  1
  H  H21  1  0.49346000  0.46481500  0.85532300  1
  H  H22  1  0.64977500  0.44970400  0.29761100  1
  H  H23  1  0.44970400  0.64977500  0.79761100  1
  H  H24  1  0.01165400  0.75384100  0.31781900  1
  H  H25  1  0.75384100  0.01165400  0.81781900  1
  H  H26  1  0.77482600  0.99194700  0.30507700  1
  H  H27  1  0.99194700  0.77482600  0.80507700  1
  H  H28  1  0.90490900  0.93301200  0.36770800  1
  H  H29  1  0.93301200  0.90490900  0.86770800  1
  H  H30  1  0.96552700  0.94001100  0.23966100  1
  H  H31  1  0.94001100  0.96552700  0.73966100  1
  H  H32  1  0.78614100  0.89870200  0.61299400  1
  H  H33  1  0.89870200  0.78614100  0.11299400  1
  H  H34  1  0.83957200  0.70700900  0.65592100  1
  H  H35  1  0.70700900  0.83957200  0.15592100  1
  H  H36  1  0.08395000  0.49222000  0.55271600  1
  H  H37  1  0.49222000  0.08395000  0.05271600  1
  H  H38  1  0.94179900  0.60145300  0.18236000  1
  H  H39  1  0.60145300  0.94179900  0.68236000  1
  H  H40  1  0.89605500  0.57664200  0.51291300  1
  H  H41  1  0.57664200  0.89605500  0.01291300  1
  H  H42  1  0.80835600  0.54144800  0.61557600  1
  H  H43  1  0.54144800  0.80835600  0.11557600  1
  H  H44  1  0.16407700  0.00383600  0.65251900  1
  H  H45  1  0.00383600  0.16407700  0.15251900  1
  H  H46  1  0.28873400  0.02480700  0.58193000  1
  H  H47  1  0.02480700  0.28873400  0.08193000  1
  H  H48  1  0.40505000  0.16277400  0.51718700  1
  H  H49  1  0.16277400  0.40505000  0.01718700  1
  H  H50  1  0.40373300  0.30713400  0.45102200  1
  H  H51  1  0.30713400  0.40373300  0.95102200  1
  N  N52  1  0.81628500  0.37252900  0.59085900  1
  N  N53  1  0.37252900  0.81628500  0.09085900  1
  N  N54  1  0.51924300  0.52504300  0.28802000  1
  N  N55  1  0.52504300  0.51924300  0.78802000  1
  N  N56  1  0.91633400  0.90434900  0.30772600  1
  N  N57  1  0.90434900  0.91633400  0.80772600  1
  N  N58  1  0.75403900  0.83887000  0.67207900  1
  N  N59  1  0.83887000  0.75403900  0.17207900  1
  O  O60  1  0.76803900  0.64575800  0.55735100  1
  O  O61  1  0.64575800  0.76803900  0.05735100  1
  O  O62  1  0.25379000  0.99047700  0.65356100  1
  O  O63  1  0.99047700  0.25379000  0.15356100  1
  O  O64  1  0.43109600  0.20796100  0.44721700  1
  O  O65  1  0.20796100  0.43109600  0.94721700  1
  F  F66  1  0.36426500  0.66971800  0.97482100  1
  F  F67  1  0.66971800  0.36426500  0.47482100  1
  F  F68  1  0.50190700  0.77159300  0.79756700  1
  F  F69  1  0.77159300  0.50190700  0.29756700  1
  F  F70  1  0.11267300  0.97877100  0.83858200  1
  F  F71  1  0.97877100  0.11267300  0.33858200  1
  F  F72  1  0.59151900  0.43397500  0.11955900  1
  F  F73  1  0.43397500  0.59151900  0.61955900  1
  F  F74  1  0.17017900  0.68149900  0.12661000  1
  F  F75  1  0.68149900  0.17017900  0.62661000  1
  F  F76  1  0.44840000  0.38476500  0.97495900  1
  F  F77  1  0.38476500  0.44840000  0.47495900  1
  F  F78  1  0.06159800  0.37864800  0.31503200  1
  F  F79  1  0.37864800  0.06159800  0.81503200  1
  F  F80  1  0.13010200  0.07455900  0.92876400  1
  F  F81  1  0.07455900  0.13010200  0.42876400  1
  F  F82  1  0.34892500  0.11134100  0.64155000  1
  F  F83  1  0.11134100  0.34892500  0.14155000  1
  F  F84  1  0.35388700  0.89721100  0.23745400  1
  F  F85  1  0.89721100  0.35388700  0.73745400  1
  F  F86  1  0.09676100  0.53525400  0.34785300  1
  F  F87  1  0.53525400  0.09676100  0.84785300  1
  F  F88  1  0.76553900  0.06926400  0.11403600  1
  F  F89  1  0.06926400  0.76553900  0.61403600  1
  F  F90  1  0.75943600  0.26384600  0.96319400  1
  F  F91  1  0.26384600  0.75943600  0.46319400  1
  F  F92  1  0.46622500  0.32494100  0.25156800  1
  F  F93  1  0.32494100  0.46622500  0.75156800  1
  F  F94  1  0.64066800  0.96352800  0.31684300  1
  F  F95  1  0.96352800  0.64066800  0.81684300  1
  F  F96  1  0.39324100  0.03755600  0.27805600  1
  F  F97  1  0.03755600  0.39324100  0.77805600  1
  F  F98  1  0.35930400  0.31072000  0.16628200  1
  F  F99  1  0.31072000  0.35930400  0.66628200  1
  F  F100  1  0.01914200  0.01432600  0.11897900  1
  F  F101  1  0.01432600  0.01914200  0.61897900  1
  F  F102  1  0.99286600  0.85305000  0.97336400  1
  F  F103  1  0.85305000  0.99286600  0.47336400  1
  F  F104  1  0.28925000  0.12518100  0.46338600  1
  F  F105  1  0.12518100  0.28925000  0.96338600  1
