# generated using pymatgen
data_Mg3B2H9SO13F
_symmetry_space_group_name_H-M   'P 1'
_cell_length_a   8.52651500
_cell_length_b   10.26800400
_cell_length_c   13.10702100
_cell_angle_alpha   90.00000000
_cell_angle_beta   90.00000000
_cell_angle_gamma   90.00000000
_symmetry_Int_Tables_number   1
_chemical_formula_structural   Mg3B2H9SO13F
_chemical_formula_sum   'Mg12 B8 H36 S4 O52 F4'
_cell_volume   1147.52349124
_cell_formula_units_Z   4
loop_
 _symmetry_equiv_pos_site_id
 _symmetry_equiv_pos_as_xyz
  1  'x, y, z'
loop_
 _atom_site_type_symbol
 _atom_site_label
 _atom_site_symmetry_multiplicity
 _atom_site_fract_x
 _atom_site_fract_y
 _atom_site_fract_z
 _atom_site_occupancy
  Mg  Mg0  1  0.00436600  0.65396900  0.25000000  1
  Mg  Mg1  1  0.49563400  0.15396900  0.25000000  1
  Mg  Mg2  1  0.99563400  0.34603100  0.75000000  1
  Mg  Mg3  1  0.50436600  0.84603100  0.75000000  1
  Mg  Mg4  1  0.10832600  0.57720200  0.60841800  1
  Mg  Mg5  1  0.39167400  0.07720200  0.89158200  1
  Mg  Mg6  1  0.89167400  0.42279800  0.10841800  1
  Mg  Mg7  1  0.60832600  0.92279800  0.39158200  1
  Mg  Mg8  1  0.89167400  0.42279800  0.39158200  1
  Mg  Mg9  1  0.60832600  0.92279800  0.10841800  1
  Mg  Mg10  1  0.10832600  0.57720200  0.89158200  1
  Mg  Mg11  1  0.39167400  0.07720200  0.60841800  1
  B  B12  1  0.36296500  0.80561900  0.51874800  1
  B  B13  1  0.13703500  0.30561900  0.98125200  1
  B  B14  1  0.63703500  0.19438100  0.01874800  1
  B  B15  1  0.86296500  0.69438100  0.48125200  1
  B  B16  1  0.63703500  0.19438100  0.48125200  1
  B  B17  1  0.86296500  0.69438100  0.01874800  1
  B  B18  1  0.36296500  0.80561900  0.98125200  1
  B  B19  1  0.13703500  0.30561900  0.51874800  1
  H  H20  1  0.68665800  0.59692000  0.27927600  1
  H  H21  1  0.81334200  0.09692000  0.22072400  1
  H  H22  1  0.31334200  0.40308000  0.77927600  1
  H  H23  1  0.18665800  0.90308000  0.72072400  1
  H  H24  1  0.31334200  0.40308000  0.72072400  1
  H  H25  1  0.18665800  0.90308000  0.77927600  1
  H  H26  1  0.68665800  0.59692000  0.22072400  1
  H  H27  1  0.81334200  0.09692000  0.27927600  1
  H  H28  1  0.35784500  0.62517700  0.45941900  1
  H  H29  1  0.14215500  0.12517700  0.04058100  1
  H  H30  1  0.64215500  0.37482300  0.95941900  1
  H  H31  1  0.85784500  0.87482300  0.54058100  1
  H  H32  1  0.64215500  0.37482300  0.54058100  1
  H  H33  1  0.85784500  0.87482300  0.95941900  1
  H  H34  1  0.35784500  0.62517700  0.04058100  1
  H  H35  1  0.14215500  0.12517700  0.45941900  1
  H  H36  1  0.31140200  0.84074400  0.13779600  1
  H  H37  1  0.18859800  0.34074400  0.36220400  1
  H  H38  1  0.68859800  0.15925600  0.63779600  1
  H  H39  1  0.81140200  0.65925600  0.86220400  1
  H  H40  1  0.68859800  0.15925600  0.86220400  1
  H  H41  1  0.81140200  0.65925600  0.63779600  1
  H  H42  1  0.31140200  0.84074400  0.36220400  1
  H  H43  1  0.18859800  0.34074400  0.13779600  1
  H  H44  1  0.91436800  0.87394700  0.30806700  1
  H  H45  1  0.58563200  0.37394700  0.19193300  1
  H  H46  1  0.08563200  0.12605300  0.80806700  1
  H  H47  1  0.41436800  0.62605300  0.69193300  1
  H  H48  1  0.08563200  0.12605300  0.69193300  1
  H  H49  1  0.41436800  0.62605300  0.80806700  1
  H  H50  1  0.91436800  0.87394700  0.19193300  1
  H  H51  1  0.58563200  0.37394700  0.30806700  1
  H  H52  1  0.44690900  0.25610500  0.75000000  1
  H  H53  1  0.05309100  0.75610500  0.75000000  1
  H  H54  1  0.55309100  0.74389500  0.25000000  1
  H  H55  1  0.94690900  0.24389500  0.25000000  1
  S  S56  1  0.15482600  0.98116500  0.25000000  1
  S  S57  1  0.34517400  0.48116500  0.25000000  1
  S  S58  1  0.84517400  0.01883500  0.75000000  1
  S  S59  1  0.65482600  0.51883500  0.75000000  1
  O  O60  1  0.93934100  0.00983500  0.65482800  1
  O  O61  1  0.56065900  0.50983500  0.84517200  1
  O  O62  1  0.06065900  0.99016500  0.15482800  1
  O  O63  1  0.43934100  0.49016500  0.34517200  1
  O  O64  1  0.06065900  0.99016500  0.34517200  1
  O  O65  1  0.43934100  0.49016500  0.15482800  1
  O  O66  1  0.93934100  0.00983500  0.84517200  1
  O  O67  1  0.56065900  0.50983500  0.65482800  1
  O  O68  1  0.22703500  0.84378000  0.25000000  1
  O  O69  1  0.27296500  0.34378000  0.25000000  1
  O  O70  1  0.77296500  0.15622000  0.75000000  1
  O  O71  1  0.72703500  0.65622000  0.75000000  1
  O  O72  1  0.22214600  0.58202200  0.25000000  1
  O  O73  1  0.27785400  0.08202200  0.25000000  1
  O  O74  1  0.77785400  0.41797800  0.75000000  1
  O  O75  1  0.72214600  0.91797800  0.75000000  1
  O  O76  1  0.91469100  0.62551900  0.40113400  1
  O  O77  1  0.58530900  0.12551900  0.09886600  1
  O  O78  1  0.08530900  0.37448100  0.90113400  1
  O  O79  1  0.41469100  0.87448100  0.59886600  1
  O  O80  1  0.08530900  0.37448100  0.59886600  1
  O  O81  1  0.41469100  0.87448100  0.90113400  1
  O  O82  1  0.91469100  0.62551900  0.09886600  1
  O  O83  1  0.58530900  0.12551900  0.40113400  1
  O  O84  1  0.07367300  0.75949600  0.65731400  1
  O  O85  1  0.42632700  0.25949600  0.84268600  1
  O  O86  1  0.92632700  0.24050400  0.15731400  1
  O  O87  1  0.57367300  0.74050400  0.34268600  1
  O  O88  1  0.92632700  0.24050400  0.34268600  1
  O  O89  1  0.57367300  0.74050400  0.15731400  1
  O  O90  1  0.07367300  0.75949600  0.84268600  1
  O  O91  1  0.42632700  0.25949600  0.65731400  1
  O  O92  1  0.31301400  0.67239200  0.51871600  1
  O  O93  1  0.18698600  0.17239200  0.98128400  1
  O  O94  1  0.68698600  0.32760800  0.01871600  1
  O  O95  1  0.81301400  0.82760800  0.48128400  1
  O  O96  1  0.68698600  0.32760800  0.48128400  1
  O  O97  1  0.81301400  0.82760800  0.01871600  1
  O  O98  1  0.31301400  0.67239200  0.98128400  1
  O  O99  1  0.18698600  0.17239200  0.51871600  1
  O  O100  1  0.12593300  0.17930500  0.75000000  1
  O  O101  1  0.37406700  0.67930500  0.75000000  1
  O  O102  1  0.87406700  0.82069500  0.25000000  1
  O  O103  1  0.62593300  0.32069500  0.25000000  1
  O  O104  1  0.63099100  0.12709900  0.57457100  1
  O  O105  1  0.86900900  0.62709900  0.92542900  1
  O  O106  1  0.36900900  0.87290100  0.07457100  1
  O  O107  1  0.13099100  0.37290100  0.42542900  1
  O  O108  1  0.36900900  0.87290100  0.42542900  1
  O  O109  1  0.13099100  0.37290100  0.07457100  1
  O  O110  1  0.63099100  0.12709900  0.92542900  1
  O  O111  1  0.86900900  0.62709900  0.57457100  1
  F  F112  1  0.43242300  0.02823300  0.75000000  1
  F  F113  1  0.06757700  0.52823300  0.75000000  1
  F  F114  1  0.56757700  0.97176700  0.25000000  1
  F  F115  1  0.93242300  0.47176700  0.25000000  1
