# generated using pymatgen
data_H8C2S3(NO3)2
_symmetry_space_group_name_H-M   'P 1'
_cell_length_a   10.05487400
_cell_length_b   9.99816800
_cell_length_c   11.93760292
_cell_angle_alpha   58.55843664
_cell_angle_beta   90.00000000
_cell_angle_gamma   90.00000000
_symmetry_Int_Tables_number   1
_chemical_formula_structural   H8C2S3(NO3)2
_chemical_formula_sum   'H32 C8 S12 N8 O24'
_cell_volume   1023.88481684
_cell_formula_units_Z   4
loop_
 _symmetry_equiv_pos_site_id
 _symmetry_equiv_pos_as_xyz
  1  'x, y, z'
loop_
 _atom_site_type_symbol
 _atom_site_label
 _atom_site_symmetry_multiplicity
 _atom_site_fract_x
 _atom_site_fract_y
 _atom_site_fract_z
 _atom_site_occupancy
  H  H0  1  0.36295700  0.94891700  0.60666800  1
  H  H1  1  0.63704300  0.05108300  0.39333200  1
  H  H2  1  0.36295700  0.05108300  0.89333200  1
  H  H3  1  0.63704300  0.94891700  0.10666800  1
  H  H4  1  0.29080000  0.44646600  0.38207100  1
  H  H5  1  0.70920000  0.55353400  0.61792900  1
  H  H6  1  0.29080000  0.55353400  0.11792900  1
  H  H7  1  0.70920000  0.44646600  0.88207100  1
  H  H8  1  0.40304500  0.31707300  0.36298900  1
  H  H9  1  0.59695500  0.68292700  0.63701100  1
  H  H10  1  0.40304500  0.68292700  0.13701100  1
  H  H11  1  0.59695500  0.31707300  0.86298900  1
  H  H12  1  0.43786300  0.37081700  0.48272200  1
  H  H13  1  0.56213700  0.62918300  0.51727800  1
  H  H14  1  0.43786300  0.62918300  0.01727800  1
  H  H15  1  0.56213700  0.37081700  0.98272200  1
  H  H16  1  0.84271200  0.29813400  0.26629300  1
  H  H17  1  0.15728800  0.70186600  0.73370700  1
  H  H18  1  0.84271200  0.70186600  0.23370700  1
  H  H19  1  0.15728800  0.29813400  0.76629300  1
  H  H20  1  0.94458500  0.27585300  0.58371100  1
  H  H21  1  0.05541500  0.72414700  0.41628900  1
  H  H22  1  0.94458500  0.72414700  0.91628900  1
  H  H23  1  0.05541500  0.27585300  0.08371100  1
  H  H24  1  0.90696000  0.09133100  0.59604000  1
  H  H25  1  0.09304000  0.90866900  0.40396000  1
  H  H26  1  0.90696000  0.90866900  0.90396000  1
  H  H27  1  0.09304000  0.09133100  0.09604000  1
  H  H28  1  0.79922900  0.16587000  0.67339500  1
  H  H29  1  0.20077100  0.83413000  0.32660500  1
  H  H30  1  0.79922900  0.83413000  0.82660500  1
  H  H31  1  0.20077100  0.16587000  0.17339500  1
  C  C32  1  0.35994400  0.34725700  0.43125300  1
  C  C33  1  0.64005600  0.65274300  0.56874700  1
  C  C34  1  0.35994400  0.65274300  0.06874700  1
  C  C35  1  0.64005600  0.34725700  0.93125300  1
  C  C36  1  0.86597000  0.19598300  0.59072200  1
  C  C37  1  0.13403000  0.80401700  0.40927800  1
  C  C38  1  0.86597000  0.80401700  0.90927800  1
  C  C39  1  0.13403000  0.19598300  0.09072200  1
  S  S40  1  0.26373300  0.18534200  0.54738900  1
  S  S41  1  0.73626700  0.81465800  0.45261100  1
  S  S42  1  0.26373300  0.81465800  0.95261100  1
  S  S43  1  0.73626700  0.18534200  0.04738900  1
  S  S44  1  0.47159000  0.00000000  0.75000000  1
  S  S45  1  0.52841000  0.00000000  0.25000000  1
  S  S46  1  0.76531500  0.29649400  0.44918500  1
  S  S47  1  0.23468500  0.70350600  0.55081500  1
  S  S48  1  0.76531500  0.70350600  0.05081500  1
  S  S49  1  0.23468500  0.29649400  0.94918500  1
  S  S50  1  0.96705900  0.50000000  0.25000000  1
  S  S51  1  0.03294100  0.50000000  0.75000000  1
  N  N52  1  0.37568400  0.03923900  0.62374800  1
  N  N53  1  0.62431600  0.96076100  0.37625200  1
  N  N54  1  0.37568400  0.96076100  0.87625200  1
  N  N55  1  0.62431600  0.03923900  0.12374800  1
  N  N56  1  0.87192200  0.34027800  0.32477500  1
  N  N57  1  0.12807800  0.65972200  0.67522500  1
  N  N58  1  0.87192200  0.65972200  0.17522500  1
  N  N59  1  0.12807800  0.34027800  0.82477500  1
  O  O60  1  0.17785100  0.13462200  0.47994000  1
  O  O61  1  0.82214900  0.86537800  0.52006000  1
  O  O62  1  0.17785100  0.86537800  0.02006000  1
  O  O63  1  0.82214900  0.13462200  0.97994000  1
  O  O64  1  0.20912300  0.21762600  0.64283300  1
  O  O65  1  0.79087700  0.78237400  0.35716700  1
  O  O66  1  0.20912300  0.78237400  0.85716700  1
  O  O67  1  0.79087700  0.21762600  0.14283300  1
  O  O68  1  0.53979700  0.14096300  0.72046700  1
  O  O69  1  0.46020300  0.85903700  0.27953300  1
  O  O70  1  0.53979700  0.85903700  0.77953300  1
  O  O71  1  0.46020300  0.14096300  0.22046700  1
  O  O72  1  0.67214700  0.18845200  0.44568100  1
  O  O73  1  0.32785300  0.81154800  0.55431900  1
  O  O74  1  0.67214700  0.81154800  0.05431900  1
  O  O75  1  0.32785300  0.18845200  0.94568100  1
  O  O76  1  0.71717800  0.43953500  0.43590100  1
  O  O77  1  0.28282200  0.56046500  0.56409900  1
  O  O78  1  0.71717800  0.56046500  0.06409900  1
  O  O79  1  0.28282200  0.43953500  0.93590100  1
  O  O80  1  0.03488300  0.51248100  0.34978600  1
  O  O81  1  0.96511700  0.48751900  0.65021400  1
  O  O82  1  0.03488300  0.48751900  0.15021400  1
  O  O83  1  0.96511700  0.51248100  0.84978600  1
