# generated using pymatgen
data_K3Na3TeP6(HO4)6
_symmetry_space_group_name_H-M   'P 1'
_cell_length_a   10.75057583
_cell_length_b   10.75057583
_cell_length_c   12.45331376
_cell_angle_alpha   65.80116529
_cell_angle_beta   65.80116529
_cell_angle_gamma   63.24856067
_symmetry_Int_Tables_number   1
_chemical_formula_structural   K3Na3TeP6(HO4)6
_chemical_formula_sum   'K6 Na6 Te2 P12 H12 O48'
_cell_volume   1126.52206706
_cell_formula_units_Z   2
loop_
 _symmetry_equiv_pos_site_id
 _symmetry_equiv_pos_as_xyz
  1  'x, y, z'
loop_
 _atom_site_type_symbol
 _atom_site_label
 _atom_site_symmetry_multiplicity
 _atom_site_fract_x
 _atom_site_fract_y
 _atom_site_fract_z
 _atom_site_occupancy
  K  K0  1  0.84876400  0.73492100  0.24692800  1
  K  K1  1  0.73492100  0.84876400  0.74692800  1
  K  K2  1  0.62852700  0.37147300  0.25000000  1
  K  K3  1  0.37147300  0.62852700  0.75000000  1
  K  K4  1  0.26507900  0.15123600  0.25307200  1
  K  K5  1  0.15123600  0.26507900  0.75307200  1
  Na  Na6  1  0.46142900  0.75310900  0.24294700  1
  Na  Na7  1  0.08031600  0.91968400  0.25000000  1
  Na  Na8  1  0.75310900  0.46142900  0.74294700  1
  Na  Na9  1  0.24689100  0.53857100  0.25705300  1
  Na  Na10  1  0.91968400  0.08031600  0.75000000  1
  Na  Na11  1  0.53857100  0.24689100  0.75705300  1
  Te  Te12  1  0.00000000  0.50000000  0.00000000  1
  Te  Te13  1  0.50000000  0.00000000  0.50000000  1
  P  P14  1  0.66355300  0.01026400  0.02101800  1
  P  P15  1  0.68870000  0.48756200  0.48081400  1
  P  P16  1  0.01026400  0.66355300  0.52101800  1
  P  P17  1  0.82484900  0.18150200  0.48449000  1
  P  P18  1  0.48756200  0.68870000  0.98081400  1
  P  P19  1  0.18150200  0.82484900  0.98449000  1
  P  P20  1  0.81849800  0.17515100  0.01551000  1
  P  P21  1  0.51243800  0.31130000  0.01918600  1
  P  P22  1  0.17515100  0.81849800  0.51551000  1
  P  P23  1  0.98973600  0.33644700  0.47898200  1
  P  P24  1  0.31130000  0.51243800  0.51918600  1
  P  P25  1  0.33644700  0.98973600  0.97898200  1
  H  H26  1  0.51446300  0.82493500  0.41135900  1
  H  H27  1  0.82689500  0.76622700  0.00306100  1
  H  H28  1  0.00402500  0.22191700  0.06949100  1
  H  H29  1  0.82493500  0.51446300  0.91135900  1
  H  H30  1  0.76622700  0.82689500  0.50306100  1
  H  H31  1  0.77808300  0.99597500  0.43050900  1
  H  H32  1  0.22191700  0.00402500  0.56949100  1
  H  H33  1  0.23377300  0.17310500  0.49693900  1
  H  H34  1  0.17506500  0.48553700  0.08864100  1
  H  H35  1  0.99597500  0.77808300  0.93050900  1
  H  H36  1  0.17310500  0.23377300  0.99693900  1
  H  H37  1  0.48553700  0.17506500  0.58864100  1
  O  O38  1  0.73440500  0.92006100  0.44025900  1
  O  O39  1  0.49523400  0.93031000  0.37528600  1
  O  O40  1  0.85971000  0.47955400  0.43460000  1
  O  O41  1  0.92006100  0.73440500  0.94025900  1
  O  O42  1  0.65017500  0.86517500  0.10106000  1
  O  O43  1  0.61639600  0.61884300  0.39345700  1
  O  O44  1  0.97391900  0.21622800  0.43996500  1
  O  O45  1  0.82254700  0.51035400  0.11190100  1
  O  O46  1  0.71072200  0.34448400  0.44751900  1
  O  O47  1  0.21642500  0.88414600  0.37939500  1
  O  O48  1  0.29482100  0.96096400  0.11525300  1
  O  O49  1  0.93031000  0.49523400  0.87528600  1
  O  O50  1  0.47955400  0.85971000  0.93460000  1
  O  O51  1  0.86517500  0.65017500  0.60106000  1
  O  O52  1  0.84359800  0.10361000  0.39935300  1
  O  O53  1  0.61884300  0.61639600  0.89345700  1
  O  O54  1  0.46313700  0.63340000  0.11682100  1
  O  O55  1  0.21622800  0.97391900  0.93996500  1
  O  O56  1  0.36660000  0.53686300  0.38317900  1
  O  O57  1  0.89639000  0.15640200  0.10064700  1
  O  O58  1  0.51035400  0.82254700  0.61190100  1
  O  O59  1  0.34448400  0.71072200  0.94751900  1
  O  O60  1  0.88414600  0.21642500  0.87939500  1
  O  O61  1  0.96096400  0.29482100  0.61525300  1
  O  O62  1  0.03903600  0.70517900  0.38474700  1
  O  O63  1  0.11585400  0.78357500  0.12060500  1
  O  O64  1  0.65551600  0.28927800  0.05248100  1
  O  O65  1  0.48964600  0.17745300  0.38809900  1
  O  O66  1  0.10361000  0.84359800  0.89935300  1
  O  O67  1  0.63340000  0.46313700  0.61682100  1
  O  O68  1  0.78377200  0.02608100  0.06003500  1
  O  O69  1  0.53686300  0.36660000  0.88317900  1
  O  O70  1  0.38115700  0.38360400  0.10654300  1
  O  O71  1  0.15640200  0.89639000  0.60064700  1
  O  O72  1  0.13482500  0.34982500  0.39894000  1
  O  O73  1  0.52044600  0.14029000  0.06540000  1
  O  O74  1  0.06969000  0.50476600  0.12471400  1
  O  O75  1  0.70517900  0.03903600  0.88474700  1
  O  O76  1  0.78357500  0.11585400  0.62060500  1
  O  O77  1  0.28927800  0.65551600  0.55248100  1
  O  O78  1  0.17745300  0.48964600  0.88809900  1
  O  O79  1  0.02608100  0.78377200  0.56003500  1
  O  O80  1  0.38360400  0.38115700  0.60654300  1
  O  O81  1  0.34982500  0.13482500  0.89894000  1
  O  O82  1  0.07993900  0.26559500  0.05974100  1
  O  O83  1  0.14029000  0.52044600  0.56540000  1
  O  O84  1  0.50476600  0.06969000  0.62471400  1
  O  O85  1  0.26559500  0.07993900  0.55974100  1
