# generated using pymatgen
data_MgB3O13
_symmetry_space_group_name_H-M   'P 1'
_cell_length_a   13.30081300
_cell_length_b   7.17379000
_cell_length_c   11.52844402
_cell_angle_alpha   77.55661660
_cell_angle_beta   90.00000000
_cell_angle_gamma   90.00000000
_symmetry_Int_Tables_number   1
_chemical_formula_structural   MgB3O13
_chemical_formula_sum   'Mg4 B12 O52'
_cell_volume   1074.17235723
_cell_formula_units_Z   4
loop_
 _symmetry_equiv_pos_site_id
 _symmetry_equiv_pos_as_xyz
  1  'x, y, z'
loop_
 _atom_site_type_symbol
 _atom_site_label
 _atom_site_symmetry_multiplicity
 _atom_site_fract_x
 _atom_site_fract_y
 _atom_site_fract_z
 _atom_site_occupancy
  Mg  Mg0  1  0.34344700  0.77168400  0.54994500  1
  Mg  Mg1  1  0.84344700  0.22831600  0.95005500  1
  Mg  Mg2  1  0.65655300  0.22831600  0.45005500  1
  Mg  Mg3  1  0.15655300  0.77168400  0.04994500  1
  B  B4  1  0.38854800  0.43242400  0.71421400  1
  B  B5  1  0.88854800  0.56757600  0.78578600  1
  B  B6  1  0.61145200  0.56757600  0.28578600  1
  B  B7  1  0.11145200  0.43242400  0.21421400  1
  B  B8  1  0.52383800  0.63527900  0.72208700  1
  B  B9  1  0.02383800  0.36472100  0.77791300  1
  B  B10  1  0.47616200  0.36472100  0.27791300  1
  B  B11  1  0.97616200  0.63527900  0.22208700  1
  B  B12  1  0.54251300  0.32411200  0.66116600  1
  B  B13  1  0.04251300  0.67588800  0.83883400  1
  B  B14  1  0.45748700  0.67588800  0.33883400  1
  B  B15  1  0.95748700  0.32411200  0.16116600  1
  O  O16  1  0.29127900  0.20422000  0.97869900  1
  O  O17  1  0.79127900  0.79578000  0.52130100  1
  O  O18  1  0.70872100  0.79578000  0.02130100  1
  O  O19  1  0.20872100  0.20422000  0.47869900  1
  O  O20  1  0.30964600  0.51107300  0.64917000  1
  O  O21  1  0.80964600  0.48892700  0.85083000  1
  O  O22  1  0.69035400  0.48892700  0.35083000  1
  O  O23  1  0.19035400  0.51107300  0.14917000  1
  O  O24  1  0.44251000  0.27549300  0.69562400  1
  O  O25  1  0.94251000  0.72450700  0.80437600  1
  O  O26  1  0.55749000  0.72450700  0.30437600  1
  O  O27  1  0.05749000  0.27549300  0.19562400  1
  O  O28  1  0.43564800  0.53168000  0.79355300  1
  O  O29  1  0.93564800  0.46832000  0.70644700  1
  O  O30  1  0.56435200  0.46832000  0.20644700  1
  O  O31  1  0.06435200  0.53168000  0.29355300  1
  O  O32  1  0.58137900  0.74183800  0.79079400  1
  O  O33  1  0.08137900  0.25816200  0.70920600  1
  O  O34  1  0.41862100  0.25816200  0.20920600  1
  O  O35  1  0.91862100  0.74183800  0.29079400  1
  O  O36  1  0.58403600  0.49526500  0.67652400  1
  O  O37  1  0.08403600  0.50473500  0.82347600  1
  O  O38  1  0.41596400  0.50473500  0.32347600  1
  O  O39  1  0.91596400  0.49526500  0.17652400  1
  O  O40  1  0.59640800  0.21136700  0.60559900  1
  O  O41  1  0.09640800  0.78863300  0.89440100  1
  O  O42  1  0.40359200  0.78863300  0.39440100  1
  O  O43  1  0.90359200  0.21136700  0.10559900  1
  O  O44  1  0.48324800  0.78675700  0.63055600  1
  O  O45  1  0.98324800  0.21324300  0.86944400  1
  O  O46  1  0.51675200  0.21324300  0.36944400  1
  O  O47  1  0.01675200  0.78675700  0.13055600  1
  O  O48  1  0.20118800  0.81092000  0.45599700  1
  O  O49  1  0.70118800  0.18908000  0.04400300  1
  O  O50  1  0.79881200  0.18908000  0.54400300  1
  O  O51  1  0.29881200  0.81092000  0.95599700  1
  O  O52  1  0.28613900  0.12201400  0.52013400  1
  O  O53  1  0.78613900  0.87798600  0.97986600  1
  O  O54  1  0.71386100  0.87798600  0.47986600  1
  O  O55  1  0.21386100  0.12201400  0.02013400  1
  O  O56  1  0.11663800  0.73006700  0.50346000  1
  O  O57  1  0.61663800  0.26993300  0.99654000  1
  O  O58  1  0.88336200  0.26993300  0.49654000  1
  O  O59  1  0.38336200  0.73006700  0.00346000  1
  O  O60  1  0.33105700  0.77644000  0.72974400  1
  O  O61  1  0.83105700  0.22356000  0.77025600  1
  O  O62  1  0.66894300  0.22356000  0.27025600  1
  O  O63  1  0.16894300  0.77644000  0.22974400  1
  O  O64  1  0.46380000  0.80775100  0.95827500  1
  O  O65  1  0.96380000  0.19224900  0.54172500  1
  O  O66  1  0.53620000  0.19224900  0.04172500  1
  O  O67  1  0.03620000  0.80775100  0.45827500  1
