# generated using pymatgen
data_NaH3C4S4(OF)12
_symmetry_space_group_name_H-M   'P 1'
_cell_length_a   14.33139022
_cell_length_b   14.33139022
_cell_length_c   14.33139022
_cell_angle_alpha   109.47122063
_cell_angle_beta   109.47122063
_cell_angle_gamma   109.47122063
_symmetry_Int_Tables_number   1
_chemical_formula_structural   NaH3C4S4(OF)12
_chemical_formula_sum   'Na4 H12 C16 S16 O48 F48'
_cell_volume   2265.91217471
_cell_formula_units_Z   4
loop_
 _symmetry_equiv_pos_site_id
 _symmetry_equiv_pos_as_xyz
  1  'x, y, z'
loop_
 _atom_site_type_symbol
 _atom_site_label
 _atom_site_symmetry_multiplicity
 _atom_site_fract_x
 _atom_site_fract_y
 _atom_site_fract_z
 _atom_site_occupancy
  Na  Na0  1  0.50000000  0.00000000  0.72582700  1
  Na  Na1  1  0.00000000  0.72582700  0.50000000  1
  Na  Na2  1  0.72582700  0.50000000  0.00000000  1
  Na  Na3  1  0.77417300  0.77417300  0.77417300  1
  H  H4  1  0.35054200  0.28564000  0.89839700  1
  H  H5  1  0.93509800  0.14945800  0.04785500  1
  H  H6  1  0.21436000  0.56490200  0.61275700  1
  H  H7  1  0.14945800  0.04785500  0.93509800  1
  H  H8  1  0.56490200  0.61275700  0.21436000  1
  H  H9  1  0.28564000  0.89839700  0.35054200  1
  H  H10  1  0.61275700  0.21436000  0.56490200  1
  H  H11  1  0.89839700  0.35054200  0.28564000  1
  H  H12  1  0.04785500  0.93509800  0.14945800  1
  H  H13  1  0.88724300  0.45214500  0.60160300  1
  H  H14  1  0.60160300  0.88724300  0.45214500  1
  H  H15  1  0.45214500  0.60160300  0.88724300  1
  C  C16  1  0.49271500  0.22122800  0.05997100  1
  C  C17  1  0.72851400  0.00728500  0.06725700  1
  C  C18  1  0.27877200  0.77148600  0.83874300  1
  C  C19  1  0.00728500  0.06725700  0.72851400  1
  C  C20  1  0.77148600  0.83874300  0.27877200  1
  C  C21  1  0.22122800  0.05997100  0.49271500  1
  C  C22  1  0.83874300  0.27877200  0.77148600  1
  C  C23  1  0.05997100  0.49271500  0.22122800  1
  C  C24  1  0.06725700  0.72851400  0.00728500  1
  C  C25  1  0.66125700  0.43274300  0.44002900  1
  C  C26  1  0.44002900  0.66125700  0.43274300  1
  C  C27  1  0.43274300  0.44002900  0.66125700  1
  C  C28  1  0.24480500  0.50000000  0.00000000  1
  C  C29  1  0.25519500  0.25519500  0.25519500  1
  C  C30  1  0.00000000  0.24480500  0.50000000  1
  C  C31  1  0.50000000  0.00000000  0.24480500  1
  S  S32  1  0.47818500  0.23079100  0.92906000  1
  S  S33  1  0.75260700  0.02181500  0.95087500  1
  S  S34  1  0.26920900  0.74739300  0.69826900  1
  S  S35  1  0.02181500  0.95087500  0.75260700  1
  S  S36  1  0.74739300  0.69826800  0.26920900  1
  S  S37  1  0.23079100  0.92906000  0.47818500  1
  S  S38  1  0.69826800  0.26920900  0.74739300  1
  S  S39  1  0.92906000  0.47818500  0.23079100  1
  S  S40  1  0.95087500  0.75260700  0.02181500  1
  S  S41  1  0.80173100  0.54912500  0.57094000  1
  S  S42  1  0.57094000  0.80173200  0.54912500  1
  S  S43  1  0.54912500  0.57094000  0.80173200  1
  S  S44  1  0.37609400  0.50000000  0.00000000  1
  S  S45  1  0.12390600  0.12390600  0.12390600  1
  S  S46  1  0.00000000  0.37609400  0.50000000  1
  S  S47  1  0.50000000  0.00000000  0.37609400  1
  O  O48  1  0.56293300  0.34502500  0.96819200  1
  O  O49  1  0.78209200  0.93706700  0.90525900  1
  O  O50  1  0.15497500  0.71790800  0.62316700  1
  O  O51  1  0.93706700  0.90525900  0.78209200  1
  O  O52  1  0.71790800  0.62316700  0.15497500  1
  O  O53  1  0.34502500  0.96819200  0.56293300  1
  O  O54  1  0.62316700  0.15497500  0.71790800  1
  O  O55  1  0.96819200  0.56293300  0.34502500  1
  O  O56  1  0.90525900  0.78209200  0.93706700  1
  O  O57  1  0.87683300  0.59474100  0.53180800  1
  O  O58  1  0.53180800  0.87683300  0.59474100  1
  O  O59  1  0.59474100  0.53180800  0.87683300  1
  O  O60  1  0.35545000  0.21119100  0.87696600  1
  O  O61  1  0.85574200  0.14455000  0.02151600  1
  O  O62  1  0.28880900  0.64425800  0.66577500  1
  O  O63  1  0.14455000  0.02151600  0.85574200  1
  O  O64  1  0.64425800  0.66577500  0.28880900  1
  O  O65  1  0.21119100  0.87696600  0.35545000  1
  O  O66  1  0.66577500  0.28880900  0.64425800  1
  O  O67  1  0.87696600  0.35545000  0.21119200  1
  O  O68  1  0.02151600  0.85574200  0.14455000  1
  O  O69  1  0.83422500  0.47848400  0.62303400  1
  O  O70  1  0.62303400  0.83422500  0.47848400  1
  O  O71  1  0.47848400  0.62303400  0.83422500  1
  O  O72  1  0.47877400  0.13422100  0.85635100  1
  O  O73  1  0.65544700  0.02122600  0.87757700  1
  O  O74  1  0.36577900  0.84455300  0.72213000  1
  O  O75  1  0.02122600  0.87757700  0.65544700  1
  O  O76  1  0.84455300  0.72213000  0.36577900  1
  O  O77  1  0.13422100  0.85635100  0.47877400  1
  O  O78  1  0.72213000  0.36577900  0.84455300  1
  O  O79  1  0.85635100  0.47877400  0.13422100  1
  O  O80  1  0.87757700  0.65544700  0.02122600  1
  O  O81  1  0.77787000  0.62242300  0.64364900  1
  O  O82  1  0.64364900  0.77787000  0.62242300  1
  O  O83  1  0.62242300  0.64364900  0.77787000  1
  O  O84  1  0.44695000  0.52393300  0.11505400  1
  O  O85  1  0.07698400  0.05305000  0.16810400  1
  O  O86  1  0.97606700  0.42301600  0.59112000  1
  O  O87  1  0.05305000  0.16810400  0.07698400  1
  O  O88  1  0.42301600  0.59112000  0.97606700  1
  O  O89  1  0.52393300  0.11505400  0.44695000  1
  O  O90  1  0.59112000  0.97606700  0.42301600  1
  O  O91  1  0.11505400  0.44695000  0.52393300  1
  O  O92  1  0.16810400  0.07698400  0.05305000  1
  O  O93  1  0.90888000  0.33189600  0.38494600  1
  O  O94  1  0.38494600  0.90888000  0.33189600  1
  O  O95  1  0.33189600  0.38494600  0.90888000  1
  F  F96  1  0.41365000  0.11700900  0.02952600  1
  F  F97  1  0.70335900  0.08635000  0.11587600  1
  F  F98  1  0.38299100  0.79664100  0.91251700  1
  F  F99  1  0.08635000  0.11587600  0.70335900  1
  F  F100  1  0.79664100  0.91251700  0.38299100  1
  F  F101  1  0.11700900  0.02952600  0.41365000  1
  F  F102  1  0.91251700  0.38299100  0.79664100  1
  F  F103  1  0.02952600  0.41365000  0.11700900  1
  F  F104  1  0.11587600  0.70335900  0.08635000  1
  F  F105  1  0.58748300  0.38412400  0.47047400  1
  F  F106  1  0.47047400  0.58748300  0.38412400  1
  F  F107  1  0.38412400  0.47047400  0.58748300  1
  F  F108  1  0.47685400  0.30151800  0.12398600  1
  F  F109  1  0.82466300  0.02314600  0.14713200  1
  F  F110  1  0.19848200  0.67533700  0.82246800  1
  F  F111  1  0.02314600  0.14713200  0.82466300  1
  F  F112  1  0.67533700  0.82246800  0.19848200  1
  F  F113  1  0.30151800  0.12398600  0.47685400  1
  F  F114  1  0.82246800  0.19848200  0.67533700  1
  F  F115  1  0.12398600  0.47685400  0.30151800  1
  F  F116  1  0.14713200  0.82466300  0.02314600  1
  F  F117  1  0.67753200  0.35286800  0.37601400  1
  F  F118  1  0.37601400  0.67753200  0.35286800  1
  F  F119  1  0.35286800  0.37601400  0.67753200  1
  F  F120  1  0.59778900  0.23929000  0.12159800  1
  F  F121  1  0.64150100  0.90221100  0.02380800  1
  F  F122  1  0.26071000  0.85849900  0.88230700  1
  F  F123  1  0.90221100  0.02380800  0.64150100  1
  F  F124  1  0.85849900  0.88230700  0.26071000  1
  F  F125  1  0.23929000  0.12159800  0.59778900  1
  F  F126  1  0.88230700  0.26071000  0.85849900  1
  F  F127  1  0.12159800  0.59778900  0.23929000  1
  F  F128  1  0.02380800  0.64150100  0.90221100  1
  F  F129  1  0.61769300  0.47619200  0.37840200  1
  F  F130  1  0.37840200  0.61769300  0.47619200  1
  F  F131  1  0.47619200  0.37840200  0.61769300  1
  F  F132  1  0.27389200  0.60244200  0.08205700  1
  F  F133  1  0.32855000  0.22610800  0.30816500  1
  F  F134  1  0.89755800  0.17145000  0.47961500  1
  F  F135  1  0.22610800  0.30816500  0.32855000  1
  F  F136  1  0.17145000  0.47961500  0.89755800  1
  F  F137  1  0.60244200  0.08205700  0.27389200  1
  F  F138  1  0.47961500  0.89755800  0.17145000  1
  F  F139  1  0.08205700  0.27389200  0.60244200  1
  F  F140  1  0.30816500  0.32855000  0.22610800  1
  F  F141  1  0.02038500  0.19183500  0.41794300  1
  F  F142  1  0.41794300  0.02038500  0.19183500  1
  F  F143  1  0.19183500  0.41794300  0.02038500  1
