# generated using pymatgen
data_Na9CaFe10(SiO3)20
_symmetry_space_group_name_H-M   'P 1'
_cell_length_a   9.38936500
_cell_length_b   10.40749790
_cell_length_c   12.20659887
_cell_angle_alpha   109.20543573
_cell_angle_beta   94.59745668
_cell_angle_gamma   91.90977473
_symmetry_Int_Tables_number   1
_chemical_formula_structural   Na9CaFe10(SiO3)20
_chemical_formula_sum   'Na9 Ca1 Fe10 Si20 O60'
_cell_volume   1120.55545127
_cell_formula_units_Z   1
loop_
 _symmetry_equiv_pos_site_id
 _symmetry_equiv_pos_as_xyz
  1  'x, y, z'
loop_
 _atom_site_type_symbol
 _atom_site_label
 _atom_site_symmetry_multiplicity
 _atom_site_fract_x
 _atom_site_fract_y
 _atom_site_fract_z
 _atom_site_occupancy
  Na  Na0  1  0.17894800  0.38999000  0.90980500  1
  Na  Na1  1  0.21907700  0.80773600  0.88873100  1
  Na  Na2  1  0.58033400  0.59218500  0.71104000  1
  Na  Na3  1  0.62105700  0.00975200  0.69002400  1
  Na  Na4  1  0.98285100  0.78940700  0.50864900  1
  Na  Na5  1  0.01964800  0.21054100  0.49009800  1
  Na  Na6  1  0.41985100  0.41167700  0.29036300  1
  Na  Na7  1  0.77866300  0.19041800  0.10916600  1
  Na  Na8  1  0.82156100  0.60953900  0.09081200  1
  Ca  Ca9  1  0.37694200  0.98779200  0.31239400  1
  Fe  Fe10  1  0.05831200  0.13085200  0.96932800  1
  Fe  Fe11  1  0.45957300  0.33289200  0.77154300  1
  Fe  Fe12  1  0.34083600  0.06829100  0.82944400  1
  Fe  Fe13  1  0.85978200  0.53152900  0.57021400  1
  Fe  Fe14  1  0.74043800  0.26958200  0.62985600  1
  Fe  Fe15  1  0.25611900  0.72402000  0.36937600  1
  Fe  Fe16  1  0.14111900  0.47216900  0.43016500  1
  Fe  Fe17  1  0.66434300  0.92954700  0.16879500  1
  Fe  Fe18  1  0.53945400  0.66735800  0.22997700  1
  Fe  Fe19  1  0.94134900  0.86821500  0.02890500  1
  Si  Si20  1  0.77427700  0.29793700  0.90241200  1
  Si  Si21  1  0.90306000  0.54079700  0.83833100  1
  Si  Si22  1  0.17478600  0.49801100  0.70275800  1
  Si  Si23  1  0.49682400  0.65992700  0.96216500  1
  Si  Si24  1  0.30218400  0.73973000  0.63899100  1
  Si  Si25  1  0.62527100  0.90264600  0.89724200  1
  Si  Si26  1  0.57473200  0.69752100  0.50214900  1
  Si  Si27  1  0.89717400  0.85888500  0.76153500  1
  Si  Si28  1  0.70397300  0.94234600  0.43993100  1
  Si  Si29  1  0.02509700  0.10215100  0.69751100  1
  Si  Si30  1  0.97371900  0.89677800  0.30222300  1
  Si  Si31  1  0.29824800  0.06136300  0.56407500  1
  Si  Si32  1  0.10024900  0.14171800  0.23809400  1
  Si  Si33  1  0.42638000  0.30537500  0.49860000  1
  Si  Si34  1  0.37501200  0.09840100  0.10171500  1
  Si  Si35  1  0.69706300  0.25833300  0.36067900  1
  Si  Si36  1  0.50273100  0.34161300  0.03813300  1
  Si  Si37  1  0.82510600  0.50202600  0.29670100  1
  Si  Si38  1  0.09691200  0.45646800  0.16118500  1
  Si  Si39  1  0.22614100  0.70135400  0.09655000  1
  O  O40  1  0.26951200  0.05323100  0.98000800  1
  O  O41  1  0.40449100  0.28197100  0.91220000  1
  O  O42  1  0.86735800  0.17993100  0.92538700  1
  O  O43  1  0.66795200  0.25578300  0.78022500  1
  O  O44  1  0.88145900  0.43069200  0.90961100  1
  O  O45  1  0.86552400  0.68619800  0.92785900  1
  O  O46  1  0.80527000  0.48144300  0.71186700  1
  O  O47  1  0.07360000  0.54647700  0.81387200  1
  O  O48  1  0.32563300  0.65287400  0.98435000  1
  O  O49  1  0.26871000  0.38014900  0.72578600  1
  O  O50  1  0.06809600  0.45435500  0.58075200  1
  O  O51  1  0.53605300  0.51457200  0.87391100  1
  O  O52  1  0.28343900  0.63077800  0.71236700  1
  O  O53  1  0.51761200  0.77085200  0.89140000  1
  O  O54  1  0.26659300  0.88659700  0.72834100  1
  O  O55  1  0.19993700  0.67793700  0.51727900  1
  O  O56  1  0.53272200  0.02152200  0.87549400  1
  O  O57  1  0.47284600  0.74751400  0.61279200  1
  O  O58  1  0.72668200  0.85351300  0.78704000  1
  O  O59  1  0.66885200  0.58115400  0.52750400  1
  O  O60  1  0.47284100  0.65217800  0.37868900  1
  O  O61  1  0.99528100  0.91838100  0.88811700  1
  O  O62  1  0.93420200  0.71349900  0.67303700  1
  O  O63  1  0.68233400  0.83117100  0.50944300  1
  O  O64  1  0.91836700  0.96913800  0.69049800  1
  O  O65  1  0.66318600  0.08734200  0.52737700  1
  O  O66  1  0.60376700  0.88559400  0.31334900  1
  O  O67  1  0.13141900  0.14445900  0.81980500  1
  O  O68  1  0.93064000  0.21892500  0.67392200  1
  O  O69  1  0.87327200  0.95100600  0.41372300  1
  O  O70  1  0.12718600  0.05468200  0.58722200  1
  O  O71  1  0.06094000  0.77679500  0.32187400  1
  O  O72  1  0.86696900  0.85794400  0.17996200  1
  O  O73  1  0.39557200  0.12105600  0.69029400  1
  O  O74  1  0.34074100  0.92241700  0.47196400  1
  O  O75  1  0.08529800  0.02827600  0.30787000  1
  O  O76  1  0.31884400  0.17181100  0.49076900  1
  O  O77  1  0.06418500  0.28518200  0.32859100  1
  O  O78  1  0.00424600  0.08142700  0.11129800  1
  O  O79  1  0.53260100  0.34655000  0.62025400  1
  O  O80  1  0.33352100  0.42108100  0.47357500  1
  O  O81  1  0.27294900  0.14268100  0.21353700  1
  O  O82  1  0.52517400  0.24789800  0.38541100  1
  O  O83  1  0.46871500  0.98371100  0.13173200  1
  O  O84  1  0.79361000  0.31728700  0.48737200  1
  O  O85  1  0.73456800  0.11340500  0.27068700  1
  O  O86  1  0.48089800  0.23166300  0.11003500  1
  O  O87  1  0.71723500  0.36904700  0.29010600  1
  O  O88  1  0.46478300  0.48674200  0.12662600  1
  O  O89  1  0.93038400  0.54380400  0.41924700  1
  O  O90  1  0.73162800  0.61946900  0.27292900  1
  O  O91  1  0.67328500  0.34643900  0.01342500  1
  O  O92  1  0.92543800  0.45210000  0.18523000  1
  O  O93  1  0.19471800  0.50725200  0.28565300  1
  O  O94  1  0.13340400  0.31114200  0.07046000  1
  O  O95  1  0.12122300  0.56788100  0.09101700  1
  O  O96  1  0.33731900  0.75181500  0.21501700  1
  O  O97  1  0.13117000  0.81916100  0.07409300  1
  O  O98  1  0.59514200  0.71995300  0.08858400  1
  O  O99  1  0.73141100  0.94522300  0.01949500  1
