# generated using pymatgen
data_Na3B5H4O11
_symmetry_space_group_name_H-M   'P 1'
_cell_length_a   8.88094000
_cell_length_b   10.97757500
_cell_length_c   18.50690000
_cell_angle_alpha   90.00000000
_cell_angle_beta   90.00000000
_cell_angle_gamma   90.00000000
_symmetry_Int_Tables_number   1
_chemical_formula_structural   Na3B5H4O11
_chemical_formula_sum   'Na24 B40 H32 O88'
_cell_volume   1804.25961021
_cell_formula_units_Z   8
loop_
 _symmetry_equiv_pos_site_id
 _symmetry_equiv_pos_as_xyz
  1  'x, y, z'
loop_
 _atom_site_type_symbol
 _atom_site_label
 _atom_site_symmetry_multiplicity
 _atom_site_fract_x
 _atom_site_fract_y
 _atom_site_fract_z
 _atom_site_occupancy
  Na  Na0  1  0.93350300  0.09214500  0.56789400  1
  Na  Na1  1  0.43350300  0.90785500  0.93210600  1
  Na  Na2  1  0.06649700  0.40785500  0.06789400  1
  Na  Na3  1  0.56649700  0.59214500  0.43210600  1
  Na  Na4  1  0.06649700  0.90785500  0.43210600  1
  Na  Na5  1  0.56649700  0.09214500  0.06789400  1
  Na  Na6  1  0.93350300  0.59214500  0.93210600  1
  Na  Na7  1  0.43350300  0.40785500  0.56789400  1
  Na  Na8  1  0.91801000  0.07464900  0.74054900  1
  Na  Na9  1  0.41801000  0.92535100  0.75945100  1
  Na  Na10  1  0.08199000  0.42535100  0.24054900  1
  Na  Na11  1  0.58199000  0.57464900  0.25945100  1
  Na  Na12  1  0.08199000  0.92535100  0.25945100  1
  Na  Na13  1  0.58199000  0.07464900  0.24054900  1
  Na  Na14  1  0.91801000  0.57464900  0.75945100  1
  Na  Na15  1  0.41801000  0.42535100  0.74054900  1
  Na  Na16  1  0.62233600  0.09695000  0.45827800  1
  Na  Na17  1  0.12233600  0.90305000  0.04172200  1
  Na  Na18  1  0.37766400  0.40305000  0.95827800  1
  Na  Na19  1  0.87766400  0.59695000  0.54172200  1
  Na  Na20  1  0.37766400  0.90305000  0.54172200  1
  Na  Na21  1  0.87766400  0.09695000  0.95827800  1
  Na  Na22  1  0.62233600  0.59695000  0.04172200  1
  Na  Na23  1  0.12233600  0.40305000  0.45827800  1
  B  B24  1  0.67767700  0.21810000  0.68333200  1
  B  B25  1  0.17767700  0.78190000  0.81666800  1
  B  B26  1  0.32232300  0.28190000  0.18333200  1
  B  B27  1  0.82232300  0.71810000  0.31666800  1
  B  B28  1  0.32232300  0.78190000  0.31666800  1
  B  B29  1  0.82232300  0.21810000  0.18333200  1
  B  B30  1  0.67767700  0.71810000  0.81666800  1
  B  B31  1  0.17767700  0.28190000  0.68333200  1
  B  B32  1  0.41546600  0.15282700  0.65718900  1
  B  B33  1  0.91546600  0.84717300  0.84281100  1
  B  B34  1  0.58453400  0.34717300  0.15718900  1
  B  B35  1  0.08453400  0.65282700  0.34281100  1
  B  B36  1  0.58453400  0.84717300  0.34281100  1
  B  B37  1  0.08453400  0.15282700  0.15718900  1
  B  B38  1  0.41546600  0.65282700  0.84281100  1
  B  B39  1  0.91546600  0.34717300  0.65718900  1
  B  B40  1  0.62713000  0.00096000  0.63656100  1
  B  B41  1  0.12713000  0.99904000  0.86343900  1
  B  B42  1  0.37287000  0.49904000  0.13656100  1
  B  B43  1  0.87287000  0.50096000  0.36343900  1
  B  B44  1  0.37287000  0.99904000  0.36343900  1
  B  B45  1  0.87287000  0.00096000  0.13656100  1
  B  B46  1  0.62713000  0.50096000  0.86343900  1
  B  B47  1  0.12713000  0.49904000  0.63656100  1
  B  B48  1  0.71123100  0.79613900  0.68384000  1
  B  B49  1  0.21123100  0.20386100  0.81616000  1
  B  B50  1  0.28876900  0.70386100  0.18384000  1
  B  B51  1  0.78876900  0.29613900  0.31616000  1
  B  B52  1  0.28876900  0.20386100  0.31616000  1
  B  B53  1  0.78876900  0.79613900  0.18384000  1
  B  B54  1  0.71123100  0.29613900  0.81616000  1
  B  B55  1  0.21123100  0.70386100  0.68384000  1
  B  B56  1  0.74709900  0.84116200  0.55290700  1
  B  B57  1  0.24709900  0.15883800  0.94709300  1
  B  B58  1  0.25290100  0.65883800  0.05290700  1
  B  B59  1  0.75290100  0.34116200  0.44709300  1
  B  B60  1  0.25290100  0.15883800  0.44709300  1
  B  B61  1  0.75290100  0.84116200  0.05290700  1
  B  B62  1  0.74709900  0.34116200  0.94709300  1
  B  B63  1  0.24709900  0.65883800  0.55290700  1
  H  H64  1  0.72349400  0.78846400  0.44875500  1
  H  H65  1  0.22349400  0.21153600  0.05124500  1
  H  H66  1  0.27650600  0.71153600  0.94875500  1
  H  H67  1  0.77650600  0.28846400  0.55124500  1
  H  H68  1  0.27650600  0.21153600  0.55124500  1
  H  H69  1  0.77650600  0.78846400  0.94875500  1
  H  H70  1  0.72349400  0.28846400  0.05124500  1
  H  H71  1  0.22349400  0.71153600  0.44875500  1
  H  H72  1  0.97664600  0.84801600  0.55784000  1
  H  H73  1  0.47664600  0.15198400  0.94216000  1
  H  H74  1  0.02335400  0.65198400  0.05784000  1
  H  H75  1  0.52335400  0.34801600  0.44216000  1
  H  H76  1  0.02335400  0.15198400  0.44216000  1
  H  H77  1  0.52335400  0.84801600  0.05784000  1
  H  H78  1  0.97664600  0.34801600  0.94216000  1
  H  H79  1  0.47664600  0.65198400  0.55784000  1
  H  H80  1  0.15415300  0.04643500  0.65373800  1
  H  H81  1  0.65415300  0.95356500  0.84626200  1
  H  H82  1  0.84584700  0.45356500  0.15373800  1
  H  H83  1  0.34584700  0.54643500  0.34626200  1
  H  H84  1  0.84584700  0.95356500  0.34626200  1
  H  H85  1  0.34584700  0.04643500  0.15373800  1
  H  H86  1  0.15415300  0.54643500  0.84626200  1
  H  H87  1  0.65415300  0.45356500  0.65373800  1
  H  H88  1  0.12430600  0.91308900  0.68072300  1
  H  H89  1  0.62430600  0.08691100  0.81927700  1
  H  H90  1  0.87569400  0.58691100  0.18072300  1
  H  H91  1  0.37569400  0.41308900  0.31927700  1
  H  H92  1  0.87569400  0.08691100  0.31927700  1
  H  H93  1  0.37569400  0.91308900  0.18072300  1
  H  H94  1  0.12430600  0.41308900  0.81927700  1
  H  H95  1  0.62430600  0.58691100  0.68072300  1
  O  O96  1  0.76163400  0.32530400  0.65256000  1
  O  O97  1  0.26163400  0.67469600  0.84744000  1
  O  O98  1  0.23836600  0.17469600  0.15256000  1
  O  O99  1  0.73836600  0.82530400  0.34744000  1
  O  O100  1  0.23836600  0.67469600  0.34744000  1
  O  O101  1  0.73836600  0.32530400  0.15256000  1
  O  O102  1  0.76163400  0.82530400  0.84744000  1
  O  O103  1  0.26163400  0.17469600  0.65256000  1
  O  O104  1  0.51421200  0.24529400  0.67339400  1
  O  O105  1  0.01421200  0.75470600  0.82660600  1
  O  O106  1  0.48578800  0.25470600  0.17339400  1
  O  O107  1  0.98578800  0.74529400  0.32660600  1
  O  O108  1  0.48578800  0.75470600  0.32660600  1
  O  O109  1  0.98578800  0.24529400  0.17339400  1
  O  O110  1  0.51421200  0.74529400  0.82660600  1
  O  O111  1  0.01421200  0.25470600  0.67339400  1
  O  O112  1  0.71299700  0.20748700  0.76274000  1
  O  O113  1  0.21299700  0.79251300  0.73726000  1
  O  O114  1  0.28700300  0.29251300  0.26274000  1
  O  O115  1  0.78700300  0.70748700  0.23726000  1
  O  O116  1  0.28700300  0.79251300  0.23726000  1
  O  O117  1  0.78700300  0.20748700  0.26274000  1
  O  O118  1  0.71299700  0.70748700  0.73726000  1
  O  O119  1  0.21299700  0.29251300  0.76274000  1
  O  O120  1  0.72346500  0.10749400  0.64694500  1
  O  O121  1  0.22346500  0.89250600  0.85305500  1
  O  O122  1  0.27653500  0.39250600  0.14694500  1
  O  O123  1  0.77653500  0.60749400  0.35305500  1
  O  O124  1  0.27653500  0.89250600  0.35305500  1
  O  O125  1  0.77653500  0.10749400  0.14694500  1
  O  O126  1  0.72346500  0.60749400  0.85305500  1
  O  O127  1  0.22346500  0.39250600  0.64694500  1
  O  O128  1  0.46193300  0.03539700  0.64375100  1
  O  O129  1  0.96193300  0.96460300  0.85624900  1
  O  O130  1  0.53806700  0.46460300  0.14375100  1
  O  O131  1  0.03806700  0.53539700  0.35624900  1
  O  O132  1  0.53806700  0.96460300  0.35624900  1
  O  O133  1  0.03806700  0.03539700  0.14375100  1
  O  O134  1  0.46193300  0.53539700  0.85624900  1
  O  O135  1  0.96193300  0.46460300  0.64375100  1
  O  O136  1  0.65404700  0.91005300  0.69586700  1
  O  O137  1  0.15404700  0.08994700  0.80413300  1
  O  O138  1  0.34595300  0.58994700  0.19586700  1
  O  O139  1  0.84595300  0.41005300  0.30413300  1
  O  O140  1  0.34595300  0.08994700  0.30413300  1
  O  O141  1  0.84595300  0.91005300  0.19586700  1
  O  O142  1  0.65404700  0.41005300  0.80413300  1
  O  O143  1  0.15404700  0.58994700  0.69586700  1
  O  O144  1  0.64516400  0.94490500  0.56484300  1
  O  O145  1  0.14516400  0.05509500  0.93515700  1
  O  O146  1  0.35483600  0.55509500  0.06484300  1
  O  O147  1  0.85483600  0.44490500  0.43515700  1
  O  O148  1  0.35483600  0.05509500  0.43515700  1
  O  O149  1  0.85483600  0.94490500  0.06484300  1
  O  O150  1  0.64516400  0.44490500  0.93515700  1
  O  O151  1  0.14516400  0.55509500  0.56484300  1
  O  O152  1  0.76653700  0.76170100  0.61732700  1
  O  O153  1  0.26653700  0.23829900  0.88267300  1
  O  O154  1  0.23346300  0.73829900  0.11732700  1
  O  O155  1  0.73346300  0.26170100  0.38267300  1
  O  O156  1  0.23346300  0.23829900  0.38267300  1
  O  O157  1  0.73346300  0.76170100  0.11732700  1
  O  O158  1  0.76653700  0.26170100  0.88267300  1
  O  O159  1  0.26653700  0.73829900  0.61732700  1
  O  O160  1  0.68804600  0.75836900  0.49568500  1
  O  O161  1  0.18804600  0.24163100  0.00431500  1
  O  O162  1  0.31195400  0.74163100  0.99568500  1
  O  O163  1  0.81195400  0.25836900  0.50431500  1
  O  O164  1  0.31195400  0.24163100  0.50431500  1
  O  O165  1  0.81195400  0.75836900  0.99568500  1
  O  O166  1  0.68804600  0.25836900  0.00431500  1
  O  O167  1  0.18804600  0.74163100  0.49568500  1
  O  O168  1  0.89792300  0.88619500  0.52880800  1
  O  O169  1  0.39792300  0.11380500  0.97119200  1
  O  O170  1  0.10207700  0.61380500  0.02880800  1
  O  O171  1  0.60207700  0.38619500  0.47119200  1
  O  O172  1  0.10207700  0.11380500  0.47119200  1
  O  O173  1  0.60207700  0.88619500  0.02880800  1
  O  O174  1  0.89792300  0.38619500  0.97119200  1
  O  O175  1  0.39792300  0.61380500  0.52880800  1
  O  O176  1  0.07793700  0.97969900  0.65278100  1
  O  O177  1  0.57793700  0.02030100  0.84721900  1
  O  O178  1  0.92206300  0.52030100  0.15278100  1
  O  O179  1  0.42206300  0.47969900  0.34721900  1
  O  O180  1  0.92206300  0.02030100  0.34721900  1
  O  O181  1  0.42206300  0.97969900  0.15278100  1
  O  O182  1  0.07793700  0.47969900  0.84721900  1
  O  O183  1  0.57793700  0.52030100  0.65278100  1
