# generated using pymatgen
data_V7O13
_symmetry_space_group_name_H-M   'P 1'
_cell_length_a   5.57402985
_cell_length_b   7.09021385
_cell_length_c   11.45292962
_cell_angle_alpha   83.42973524
_cell_angle_beta   90.02236272
_cell_angle_gamma   71.81432711
_symmetry_Int_Tables_number   1
_chemical_formula_structural   V7O13
_chemical_formula_sum   'V14 O26'
_cell_volume   426.88615195
_cell_formula_units_Z   2
loop_
 _symmetry_equiv_pos_site_id
 _symmetry_equiv_pos_as_xyz
  1  'x, y, z'
loop_
 _atom_site_type_symbol
 _atom_site_label
 _atom_site_symmetry_multiplicity
 _atom_site_fract_x
 _atom_site_fract_y
 _atom_site_fract_z
 _atom_site_occupancy
  V  V0  1  0.40710000  0.75468500  0.35954000  1
  V  V1  1  0.61034000  0.22695500  0.63929100  1
  V  V2  1  0.20872600  0.49169700  0.79040400  1
  V  V3  1  0.79099100  0.51298600  0.20132500  1
  V  V4  1  0.79020900  0.71765000  0.94629200  1
  V  V5  1  0.21427500  0.28726200  0.05117600  1
  V  V6  1  0.19959300  0.78803200  0.05961000  1
  V  V7  1  0.79562500  0.21913400  0.94025300  1
  V  V8  1  0.21728500  0.97843100  0.79450200  1
  V  V9  1  0.79977000  0.01802400  0.21481900  1
  V  V10  1  0.38032400  0.26713600  0.34632400  1
  V  V11  1  0.61382000  0.73286200  0.64571800  1
  V  V12  1  0.00277100  0.99673200  0.50456000  1
  V  V13  1  0.99896000  0.49766900  0.49864200  1
  O  O14  1  0.86718300  0.77136900  0.12017400  1
  O  O15  1  0.12774800  0.24315800  0.87913900  1
  O  O16  1  0.41094000  0.69341900  0.17963700  1
  O  O17  1  0.58359000  0.29880700  0.81868900  1
  O  O18  1  0.04861200  0.07422100  0.09049800  1
  O  O19  1  0.94736700  0.93213000  0.90995800  1
  O  O20  1  0.15143300  0.36577900  0.20404300  1
  O  O21  1  0.85846000  0.63453500  0.79309800  1
  O  O22  1  0.89424400  0.75723900  0.55064100  1
  O  O23  1  0.09081100  0.24481900  0.45548500  1
  O  O24  1  0.67432200  0.28526700  0.24972900  1
  O  O25  1  0.33004000  0.69672600  0.74839900  1
  O  O26  1  0.80501600  0.44661300  0.02276600  1
  O  O27  1  0.18818400  0.55946400  0.97348900  1
  O  O28  1  0.96376000  0.07287400  0.67041500  1
  O  O29  1  0.02940900  0.93425500  0.33120100  1
  O  O30  1  0.24823700  0.39453400  0.64433700  1
  O  O31  1  0.74887000  0.59723400  0.36391800  1
  O  O32  1  0.50475600  0.98817400  0.29344600  1
  O  O33  1  0.51785800  0.98935300  0.70105800  1
  O  O34  1  0.54249300  0.16780500  0.05359700  1
  O  O35  1  0.45694300  0.83274000  0.94551200  1
  O  O36  1  0.71444800  0.47298900  0.60664500  1
  O  O37  1  0.27203700  0.54653400  0.39869900  1
  O  O38  1  0.37154600  0.83483000  0.51171500  1
  O  O39  1  0.62190300  0.17587600  0.49125600  1
