# generated using pymatgen
data_Fe3O4
_symmetry_space_group_name_H-M   'P 1'
_cell_length_a   6.01688600
_cell_length_b   6.10362292
_cell_length_c   8.52436649
_cell_angle_alpha   89.55849221
_cell_angle_beta   90.00000000
_cell_angle_gamma   90.00000000
_symmetry_Int_Tables_number   1
_chemical_formula_structural   Fe3O4
_chemical_formula_sum   'Fe12 O16'
_cell_volume   313.04638833
_cell_formula_units_Z   4
loop_
 _symmetry_equiv_pos_site_id
 _symmetry_equiv_pos_as_xyz
  1  'x, y, z'
loop_
 _atom_site_type_symbol
 _atom_site_label
 _atom_site_symmetry_multiplicity
 _atom_site_fract_x
 _atom_site_fract_y
 _atom_site_fract_z
 _atom_site_occupancy
  Fe  Fe0  1  0.00000000  0.00000000  0.50000000  1
  Fe  Fe1  1  0.00000000  0.50000000  0.50000000  1
  Fe  Fe2  1  0.50000000  0.00000000  0.00000000  1
  Fe  Fe3  1  0.50000000  0.50000000  0.00000000  1
  Fe  Fe4  1  0.00000000  0.24534200  0.87264400  1
  Fe  Fe5  1  0.00000000  0.75465800  0.12735700  1
  Fe  Fe6  1  0.50000000  0.25510700  0.62426400  1
  Fe  Fe7  1  0.50000000  0.74489300  0.37573600  1
  Fe  Fe8  1  0.74701300  0.75001900  0.75149600  1
  Fe  Fe9  1  0.74701300  0.24998200  0.24850400  1
  Fe  Fe10  1  0.25298700  0.24998200  0.24850400  1
  Fe  Fe11  1  0.25298700  0.75001900  0.75149600  1
  O  O12  1  0.76007000  0.73826800  0.50665400  1
  O  O13  1  0.76007000  0.26173200  0.49334600  1
  O  O14  1  0.23993000  0.26173200  0.49334600  1
  O  O15  1  0.23993000  0.73826800  0.50665400  1
  O  O16  1  0.00000000  0.49175500  0.25753900  1
  O  O17  1  0.00000000  0.50824500  0.74246100  1
  O  O18  1  0.00000000  0.98828500  0.74606200  1
  O  O19  1  0.00000000  0.01171500  0.25393800  1
  O  O20  1  0.74193400  0.76088500  0.99170000  1
  O  O21  1  0.74193400  0.23911500  0.00830000  1
  O  O22  1  0.25806600  0.23911500  0.00830000  1
  O  O23  1  0.25806600  0.76088500  0.99170000  1
  O  O24  1  0.50000000  0.49193900  0.24383200  1
  O  O25  1  0.50000000  0.50806100  0.75616800  1
  O  O26  1  0.50000000  0.99590000  0.75955600  1
  O  O27  1  0.50000000  0.00410000  0.24044400  1
