# generated using pymatgen
data_Ba4La6Mn5In5O30
_symmetry_space_group_name_H-M   'P 1'
_cell_length_a   5.77797288
_cell_length_b   5.77797288
_cell_length_c   23.85012883
_cell_angle_alpha   82.54173357
_cell_angle_beta   82.54173357
_cell_angle_gamma   59.57063237
_symmetry_Int_Tables_number   1
_chemical_formula_structural   Ba4La6Mn5In5O30
_chemical_formula_sum   'Ba4 La6 Mn5 In5 O30'
_cell_volume   678.83550370
_cell_formula_units_Z   1
loop_
 _symmetry_equiv_pos_site_id
 _symmetry_equiv_pos_as_xyz
  1  'x, y, z'
loop_
 _atom_site_type_symbol
 _atom_site_label
 _atom_site_symmetry_multiplicity
 _atom_site_fract_x
 _atom_site_fract_y
 _atom_site_fract_z
 _atom_site_occupancy
  Ba  Ba0  1  0.44755800  0.44755800  0.15268900  1
  Ba  Ba1  1  0.14751700  0.14751700  0.05677700  1
  Ba  Ba2  1  0.75292800  0.75292800  0.24702400  1
  Ba  Ba3  1  0.35142700  0.35142700  0.44351100  1
  La  La4  1  0.04716800  0.04716800  0.33822300  1
  La  La5  1  0.64091700  0.64091700  0.54448900  1
  La  La6  1  0.24510700  0.24510700  0.75697300  1
  La  La7  1  0.95769700  0.95769700  0.63628700  1
  La  La8  1  0.83952700  0.83952700  0.96651700  1
  La  La9  1  0.55595200  0.55595200  0.85811700  1
  Mn  Mn10  1  0.79745900  0.79745900  0.10468100  1
  Mn  Mn11  1  0.50556200  0.50556200  0.00588800  1
  Mn  Mn12  1  0.40559500  0.40559500  0.29792300  1
  Mn  Mn13  1  0.09702100  0.09702100  0.19881300  1
  Mn  Mn14  1  0.00289500  0.00289500  0.49386700  1
  In  In15  1  0.70064100  0.70064100  0.39721700  1
  In  In16  1  0.60187800  0.60187800  0.70039900  1
  In  In17  1  0.29654300  0.29654300  0.59684200  1
  In  In18  1  0.19308700  0.19308700  0.90605600  1
  In  In19  1  0.90177200  0.90177200  0.80162600  1
  O  O20  1  0.63749300  0.63749300  0.05753400  1
  O  O21  1  0.45313400  0.95533500  0.15207400  1
  O  O22  1  0.65054300  0.13132400  0.04688600  1
  O  O23  1  0.24674600  0.24674600  0.26061900  1
  O  O24  1  0.08049300  0.58271200  0.34744000  1
  O  O25  1  0.24327600  0.76410600  0.25000800  1
  O  O26  1  0.95533500  0.45313400  0.15207400  1
  O  O27  1  0.13132400  0.65054300  0.04688600  1
  O  O28  1  0.82297300  0.82297300  0.46602200  1
  O  O29  1  0.94792500  0.94792500  0.14864000  1
  O  O30  1  0.68879100  0.17512500  0.55163700  1
  O  O31  1  0.84681200  0.30286700  0.43928500  1
  O  O32  1  0.58271200  0.08049300  0.34744000  1
  O  O33  1  0.76410600  0.24327600  0.25000800  1
  O  O34  1  0.39998100  0.39998100  0.67029300  1
  O  O35  1  0.56141500  0.56141500  0.33824100  1
  O  O36  1  0.30535600  0.79095300  0.76858100  1
  O  O37  1  0.41209400  0.89524700  0.63067000  1
  O  O38  1  0.17512500  0.68879100  0.55163700  1
  O  O39  1  0.30286700  0.84681200  0.43928500  1
  O  O40  1  0.99267200  0.99267200  0.88051500  1
  O  O41  1  0.15921300  0.15921300  0.53050400  1
  O  O42  1  0.84186000  0.39800600  0.96131000  1
  O  O43  1  0.01104100  0.50526300  0.84026600  1
  O  O44  1  0.79095300  0.30535600  0.76858100  1
  O  O45  1  0.89524700  0.41209400  0.63067000  1
  O  O46  1  0.80849600  0.80849600  0.72281600  1
  O  O47  1  0.39800600  0.84186000  0.96131000  1
  O  O48  1  0.50526300  0.01104100  0.84026600  1
  O  O49  1  0.38103200  0.38103200  0.94470100  1
