# generated using pymatgen
data_NaCaMgAl(SiO3)4
_symmetry_space_group_name_H-M   'P 1'
_cell_length_a   7.95582000
_cell_length_b   7.58399600
_cell_length_c   8.92106960
_cell_angle_alpha   76.66351977
_cell_angle_beta   90.00000000
_cell_angle_gamma   90.00000000
_symmetry_Int_Tables_number   1
_chemical_formula_structural   NaCaMgAl(SiO3)4
_chemical_formula_sum   'Na2 Ca2 Mg2 Al2 Si8 O24'
_cell_volume   523.75379766
_cell_formula_units_Z   2
loop_
 _symmetry_equiv_pos_site_id
 _symmetry_equiv_pos_as_xyz
  1  'x, y, z'
loop_
 _atom_site_type_symbol
 _atom_site_label
 _atom_site_symmetry_multiplicity
 _atom_site_fract_x
 _atom_site_fract_y
 _atom_site_fract_z
 _atom_site_occupancy
  Na  Na0  1  0.18936500  0.63499900  0.05423700  1
  Na  Na1  1  0.81063500  0.13499900  0.05423700  1
  Ca  Ca2  1  0.16609100  0.01178600  0.23170100  1
  Ca  Ca3  1  0.83390900  0.51178600  0.23170100  1
  Mg  Mg4  1  0.13040400  0.42006800  0.80083700  1
  Mg  Mg5  1  0.86959600  0.92006800  0.80083700  1
  Al  Al6  1  0.11723600  0.52890100  0.43174600  1
  Al  Al7  1  0.88276400  0.02890100  0.43174600  1
  Si  Si8  1  0.22369600  0.02705500  0.82974700  1
  Si  Si9  1  0.36796300  0.22495600  0.52702700  1
  Si  Si10  1  0.77630400  0.52705500  0.82974700  1
  Si  Si11  1  0.63203700  0.72495600  0.52702700  1
  Si  Si12  1  0.47168300  0.35407600  0.03638100  1
  Si  Si13  1  0.52831700  0.85407600  0.03638100  1
  Si  Si14  1  0.76037800  0.31851000  0.57687300  1
  Si  Si15  1  0.23962200  0.81851000  0.57687300  1
  O  O16  1  0.93606100  0.38962300  0.47457200  1
  O  O17  1  0.06393900  0.88962300  0.47457200  1
  O  O18  1  0.73914300  0.71529200  0.70034300  1
  O  O19  1  0.38423200  0.99357800  0.95170800  1
  O  O20  1  0.06165400  0.67891300  0.25649900  1
  O  O21  1  0.26085700  0.21529200  0.70034300  1
  O  O22  1  0.79059300  0.34740300  0.75902200  1
  O  O23  1  0.61576800  0.49357800  0.95170800  1
  O  O24  1  0.93834600  0.17891300  0.25649900  1
  O  O25  1  0.71438700  0.88894100  0.97750700  1
  O  O26  1  0.20940700  0.84740300  0.75902200  1
  O  O27  1  0.28561300  0.38894100  0.97750700  1
  O  O28  1  0.70980100  0.89243400  0.40361000  1
  O  O29  1  0.16044600  0.59693700  0.60858300  1
  O  O30  1  0.94770500  0.54430400  0.92162200  1
  O  O31  1  0.29019900  0.39243400  0.40361000  1
  O  O32  1  0.83955400  0.09693700  0.60858300  1
  O  O33  1  0.53652100  0.18102000  0.15161700  1
  O  O34  1  0.43596300  0.73196800  0.57173000  1
  O  O35  1  0.05229500  0.04430400  0.92162200  1
  O  O36  1  0.46347900  0.68102000  0.15161700  1
  O  O37  1  0.56403700  0.23196800  0.57173000  1
  O  O38  1  0.32511000  0.03433600  0.48174000  1
  O  O39  1  0.67489000  0.53433600  0.48174000  1
