# generated using pymatgen
data_Ba4Na3Nd3P6(O12F)2
_symmetry_space_group_name_H-M   'P 1'
_cell_length_a   9.82743600
_cell_length_b   9.84614456
_cell_length_c   14.59584513
_cell_angle_alpha   90.04869182
_cell_angle_beta   90.04911961
_cell_angle_gamma   119.78041772
_symmetry_Int_Tables_number   1
_chemical_formula_structural   Ba4Na3Nd3P6(O12F)2
_chemical_formula_sum   'Ba8 Na6 Nd6 P12 O48 F4'
_cell_volume   1225.80779827
_cell_formula_units_Z   2
loop_
 _symmetry_equiv_pos_site_id
 _symmetry_equiv_pos_as_xyz
  1  'x, y, z'
loop_
 _atom_site_type_symbol
 _atom_site_label
 _atom_site_symmetry_multiplicity
 _atom_site_fract_x
 _atom_site_fract_y
 _atom_site_fract_z
 _atom_site_occupancy
  Ba  Ba0  1  0.22990300  0.25204600  0.36565500  1
  Ba  Ba1  1  0.75346500  0.98164800  0.86851800  1
  Ba  Ba2  1  0.02095000  0.77024800  0.36932800  1
  Ba  Ba3  1  0.01629200  0.76529400  0.86853200  1
  Ba  Ba4  1  0.24841700  0.02185200  0.12970600  1
  Ba  Ba5  1  0.25713500  0.02332300  0.63037700  1
  Ba  Ba6  1  0.76252400  0.74605700  0.13301200  1
  Ba  Ba7  1  0.77224200  0.75527100  0.62931700  1
  Na  Na8  1  0.32925000  0.66266900  0.25923300  1
  Na  Na9  1  0.32950800  0.66346700  0.75957500  1
  Na  Na10  1  0.99346100  0.26618100  0.13767700  1
  Na  Na11  1  0.99079400  0.26397000  0.64157500  1
  Na  Na12  1  0.66948100  0.32956900  0.23670800  1
  Na  Na13  1  0.67384200  0.33418400  0.73656100  1
  Nd  Nd14  1  0.22336200  0.24114400  0.86238400  1
  Nd  Nd15  1  0.33198200  0.66606300  0.01316400  1
  Nd  Nd16  1  0.32878400  0.66001500  0.51354800  1
  Nd  Nd17  1  0.76714100  0.99693700  0.36378400  1
  Nd  Nd18  1  0.66798900  0.33270200  0.48987100  1
  Nd  Nd19  1  0.66928600  0.33167200  0.99003400  1
  P  P20  1  0.37531000  0.40316300  0.11243400  1
  P  P21  1  0.37922100  0.41029900  0.62518800  1
  P  P22  1  0.02922200  0.61587900  0.11988600  1
  P  P23  1  0.02975700  0.61594900  0.61975800  1
  P  P24  1  0.58954900  0.97094000  0.12584700  1
  P  P25  1  0.59600700  0.97580600  0.61343200  1
  P  P26  1  0.41679600  0.02532000  0.37944900  1
  P  P27  1  0.41137400  0.03842800  0.88125900  1
  P  P28  1  0.96197600  0.36950800  0.38180300  1
  P  P29  1  0.97611800  0.37601800  0.88407500  1
  P  P30  1  0.61798900  0.59308800  0.38228900  1
  P  P31  1  0.60731400  0.58200000  0.87910600  1
  O  O32  1  0.25289200  0.30037400  0.18455000  1
  O  O33  1  0.27029800  0.31529900  0.70598800  1
  O  O34  1  0.29254200  0.37894900  0.01707600  1
  O  O35  1  0.27742000  0.37655300  0.53728800  1
  O  O36  1  0.44768000  0.58180600  0.13491600  1
  O  O37  1  0.45650200  0.59004300  0.64221800  1
  O  O38  1  0.48860000  0.63763100  0.39556900  1
  O  O39  1  0.49334400  0.64675000  0.89155100  1
  O  O40  1  0.13844000  0.49206500  0.39118100  1
  O  O41  1  0.15063000  0.50600900  0.89493700  1
  O  O42  1  0.12748900  0.53596000  0.13958200  1
  O  O43  1  0.12768800  0.53595200  0.63982900  1
  O  O44  1  0.62592400  0.89880600  0.03971300  1
  O  O45  1  0.62624600  0.91230800  0.52076400  1
  O  O46  1  0.68220100  0.95596000  0.20808400  1
  O  O47  1  0.69777600  0.96222500  0.68912800  1
  O  O48  1  0.41694800  0.86648900  0.63402000  1
  O  O49  1  0.40987500  0.86616700  0.14188000  1
  O  O50  1  0.10292100  0.71691700  0.03159200  1
  O  O51  1  0.10392500  0.71706800  0.53135300  1
  O  O52  1  0.35489900  0.84798500  0.39225600  1
  O  O53  1  0.35583200  0.86208900  0.89147200  1
  O  O54  1  0.04381700  0.73209100  0.19618000  1
  O  O55  1  0.04662200  0.73383800  0.69551500  1
  O  O56  1  0.94303800  0.25059300  0.30464600  1
  O  O57  1  0.98089600  0.26194800  0.81132500  1
  O  O58  1  0.63460000  0.14352900  0.11154900  1
  O  O59  1  0.63192400  0.14740100  0.60824900  1
  O  O60  1  0.88993600  0.26741900  0.46950800  1
  O  O61  1  0.90053200  0.28118700  0.97324200  1
  O  O62  1  0.59759400  0.11644000  0.36184500  1
  O  O63  1  0.58850700  0.13496800  0.85905100  1
  O  O64  1  0.32396900  0.04788800  0.30157500  1
  O  O65  1  0.30907600  0.05945000  0.80707100  1
  O  O66  1  0.39215300  0.10408500  0.46637700  1
  O  O67  1  0.38640600  0.11281300  0.96943900  1
  O  O68  1  0.86323400  0.44944900  0.36100200  1
  O  O69  1  0.87084800  0.44622200  0.85567600  1
  O  O70  1  0.85190000  0.49858400  0.10761900  1
  O  O71  1  0.85327900  0.49779200  0.60715800  1
  O  O72  1  0.50761100  0.36030200  0.10988700  1
  O  O73  1  0.50397600  0.35862800  0.61292900  1
  O  O74  1  0.54828000  0.41899800  0.35421800  1
  O  O75  1  0.51736400  0.40176100  0.86122600  1
  O  O76  1  0.71591700  0.61229000  0.47032400  1
  O  O77  1  0.71023700  0.60670900  0.96650400  1
  O  O78  1  0.73321600  0.71160500  0.31086300  1
  O  O79  1  0.72243500  0.67476800  0.80127000  1
  F  F80  1  0.98396200  0.99327700  0.26114800  1
  F  F81  1  0.01890100  0.00799800  0.76045800  1
  F  F82  1  0.96438200  0.99179400  0.45550100  1
  F  F83  1  0.03887700  0.03205700  0.95501000  1
