# generated using pymatgen
data_BaB2H10O9
_symmetry_space_group_name_H-M   'P 1'
_cell_length_a   8.79567300
_cell_length_b   6.73617100
_cell_length_c   17.93017569
_cell_angle_alpha   85.37403816
_cell_angle_beta   90.00000000
_cell_angle_gamma   90.00000000
_symmetry_Int_Tables_number   1
_chemical_formula_structural   BaB2H10O9
_chemical_formula_sum   'Ba4 B8 H40 O36'
_cell_volume   1058.88713579
_cell_formula_units_Z   4
loop_
 _symmetry_equiv_pos_site_id
 _symmetry_equiv_pos_as_xyz
  1  'x, y, z'
loop_
 _atom_site_type_symbol
 _atom_site_label
 _atom_site_symmetry_multiplicity
 _atom_site_fract_x
 _atom_site_fract_y
 _atom_site_fract_z
 _atom_site_occupancy
  Ba  Ba0  1  0.50707400  0.11671000  0.79444700  1
  Ba  Ba1  1  0.00707400  0.88329000  0.70555300  1
  Ba  Ba2  1  0.49292600  0.88329000  0.20555300  1
  Ba  Ba3  1  0.99292600  0.11671000  0.29444700  1
  B  B4  1  0.29378000  0.82907400  0.02670900  1
  B  B5  1  0.79378000  0.17092600  0.47329100  1
  B  B6  1  0.70622000  0.17092600  0.97329100  1
  B  B7  1  0.20622000  0.82907400  0.52670900  1
  B  B8  1  0.35309300  0.34287600  0.28061500  1
  B  B9  1  0.85309300  0.65712400  0.21938500  1
  B  B10  1  0.64690700  0.65712400  0.71938500  1
  B  B11  1  0.14690700  0.34287600  0.78061500  1
  H  H12  1  0.76200200  0.23919400  0.60820000  1
  H  H13  1  0.26200200  0.76080600  0.89180000  1
  H  H14  1  0.23799800  0.76080600  0.39180000  1
  H  H15  1  0.73799800  0.23919400  0.10820000  1
  H  H16  1  0.76779500  0.50345600  0.38180800  1
  H  H17  1  0.26779500  0.49654400  0.11819200  1
  H  H18  1  0.23220500  0.49654400  0.61819200  1
  H  H19  1  0.73220500  0.50345600  0.88180800  1
  H  H20  1  0.38828000  0.71938600  0.48167800  1
  H  H21  1  0.88828000  0.28061400  0.01832200  1
  H  H22  1  0.61172000  0.28061400  0.51832200  1
  H  H23  1  0.11172000  0.71938600  0.98167800  1
  H  H24  1  0.68321600  0.49612400  0.37781100  1
  H  H25  1  0.18321600  0.50387600  0.12218900  1
  H  H26  1  0.31678400  0.50387600  0.62218900  1
  H  H27  1  0.81678400  0.49612400  0.87781100  1
  H  H28  1  0.21201800  0.68874600  0.31408300  1
  H  H29  1  0.71201800  0.31125400  0.18591700  1
  H  H30  1  0.78798200  0.31125400  0.68591700  1
  H  H31  1  0.28798200  0.68874600  0.81408300  1
  H  H32  1  0.57436400  0.36716900  0.28952500  1
  H  H33  1  0.07436400  0.63283100  0.21047500  1
  H  H34  1  0.42563600  0.63283100  0.71047500  1
  H  H35  1  0.92563600  0.36716900  0.78952500  1
  H  H36  1  0.24531100  0.40636500  0.37035100  1
  H  H37  1  0.74531100  0.59363500  0.12964900  1
  H  H38  1  0.75468900  0.59363500  0.62964900  1
  H  H39  1  0.25468900  0.40636500  0.87035100  1
  H  H40  1  0.66108100  0.90760300  0.55057800  1
  H  H41  1  0.16108100  0.09239700  0.94942200  1
  H  H42  1  0.33891900  0.09239700  0.44942200  1
  H  H43  1  0.83891900  0.90760300  0.05057800  1
  H  H44  1  0.32092200  0.00275700  0.63376900  1
  H  H45  1  0.82092200  0.99724300  0.86623100  1
  H  H46  1  0.67907800  0.99724300  0.36623100  1
  H  H47  1  0.17907800  0.00275700  0.13376900  1
  H  H48  1  0.36925200  0.00915700  0.37247400  1
  H  H49  1  0.86925200  0.99084300  0.12752600  1
  H  H50  1  0.63074800  0.99084300  0.62752600  1
  H  H51  1  0.13074800  0.00915700  0.87247400  1
  O  O52  1  0.67173400  0.04363300  0.31184100  1
  O  O53  1  0.17173400  0.95636700  0.18815900  1
  O  O54  1  0.32826600  0.95636700  0.68815900  1
  O  O55  1  0.82826600  0.04363300  0.81184100  1
  O  O56  1  0.34951600  0.20758400  0.23018000  1
  O  O57  1  0.84951600  0.79241600  0.26982000  1
  O  O58  1  0.65048400  0.79241600  0.76982000  1
  O  O59  1  0.15048400  0.20758400  0.73018000  1
  O  O60  1  0.39514800  0.12062400  0.40189200  1
  O  O61  1  0.89514800  0.87937600  0.09810800  1
  O  O62  1  0.60485200  0.87937600  0.59810800  1
  O  O63  1  0.10485200  0.12062400  0.90189200  1
  O  O64  1  0.48515500  0.45253700  0.29327700  1
  O  O65  1  0.98515500  0.54746300  0.20672300  1
  O  O66  1  0.51484500  0.54746300  0.70672300  1
  O  O67  1  0.01484500  0.45253700  0.79327700  1
  O  O68  1  0.27208200  0.81326000  0.83821700  1
  O  O69  1  0.77208200  0.18674000  0.66178300  1
  O  O70  1  0.72791800  0.18674000  0.16178300  1
  O  O71  1  0.22791800  0.81326000  0.33821700  1
  O  O72  1  0.26588500  0.01112900  0.53648900  1
  O  O73  1  0.76588500  0.98887100  0.96351100  1
  O  O74  1  0.73411500  0.98887100  0.46351100  1
  O  O75  1  0.23411500  0.01112900  0.03648900  1
  O  O76  1  0.22127900  0.69155500  0.98191800  1
  O  O77  1  0.72127900  0.30844500  0.51808200  1
  O  O78  1  0.77872100  0.30844500  0.01808200  1
  O  O79  1  0.27872100  0.69155500  0.48191800  1
  O  O80  1  0.22011300  0.40782200  0.31717200  1
  O  O81  1  0.72011300  0.59217800  0.18282800  1
  O  O82  1  0.77988700  0.59217800  0.68282800  1
  O  O83  1  0.27988700  0.40782200  0.81717200  1
  O  O84  1  0.57149600  0.20235500  0.93867600  1
  O  O85  1  0.07149600  0.79764500  0.56132400  1
  O  O86  1  0.42850400  0.79764500  0.06132400  1
  O  O87  1  0.92850400  0.20235500  0.43867600  1
