# generated using pymatgen
data_MoO3
_symmetry_space_group_name_H-M   'P 1'
_cell_length_a   5.47523100
_cell_length_b   5.65551100
_cell_length_c   7.28723916
_cell_angle_alpha   89.40710331
_cell_angle_beta   90.00000000
_cell_angle_gamma   90.00000000
_symmetry_Int_Tables_number   1
_chemical_formula_structural   MoO3
_chemical_formula_sum   'Mo4 O12'
_cell_volume   225.63894905
_cell_formula_units_Z   4
loop_
 _symmetry_equiv_pos_site_id
 _symmetry_equiv_pos_as_xyz
  1  'x, y, z'
loop_
 _atom_site_type_symbol
 _atom_site_label
 _atom_site_symmetry_multiplicity
 _atom_site_fract_x
 _atom_site_fract_y
 _atom_site_fract_z
 _atom_site_occupancy
  Mo  Mo0  1  0.75469600  0.30276500  0.50152400  1
  Mo  Mo1  1  0.24530400  0.80276500  0.50152400  1
  Mo  Mo2  1  0.25144100  0.95888500  0.00126700  1
  Mo  Mo3  1  0.74855900  0.45888500  0.00126700  1
  O  O4  1  0.01785900  0.12977600  0.46004400  1
  O  O5  1  0.98214100  0.62977600  0.46004400  1
  O  O6  1  0.01597300  0.16453300  0.04570000  1
  O  O7  1  0.98402700  0.66453300  0.04570000  1
  O  O8  1  0.17370900  0.88889600  0.75240600  1
  O  O9  1  0.82629100  0.38889600  0.75240600  1
  O  O10  1  0.46508900  0.58105000  0.54589700  1
  O  O11  1  0.53491100  0.08105000  0.54589700  1
  O  O12  1  0.32860600  0.87551000  0.25321100  1
  O  O13  1  0.67139400  0.37551000  0.25321100  1
  O  O14  1  0.50181500  0.14978400  0.96075000  1
  O  O15  1  0.49818500  0.64978400  0.96075000  1
