# generated using pymatgen
data_HN
_symmetry_space_group_name_H-M   'P 1'
_cell_length_a   5.49909500
_cell_length_b   5.79000000
_cell_length_c   12.65945156
_cell_angle_alpha   65.08811625
_cell_angle_beta   90.00000000
_cell_angle_gamma   90.00000000
_symmetry_Int_Tables_number   1
_chemical_formula_structural   HN
_chemical_formula_sum   'H20 N20'
_cell_volume   365.57056116
_cell_formula_units_Z   20
loop_
 _symmetry_equiv_pos_site_id
 _symmetry_equiv_pos_as_xyz
  1  'x, y, z'
loop_
 _atom_site_type_symbol
 _atom_site_label
 _atom_site_symmetry_multiplicity
 _atom_site_fract_x
 _atom_site_fract_y
 _atom_site_fract_z
 _atom_site_occupancy
  H  H0  1  0.32231000  0.72527600  0.93486400  1
  H  H1  1  0.82231000  0.27472400  0.56513600  1
  H  H2  1  0.67769000  0.27472400  0.06513600  1
  H  H3  1  0.17769000  0.72527600  0.43486400  1
  H  H4  1  0.02782700  0.36733100  0.64214100  1
  H  H5  1  0.52782700  0.63266900  0.85785900  1
  H  H6  1  0.97217300  0.63266900  0.35785900  1
  H  H7  1  0.47217300  0.36733100  0.14214100  1
  H  H8  1  0.99273200  0.86788800  0.64988400  1
  H  H9  1  0.49273200  0.13211200  0.85011600  1
  H  H10  1  0.00726800  0.13211200  0.35011600  1
  H  H11  1  0.50726800  0.86788800  0.14988400  1
  H  H12  1  0.70004400  0.91370600  0.91482100  1
  H  H13  1  0.20004400  0.08629400  0.58517900  1
  H  H14  1  0.29995600  0.08629400  0.08517900  1
  H  H15  1  0.79995600  0.91370600  0.41482100  1
  H  H16  1  0.80193600  0.14550700  0.71671200  1
  H  H17  1  0.30193600  0.85449300  0.78328800  1
  H  H18  1  0.19806400  0.85449300  0.28328800  1
  H  H19  1  0.69806400  0.14550700  0.21671200  1
  N  N20  1  0.47657000  0.65507700  0.59939900  1
  N  N21  1  0.97657000  0.34492300  0.90060100  1
  N  N22  1  0.52343000  0.34492300  0.40060100  1
  N  N23  1  0.02343000  0.65507700  0.09939900  1
  N  N24  1  0.28489800  0.59365700  0.57504700  1
  N  N25  1  0.78489800  0.40634300  0.92495300  1
  N  N26  1  0.71510200  0.40634300  0.42495300  1
  N  N27  1  0.21510200  0.59365700  0.07504700  1
  N  N28  1  0.66552000  0.71753500  0.62271700  1
  N  N29  1  0.16552000  0.28246500  0.87728300  1
  N  N30  1  0.33448000  0.28246500  0.37728300  1
  N  N31  1  0.83448000  0.71753500  0.12271700  1
  N  N32  1  0.42300800  0.78735200  0.85479800  1
  N  N33  1  0.92300800  0.21264800  0.64520200  1
  N  N34  1  0.57699200  0.21264800  0.14520200  1
  N  N35  1  0.07699200  0.78735200  0.35479800  1
  N  N36  1  0.09208800  0.01055300  0.65801900  1
  N  N37  1  0.59208800  0.98944700  0.84198100  1
  N  N38  1  0.90791200  0.98944700  0.34198100  1
  N  N39  1  0.40791200  0.01055300  0.15801900  1
