# generated using pymatgen
data_CuH10SO9
_symmetry_space_group_name_H-M   'P 1'
_cell_length_a   6.43076800
_cell_length_b   6.45380420
_cell_length_c   10.96476879
_cell_angle_alpha   98.47806728
_cell_angle_beta   87.47737037
_cell_angle_gamma   109.13004570
_symmetry_Int_Tables_number   1
_chemical_formula_structural   CuH10SO9
_chemical_formula_sum   'Cu2 H20 S2 O18'
_cell_volume   425.23693167
_cell_formula_units_Z   2
loop_
 _symmetry_equiv_pos_site_id
 _symmetry_equiv_pos_as_xyz
  1  'x, y, z'
loop_
 _atom_site_type_symbol
 _atom_site_label
 _atom_site_symmetry_multiplicity
 _atom_site_fract_x
 _atom_site_fract_y
 _atom_site_fract_z
 _atom_site_occupancy
  Cu  Cu0  1  0.00000000  0.00000000  0.00000000  1
  Cu  Cu1  1  0.00000000  0.50000000  0.50000000  1
  H  H2  1  0.74760600  0.10478800  0.85746000  1
  H  H3  1  0.25239400  0.89521200  0.14254000  1
  H  H4  1  0.75952500  0.26394300  0.98373000  1
  H  H5  1  0.24047500  0.73605700  0.01627000  1
  H  H6  1  0.98847500  0.70522300  0.81935900  1
  H  H7  1  0.01152500  0.29477700  0.18064100  1
  H  H8  1  0.75275700  0.69289300  0.79406000  1
  H  H9  1  0.24724300  0.30710700  0.20594000  1
  H  H10  1  0.59373100  0.67492000  0.61937700  1
  H  H11  1  0.40626900  0.32508000  0.38062300  1
  H  H12  1  0.55280700  0.43151400  0.63894800  1
  H  H13  1  0.44719300  0.56848600  0.36105200  1
  H  H14  1  0.11925000  0.21417300  0.60740800  1
  H  H15  1  0.88075000  0.78582700  0.39259200  1
  H  H16  1  0.85115800  0.15077200  0.61320900  1
  H  H17  1  0.14884200  0.84922800  0.38679100  1
  H  H18  1  0.30023200  0.42647200  0.88602200  1
  H  H19  1  0.69976800  0.57352800  0.11397800  1
  H  H20  1  0.81561000  0.60744700  0.09048900  1
  H  H21  1  0.18439000  0.39255300  0.90951100  1
  S  S22  1  0.40301200  0.01869000  0.71993500  1
  S  S23  1  0.59698800  0.98131000  0.28006500  1
  O  O24  1  0.34483600  0.06162900  0.84823400  1
  O  O25  1  0.65516400  0.93837100  0.15176600  1
  O  O26  1  0.24125800  0.76223200  0.68938700  1
  O  O27  1  0.75874200  0.23776800  0.31061300  1
  O  O28  1  0.35191400  0.15089600  0.63496500  1
  O  O29  1  0.64808600  0.84910400  0.36503500  1
  O  O30  1  0.63037700  0.01314800  0.70341900  1
  O  O31  1  0.36962300  0.98685200  0.29658100  1
  O  O32  1  0.83837800  0.17783400  0.93183200  1
  O  O33  1  0.16162200  0.82216600  0.06816800  1
  O  O34  1  0.86248100  0.73182100  0.86427900  1
  O  O35  1  0.13751900  0.26817900  0.13572100  1
  O  O36  1  0.66337000  0.58035000  0.65232800  1
  O  O37  1  0.33663000  0.41965000  0.34767200  1
  O  O38  1  0.98957200  0.24716500  0.58114800  1
  O  O39  1  0.01042800  0.75283500  0.41885200  1
  O  O40  1  0.71523400  0.33910700  0.43338600  1
  O  O41  1  0.28476600  0.66089300  0.56661400  1
