# generated using pymatgen
data_Cu2WO4
_symmetry_space_group_name_H-M   'P 1'
_cell_length_a   7.14439024
_cell_length_b   8.50663779
_cell_length_c   8.47512114
_cell_angle_alpha   117.18524466
_cell_angle_beta   116.71216217
_cell_angle_gamma   82.76995399
_symmetry_Int_Tables_number   1
_chemical_formula_structural   Cu2WO4
_chemical_formula_sum   'Cu8 W4 O16'
_cell_volume   407.22265768
_cell_formula_units_Z   4
loop_
 _symmetry_equiv_pos_site_id
 _symmetry_equiv_pos_as_xyz
  1  'x, y, z'
loop_
 _atom_site_type_symbol
 _atom_site_label
 _atom_site_symmetry_multiplicity
 _atom_site_fract_x
 _atom_site_fract_y
 _atom_site_fract_z
 _atom_site_occupancy
  Cu  Cu0  1  0.22618300  0.07941000  0.53839500  1
  Cu  Cu1  1  0.59786000  0.11266400  0.69002400  1
  Cu  Cu2  1  0.40214000  0.88733600  0.30997600  1
  Cu  Cu3  1  0.45673900  0.79874900  0.59023800  1
  Cu  Cu4  1  0.77381700  0.92059000  0.46160500  1
  Cu  Cu5  1  0.24236200  0.53417300  0.99855500  1
  Cu  Cu6  1  0.54326100  0.20125100  0.40976200  1
  Cu  Cu7  1  0.75763800  0.46582700  0.00144500  1
  W  W8  1  0.60471000  0.20357700  0.03894900  1
  W  W9  1  0.39529000  0.79642300  0.96105100  1
  W  W10  1  0.14429600  0.17499900  0.03532500  1
  W  W11  1  0.85570400  0.82500100  0.96467500  1
  O  O12  1  0.85305400  0.07283900  0.95653000  1
  O  O13  1  0.83353600  0.17106600  0.53727900  1
  O  O14  1  0.78875200  0.39581300  0.20399100  1
  O  O15  1  0.14694600  0.92716100  0.04347000  1
  O  O16  1  0.16646400  0.82893400  0.46272100  1
  O  O17  1  0.27959900  0.28718000  0.30251500  1
  O  O18  1  0.68139800  0.98247300  0.09313700  1
  O  O19  1  0.36841200  0.33394900  0.04458600  1
  O  O20  1  0.98127500  0.32119700  0.93873200  1
  O  O21  1  0.21124800  0.60418700  0.79600900  1
  O  O22  1  0.01626800  0.80740000  0.52120100  1
  O  O23  1  0.72040100  0.71282000  0.69748500  1
  O  O24  1  0.31860200  0.01752700  0.90686300  1
  O  O25  1  0.63158800  0.66605100  0.95541400  1
  O  O26  1  0.01872500  0.67880300  0.06126800  1
  O  O27  1  0.98373200  0.19260000  0.47879900  1
