# generated using pymatgen
data_CaH16C4(NO)10
_symmetry_space_group_name_H-M   'P 1'
_cell_length_a   12.79816800
_cell_length_b   7.74757000
_cell_length_c   9.32090807
_cell_angle_alpha   66.48462528
_cell_angle_beta   90.00000000
_cell_angle_gamma   90.00000000
_symmetry_Int_Tables_number   1
_chemical_formula_structural   CaH16C4(NO)10
_chemical_formula_sum   'Ca2 H32 C8 N20 O20'
_cell_volume   847.45888133
_cell_formula_units_Z   2
loop_
 _symmetry_equiv_pos_site_id
 _symmetry_equiv_pos_as_xyz
  1  'x, y, z'
loop_
 _atom_site_type_symbol
 _atom_site_label
 _atom_site_symmetry_multiplicity
 _atom_site_fract_x
 _atom_site_fract_y
 _atom_site_fract_z
 _atom_site_occupancy
  Ca  Ca0  1  0.00000000  0.00000000  0.00000000  1
  Ca  Ca1  1  0.50000000  0.50000000  0.00000000  1
  H  H2  1  0.80626700  0.31741600  0.17405100  1
  H  H3  1  0.30626700  0.18258400  0.82594900  1
  H  H4  1  0.19373300  0.68258400  0.82594900  1
  H  H5  1  0.69373300  0.81741600  0.17405100  1
  H  H6  1  0.74824500  0.53118000  0.04689300  1
  H  H7  1  0.24824500  0.96882000  0.95310700  1
  H  H8  1  0.25175500  0.46882000  0.95310700  1
  H  H9  1  0.75175500  0.03118000  0.04689300  1
  H  H10  1  0.97045900  0.32162600  0.27825900  1
  H  H11  1  0.47045900  0.17837400  0.72174100  1
  H  H12  1  0.02954100  0.67837400  0.72174100  1
  H  H13  1  0.52954100  0.82162600  0.27825900  1
  H  H14  1  0.03560100  0.53661400  0.23124100  1
  H  H15  1  0.53560100  0.96338600  0.76875900  1
  H  H16  1  0.96439900  0.46338600  0.76875900  1
  H  H17  1  0.46439900  0.03661400  0.23124100  1
  H  H18  1  0.32879100  0.59805300  0.35563400  1
  H  H19  1  0.82879100  0.90194700  0.64436600  1
  H  H20  1  0.67120900  0.40194700  0.64436600  1
  H  H21  1  0.17120900  0.09805300  0.35563400  1
  H  H22  1  0.32717300  0.71030000  0.14827300  1
  H  H23  1  0.82717300  0.78970000  0.85172700  1
  H  H24  1  0.67282700  0.28970000  0.85172700  1
  H  H25  1  0.17282700  0.21030000  0.14827300  1
  H  H26  1  0.18105200  0.59989300  0.49708200  1
  H  H27  1  0.68105200  0.90010700  0.50291800  1
  H  H28  1  0.81894800  0.40010700  0.50291800  1
  H  H29  1  0.31894800  0.09989300  0.49708200  1
  H  H30  1  0.06687300  0.71619700  0.39964100  1
  H  H31  1  0.56687300  0.78380300  0.60035900  1
  H  H32  1  0.93312700  0.28380300  0.60035900  1
  H  H33  1  0.43312700  0.21619700  0.39964100  1
  C  C34  1  0.89224400  0.55879300  0.12941900  1
  C  C35  1  0.39224400  0.94120700  0.87058100  1
  C  C36  1  0.10775600  0.44120700  0.87058100  1
  C  C37  1  0.60775600  0.05879300  0.12941900  1
  C  C38  1  0.19092800  0.72750200  0.25635600  1
  C  C39  1  0.69092800  0.77249800  0.74364400  1
  C  C40  1  0.80907200  0.27249800  0.74364400  1
  C  C41  1  0.30907200  0.22750200  0.25635600  1
  N  N42  1  0.80870100  0.45986700  0.11688700  1
  N  N43  1  0.30870100  0.04013300  0.88311300  1
  N  N44  1  0.19129900  0.54013300  0.88311300  1
  N  N45  1  0.69129900  0.95986700  0.11688700  1
  N  N46  1  0.97214700  0.46389400  0.22174000  1
  N  N47  1  0.47214700  0.03610600  0.77826000  1
  N  N48  1  0.02785300  0.53610600  0.77826000  1
  N  N49  1  0.52785300  0.96389400  0.22174000  1
  N  N50  1  0.29095700  0.67513900  0.25385200  1
  N  N51  1  0.79095700  0.82486100  0.74614800  1
  N  N52  1  0.70904300  0.32486100  0.74614800  1
  N  N53  1  0.20904300  0.17513900  0.25385200  1
  N  N54  1  0.14235300  0.67559400  0.39613900  1
  N  N55  1  0.64235300  0.82440600  0.60386100  1
  N  N56  1  0.85764700  0.32440600  0.60386100  1
  N  N57  1  0.35764700  0.17559400  0.39613900  1
  N  N58  1  0.90271000  0.96574000  0.35091500  1
  N  N59  1  0.40271000  0.53426000  0.64908500  1
  N  N60  1  0.09729000  0.03426000  0.64908500  1
  N  N61  1  0.59729000  0.46574000  0.35091500  1
  O  O62  1  0.95199800  0.05773000  0.22272500  1
  O  O63  1  0.45199800  0.44227000  0.77727500  1
  O  O64  1  0.04800200  0.94227000  0.77727500  1
  O  O65  1  0.54800200  0.55773000  0.22272500  1
  O  O66  1  0.83893000  0.05643200  0.39915800  1
  O  O67  1  0.33893000  0.44356800  0.60084200  1
  O  O68  1  0.16107000  0.94356800  0.60084200  1
  O  O69  1  0.66107000  0.55643200  0.39915800  1
  O  O70  1  0.91934800  0.79367900  0.42619100  1
  O  O71  1  0.41934800  0.70632100  0.57380900  1
  O  O72  1  0.08065200  0.20632100  0.57380900  1
  O  O73  1  0.58065200  0.29367900  0.42619100  1
  O  O74  1  0.89450700  0.73708500  0.05625500  1
  O  O75  1  0.39450700  0.76291500  0.94374500  1
  O  O76  1  0.10549300  0.26291500  0.94374500  1
  O  O77  1  0.60549300  0.23708500  0.05625500  1
  O  O78  1  0.14231700  0.82090200  0.12928900  1
  O  O79  1  0.64231700  0.67909800  0.87071100  1
  O  O80  1  0.85768300  0.17909800  0.87071100  1
  O  O81  1  0.35768300  0.32090200  0.12928900  1
