# generated using pymatgen
data_H9CSO7F3
_symmetry_space_group_name_H-M   'P 1'
_cell_length_a   8.78862200
_cell_length_b   7.71114000
_cell_length_c   13.00710660
_cell_angle_alpha   88.26419801
_cell_angle_beta   90.00000000
_cell_angle_gamma   90.00000000
_symmetry_Int_Tables_number   1
_chemical_formula_structural   H9CSO7F3
_chemical_formula_sum   'H36 C4 S4 O28 F12'
_cell_volume   881.09095303
_cell_formula_units_Z   4
loop_
 _symmetry_equiv_pos_site_id
 _symmetry_equiv_pos_as_xyz
  1  'x, y, z'
loop_
 _atom_site_type_symbol
 _atom_site_label
 _atom_site_symmetry_multiplicity
 _atom_site_fract_x
 _atom_site_fract_y
 _atom_site_fract_z
 _atom_site_occupancy
  H  H0  1  0.86588600  0.85801700  0.95119300  1
  H  H1  1  0.36588600  0.14198300  0.54880700  1
  H  H2  1  0.13411400  0.14198300  0.04880700  1
  H  H3  1  0.63411400  0.85801700  0.45119300  1
  H  H4  1  0.86586900  0.05309400  0.88336200  1
  H  H5  1  0.36586900  0.94690600  0.61663800  1
  H  H6  1  0.13413100  0.94690600  0.11663800  1
  H  H7  1  0.63413100  0.05309400  0.38336200  1
  H  H8  1  0.79997500  0.04298200  0.00846500  1
  H  H9  1  0.29997500  0.95701800  0.49153500  1
  H  H10  1  0.20002500  0.95701800  0.99153500  1
  H  H11  1  0.70002500  0.04298200  0.50846500  1
  H  H12  1  0.92300000  0.62480000  0.90611800  1
  H  H13  1  0.42300000  0.37520000  0.59388200  1
  H  H14  1  0.07700000  0.37520000  0.09388200  1
  H  H15  1  0.57700000  0.62480000  0.40611800  1
  H  H16  1  0.87031800  0.62133500  0.02282500  1
  H  H17  1  0.37031800  0.37866500  0.47717500  1
  H  H18  1  0.12968200  0.37866500  0.97717500  1
  H  H19  1  0.62968200  0.62133500  0.52282500  1
  H  H20  1  0.91560400  0.27139200  0.78813400  1
  H  H21  1  0.41560400  0.72860800  0.71186600  1
  H  H22  1  0.08439600  0.72860800  0.21186600  1
  H  H23  1  0.58439600  0.27139200  0.28813400  1
  H  H24  1  0.04662200  0.13415000  0.78198400  1
  H  H25  1  0.54662200  0.86585000  0.71801600  1
  H  H26  1  0.95337800  0.86585000  0.21801600  1
  H  H27  1  0.45337800  0.13415000  0.28198400  1
  H  H28  1  0.71694400  0.25997100  0.61104600  1
  H  H29  1  0.21694400  0.74002900  0.88895400  1
  H  H30  1  0.28305600  0.74002900  0.38895400  1
  H  H31  1  0.78305600  0.25997100  0.11104600  1
  H  H32  1  0.78998600  0.09001800  0.65905000  1
  H  H33  1  0.28998600  0.90998200  0.84095000  1
  H  H34  1  0.21001400  0.90998200  0.34095000  1
  H  H35  1  0.71001400  0.09001800  0.15905000  1
  C  C36  1  0.00720000  0.68113000  0.62104300  1
  C  C37  1  0.50720000  0.31887000  0.87895700  1
  C  C38  1  0.99280000  0.31887000  0.37895700  1
  C  C39  1  0.49280000  0.68113000  0.12104300  1
  S  S40  1  0.83441400  0.61343300  0.69570600  1
  S  S41  1  0.33441400  0.38656700  0.80429400  1
  S  S42  1  0.16558600  0.38656700  0.30429400  1
  S  S43  1  0.66558600  0.61343300  0.19570600  1
  O  O44  1  0.74841200  0.50712300  0.62371300  1
  O  O45  1  0.24841200  0.49287700  0.87628700  1
  O  O46  1  0.25158800  0.49287700  0.37628700  1
  O  O47  1  0.75158800  0.50712300  0.12371300  1
  O  O48  1  0.89733200  0.51299400  0.78393100  1
  O  O49  1  0.39733200  0.48700600  0.71606900  1
  O  O50  1  0.10266800  0.48700600  0.21606900  1
  O  O51  1  0.60266800  0.51299400  0.28393100  1
  O  O52  1  0.76316700  0.77653900  0.72108800  1
  O  O53  1  0.26316700  0.22346100  0.77891200  1
  O  O54  1  0.23683300  0.22346100  0.27891200  1
  O  O55  1  0.73683300  0.77653900  0.22108800  1
  O  O56  1  0.81182800  0.97954500  0.93973700  1
  O  O57  1  0.31182800  0.02045500  0.56026300  1
  O  O58  1  0.18817200  0.02045500  0.06026300  1
  O  O59  1  0.68817200  0.97954500  0.43973700  1
  O  O60  1  0.93214800  0.68670500  0.97119200  1
  O  O61  1  0.43214800  0.31329500  0.52880800  1
  O  O62  1  0.06785200  0.31329500  0.02880800  1
  O  O63  1  0.56785200  0.68670500  0.47119200  1
  O  O64  1  0.93476700  0.14507500  0.78664300  1
  O  O65  1  0.43476700  0.85492500  0.71335700  1
  O  O66  1  0.06523300  0.85492500  0.21335700  1
  O  O67  1  0.56523300  0.14507500  0.28664300  1
  O  O68  1  0.71298300  0.13247400  0.60993100  1
  O  O69  1  0.21298300  0.86752600  0.89006900  1
  O  O70  1  0.28701700  0.86752600  0.39006900  1
  O  O71  1  0.78701700  0.13247400  0.10993100  1
  F  F72  1  0.08902200  0.54123700  0.59361600  1
  F  F73  1  0.58902200  0.45876300  0.90638400  1
  F  F74  1  0.91097800  0.45876300  0.40638400  1
  F  F75  1  0.41097800  0.54123700  0.09361600  1
  F  F76  1  0.09729500  0.78273000  0.67873100  1
  F  F77  1  0.59729500  0.21727000  0.82126900  1
  F  F78  1  0.90270500  0.21727000  0.32126900  1
  F  F79  1  0.40270500  0.78273000  0.17873100  1
  F  F80  1  0.96645700  0.77292800  0.53491100  1
  F  F81  1  0.46645700  0.22707200  0.96508900  1
  F  F82  1  0.03354300  0.22707200  0.46508900  1
  F  F83  1  0.53354300  0.77292800  0.03491100  1
