# generated using pymatgen
data_Gd2(MoO4)3
_symmetry_space_group_name_H-M   'P 1'
_cell_length_a   7.51431900
_cell_length_b   7.51431900
_cell_length_c   10.81530400
_cell_angle_alpha   90.00000000
_cell_angle_beta   90.00000000
_cell_angle_gamma   90.00000000
_symmetry_Int_Tables_number   1
_chemical_formula_structural   Gd2(MoO4)3
_chemical_formula_sum   'Gd4 Mo6 O24'
_cell_volume   610.68603257
_cell_formula_units_Z   2
loop_
 _symmetry_equiv_pos_site_id
 _symmetry_equiv_pos_as_xyz
  1  'x, y, z'
loop_
 _atom_site_type_symbol
 _atom_site_label
 _atom_site_symmetry_multiplicity
 _atom_site_fract_x
 _atom_site_fract_y
 _atom_site_fract_z
 _atom_site_occupancy
  Gd  Gd0  1  0.68740700  0.18740700  0.26181100  1
  Gd  Gd1  1  0.31259300  0.81259300  0.26181100  1
  Gd  Gd2  1  0.18740700  0.31259300  0.73818900  1
  Gd  Gd3  1  0.81259300  0.68740700  0.73818900  1
  Mo  Mo4  1  0.70724500  0.20724500  0.64303800  1
  Mo  Mo5  1  0.29275500  0.79275500  0.64303800  1
  Mo  Mo6  1  0.20724500  0.29275500  0.35696200  1
  Mo  Mo7  1  0.79275500  0.70724500  0.35696200  1
  Mo  Mo8  1  0.50000000  0.50000000  0.00000000  1
  Mo  Mo9  1  0.00000000  0.00000000  0.00000000  1
  O  O10  1  0.69514500  0.19514500  0.47895800  1
  O  O11  1  0.30485500  0.80485500  0.47895800  1
  O  O12  1  0.19514500  0.30485500  0.52104200  1
  O  O13  1  0.80485500  0.69514500  0.52104200  1
  O  O14  1  0.12683700  0.62683700  0.68959800  1
  O  O15  1  0.87316300  0.37316300  0.68959800  1
  O  O16  1  0.62683700  0.87316300  0.31040200  1
  O  O17  1  0.37316300  0.12683700  0.31040200  1
  O  O18  1  0.27548500  0.50384300  0.29835400  1
  O  O19  1  0.72451500  0.49615700  0.29835400  1
  O  O20  1  0.00384300  0.77548500  0.29835400  1
  O  O21  1  0.99615700  0.22451500  0.29835400  1
  O  O22  1  0.50384300  0.72451500  0.70164600  1
  O  O23  1  0.49615700  0.27548500  0.70164600  1
  O  O24  1  0.22451500  0.00384300  0.70164600  1
  O  O25  1  0.77548500  0.99615700  0.70164600  1
  O  O26  1  0.31077500  0.45918200  0.90322400  1
  O  O27  1  0.68922500  0.54081800  0.90322400  1
  O  O28  1  0.95918200  0.81077500  0.90322400  1
  O  O29  1  0.04081800  0.18922500  0.90322400  1
  O  O30  1  0.45918200  0.68922500  0.09677600  1
  O  O31  1  0.54081800  0.31077500  0.09677600  1
  O  O32  1  0.18922500  0.95918200  0.09677600  1
  O  O33  1  0.81077500  0.04081800  0.09677600  1
