# generated using pymatgen
data_Na3CaSc3Zn(SiO3)8
_symmetry_space_group_name_H-M   'P 1'
_cell_length_a   18.67718500
_cell_length_b   5.56513900
_cell_length_c   10.24121540
_cell_angle_alpha   79.14762751
_cell_angle_beta   90.00000000
_cell_angle_gamma   90.00000000
_symmetry_Int_Tables_number   1
_chemical_formula_structural   Na3CaSc3Zn(SiO3)8
_chemical_formula_sum   'Na6 Ca2 Sc6 Zn2 Si16 O48'
_cell_volume   1045.44581676
_cell_formula_units_Z   2
loop_
 _symmetry_equiv_pos_site_id
 _symmetry_equiv_pos_as_xyz
  1  'x, y, z'
loop_
 _atom_site_type_symbol
 _atom_site_label
 _atom_site_symmetry_multiplicity
 _atom_site_fract_x
 _atom_site_fract_y
 _atom_site_fract_z
 _atom_site_occupancy
  Na  Na0  1  0.76417000  0.50000000  0.75000000  1
  Na  Na1  1  0.51679100  0.00000000  0.25000000  1
  Na  Na2  1  0.26745000  0.50000000  0.75000000  1
  Na  Na3  1  0.73255000  0.50000000  0.25000000  1
  Na  Na4  1  0.48320900  0.00000000  0.75000000  1
  Na  Na5  1  0.23583000  0.50000000  0.25000000  1
  Ca  Ca6  1  0.00786400  0.00000000  0.25000000  1
  Ca  Ca7  1  0.99213600  0.00000000  0.75000000  1
  Sc  Sc8  1  0.81945800  0.00000000  0.25000000  1
  Sc  Sc9  1  0.57382300  0.50000000  0.75000000  1
  Sc  Sc10  1  0.67397600  0.00000000  0.75000000  1
  Sc  Sc11  1  0.32602400  0.00000000  0.25000000  1
  Sc  Sc12  1  0.42617700  0.50000000  0.25000000  1
  Sc  Sc13  1  0.18054200  0.00000000  0.75000000  1
  Zn  Zn14  1  0.07593800  0.50000000  0.75000000  1
  Zn  Zn15  1  0.92406200  0.50000000  0.25000000  1
  Si  Si16  1  0.86230600  0.72125900  0.48868800  1
  Si  Si17  1  0.86230600  0.27874100  0.01131200  1
  Si  Si18  1  0.61183800  0.22654200  0.99027600  1
  Si  Si19  1  0.13769400  0.72125900  0.98868800  1
  Si  Si20  1  0.61183800  0.77345800  0.50972400  1
  Si  Si21  1  0.36300700  0.72616000  0.49004800  1
  Si  Si22  1  0.13769400  0.27874100  0.51131200  1
  Si  Si23  1  0.88527600  0.22206700  0.48235000  1
  Si  Si24  1  0.36300700  0.27384000  0.00995200  1
  Si  Si25  1  0.11472400  0.22206700  0.98235000  1
  Si  Si26  1  0.88527600  0.77793300  0.01765000  1
  Si  Si27  1  0.63699300  0.72616000  0.99004800  1
  Si  Si28  1  0.11472400  0.77793300  0.51765000  1
  Si  Si29  1  0.63699300  0.27384000  0.50995200  1
  Si  Si30  1  0.38816200  0.22654200  0.49027600  1
  Si  Si31  1  0.38816200  0.77345800  0.00972400  1
  O  O32  1  0.87500400  0.56101200  0.92236000  1
  O  O33  1  0.03689000  0.74559400  0.59256600  1
  O  O34  1  0.91576100  0.78194000  0.35818700  1
  O  O35  1  0.62197600  0.05481500  0.41804500  1
  O  O36  1  0.91576100  0.21806000  0.14181300  1
  O  O37  1  0.78423900  0.23502000  0.08073000  1
  O  O38  1  0.12499600  0.56101200  0.42236000  1
  O  O39  1  0.03689000  0.25440600  0.90743400  1
  O  O40  1  0.66549400  0.28230900  0.85992800  1
  O  O41  1  0.96311000  0.74559400  0.09256600  1
  O  O42  1  0.87500400  0.43898800  0.57764000  1
  O  O43  1  0.08423900  0.78194000  0.85818700  1
  O  O44  1  0.37261200  0.55494700  0.91789800  1
  O  O45  1  0.66549400  0.71769100  0.64007200  1
  O  O46  1  0.53436300  0.72508200  0.58304100  1
  O  O47  1  0.87975700  0.05958600  0.91877400  1
  O  O48  1  0.78423900  0.76498000  0.41927000  1
  O  O49  1  0.08423900  0.21806000  0.64181300  1
  O  O50  1  0.41736300  0.78163200  0.36048200  1
  O  O51  1  0.71407600  0.22526800  0.58490500  1
  O  O52  1  0.62197600  0.94518500  0.08195500  1
  O  O53  1  0.96311000  0.25440600  0.40743400  1
  O  O54  1  0.82589700  0.26626200  0.36457800  1
  O  O55  1  0.12024300  0.05958600  0.41877400  1
  O  O56  1  0.12499600  0.43898800  0.07764000  1
  O  O57  1  0.41736300  0.21836800  0.13951800  1
  O  O58  1  0.28592400  0.22526800  0.08490500  1
  O  O59  1  0.62738800  0.55494700  0.41789800  1
  O  O60  1  0.53436300  0.27491800  0.91695900  1
  O  O61  1  0.82589700  0.73373800  0.13542200  1
  O  O62  1  0.17410300  0.26626200  0.86457800  1
  O  O63  1  0.46563700  0.72508200  0.08304100  1
  O  O64  1  0.37261200  0.44505300  0.58210200  1
  O  O65  1  0.71407600  0.77473200  0.91509500  1
  O  O66  1  0.58263700  0.78163200  0.86048200  1
  O  O67  1  0.87975700  0.94041400  0.58122600  1
  O  O68  1  0.17410300  0.73373800  0.63542200  1
  O  O69  1  0.37802400  0.05481500  0.91804500  1
  O  O70  1  0.28592400  0.77473200  0.41509500  1
  O  O71  1  0.58263700  0.21836800  0.63951800  1
  O  O72  1  0.21576100  0.23502000  0.58073000  1
  O  O73  1  0.12024300  0.94041400  0.08122600  1
  O  O74  1  0.46563700  0.27491800  0.41695900  1
  O  O75  1  0.33450600  0.28230900  0.35992800  1
  O  O76  1  0.62738800  0.44505300  0.08210200  1
  O  O77  1  0.33450600  0.71769100  0.14007200  1
  O  O78  1  0.21576100  0.76498000  0.91927000  1
  O  O79  1  0.37802400  0.94518500  0.58195500  1
