# generated using pymatgen
data_Ga3P3H6C2NO13
_symmetry_space_group_name_H-M   'P 1'
_cell_length_a   18.07160300
_cell_length_b   8.95039700
_cell_length_c   10.58664201
_cell_angle_alpha   56.76304011
_cell_angle_beta   90.00000000
_cell_angle_gamma   90.00000000
_symmetry_Int_Tables_number   1
_chemical_formula_structural   Ga3P3H6C2NO13
_chemical_formula_sum   'Ga12 P12 H24 C8 N4 O52'
_cell_volume   1432.24362908
_cell_formula_units_Z   4
loop_
 _symmetry_equiv_pos_site_id
 _symmetry_equiv_pos_as_xyz
  1  'x, y, z'
loop_
 _atom_site_type_symbol
 _atom_site_label
 _atom_site_symmetry_multiplicity
 _atom_site_fract_x
 _atom_site_fract_y
 _atom_site_fract_z
 _atom_site_occupancy
  Ga  Ga0  1  0.78964600  0.24070900  0.17354100  1
  Ga  Ga1  1  0.71035400  0.24070900  0.67354100  1
  Ga  Ga2  1  0.21035400  0.75929100  0.82645900  1
  Ga  Ga3  1  0.28964600  0.75929100  0.32645900  1
  Ga  Ga4  1  0.60633800  0.02100900  0.34008200  1
  Ga  Ga5  1  0.89366200  0.02100900  0.84008200  1
  Ga  Ga6  1  0.39366200  0.97899100  0.65991800  1
  Ga  Ga7  1  0.10633800  0.97899100  0.15991800  1
  Ga  Ga8  1  0.83087500  0.68606700  0.30767600  1
  Ga  Ga9  1  0.66912500  0.68606700  0.80767600  1
  Ga  Ga10  1  0.16912500  0.31393300  0.69232400  1
  Ga  Ga11  1  0.33087500  0.31393300  0.19232400  1
  P  P12  1  0.92701900  0.03107700  0.12667400  1
  P  P13  1  0.57298100  0.03107700  0.62667400  1
  P  P14  1  0.07298100  0.96892300  0.87332600  1
  P  P15  1  0.42701900  0.96892300  0.37332600  1
  P  P16  1  0.71095600  0.67698000  0.52188600  1
  P  P17  1  0.78904400  0.67698000  0.02188600  1
  P  P18  1  0.28904400  0.32302000  0.47811400  1
  P  P19  1  0.21095600  0.32302000  0.97811400  1
  P  P20  1  0.65316900  0.26898000  0.99690800  1
  P  P21  1  0.84683100  0.26898000  0.49690800  1
  P  P22  1  0.34683100  0.73102000  0.00309200  1
  P  P23  1  0.15316900  0.73102000  0.50309200  1
  H  H24  1  0.72100900  0.16899200  0.39415400  1
  H  H25  1  0.77899100  0.16899200  0.89415400  1
  H  H26  1  0.27899100  0.83100800  0.60584600  1
  H  H27  1  0.22100900  0.83100800  0.10584600  1
  H  H28  1  0.96694000  0.52108900  0.10590000  1
  H  H29  1  0.53306000  0.52108900  0.60590000  1
  H  H30  1  0.03306000  0.47891100  0.89410000  1
  H  H31  1  0.46694000  0.47891100  0.39410000  1
  H  H32  1  0.06568300  0.52954600  0.11328300  1
  H  H33  1  0.43431700  0.52954600  0.61328300  1
  H  H34  1  0.93431700  0.47045400  0.88671700  1
  H  H35  1  0.56568300  0.47045400  0.38671700  1
  H  H36  1  0.01094600  0.53558600  0.25094000  1
  H  H37  1  0.48905400  0.53558600  0.75094000  1
  H  H38  1  0.98905400  0.46441400  0.74906000  1
  H  H39  1  0.51094600  0.46441400  0.24906000  1
  H  H40  1  0.01033000  0.21453700  0.22790200  1
  H  H41  1  0.48967000  0.21453700  0.72790200  1
  H  H42  1  0.98967000  0.78546300  0.77209800  1
  H  H43  1  0.51033000  0.78546300  0.27209800  1
  H  H44  1  0.91626800  0.23031700  0.34737800  1
  H  H45  1  0.58373200  0.23031700  0.84737800  1
  H  H46  1  0.08373200  0.76968300  0.65262200  1
  H  H47  1  0.41626800  0.76968300  0.15262200  1
  C  C48  1  0.04400900  0.19569200  0.41929400  1
  C  C49  1  0.45599100  0.19569200  0.91929400  1
  C  C50  1  0.95599100  0.80430800  0.58070600  1
  C  C51  1  0.54400900  0.80430800  0.08070600  1
  C  C52  1  0.01502300  0.48033100  0.18107800  1
  C  C53  1  0.48497700  0.48033100  0.68107800  1
  C  C54  1  0.98497700  0.51966900  0.81892200  1
  C  C55  1  0.51502300  0.51966900  0.31892200  1
  N  N56  1  0.01911900  0.28224400  0.28190100  1
  N  N57  1  0.48088100  0.28224400  0.78190100  1
  N  N58  1  0.98088100  0.71775600  0.71809900  1
  N  N59  1  0.51911900  0.71775600  0.21809900  1
  O  O60  1  0.71334600  0.14619200  0.31378700  1
  O  O61  1  0.78665400  0.14619200  0.81378700  1
  O  O62  1  0.28665400  0.85380800  0.68621300  1
  O  O63  1  0.21334600  0.85380800  0.18621300  1
  O  O64  1  0.87356400  0.12205700  0.17870400  1
  O  O65  1  0.62643600  0.12205700  0.67870400  1
  O  O66  1  0.12643600  0.87794300  0.82129600  1
  O  O67  1  0.37356400  0.87794300  0.32129600  1
  O  O68  1  0.73697400  0.23043100  0.02040600  1
  O  O69  1  0.76302600  0.23043100  0.52040600  1
  O  O70  1  0.26302600  0.76956900  0.97959400  1
  O  O71  1  0.23697400  0.76956900  0.47959400  1
  O  O72  1  0.80483900  0.48607500  0.06214700  1
  O  O73  1  0.69516100  0.48607500  0.56214700  1
  O  O74  1  0.19516100  0.51392500  0.93785300  1
  O  O75  1  0.30483900  0.51392500  0.43785300  1
  O  O76  1  0.86286300  0.24533600  0.36020800  1
  O  O77  1  0.63713700  0.24533600  0.86020800  1
  O  O78  1  0.13713700  0.75466400  0.63979200  1
  O  O79  1  0.36286300  0.75466400  0.13979200  1
  O  O80  1  0.91187100  0.82673800  0.21485000  1
  O  O81  1  0.58812900  0.82673800  0.71485000  1
  O  O82  1  0.08812900  0.17326200  0.78515000  1
  O  O83  1  0.41187100  0.17326200  0.28515000  1
  O  O84  1  0.77919800  0.75644500  0.41595800  1
  O  O85  1  0.72080200  0.75644500  0.91595800  1
  O  O86  1  0.22080200  0.24355500  0.58404200  1
  O  O87  1  0.27919800  0.24355500  0.08404200  1
  O  O88  1  0.86721800  0.46030800  0.44796900  1
  O  O89  1  0.63278200  0.46030800  0.94796900  1
  O  O90  1  0.13278200  0.53969200  0.55203100  1
  O  O91  1  0.36721800  0.53969200  0.05203100  1
  O  O92  1  0.77268900  0.67852200  0.16551700  1
  O  O93  1  0.72731100  0.67852200  0.66551700  1
  O  O94  1  0.22731100  0.32147800  0.83448300  1
  O  O95  1  0.27268900  0.32147800  0.33448300  1
  O  O96  1  0.60507900  0.13742400  0.12983600  1
  O  O97  1  0.89492100  0.13742400  0.62983600  1
  O  O98  1  0.39492100  0.86257600  0.87016400  1
  O  O99  1  0.10507900  0.86257600  0.37016400  1
  O  O100  1  0.58356100  0.11440800  0.45500000  1
  O  O101  1  0.91643900  0.11440800  0.95500000  1
  O  O102  1  0.41643900  0.88559200  0.54500000  1
  O  O103  1  0.08356100  0.88559200  0.04500000  1
  O  O104  1  0.00585500  0.06581700  0.15766100  1
  O  O105  1  0.49414500  0.06581700  0.65766100  1
  O  O106  1  0.99414500  0.93418300  0.84233900  1
  O  O107  1  0.50585500  0.93418300  0.34233900  1
  O  O108  1  0.64170700  0.78834400  0.43941100  1
  O  O109  1  0.85829300  0.78834400  0.93941100  1
  O  O110  1  0.35829300  0.21165600  0.56058900  1
  O  O111  1  0.14170700  0.21165600  0.06058900  1
