# generated using pymatgen
data_H3SNO4
_symmetry_space_group_name_H-M   'P 1'
_cell_length_a   10.94604100
_cell_length_b   5.11664000
_cell_length_c   8.26179587
_cell_angle_alpha   51.90269174
_cell_angle_beta   90.00000000
_cell_angle_gamma   90.00000000
_symmetry_Int_Tables_number   1
_chemical_formula_structural   H3SNO4
_chemical_formula_sum   'H12 S4 N4 O16'
_cell_volume   364.14241101
_cell_formula_units_Z   4
loop_
 _symmetry_equiv_pos_site_id
 _symmetry_equiv_pos_as_xyz
  1  'x, y, z'
loop_
 _atom_site_type_symbol
 _atom_site_label
 _atom_site_symmetry_multiplicity
 _atom_site_fract_x
 _atom_site_fract_y
 _atom_site_fract_z
 _atom_site_occupancy
  H  H0  1  0.40866600  0.54263300  0.82287100  1
  H  H1  1  0.09133400  0.54263300  0.32287100  1
  H  H2  1  0.59133400  0.45736700  0.17712900  1
  H  H3  1  0.90866600  0.45736700  0.67712900  1
  H  H4  1  0.37219900  0.17265100  0.87018000  1
  H  H5  1  0.12780100  0.17265100  0.37018000  1
  H  H6  1  0.62780100  0.82734900  0.12982000  1
  H  H7  1  0.87219900  0.82734900  0.62982000  1
  H  H8  1  0.26050400  0.46231900  0.79871500  1
  H  H9  1  0.23949600  0.46231900  0.29871500  1
  H  H10  1  0.73949600  0.53768100  0.20128500  1
  H  H11  1  0.76050400  0.53768100  0.70128500  1
  S  S12  1  0.40986800  0.92632800  0.26588800  1
  S  S13  1  0.09013200  0.92632800  0.76588800  1
  S  S14  1  0.59013200  0.07367200  0.73411200  1
  S  S15  1  0.90986800  0.07367200  0.23411200  1
  N  N16  1  0.34247500  0.35798900  0.87892000  1
  N  N17  1  0.15752500  0.35798900  0.37892000  1
  N  N18  1  0.65752500  0.64201100  0.12108000  1
  N  N19  1  0.84247500  0.64201100  0.62108000  1
  O  O20  1  0.53053700  0.08189700  0.19895300  1
  O  O21  1  0.96946300  0.08189700  0.69895300  1
  O  O22  1  0.46946300  0.91810300  0.80104700  1
  O  O23  1  0.03053700  0.91810300  0.30104700  1
  O  O24  1  0.35625300  0.87500900  0.44311200  1
  O  O25  1  0.14374700  0.87500900  0.94311200  1
  O  O26  1  0.64374700  0.12499100  0.55688800  1
  O  O27  1  0.85625300  0.12499100  0.05688800  1
  O  O28  1  0.31144100  0.22648600  0.08465800  1
  O  O29  1  0.18855900  0.22648600  0.58465800  1
  O  O30  1  0.68855900  0.77351400  0.91534200  1
  O  O31  1  0.81144100  0.77351400  0.41534200  1
  O  O32  1  0.39619500  0.65657600  0.25239600  1
  O  O33  1  0.10380500  0.65657600  0.75239600  1
  O  O34  1  0.60380500  0.34342400  0.74760400  1
  O  O35  1  0.89619500  0.34342400  0.24760400  1
