# generated using pymatgen
data_CoH19S3N5O11
_symmetry_space_group_name_H-M   'P 1'
_cell_length_a   16.01849700
_cell_length_b   6.72609600
_cell_length_c   13.56098823
_cell_angle_alpha   84.25074365
_cell_angle_beta   90.00000000
_cell_angle_gamma   90.00000000
_symmetry_Int_Tables_number   1
_chemical_formula_structural   CoH19S3N5O11
_chemical_formula_sum   'Co4 H76 S12 N20 O44'
_cell_volume   1453.73776275
_cell_formula_units_Z   4
loop_
 _symmetry_equiv_pos_site_id
 _symmetry_equiv_pos_as_xyz
  1  'x, y, z'
loop_
 _atom_site_type_symbol
 _atom_site_label
 _atom_site_symmetry_multiplicity
 _atom_site_fract_x
 _atom_site_fract_y
 _atom_site_fract_z
 _atom_site_occupancy
  Co  Co0  1  0.39046900  0.48067900  0.24749300  1
  Co  Co1  1  0.89046900  0.51932100  0.25250700  1
  Co  Co2  1  0.60953100  0.51932100  0.75250700  1
  Co  Co3  1  0.10953100  0.48067900  0.74749300  1
  H  H4  1  0.24158000  0.84885000  0.91829800  1
  H  H5  1  0.74158000  0.15115000  0.58170200  1
  H  H6  1  0.75842000  0.15115000  0.08170200  1
  H  H7  1  0.25842000  0.84885000  0.41829800  1
  H  H8  1  0.30710900  0.91462300  0.83359400  1
  H  H9  1  0.80710900  0.08537700  0.66640600  1
  H  H10  1  0.69289100  0.08537700  0.16640600  1
  H  H11  1  0.19289100  0.91462300  0.33359400  1
  H  H12  1  0.30897400  0.82396800  0.25872200  1
  H  H13  1  0.80897400  0.17603200  0.24127800  1
  H  H14  1  0.69102600  0.17603200  0.74127800  1
  H  H15  1  0.19102600  0.82396800  0.75872200  1
  H  H16  1  0.35268300  0.83538100  0.14737600  1
  H  H17  1  0.85268300  0.16461900  0.35262400  1
  H  H18  1  0.64731700  0.16461900  0.85262400  1
  H  H19  1  0.14731700  0.83538100  0.64737600  1
  H  H20  1  0.30123600  0.51451600  0.09231300  1
  H  H21  1  0.80123600  0.48548400  0.40768700  1
  H  H22  1  0.69876400  0.48548400  0.90768700  1
  H  H23  1  0.19876400  0.51451600  0.59231300  1
  H  H24  1  0.33920800  0.28603300  0.10393900  1
  H  H25  1  0.83920800  0.71396700  0.39606100  1
  H  H26  1  0.66079200  0.71396700  0.89606100  1
  H  H27  1  0.16079200  0.28603300  0.60393900  1
  H  H28  1  0.39933500  0.47701100  0.05989300  1
  H  H29  1  0.89933500  0.52298900  0.44010700  1
  H  H30  1  0.60066500  0.52298900  0.94010700  1
  H  H31  1  0.10066500  0.47701100  0.55989300  1
  H  H32  1  0.55223700  0.47418000  0.24221600  1
  H  H33  1  0.05223700  0.52582000  0.25778400  1
  H  H34  1  0.44776300  0.52582000  0.75778400  1
  H  H35  1  0.94776300  0.47418000  0.74221600  1
  H  H36  1  0.51633500  0.52413600  0.12816000  1
  H  H37  1  0.01633500  0.47586400  0.37184000  1
  H  H38  1  0.48366500  0.47586400  0.87184000  1
  H  H39  1  0.98366500  0.52413600  0.62816000  1
  H  H40  1  0.51985000  0.70365400  0.20374000  1
  H  H41  1  0.01985000  0.29634600  0.29626000  1
  H  H42  1  0.48015000  0.29634600  0.79626000  1
  H  H43  1  0.98015000  0.70365400  0.70374000  1
  H  H44  1  0.23261300  0.51853000  0.28614100  1
  H  H45  1  0.73261300  0.48147000  0.21385900  1
  H  H46  1  0.76738700  0.48147000  0.71385900  1
  H  H47  1  0.26738700  0.51853000  0.78614100  1
  H  H48  1  0.25097800  0.28480500  0.26452500  1
  H  H49  1  0.75097800  0.71519500  0.23547500  1
  H  H50  1  0.74902200  0.71519500  0.73547500  1
  H  H51  1  0.24902200  0.28480500  0.76452500  1
  H  H52  1  0.27516200  0.35606700  0.37485900  1
  H  H53  1  0.77516200  0.64393300  0.12514100  1
  H  H54  1  0.72483800  0.64393300  0.62514100  1
  H  H55  1  0.22483800  0.35606700  0.87485900  1
  H  H56  1  0.48767100  0.55649900  0.38757100  1
  H  H57  1  0.98767100  0.44350100  0.11242900  1
  H  H58  1  0.51232900  0.44350100  0.61242900  1
  H  H59  1  0.01232900  0.55649900  0.88757100  1
  H  H60  1  0.40087900  0.67707500  0.39789000  1
  H  H61  1  0.90087900  0.32292500  0.10211000  1
  H  H62  1  0.59912100  0.32292500  0.60211000  1
  H  H63  1  0.09912100  0.67707500  0.89789000  1
  H  H64  1  0.40492700  0.43533400  0.43500800  1
  H  H65  1  0.90492700  0.56466600  0.06499200  1
  H  H66  1  0.59507300  0.56466600  0.56499200  1
  H  H67  1  0.09507300  0.43533400  0.93500800  1
  H  H68  1  0.49244500  0.16977500  0.28057100  1
  H  H69  1  0.99244500  0.83022500  0.21942900  1
  H  H70  1  0.50755500  0.83022500  0.71942900  1
  H  H71  1  0.00755500  0.16977500  0.78057100  1
  H  H72  1  0.40727100  0.08751200  0.23275700  1
  H  H73  1  0.90727100  0.91248800  0.26724300  1
  H  H74  1  0.59272900  0.91248800  0.76724300  1
  H  H75  1  0.09272900  0.08751200  0.73275700  1
  H  H76  1  0.40921300  0.13049300  0.35030900  1
  H  H77  1  0.90921300  0.86950700  0.14969100  1
  H  H78  1  0.59078700  0.86950700  0.64969100  1
  H  H79  1  0.09078700  0.13049300  0.85030900  1
  S  S80  1  0.14928500  0.11206600  0.09640300  1
  S  S81  1  0.64928500  0.88793400  0.40359700  1
  S  S82  1  0.85071500  0.88793400  0.90359700  1
  S  S83  1  0.35071500  0.11206600  0.59640300  1
  S  S84  1  0.13687900  0.78143200  0.10012200  1
  S  S85  1  0.63687900  0.21856800  0.39987800  1
  S  S86  1  0.86312100  0.21856800  0.89987800  1
  S  S87  1  0.36312100  0.78143200  0.60012200  1
  S  S88  1  0.44680700  0.91986500  0.97008900  1
  S  S89  1  0.94680700  0.08013500  0.52991100  1
  S  S90  1  0.55319300  0.08013500  0.02991100  1
  S  S91  1  0.05319300  0.91986500  0.47008900  1
  N  N92  1  0.35419200  0.43206200  0.11124800  1
  N  N93  1  0.85419200  0.56793800  0.38875200  1
  N  N94  1  0.64580800  0.56793800  0.88875200  1
  N  N95  1  0.14580800  0.43206200  0.61124800  1
  N  N96  1  0.42891500  0.18348200  0.28070300  1
  N  N97  1  0.92891500  0.81651800  0.21929700  1
  N  N98  1  0.57108500  0.81651800  0.71929700  1
  N  N99  1  0.07108500  0.18348200  0.78070300  1
  N  N100  1  0.42425200  0.54326000  0.38061600  1
  N  N101  1  0.92425200  0.45674000  0.11938400  1
  N  N102  1  0.57574800  0.45674000  0.61938400  1
  N  N103  1  0.07574800  0.54326000  0.88061600  1
  N  N104  1  0.50781000  0.55454400  0.20009500  1
  N  N105  1  0.00781000  0.44545600  0.29990500  1
  N  N106  1  0.49219000  0.44545600  0.79990500  1
  N  N107  1  0.99219000  0.55454400  0.70009500  1
  N  N108  1  0.27373100  0.40179800  0.30025000  1
  N  N109  1  0.77373100  0.59820200  0.19975000  1
  N  N110  1  0.72626900  0.59820200  0.69975000  1
  N  N111  1  0.22626900  0.40179800  0.80025000  1
  O  O112  1  0.35608700  0.77618000  0.21748700  1
  O  O113  1  0.85608700  0.22382000  0.28251300  1
  O  O114  1  0.64391300  0.22382000  0.78251300  1
  O  O115  1  0.14391300  0.77618000  0.71748700  1
  O  O116  1  0.22592200  0.13509800  0.15459400  1
  O  O117  1  0.72592200  0.86490200  0.34540600  1
  O  O118  1  0.77407800  0.86490200  0.84540600  1
  O  O119  1  0.27407800  0.13509800  0.65459400  1
  O  O120  1  0.15827900  0.18417900  0.99073500  1
  O  O121  1  0.65827900  0.81582100  0.50926500  1
  O  O122  1  0.84172100  0.81582100  0.00926500  1
  O  O123  1  0.34172100  0.18417900  0.49073500  1
  O  O124  1  0.07297300  0.17883700  0.14222100  1
  O  O125  1  0.57297300  0.82116300  0.35777900  1
  O  O126  1  0.92702700  0.82116300  0.85777900  1
  O  O127  1  0.42702700  0.17883700  0.64222100  1
  O  O128  1  0.14181400  0.70524100  0.20618800  1
  O  O129  1  0.64181400  0.29475900  0.29381200  1
  O  O130  1  0.85818600  0.29475900  0.79381200  1
  O  O131  1  0.35818600  0.70524100  0.70618800  1
  O  O132  1  0.05436200  0.75002400  0.05663800  1
  O  O133  1  0.55436200  0.24997600  0.44336200  1
  O  O134  1  0.94563800  0.24997600  0.94336200  1
  O  O135  1  0.44563800  0.75002400  0.55663800  1
  O  O136  1  0.20720200  0.71400400  0.04122200  1
  O  O137  1  0.70720200  0.28599600  0.45877800  1
  O  O138  1  0.79279800  0.28599600  0.95877800  1
  O  O139  1  0.29279800  0.71400400  0.54122200  1
  O  O140  1  0.43671500  0.00698300  0.86750200  1
  O  O141  1  0.93671500  0.99301700  0.63249800  1
  O  O142  1  0.56328500  0.99301700  0.13249800  1
  O  O143  1  0.06328500  0.00698300  0.36750200  1
  O  O144  1  0.37567100  0.96070600  0.03478000  1
  O  O145  1  0.87567100  0.03929400  0.46522000  1
  O  O146  1  0.62432900  0.03929400  0.96522000  1
  O  O147  1  0.12432900  0.96070600  0.53478000  1
  O  O148  1  0.47242800  0.70800700  0.97988200  1
  O  O149  1  0.97242800  0.29199300  0.52011800  1
  O  O150  1  0.52757200  0.29199300  0.02011800  1
  O  O151  1  0.02757200  0.70800700  0.47988200  1
  O  O152  1  0.24739100  0.89264800  0.84731900  1
  O  O153  1  0.74739100  0.10735200  0.65268100  1
  O  O154  1  0.75260900  0.10735200  0.15268100  1
  O  O155  1  0.25260900  0.89264800  0.34731900  1
