# generated using pymatgen
data_GaH15N4(OF3)2
_symmetry_space_group_name_H-M   'P 1'
_cell_length_a   8.82517922
_cell_length_b   8.82517922
_cell_length_c   11.84301331
_cell_angle_alpha   68.00071803
_cell_angle_beta   68.00071803
_cell_angle_gamma   50.31991569
_symmetry_Int_Tables_number   1
_chemical_formula_structural   GaH15N4(OF3)2
_chemical_formula_sum   'Ga2 H30 N8 O4 F12'
_cell_volume   646.23479398
_cell_formula_units_Z   2
loop_
 _symmetry_equiv_pos_site_id
 _symmetry_equiv_pos_as_xyz
  1  'x, y, z'
loop_
 _atom_site_type_symbol
 _atom_site_label
 _atom_site_symmetry_multiplicity
 _atom_site_fract_x
 _atom_site_fract_y
 _atom_site_fract_z
 _atom_site_occupancy
  Ga  Ga0  1  0.00000000  0.50000000  0.50000000  1
  Ga  Ga1  1  0.50000000  0.00000000  0.00000000  1
  H  H2  1  0.05871600  0.86327800  0.86475400  1
  H  H3  1  0.13672200  0.94128400  0.63524600  1
  H  H4  1  0.94128400  0.13672200  0.13524600  1
  H  H5  1  0.86327800  0.05871600  0.36475400  1
  H  H6  1  0.94994800  0.66292300  0.21681100  1
  H  H7  1  0.33707700  0.05005200  0.28318900  1
  H  H8  1  0.05005200  0.33707700  0.78318900  1
  H  H9  1  0.66292300  0.94994800  0.71681100  1
  H  H10  1  0.28657600  0.50098600  0.93033400  1
  H  H11  1  0.49901400  0.71342400  0.56966600  1
  H  H12  1  0.71342400  0.49901400  0.06966600  1
  H  H13  1  0.50098600  0.28657600  0.43033400  1
  H  H14  1  0.22301900  0.93397400  0.99579100  1
  H  H15  1  0.06602600  0.77698100  0.50420900  1
  H  H16  1  0.77698100  0.06602600  0.00420900  1
  H  H17  1  0.93397400  0.22301900  0.49579100  1
  H  H18  1  0.30375000  0.49271300  0.34108600  1
  H  H19  1  0.50728700  0.69625000  0.15891400  1
  H  H20  1  0.69625100  0.50728700  0.65891400  1
  H  H21  1  0.49271300  0.30374900  0.84108600  1
  H  H22  1  0.50000000  0.50000000  0.00000000  1
  H  H23  1  0.50000000  0.50000000  0.50000000  1
  H  H24  1  0.92952100  0.33250500  0.35702800  1
  H  H25  1  0.66749500  0.07047900  0.14297200  1
  H  H26  1  0.07047900  0.66749500  0.64297200  1
  H  H27  1  0.33250500  0.92952100  0.85702800  1
  H  H28  1  0.96400200  0.19886900  0.14617300  1
  H  H29  1  0.80113100  0.03599800  0.35382700  1
  H  H30  1  0.03599800  0.80113100  0.85382700  1
  H  H31  1  0.19886900  0.96400200  0.64617300  1
  N  N32  1  0.21318000  0.57496500  0.11831600  1
  N  N33  1  0.42503500  0.78682000  0.38168400  1
  N  N34  1  0.78682000  0.42503500  0.88168400  1
  N  N35  1  0.57496500  0.21318000  0.61831600  1
  N  N36  1  0.32100700  0.53321200  0.02323600  1
  N  N37  1  0.46678800  0.67899300  0.47676400  1
  N  N38  1  0.67899300  0.46678800  0.97676400  1
  N  N39  1  0.53321200  0.32100700  0.52323600  1
  O  O40  1  0.01018000  0.20533300  0.41110500  1
  O  O41  1  0.79466700  0.98982000  0.08889500  1
  O  O42  1  0.98982000  0.79466700  0.58889500  1
  O  O43  1  0.20533300  0.01018000  0.91110500  1
  F  F44  1  0.80631500  0.36733600  0.64407300  1
  F  F45  1  0.63266400  0.19368500  0.85592700  1
  F  F46  1  0.19368500  0.63266400  0.35592700  1
  F  F47  1  0.36733600  0.80631500  0.14407300  1
  F  F48  1  0.44975300  0.28083700  0.36367600  1
  F  F49  1  0.71916300  0.55024700  0.13632400  1
  F  F50  1  0.55024700  0.71916300  0.63632400  1
  F  F51  1  0.28083700  0.44975300  0.86367600  1
  F  F52  1  0.85807800  0.65377700  0.28940200  1
  F  F53  1  0.34622300  0.14192200  0.21059800  1
  F  F54  1  0.14192200  0.34622300  0.71059800  1
  F  F55  1  0.65377700  0.85807800  0.78940200  1
