# generated using pymatgen
data_Ga2P3H11O13
_symmetry_space_group_name_H-M   'P 1'
_cell_length_a   10.14515000
_cell_length_b   7.77610900
_cell_length_c   8.18735296
_cell_angle_alpha   68.58660552
_cell_angle_beta   90.00000000
_cell_angle_gamma   90.00000000
_symmetry_Int_Tables_number   1
_chemical_formula_structural   Ga2P3H11O13
_chemical_formula_sum   'Ga4 P6 H22 O26'
_cell_volume   601.31251203
_cell_formula_units_Z   2
loop_
 _symmetry_equiv_pos_site_id
 _symmetry_equiv_pos_as_xyz
  1  'x, y, z'
loop_
 _atom_site_type_symbol
 _atom_site_label
 _atom_site_symmetry_multiplicity
 _atom_site_fract_x
 _atom_site_fract_y
 _atom_site_fract_z
 _atom_site_occupancy
  Ga  Ga0  1  0.84950100  0.06519200  0.97490300  1
  Ga  Ga1  1  0.34950100  0.93480800  0.02509700  1
  Ga  Ga2  1  0.57772800  0.58915400  0.62400700  1
  Ga  Ga3  1  0.07772800  0.41084600  0.37599300  1
  P  P4  1  0.87700100  0.45719500  0.65546200  1
  P  P5  1  0.37700100  0.54280500  0.34453800  1
  P  P6  1  0.57526900  0.25061900  0.00677900  1
  P  P7  1  0.07526900  0.74938100  0.99322100  1
  P  P8  1  0.13000600  0.22281100  0.07883200  1
  P  P9  1  0.63000600  0.77718900  0.92116800  1
  H  H10  1  0.89183200  0.52668200  0.79001400  1
  H  H11  1  0.39183200  0.47331800  0.20998600  1
  H  H12  1  0.54367400  0.37973700  0.08449600  1
  H  H13  1  0.04367400  0.62026300  0.91550400  1
  H  H14  1  0.17873100  0.34569500  0.91711500  1
  H  H15  1  0.67873100  0.65430500  0.08288500  1
  H  H16  1  0.90741600  0.76333700  0.24616300  1
  H  H17  1  0.40741600  0.23666300  0.75383700  1
  H  H18  1  0.26839400  0.16475400  0.69676200  1
  H  H19  1  0.76839400  0.83524600  0.30323800  1
  H  H20  1  0.52933200  0.88756700  0.33189700  1
  H  H21  1  0.02933200  0.11243300  0.66810300  1
  H  H22  1  0.61345500  0.95790400  0.46115300  1
  H  H23  1  0.11345500  0.04209600  0.53884700  1
  H  H24  1  0.31996400  0.73234900  0.60142500  1
  H  H25  1  0.81996400  0.26765100  0.39857500  1
  H  H26  1  0.39708400  0.71969900  0.77650400  1
  H  H27  1  0.89708400  0.28030100  0.22349600  1
  H  H28  1  0.68863100  0.11083600  0.63294300  1
  H  H29  1  0.18863100  0.88916400  0.36705700  1
  H  H30  1  0.61087800  0.26250600  0.48599400  1
  H  H31  1  0.11087800  0.73749400  0.51400600  1
  O  O32  1  0.86905500  0.24517000  0.73513200  1
  O  O33  1  0.36905500  0.75483000  0.26486800  1
  O  O34  1  0.98020000  0.20150200  0.06303900  1
  O  O35  1  0.48020000  0.79849800  0.93696100  1
  O  O36  1  0.72082500  0.20610800  0.05397700  1
  O  O37  1  0.22082500  0.79389200  0.94602300  1
  O  O38  1  0.70549900  0.95947300  0.87765900  1
  O  O39  1  0.20549900  0.04052700  0.12234100  1
  O  O40  1  0.98339800  0.91632700  0.90940300  1
  O  O41  1  0.48339800  0.08367300  0.09059700  1
  O  O42  1  0.84335200  0.86669700  0.22174900  1
  O  O43  1  0.34335200  0.13330300  0.77825100  1
  O  O44  1  0.75275200  0.54401900  0.55057500  1
  O  O45  1  0.25275200  0.45598100  0.44942500  1
  O  O46  1  0.54764100  0.34241900  0.80769700  1
  O  O47  1  0.04764100  0.65758100  0.19230300  1
  O  O48  1  0.15837100  0.31053300  0.21539200  1
  O  O49  1  0.65837100  0.68946700  0.78460800  1
  O  O50  1  0.50224100  0.48305900  0.45998200  1
  O  O51  1  0.00224100  0.51694100  0.54001800  1
  O  O52  1  0.59929200  0.85073900  0.42275200  1
  O  O53  1  0.09929200  0.14926100  0.57724800  1
  O  O54  1  0.39345800  0.66856800  0.68179900  1
  O  O55  1  0.89345800  0.33143200  0.31820100  1
  O  O56  1  0.66932000  0.15551200  0.50538600  1
  O  O57  1  0.16932000  0.84448800  0.49461400  1
