# generated using pymatgen
data_K4P4(H2O5)3
_symmetry_space_group_name_H-M   'P 1'
_cell_length_a   9.76564413
_cell_length_b   9.76564413
_cell_length_c   14.40702157
_cell_angle_alpha   61.43812188
_cell_angle_beta   61.43812188
_cell_angle_gamma   42.12739040
_symmetry_Int_Tables_number   1
_chemical_formula_structural   K4P4(H2O5)3
_chemical_formula_sum   'K8 P8 H12 O30'
_cell_volume   791.47962837
_cell_formula_units_Z   2
loop_
 _symmetry_equiv_pos_site_id
 _symmetry_equiv_pos_as_xyz
  1  'x, y, z'
loop_
 _atom_site_type_symbol
 _atom_site_label
 _atom_site_symmetry_multiplicity
 _atom_site_fract_x
 _atom_site_fract_y
 _atom_site_fract_z
 _atom_site_occupancy
  K  K0  1  0.18493000  0.36362800  0.87386300  1
  K  K1  1  0.63637200  0.81507000  0.62613700  1
  K  K2  1  0.81507000  0.63637200  0.12613700  1
  K  K3  1  0.36362800  0.18493000  0.37386300  1
  K  K4  1  0.79485000  0.23623000  0.10380400  1
  K  K5  1  0.76377000  0.20515000  0.39619600  1
  K  K6  1  0.20515000  0.76377000  0.89619600  1
  K  K7  1  0.23623000  0.79485000  0.60380400  1
  P  P8  1  0.04989600  0.23506000  0.71379800  1
  P  P9  1  0.76494000  0.95010400  0.78620200  1
  P  P10  1  0.95010400  0.76494000  0.28620200  1
  P  P11  1  0.23506000  0.04989600  0.21379800  1
  P  P12  1  0.28107500  0.38305700  0.59233900  1
  P  P13  1  0.61694300  0.71892500  0.90766100  1
  P  P14  1  0.71892500  0.61694300  0.40766100  1
  P  P15  1  0.38305700  0.28107500  0.09233900  1
  H  H16  1  0.79439300  0.39246500  0.84838400  1
  H  H17  1  0.60753500  0.20560700  0.65161600  1
  H  H18  1  0.20560700  0.60753500  0.15161600  1
  H  H19  1  0.39246500  0.79439300  0.34838400  1
  H  H20  1  0.09823600  0.61313500  0.46420700  1
  H  H21  1  0.38686500  0.90176400  0.03579300  1
  H  H22  1  0.90176400  0.38686500  0.53579300  1
  H  H23  1  0.61313500  0.09823700  0.96420700  1
  H  H24  1  0.63588700  0.46248400  0.71317400  1
  H  H25  1  0.53751600  0.36411300  0.78682600  1
  H  H26  1  0.36411300  0.53751600  0.28682600  1
  H  H27  1  0.46248400  0.63588700  0.21317300  1
  O  O28  1  0.92912400  0.24168400  0.83678500  1
  O  O29  1  0.75831600  0.07087600  0.66321500  1
  O  O30  1  0.07087600  0.75831600  0.16321500  1
  O  O31  1  0.24168400  0.92912400  0.33678500  1
  O  O32  1  0.89268700  0.39703600  0.64072800  1
  O  O33  1  0.60296400  0.10731300  0.85927200  1
  O  O34  1  0.10731300  0.60296400  0.35927200  1
  O  O35  1  0.39703600  0.89268700  0.14072800  1
  O  O36  1  0.21700300  0.01443500  0.69863200  1
  O  O37  1  0.98556500  0.78299700  0.80136800  1
  O  O38  1  0.78299700  0.98556500  0.30136800  1
  O  O39  1  0.01443500  0.21700300  0.19863200  1
  O  O40  1  0.15511500  0.31970300  0.70182100  1
  O  O41  1  0.68029700  0.84488500  0.79817900  1
  O  O42  1  0.84488500  0.68029700  0.29817900  1
  O  O43  1  0.31970300  0.15511500  0.20182100  1
  O  O44  1  0.37988700  0.39996900  0.63695900  1
  O  O45  1  0.60003100  0.62011300  0.86304100  1
  O  O46  1  0.62011300  0.60003100  0.36304100  1
  O  O47  1  0.39996900  0.37988700  0.13695900  1
  O  O48  1  0.42518900  0.22764100  0.52151100  1
  O  O49  1  0.77235900  0.57481100  0.97848900  1
  O  O50  1  0.57481100  0.77236000  0.47848900  1
  O  O51  1  0.22764000  0.42518900  0.02151100  1
  O  O52  1  0.10055800  0.61048100  0.53625200  1
  O  O53  1  0.38951900  0.89944200  0.96374800  1
  O  O54  1  0.89944200  0.38951900  0.46374800  1
  O  O55  1  0.61048100  0.10055800  0.03625200  1
  O  O56  1  0.49950800  0.50049200  0.75000000  1
  O  O57  1  0.50049200  0.49950800  0.25000000  1
