# generated using pymatgen
data_ReH12C2S2N4Cl5O3
_symmetry_space_group_name_H-M   'P 1'
_cell_length_a   7.17671500
_cell_length_b   13.81933500
_cell_length_c   16.61524857
_cell_angle_alpha   78.17851951
_cell_angle_beta   90.00000000
_cell_angle_gamma   90.00000000
_symmetry_Int_Tables_number   1
_chemical_formula_structural   ReH12C2S2N4Cl5O3
_chemical_formula_sum   'Re4 H48 C8 S8 N16 Cl20 O12'
_cell_volume   1612.90764771
_cell_formula_units_Z   4
loop_
 _symmetry_equiv_pos_site_id
 _symmetry_equiv_pos_as_xyz
  1  'x, y, z'
loop_
 _atom_site_type_symbol
 _atom_site_label
 _atom_site_symmetry_multiplicity
 _atom_site_fract_x
 _atom_site_fract_y
 _atom_site_fract_z
 _atom_site_occupancy
  Re  Re0  1  0.75661100  0.80271300  0.97973000  1
  Re  Re1  1  0.25661100  0.19728700  0.52027000  1
  Re  Re2  1  0.24338900  0.19728700  0.02027000  1
  Re  Re3  1  0.74338900  0.80271300  0.47973000  1
  H  H4  1  0.20958100  0.91651900  0.82045800  1
  H  H5  1  0.70958100  0.08348100  0.67954200  1
  H  H6  1  0.79041900  0.08348100  0.17954200  1
  H  H7  1  0.29041900  0.91651900  0.32045800  1
  H  H8  1  0.31893500  0.79957700  0.83026600  1
  H  H9  1  0.81893500  0.20042300  0.66973400  1
  H  H10  1  0.68106500  0.20042300  0.16973400  1
  H  H11  1  0.18106500  0.79957700  0.33026600  1
  H  H12  1  0.09199100  0.99435300  0.68933200  1
  H  H13  1  0.59199100  0.00564700  0.81066800  1
  H  H14  1  0.90800900  0.00564700  0.31066800  1
  H  H15  1  0.40800900  0.99435300  0.18933200  1
  H  H16  1  0.07756800  0.92593300  0.61169800  1
  H  H17  1  0.57756800  0.07406700  0.88830200  1
  H  H18  1  0.92243200  0.07406700  0.38830200  1
  H  H19  1  0.42243200  0.92593300  0.11169800  1
  H  H20  1  0.09771100  0.46023600  0.90229100  1
  H  H21  1  0.59771100  0.53976400  0.59770900  1
  H  H22  1  0.90228900  0.53976400  0.09770900  1
  H  H23  1  0.40228900  0.46023600  0.40229100  1
  H  H24  1  0.33625900  0.48898500  0.88571100  1
  H  H25  1  0.83625900  0.51101500  0.61428900  1
  H  H26  1  0.66374100  0.51101500  0.11428900  1
  H  H27  1  0.16374100  0.48898500  0.38571100  1
  H  H28  1  0.87481100  0.56773100  0.81588100  1
  H  H29  1  0.37481100  0.43226900  0.68411900  1
  H  H30  1  0.12518900  0.43226900  0.18411900  1
  H  H31  1  0.62518900  0.56773100  0.31588100  1
  H  H32  1  0.96517500  0.66161000  0.73667500  1
  H  H33  1  0.46517500  0.33839000  0.76332500  1
  H  H34  1  0.03482500  0.33839000  0.26332500  1
  H  H35  1  0.53482500  0.66161000  0.23667500  1
  H  H36  1  0.60545000  0.62417100  0.93595300  1
  H  H37  1  0.10545000  0.37582900  0.56404700  1
  H  H38  1  0.39455000  0.37582900  0.06404700  1
  H  H39  1  0.89455000  0.62417100  0.43595300  1
  H  H40  1  0.48563900  0.63421500  0.01326100  1
  H  H41  1  0.98563900  0.36578500  0.48673900  1
  H  H42  1  0.51436100  0.36578500  0.98673900  1
  H  H43  1  0.01436100  0.63421500  0.51326100  1
  H  H44  1  0.65968900  0.91525900  0.65138000  1
  H  H45  1  0.15968900  0.08474100  0.84862000  1
  H  H46  1  0.34031100  0.08474100  0.34862000  1
  H  H47  1  0.84031100  0.91525900  0.15138000  1
  H  H48  1  0.54096100  0.00060800  0.60151900  1
  H  H49  1  0.04096100  0.99939200  0.89848100  1
  H  H50  1  0.45903900  0.99939200  0.39848100  1
  H  H51  1  0.95903900  0.00060800  0.10151900  1
  C  C52  1  0.19868700  0.85437100  0.71947600  1
  C  C53  1  0.69868700  0.14562900  0.78052400  1
  C  C54  1  0.80131300  0.14562900  0.28052400  1
  C  C55  1  0.30131300  0.85437100  0.21947600  1
  C  C56  1  0.15851700  0.58004900  0.81008400  1
  C  C57  1  0.65851700  0.41995100  0.68991600  1
  C  C58  1  0.84148300  0.41995100  0.18991600  1
  C  C59  1  0.34148300  0.58004900  0.31008400  1
  S  S60  1  0.24807500  0.75237000  0.67212400  1
  S  S61  1  0.74807500  0.24763000  0.82787600  1
  S  S62  1  0.75192500  0.24763000  0.32787600  1
  S  S63  1  0.25192500  0.75237000  0.17212400  1
  S  S64  1  0.35850600  0.64847900  0.76479400  1
  S  S65  1  0.85850600  0.35152100  0.73520600  1
  S  S66  1  0.64149400  0.35152100  0.23520600  1
  S  S67  1  0.14149400  0.64847900  0.26479400  1
  N  N68  1  0.24540500  0.85597800  0.79553300  1
  N  N69  1  0.74540500  0.14402200  0.70446700  1
  N  N70  1  0.75459500  0.14402200  0.20446700  1
  N  N71  1  0.25459500  0.85597800  0.29553300  1
  N  N72  1  0.11263500  0.92911000  0.67087100  1
  N  N73  1  0.61263500  0.07089000  0.82912900  1
  N  N74  1  0.88736500  0.07089000  0.32912900  1
  N  N75  1  0.38736500  0.92911000  0.17087100  1
  N  N76  1  0.19877400  0.50471000  0.87050200  1
  N  N77  1  0.69877400  0.49529000  0.62949800  1
  N  N78  1  0.80122600  0.49529000  0.12949800  1
  N  N79  1  0.30122600  0.50471000  0.37050200  1
  N  N80  1  0.98799800  0.60457700  0.78536800  1
  N  N81  1  0.48799800  0.39542300  0.71463200  1
  N  N82  1  0.01200200  0.39542300  0.21463200  1
  N  N83  1  0.51200200  0.60457700  0.28536800  1
  Cl  Cl84  1  0.73897200  0.74931100  0.12509500  1
  Cl  Cl85  1  0.23897200  0.25068900  0.37490500  1
  Cl  Cl86  1  0.26102800  0.25068900  0.87490500  1
  Cl  Cl87  1  0.76102800  0.74931100  0.62509500  1
  Cl  Cl88  1  0.73387600  0.81718800  0.83554900  1
  Cl  Cl89  1  0.23387600  0.18281200  0.66445100  1
  Cl  Cl90  1  0.26612400  0.18281200  0.16445100  1
  Cl  Cl91  1  0.76612400  0.81718800  0.33554900  1
  Cl  Cl92  1  0.45607000  0.87582200  0.98213500  1
  Cl  Cl93  1  0.95607000  0.12417800  0.51786500  1
  Cl  Cl94  1  0.54393000  0.12417800  0.01786500  1
  Cl  Cl95  1  0.04393000  0.87582200  0.48213500  1
  Cl  Cl96  1  0.99478500  0.68518500  0.98184700  1
  Cl  Cl97  1  0.49478500  0.31481500  0.51815300  1
  Cl  Cl98  1  0.00521500  0.31481500  0.01815300  1
  Cl  Cl99  1  0.50521500  0.68518500  0.48184700  1
  Cl  Cl100  1  0.64822500  0.48673800  0.89373500  1
  Cl  Cl101  1  0.14822500  0.51326200  0.60626500  1
  Cl  Cl102  1  0.35177500  0.51326200  0.10626500  1
  Cl  Cl103  1  0.85177500  0.48673800  0.39373500  1
  O  O104  1  0.88718200  0.90547100  0.97855200  1
  O  O105  1  0.38718200  0.09452900  0.52144800  1
  O  O106  1  0.11281800  0.09452900  0.02144800  1
  O  O107  1  0.61281800  0.90547100  0.47855200  1
  O  O108  1  0.56248100  0.67302300  0.96843300  1
  O  O109  1  0.06248100  0.32697700  0.53156700  1
  O  O110  1  0.43751900  0.32697700  0.03156700  1
  O  O111  1  0.93751900  0.67302300  0.46843300  1
  O  O112  1  0.60203000  0.97862100  0.65461700  1
  O  O113  1  0.10203000  0.02137900  0.84538300  1
  O  O114  1  0.39797000  0.02137900  0.34538300  1
  O  O115  1  0.89797000  0.97862100  0.15461700  1
