# generated using pymatgen
data_VH8C2N2O6F
_symmetry_space_group_name_H-M   'P 1'
_cell_length_a   9.58382400
_cell_length_b   7.29852300
_cell_length_c   11.44350988
_cell_angle_alpha   84.97565179
_cell_angle_beta   90.00000000
_cell_angle_gamma   90.00000000
_symmetry_Int_Tables_number   1
_chemical_formula_structural   VH8C2N2O6F
_chemical_formula_sum   'V4 H32 C8 N8 O24 F4'
_cell_volume   797.37221685
_cell_formula_units_Z   4
loop_
 _symmetry_equiv_pos_site_id
 _symmetry_equiv_pos_as_xyz
  1  'x, y, z'
loop_
 _atom_site_type_symbol
 _atom_site_label
 _atom_site_symmetry_multiplicity
 _atom_site_fract_x
 _atom_site_fract_y
 _atom_site_fract_z
 _atom_site_occupancy
  V  V0  1  0.53178200  0.15291700  0.26337000  1
  V  V1  1  0.03178200  0.34708300  0.73663000  1
  V  V2  1  0.46821800  0.84708300  0.73663000  1
  V  V3  1  0.96821800  0.65291700  0.26337000  1
  H  H4  1  0.96079000  0.13781000  0.16522200  1
  H  H5  1  0.46079000  0.36219000  0.83477800  1
  H  H6  1  0.03921000  0.86219000  0.83477800  1
  H  H7  1  0.53921000  0.63781000  0.16522200  1
  H  H8  1  0.80419100  0.24738400  0.13599100  1
  H  H9  1  0.30419100  0.25261600  0.86400900  1
  H  H10  1  0.19580900  0.75261600  0.86400900  1
  H  H11  1  0.69580900  0.74738400  0.13599100  1
  H  H12  1  0.95750900  0.34443700  0.09140700  1
  H  H13  1  0.45750900  0.15556300  0.90859300  1
  H  H14  1  0.04249100  0.65556300  0.90859300  1
  H  H15  1  0.54249100  0.84443700  0.09140700  1
  H  H16  1  0.89571800  0.15823100  0.02799600  1
  H  H17  1  0.39571800  0.34176900  0.97200400  1
  H  H18  1  0.10428200  0.84176900  0.97200400  1
  H  H19  1  0.60428200  0.65823100  0.02799600  1
  H  H20  1  0.87990700  0.24215800  0.38664100  1
  H  H21  1  0.37990700  0.25784200  0.61335900  1
  H  H22  1  0.12009300  0.75784200  0.61335900  1
  H  H23  1  0.62009300  0.74215800  0.38664100  1
  H  H24  1  0.73949600  0.15073000  0.45485400  1
  H  H25  1  0.23949600  0.34927000  0.54514600  1
  H  H26  1  0.26050400  0.84927000  0.54514600  1
  H  H27  1  0.76050400  0.65073000  0.45485400  1
  H  H28  1  0.86914200  0.00813200  0.41781700  1
  H  H29  1  0.36914200  0.49186800  0.58218300  1
  H  H30  1  0.13085800  0.99186800  0.58218300  1
  H  H31  1  0.63085800  0.50813200  0.41781700  1
  H  H32  1  0.89420700  0.15005700  0.52578200  1
  H  H33  1  0.39420700  0.34994300  0.47421800  1
  H  H34  1  0.10579300  0.84994300  0.47421800  1
  H  H35  1  0.60579300  0.65005700  0.52578200  1
  C  C36  1  0.77427500  0.45018300  0.84439300  1
  C  C37  1  0.27427500  0.04981700  0.15560700  1
  C  C38  1  0.22572500  0.54981700  0.15560700  1
  C  C39  1  0.72572500  0.95018300  0.84439300  1
  C  C40  1  0.73057700  0.37623900  0.72652600  1
  C  C41  1  0.23057700  0.12376100  0.27347400  1
  C  C42  1  0.26942300  0.62376100  0.27347400  1
  C  C43  1  0.76942300  0.87623900  0.72652600  1
  N  N44  1  0.90437700  0.22159600  0.10483400  1
  N  N45  1  0.40437700  0.27840400  0.89516600  1
  N  N46  1  0.09562300  0.77840400  0.89516600  1
  N  N47  1  0.59562300  0.72159600  0.10483400  1
  N  N48  1  0.84605000  0.13545700  0.44658400  1
  N  N49  1  0.34605000  0.36454300  0.55341600  1
  N  N50  1  0.15395000  0.86454300  0.55341600  1
  N  N51  1  0.65395000  0.63545700  0.44658400  1
  O  O52  1  0.61721900  0.29468000  0.16753800  1
  O  O53  1  0.11721900  0.20532000  0.83246200  1
  O  O54  1  0.38278100  0.70532000  0.83246200  1
  O  O55  1  0.88278100  0.79468000  0.16753800  1
  O  O56  1  0.87358800  0.46395300  0.29219000  1
  O  O57  1  0.37358800  0.03604700  0.70781000  1
  O  O58  1  0.12641200  0.53604700  0.70781000  1
  O  O59  1  0.62641200  0.96395300  0.29219000  1
  O  O60  1  0.90916700  0.44852000  0.85981900  1
  O  O61  1  0.40916700  0.05148000  0.14018100  1
  O  O62  1  0.09083300  0.55148000  0.14018100  1
  O  O63  1  0.59083300  0.94852000  0.85981900  1
  O  O64  1  0.83739100  0.32755800  0.66590200  1
  O  O65  1  0.33739100  0.17244200  0.33409800  1
  O  O66  1  0.16260900  0.67244200  0.33409800  1
  O  O67  1  0.66260900  0.82755800  0.66590200  1
  O  O68  1  0.81306900  0.00517100  0.91289600  1
  O  O69  1  0.31306900  0.49482900  0.08710400  1
  O  O70  1  0.18693100  0.99482900  0.08710400  1
  O  O71  1  0.68693100  0.50517100  0.91289600  1
  O  O72  1  0.60704100  0.36870200  0.69641900  1
  O  O73  1  0.10704100  0.13129800  0.30358100  1
  O  O74  1  0.39295900  0.63129800  0.30358100  1
  O  O75  1  0.89295900  0.86870200  0.69641900  1
  F  F76  1  0.57422200  0.27077200  0.40319300  1
  F  F77  1  0.07422200  0.22922800  0.59680700  1
  F  F78  1  0.42577800  0.72922800  0.59680700  1
  F  F79  1  0.92577800  0.77077200  0.40319300  1
