# generated using pymatgen
data_Mo12PH24C6N3O40
_symmetry_space_group_name_H-M   'P 1'
_cell_length_a   12.89555338
_cell_length_b   12.89555338
_cell_length_c   12.89555381
_cell_angle_alpha   81.14966669
_cell_angle_beta   81.14966669
_cell_angle_gamma   81.14966505
_symmetry_Int_Tables_number   1
_chemical_formula_structural   Mo12PH24C6N3O40
_chemical_formula_sum   'Mo24 P2 H48 C12 N6 O80'
_cell_volume   2075.01229435
_cell_formula_units_Z   2
loop_
 _symmetry_equiv_pos_site_id
 _symmetry_equiv_pos_as_xyz
  1  'x, y, z'
loop_
 _atom_site_type_symbol
 _atom_site_label
 _atom_site_symmetry_multiplicity
 _atom_site_fract_x
 _atom_site_fract_y
 _atom_site_fract_z
 _atom_site_occupancy
  Mo  Mo0  1  0.69816800  0.92145800  0.92145800  1
  Mo  Mo1  1  0.92145800  0.69816800  0.92145800  1
  Mo  Mo2  1  0.92145800  0.92145800  0.69816800  1
  Mo  Mo3  1  0.30183200  0.07854200  0.07854200  1
  Mo  Mo4  1  0.07854200  0.30183200  0.07854200  1
  Mo  Mo5  1  0.07854200  0.07854200  0.30183200  1
  Mo  Mo6  1  0.51878300  0.95012600  0.74250800  1
  Mo  Mo7  1  0.74250800  0.51878300  0.95012600  1
  Mo  Mo8  1  0.95012600  0.74250800  0.51878300  1
  Mo  Mo9  1  0.74250800  0.95012600  0.51878300  1
  Mo  Mo10  1  0.51878300  0.74250800  0.95012600  1
  Mo  Mo11  1  0.95012600  0.51878300  0.74250800  1
  Mo  Mo12  1  0.48121700  0.04987400  0.25749200  1
  Mo  Mo13  1  0.25749200  0.48121700  0.04987400  1
  Mo  Mo14  1  0.04987400  0.25749200  0.48121700  1
  Mo  Mo15  1  0.25749200  0.04987400  0.48121700  1
  Mo  Mo16  1  0.48121700  0.25749200  0.04987400  1
  Mo  Mo17  1  0.04987400  0.48121700  0.25749200  1
  Mo  Mo18  1  0.54794500  0.75471200  0.54794500  1
  Mo  Mo19  1  0.54794500  0.54794500  0.75471200  1
  Mo  Mo20  1  0.75471200  0.54794500  0.54794500  1
  Mo  Mo21  1  0.45205500  0.24528800  0.45205500  1
  Mo  Mo22  1  0.45205500  0.45205500  0.24528800  1
  Mo  Mo23  1  0.24528800  0.45205500  0.45205500  1
  P  P24  1  0.73456500  0.73456500  0.73456500  1
  P  P25  1  0.26543500  0.26543500  0.26543500  1
  H  H26  1  0.29088700  0.19210800  0.66867400  1
  H  H27  1  0.66867400  0.29088700  0.19210800  1
  H  H28  1  0.19210800  0.66867400  0.29088700  1
  H  H29  1  0.66867400  0.19210800  0.29088700  1
  H  H30  1  0.29088700  0.66867400  0.19210800  1
  H  H31  1  0.19210800  0.29088700  0.66867400  1
  H  H32  1  0.70911300  0.80789200  0.33132600  1
  H  H33  1  0.33132600  0.70911300  0.80789200  1
  H  H34  1  0.80789200  0.33132600  0.70911300  1
  H  H35  1  0.33132600  0.80789200  0.70911300  1
  H  H36  1  0.70911300  0.33132600  0.80789200  1
  H  H37  1  0.80789200  0.70911300  0.33132600  1
  H  H38  1  0.12751100  0.12751100  0.74043100  1
  H  H39  1  0.74043100  0.12751100  0.12751100  1
  H  H40  1  0.12751100  0.74043100  0.12751100  1
  H  H41  1  0.87248900  0.87248900  0.25956900  1
  H  H42  1  0.25956900  0.87248900  0.87248900  1
  H  H43  1  0.87248900  0.25956900  0.87248900  1
  H  H44  1  0.21626000  0.10898700  0.83883600  1
  H  H45  1  0.83883600  0.21626000  0.10898700  1
  H  H46  1  0.10898700  0.83883600  0.21626000  1
  H  H47  1  0.83883600  0.10898700  0.21626000  1
  H  H48  1  0.21626000  0.83883600  0.10898700  1
  H  H49  1  0.10898700  0.21626000  0.83883600  1
  H  H50  1  0.78374000  0.89101300  0.16116400  1
  H  H51  1  0.16116400  0.78374000  0.89101300  1
  H  H52  1  0.89101300  0.16116400  0.78374000  1
  H  H53  1  0.16116400  0.89101300  0.78374000  1
  H  H54  1  0.78374000  0.16116400  0.89101300  1
  H  H55  1  0.89101300  0.78374000  0.16116400  1
  H  H56  1  0.34600700  0.34600700  0.71484700  1
  H  H57  1  0.71484700  0.34600700  0.34600700  1
  H  H58  1  0.34600700  0.71484700  0.34600700  1
  H  H59  1  0.65399300  0.65399300  0.28515300  1
  H  H60  1  0.28515300  0.65399300  0.65399300  1
  H  H61  1  0.65399300  0.28515300  0.65399300  1
  H  H62  1  0.24021000  0.34738900  0.82347600  1
  H  H63  1  0.82347600  0.24021000  0.34738900  1
  H  H64  1  0.34738900  0.82347600  0.24021000  1
  H  H65  1  0.82347600  0.34738900  0.24021000  1
  H  H66  1  0.24021000  0.82347600  0.34738900  1
  H  H67  1  0.34738900  0.24021000  0.82347600  1
  H  H68  1  0.75979000  0.65261100  0.17652400  1
  H  H69  1  0.17652400  0.75979000  0.65261100  1
  H  H70  1  0.65261100  0.17652400  0.75979000  1
  H  H71  1  0.17652400  0.65261100  0.75979000  1
  H  H72  1  0.75979000  0.17652400  0.65261100  1
  H  H73  1  0.65261100  0.75979000  0.17652400  1
  C  C74  1  0.16722300  0.16722300  0.78939300  1
  C  C75  1  0.78939300  0.16722300  0.16722300  1
  C  C76  1  0.16722300  0.78939300  0.16722300  1
  C  C77  1  0.83277700  0.83277700  0.21060700  1
  C  C78  1  0.21060700  0.83277700  0.83277700  1
  C  C79  1  0.83277700  0.21060700  0.83277700  1
  C  C80  1  0.29725900  0.29725900  0.77407900  1
  C  C81  1  0.77407900  0.29725900  0.29725900  1
  C  C82  1  0.29725900  0.77407900  0.29725900  1
  C  C83  1  0.70274100  0.70274100  0.22592100  1
  C  C84  1  0.22592100  0.70274100  0.70274100  1
  C  C85  1  0.70274100  0.22592100  0.70274100  1
  N  N86  1  0.23754400  0.23754400  0.71764100  1
  N  N87  1  0.71764100  0.23754400  0.23754400  1
  N  N88  1  0.23754400  0.71764100  0.23754400  1
  N  N89  1  0.76245600  0.76245600  0.28235900  1
  N  N90  1  0.28235900  0.76245600  0.76245600  1
  N  N91  1  0.76245600  0.28235900  0.76245600  1
  O  O92  1  0.71295500  0.00652200  0.00652200  1
  O  O93  1  0.00652200  0.71295500  0.00652200  1
  O  O94  1  0.00652200  0.00652200  0.71295500  1
  O  O95  1  0.28704500  0.99347800  0.99347800  1
  O  O96  1  0.99347800  0.28704500  0.99347800  1
  O  O97  1  0.99347800  0.99347800  0.28704500  1
  O  O98  1  0.80216900  0.80216900  0.95819600  1
  O  O99  1  0.95819600  0.80216900  0.80216900  1
  O  O100  1  0.80216900  0.95819600  0.80216900  1
  O  O101  1  0.19783100  0.19783100  0.04180400  1
  O  O102  1  0.04180400  0.19783100  0.19783100  1
  O  O103  1  0.19783100  0.04180400  0.19783100  1
  O  O104  1  0.58837600  0.00239800  0.84284200  1
  O  O105  1  0.84284200  0.58837600  0.00239800  1
  O  O106  1  0.00239800  0.84284200  0.58837600  1
  O  O107  1  0.84284200  0.00239800  0.58837600  1
  O  O108  1  0.58837600  0.84284200  0.00239800  1
  O  O109  1  0.00239800  0.58837600  0.84284200  1
  O  O110  1  0.41162400  0.99760200  0.15715800  1
  O  O111  1  0.15715800  0.41162400  0.99760200  1
  O  O112  1  0.99760200  0.15715800  0.41162400  1
  O  O113  1  0.15715800  0.99760200  0.41162400  1
  O  O114  1  0.41162400  0.15715800  0.99760200  1
  O  O115  1  0.99760200  0.41162400  0.15715800  1
  O  O116  1  0.63211900  0.98433400  0.63211900  1
  O  O117  1  0.63211900  0.63211900  0.98433400  1
  O  O118  1  0.98433400  0.63211900  0.63211900  1
  O  O119  1  0.36788100  0.01566600  0.36788100  1
  O  O120  1  0.36788100  0.36788100  0.01566600  1
  O  O121  1  0.01566600  0.36788100  0.36788100  1
  O  O122  1  0.45133800  0.86232900  0.86232900  1
  O  O123  1  0.86232900  0.45133800  0.86232900  1
  O  O124  1  0.86232900  0.86232900  0.45133800  1
  O  O125  1  0.54866200  0.13767100  0.13767100  1
  O  O126  1  0.13767100  0.54866200  0.13767100  1
  O  O127  1  0.13767100  0.13767100  0.54866200  1
  O  O128  1  0.41828600  0.05151400  0.72081700  1
  O  O129  1  0.72081700  0.41828600  0.05151400  1
  O  O130  1  0.05151400  0.72081700  0.41828600  1
  O  O131  1  0.72081700  0.05151400  0.41828600  1
  O  O132  1  0.41828600  0.72081700  0.05151400  1
  O  O133  1  0.05151400  0.41828600  0.72081700  1
  O  O134  1  0.58171400  0.94848600  0.27918300  1
  O  O135  1  0.27918300  0.58171400  0.94848600  1
  O  O136  1  0.94848600  0.27918300  0.58171400  1
  O  O137  1  0.27918300  0.94848600  0.58171400  1
  O  O138  1  0.58171400  0.27918300  0.94848600  1
  O  O139  1  0.94848600  0.58171400  0.27918300  1
  O  O140  1  0.49538000  0.84931600  0.65310800  1
  O  O141  1  0.65310800  0.49538000  0.84931600  1
  O  O142  1  0.84931600  0.65310800  0.49538000  1
  O  O143  1  0.65310800  0.84931600  0.49538000  1
  O  O144  1  0.49538000  0.65310800  0.84931600  1
  O  O145  1  0.84931600  0.49538000  0.65310800  1
  O  O146  1  0.50462000  0.15068400  0.34689200  1
  O  O147  1  0.34689200  0.50462000  0.15068400  1
  O  O148  1  0.15068400  0.34689200  0.50462000  1
  O  O149  1  0.34689200  0.15068400  0.50462000  1
  O  O150  1  0.50462000  0.34689200  0.15068400  1
  O  O151  1  0.15068400  0.50462000  0.34689200  1
  O  O152  1  0.64305900  0.64305900  0.48302400  1
  O  O153  1  0.48302400  0.64305900  0.64305900  1
  O  O154  1  0.64305900  0.48302400  0.64305900  1
  O  O155  1  0.35694100  0.35694100  0.51697600  1
  O  O156  1  0.51697600  0.35694100  0.35694100  1
  O  O157  1  0.35694100  0.51697600  0.35694100  1
  O  O158  1  0.45902900  0.78967900  0.45902900  1
  O  O159  1  0.45902900  0.45902900  0.78967900  1
  O  O160  1  0.78967900  0.45902900  0.45902900  1
  O  O161  1  0.54097100  0.21032100  0.54097100  1
  O  O162  1  0.54097100  0.54097100  0.21032100  1
  O  O163  1  0.21032100  0.54097100  0.54097100  1
  O  O164  1  0.65418400  0.80498200  0.80498200  1
  O  O165  1  0.80498200  0.65418400  0.80498200  1
  O  O166  1  0.80498200  0.80498200  0.65418400  1
  O  O167  1  0.34581600  0.19501800  0.19501800  1
  O  O168  1  0.19501800  0.34581600  0.19501800  1
  O  O169  1  0.19501800  0.19501800  0.34581600  1
  O  O170  1  0.67396800  0.67396800  0.67396800  1
  O  O171  1  0.32603200  0.32603200  0.32603200  1
