# generated using pymatgen
data_CaMgUH24C3O23
_symmetry_space_group_name_H-M   'P 1'
_cell_length_a   14.79046300
_cell_length_b   6.49048200
_cell_length_c   11.22040383
_cell_angle_alpha   80.31295026
_cell_angle_beta   90.00000000
_cell_angle_gamma   90.00000000
_symmetry_Int_Tables_number   1
_chemical_formula_structural   CaMgUH24C3O23
_chemical_formula_sum   'Ca2 Mg2 U2 H48 C6 O46'
_cell_volume   1061.76953348
_cell_formula_units_Z   2
loop_
 _symmetry_equiv_pos_site_id
 _symmetry_equiv_pos_as_xyz
  1  'x, y, z'
loop_
 _atom_site_type_symbol
 _atom_site_label
 _atom_site_symmetry_multiplicity
 _atom_site_fract_x
 _atom_site_fract_y
 _atom_site_fract_z
 _atom_site_occupancy
  Ca  Ca0  1  0.25000000  0.22041600  0.58643900  1
  Ca  Ca1  1  0.75000000  0.77958400  0.41356100  1
  Mg  Mg2  1  0.50000000  0.00000000  0.00000000  1
  Mg  Mg3  1  0.00000000  0.00000000  0.00000000  1
  U  U4  1  0.25000000  0.44911300  0.22030300  1
  U  U5  1  0.75000000  0.55088700  0.77969700  1
  H  H6  1  0.25000000  0.90146800  0.40482600  1
  H  H7  1  0.75000000  0.09853200  0.59517400  1
  H  H8  1  0.25000000  0.76137000  0.53331800  1
  H  H9  1  0.75000000  0.23863000  0.46668200  1
  H  H10  1  0.25000000  0.89526900  0.80824700  1
  H  H11  1  0.75000000  0.10473100  0.19175300  1
  H  H12  1  0.25000000  0.09109300  0.86695900  1
  H  H13  1  0.75000000  0.90890700  0.13304100  1
  H  H14  1  0.44939800  0.16657500  0.55725500  1
  H  H15  1  0.94939800  0.83342500  0.44274500  1
  H  H16  1  0.55060200  0.83342500  0.44274500  1
  H  H17  1  0.05060200  0.16657500  0.55725500  1
  H  H18  1  0.44105600  0.93591800  0.62108400  1
  H  H19  1  0.94105600  0.06408200  0.37891600  1
  H  H20  1  0.55894400  0.06408200  0.37891600  1
  H  H21  1  0.05894400  0.93591800  0.62108400  1
  H  H22  1  0.33061000  0.52831500  0.73091600  1
  H  H23  1  0.83061000  0.47168500  0.26908400  1
  H  H24  1  0.66939000  0.47168500  0.26908400  1
  H  H25  1  0.16939000  0.52831500  0.73091600  1
  H  H26  1  0.40541900  0.55330000  0.62785600  1
  H  H27  1  0.90541900  0.44670000  0.37214400  1
  H  H28  1  0.59458100  0.44670000  0.37214400  1
  H  H29  1  0.09458100  0.55330000  0.62785600  1
  H  H30  1  0.41635300  0.65362800  0.94662000  1
  H  H31  1  0.91635300  0.34637200  0.05338000  1
  H  H32  1  0.58364700  0.34637200  0.05338000  1
  H  H33  1  0.08364700  0.65362800  0.94662000  1
  H  H34  1  0.50675700  0.67652600  0.86310500  1
  H  H35  1  0.00675700  0.32347400  0.13689500  1
  H  H36  1  0.49324300  0.32347400  0.13689500  1
  H  H37  1  0.99324300  0.67652600  0.86310500  1
  H  H38  1  0.47850900  0.67606700  0.19555900  1
  H  H39  1  0.97850900  0.32393300  0.80444100  1
  H  H40  1  0.52149100  0.32393300  0.80444100  1
  H  H41  1  0.02149100  0.67606700  0.19555900  1
  H  H42  1  0.53450300  0.86249100  0.24034800  1
  H  H43  1  0.03450300  0.13750900  0.75965200  1
  H  H44  1  0.46549700  0.13750900  0.75965200  1
  H  H45  1  0.96549700  0.86249100  0.24034800  1
  H  H46  1  0.33498700  0.00044500  0.10002500  1
  H  H47  1  0.83498700  0.99955500  0.89997500  1
  H  H48  1  0.66501300  0.99955500  0.89997500  1
  H  H49  1  0.16501300  0.00044500  0.10002500  1
  H  H50  1  0.35074400  0.20255700  0.00756600  1
  H  H51  1  0.85074400  0.79744300  0.99243400  1
  H  H52  1  0.64925600  0.79744300  0.99243400  1
  H  H53  1  0.14925600  0.20255700  0.00756600  1
  C  C54  1  0.25000000  0.54714300  0.95508500  1
  C  C55  1  0.75000000  0.45285700  0.04491500  1
  C  C56  1  0.41887000  0.36421600  0.35448800  1
  C  C57  1  0.91887000  0.63578400  0.64551200  1
  C  C58  1  0.58113000  0.63578400  0.64551200  1
  C  C59  1  0.08113000  0.36421600  0.35448800  1
  O  O60  1  0.25000000  0.72694400  0.22845700  1
  O  O61  1  0.75000000  0.27305600  0.77154300  1
  O  O62  1  0.25000000  0.17111300  0.20966400  1
  O  O63  1  0.75000000  0.82888700  0.79033600  1
  O  O64  1  0.32464000  0.50992000  0.01833500  1
  O  O65  1  0.82464000  0.49008000  0.98166500  1
  O  O66  1  0.67536000  0.49008000  0.98166500  1
  O  O67  1  0.17536000  0.50992000  0.01833500  1
  O  O68  1  0.25000000  0.61237900  0.84186900  1
  O  O69  1  0.75000000  0.38762100  0.15813100  1
  O  O70  1  0.41861900  0.43296900  0.23706700  1
  O  O71  1  0.91861900  0.56703100  0.76293300  1
  O  O72  1  0.58138100  0.56703100  0.76293300  1
  O  O73  1  0.08138100  0.43296900  0.23706700  1
  O  O74  1  0.33882900  0.36079300  0.40407400  1
  O  O75  1  0.83882900  0.63920700  0.59592600  1
  O  O76  1  0.66117100  0.63920700  0.59592600  1
  O  O77  1  0.16117100  0.36079300  0.40407400  1
  O  O78  1  0.48991400  0.30494600  0.41418200  1
  O  O79  1  0.98991400  0.69505400  0.58581800  1
  O  O80  1  0.51008600  0.69505400  0.58581800  1
  O  O81  1  0.01008600  0.30494600  0.41418200  1
  O  O82  1  0.25000000  0.90635500  0.49133000  1
  O  O83  1  0.75000000  0.09364500  0.50867000  1
  O  O84  1  0.25000000  0.04952500  0.78815100  1
  O  O85  1  0.75000000  0.95047500  0.21184900  1
  O  O86  1  0.42057700  0.07706500  0.62802700  1
  O  O87  1  0.92057700  0.92293500  0.37197300  1
  O  O88  1  0.57942300  0.92293500  0.37197300  1
  O  O89  1  0.07942300  0.07706500  0.62802700  1
  O  O90  1  0.34536400  0.49255500  0.65151900  1
  O  O91  1  0.84536400  0.50744500  0.34848100  1
  O  O92  1  0.65463600  0.50744500  0.34848100  1
  O  O93  1  0.15463600  0.49255500  0.65151900  1
  O  O94  1  0.46782500  0.74584700  0.91621400  1
  O  O95  1  0.96782500  0.25415300  0.08378600  1
  O  O96  1  0.53217500  0.25415300  0.08378600  1
  O  O97  1  0.03217500  0.74584700  0.91621400  1
  O  O98  1  0.50425200  0.81697600  0.16951200  1
  O  O99  1  0.00425200  0.18302400  0.83048800  1
  O  O100  1  0.49574800  0.18302400  0.83048800  1
  O  O101  1  0.99574800  0.81697600  0.16951200  1
  O  O102  1  0.35973000  0.05050200  0.01928400  1
  O  O103  1  0.85973000  0.94949800  0.98071600  1
  O  O104  1  0.64027000  0.94949800  0.98071600  1
  O  O105  1  0.14027000  0.05050200  0.01928400  1
