# generated using pymatgen
data_Cs3Mg3In(PO3)12
_symmetry_space_group_name_H-M   'P 1'
_cell_length_a   9.66446041
_cell_length_b   9.66446041
_cell_length_c   12.64823564
_cell_angle_alpha   58.42281199
_cell_angle_beta   58.42281199
_cell_angle_gamma   62.88367315
_symmetry_Int_Tables_number   1
_chemical_formula_structural   Cs3Mg3In(PO3)12
_chemical_formula_sum   'Cs3 Mg3 In1 P12 O36'
_cell_volume   830.15888766
_cell_formula_units_Z   1
loop_
 _symmetry_equiv_pos_site_id
 _symmetry_equiv_pos_as_xyz
  1  'x, y, z'
loop_
 _atom_site_type_symbol
 _atom_site_label
 _atom_site_symmetry_multiplicity
 _atom_site_fract_x
 _atom_site_fract_y
 _atom_site_fract_z
 _atom_site_occupancy
  Cs  Cs0  1  0.21155300  0.79045300  0.99491700  1
  Cs  Cs1  1  0.00410800  0.00410800  0.50157300  1
  Cs  Cs2  1  0.79045300  0.21155300  0.99491700  1
  Mg  Mg3  1  0.75120300  0.75120300  0.92321800  1
  Mg  Mg4  1  0.20382200  0.20382200  0.59410800  1
  Mg  Mg5  1  0.24811000  0.24811000  0.07563400  1
  In  In6  1  0.79430300  0.79430300  0.40807200  1
  P  P7  1  0.76244500  0.76244500  0.16807400  1
  P  P8  1  0.57929700  0.16179600  0.80455500  1
  P  P9  1  0.20048100  0.60175400  0.36737200  1
  P  P10  1  0.83818200  0.41795200  0.19634500  1
  P  P11  1  0.60175400  0.20048100  0.36737200  1
  P  P12  1  0.32934700  0.32934700  0.27160200  1
  P  P13  1  0.66704800  0.66704800  0.73250500  1
  P  P14  1  0.39060300  0.80270700  0.63422900  1
  P  P15  1  0.16179600  0.57929700  0.80455500  1
  P  P16  1  0.80270700  0.39060300  0.63422900  1
  P  P17  1  0.41795200  0.83818200  0.19634500  1
  P  P18  1  0.23640100  0.23640100  0.82875200  1
  O  O19  1  0.82048200  0.82048200  0.01969400  1
  O  O20  1  0.94755600  0.24440700  0.66137900  1
  O  O21  1  0.81816700  0.56220000  0.23731100  1
  O  O22  1  0.49697200  0.80330800  0.07008500  1
  O  O23  1  0.35008200  0.67387900  0.32424200  1
  O  O24  1  0.43647000  0.18923300  0.75984800  1
  O  O25  1  0.17317500  0.46769600  0.50332400  1
  O  O26  1  0.80330800  0.49697200  0.07008500  1
  O  O27  1  0.70641100  0.00203200  0.79123500  1
  O  O28  1  0.99726900  0.28985900  0.20886900  1
  O  O29  1  0.67387900  0.35008200  0.32424200  1
  O  O30  1  0.27202100  0.52480800  0.25523200  1
  O  O31  1  0.17297400  0.17297400  0.78025600  1
  O  O32  1  0.46769600  0.17317500  0.50332400  1
  O  O33  1  0.52480800  0.27202100  0.25523200  1
  O  O34  1  0.75431700  0.05921700  0.33569300  1
  O  O35  1  0.22788100  0.22788100  0.40868200  1
  O  O36  1  0.33545300  0.33545300  0.14841300  1
  O  O37  1  0.65985000  0.65985000  0.85603100  1
  O  O38  1  0.77215000  0.77215000  0.59714900  1
  O  O39  1  0.24440700  0.94755600  0.66137900  1
  O  O40  1  0.47780600  0.72307100  0.74255300  1
  O  O41  1  0.52464700  0.82760900  0.49574500  1
  O  O42  1  0.82906200  0.82906200  0.21380600  1
  O  O43  1  0.72307100  0.47780600  0.74255300  1
  O  O44  1  0.32227500  0.65201600  0.67504100  1
  O  O45  1  0.00203200  0.70641100  0.79123500  1
  O  O46  1  0.28985900  0.99726900  0.20886900  1
  O  O47  1  0.19506100  0.50223900  0.92908000  1
  O  O48  1  0.82760900  0.52464700  0.49574500  1
  O  O49  1  0.56220000  0.81816700  0.23731100  1
  O  O50  1  0.65201600  0.32227500  0.67504100  1
  O  O51  1  0.50223900  0.19506100  0.92908000  1
  O  O52  1  0.18923300  0.43647000  0.75984800  1
  O  O53  1  0.05921700  0.75431700  0.33569300  1
  O  O54  1  0.17973100  0.17973100  0.97781000  1
