# generated using pymatgen
data_P
_symmetry_space_group_name_H-M   'P 1'
_cell_length_a   3.57133935
_cell_length_b   3.57133935
_cell_length_c   3.57133935
_cell_angle_alpha   122.65512225
_cell_angle_beta   117.18760187
_cell_angle_gamma   90.20130991
_symmetry_Int_Tables_number   1
_chemical_formula_structural   P
_chemical_formula_sum   P2
_cell_volume   32.15573096
_cell_formula_units_Z   2
loop_
 _symmetry_equiv_pos_site_id
 _symmetry_equiv_pos_as_xyz
  1  'x, y, z'
loop_
 _atom_site_type_symbol
 _atom_site_label
 _atom_site_symmetry_multiplicity
 _atom_site_fract_x
 _atom_site_fract_y
 _atom_site_fract_z
 _atom_site_occupancy
  P  P0  1  0.19931800  0.75000000  0.44931800  1
  P  P1  1  0.80068200  0.25000000  0.55068200  1
