# generated using pymatgen
data_CaZn2H12(BrO)6
_symmetry_space_group_name_H-M   'P 1'
_cell_length_a   8.64975485
_cell_length_b   8.64975485
_cell_length_c   14.11669209
_cell_angle_alpha   73.63237689
_cell_angle_beta   73.63237689
_cell_angle_gamma   79.01083970
_symmetry_Int_Tables_number   1
_chemical_formula_structural   CaZn2H12(BrO)6
_chemical_formula_sum   'Ca2 Zn4 H24 Br12 O12'
_cell_volume   965.19260469
_cell_formula_units_Z   2
loop_
 _symmetry_equiv_pos_site_id
 _symmetry_equiv_pos_as_xyz
  1  'x, y, z'
loop_
 _atom_site_type_symbol
 _atom_site_label
 _atom_site_symmetry_multiplicity
 _atom_site_fract_x
 _atom_site_fract_y
 _atom_site_fract_z
 _atom_site_occupancy
  Ca  Ca0  1  0.42929200  0.42929200  0.72316100  1
  Ca  Ca1  1  0.57070800  0.57070800  0.27683900  1
  Zn  Zn2  1  0.04220000  0.04220000  0.68714400  1
  Zn  Zn3  1  0.95780000  0.95780000  0.31285600  1
  Zn  Zn4  1  0.77752700  0.77752700  0.83955500  1
  Zn  Zn5  1  0.22247300  0.22247300  0.16044500  1
  H  H6  1  0.12554900  0.26872900  0.84788700  1
  H  H7  1  0.26872900  0.12554900  0.84788700  1
  H  H8  1  0.87445100  0.73127100  0.15211300  1
  H  H9  1  0.73127100  0.87445100  0.15211300  1
  H  H10  1  0.35543600  0.67876300  0.84927400  1
  H  H11  1  0.67876300  0.35543600  0.84927400  1
  H  H12  1  0.64456400  0.32123700  0.15072600  1
  H  H13  1  0.32123700  0.64456400  0.15072600  1
  H  H14  1  0.22766400  0.55837500  0.90397700  1
  H  H15  1  0.55837500  0.22766400  0.90397700  1
  H  H16  1  0.77233600  0.44162500  0.09602300  1
  H  H17  1  0.44162500  0.77233600  0.09602300  1
  H  H18  1  0.59157500  0.73401100  0.60101000  1
  H  H19  1  0.73401100  0.59157500  0.60101000  1
  H  H20  1  0.40842500  0.26598900  0.39899000  1
  H  H21  1  0.26598900  0.40842500  0.39899000  1
  H  H22  1  0.20450200  0.67387300  0.61358800  1
  H  H23  1  0.67387300  0.20450200  0.61358800  1
  H  H24  1  0.79549800  0.32612700  0.38641200  1
  H  H25  1  0.32612700  0.79549800  0.38641200  1
  H  H26  1  0.14608500  0.50801100  0.62074700  1
  H  H27  1  0.50801100  0.14608500  0.62074700  1
  H  H28  1  0.85391500  0.49198900  0.37925300  1
  H  H29  1  0.49198900  0.85391500  0.37925300  1
  Br  Br30  1  0.94649100  0.94649100  0.87575900  1
  Br  Br31  1  0.05350900  0.05350900  0.12424100  1
  Br  Br32  1  0.87096600  0.87096600  0.64973600  1
  Br  Br33  1  0.12903400  0.12903400  0.35026400  1
  Br  Br34  1  0.95965300  0.32182200  0.61870200  1
  Br  Br35  1  0.32182200  0.95965300  0.61870200  1
  Br  Br36  1  0.04034700  0.67817800  0.38129800  1
  Br  Br37  1  0.67817800  0.04034700  0.38129800  1
  Br  Br38  1  0.49251800  0.85657100  0.89797400  1
  Br  Br39  1  0.85657100  0.49251800  0.89797400  1
  Br  Br40  1  0.50748200  0.14342900  0.10202600  1
  Br  Br41  1  0.14342900  0.50748200  0.10202600  1
  O  O42  1  0.24293700  0.24293700  0.82523600  1
  O  O43  1  0.75706300  0.75706300  0.17476400  1
  O  O44  1  0.30424200  0.59458600  0.83871400  1
  O  O45  1  0.59458600  0.30424200  0.83871400  1
  O  O46  1  0.69575800  0.40541400  0.16128600  1
  O  O47  1  0.40541400  0.69575800  0.16128600  1
  O  O48  1  0.61604000  0.61604000  0.61969900  1
  O  O49  1  0.38396000  0.38396000  0.38030100  1
  O  O50  1  0.23772000  0.55722700  0.62373000  1
  O  O51  1  0.55722700  0.23772000  0.62373000  1
  O  O52  1  0.76228000  0.44277300  0.37627000  1
  O  O53  1  0.44277300  0.76228000  0.37627000  1
