# generated using pymatgen
data_Rb2CaH8(N3O)4
_symmetry_space_group_name_H-M   'P 1'
_cell_length_a   11.30211090
_cell_length_b   11.30211090
_cell_length_c   6.32673700
_cell_angle_alpha   90.00000000
_cell_angle_beta   90.00000000
_cell_angle_gamma   120.41539683
_symmetry_Int_Tables_number   1
_chemical_formula_structural   Rb2CaH8(N3O)4
_chemical_formula_sum   'Rb4 Ca2 H16 N24 O8'
_cell_volume   696.94162721
_cell_formula_units_Z   2
loop_
 _symmetry_equiv_pos_site_id
 _symmetry_equiv_pos_as_xyz
  1  'x, y, z'
loop_
 _atom_site_type_symbol
 _atom_site_label
 _atom_site_symmetry_multiplicity
 _atom_site_fract_x
 _atom_site_fract_y
 _atom_site_fract_z
 _atom_site_occupancy
  Rb  Rb0  1  0.33144600  0.66855400  0.00000000  1
  Rb  Rb1  1  0.16855400  0.83144600  0.50000000  1
  Rb  Rb2  1  0.83144600  0.16855400  0.50000000  1
  Rb  Rb3  1  0.66855400  0.33144600  0.00000000  1
  Ca  Ca4  1  0.00000000  0.00000000  0.00000000  1
  Ca  Ca5  1  0.50000000  0.50000000  0.50000000  1
  H  H6  1  0.28188800  0.12389500  0.14774000  1
  H  H7  1  0.62389500  0.78188800  0.64774000  1
  H  H8  1  0.37610500  0.21811200  0.64774000  1
  H  H9  1  0.71811200  0.87610500  0.14774000  1
  H  H10  1  0.21811200  0.37610500  0.35226000  1
  H  H11  1  0.87610500  0.71811200  0.85226000  1
  H  H12  1  0.12389500  0.28188800  0.85226000  1
  H  H13  1  0.78188800  0.62389500  0.35226000  1
  H  H14  1  0.27253100  0.00166900  0.01567900  1
  H  H15  1  0.50166900  0.77253100  0.51567900  1
  H  H16  1  0.49833100  0.22746900  0.51567900  1
  H  H17  1  0.72746900  0.99833100  0.01567900  1
  H  H18  1  0.22746900  0.49833100  0.48432100  1
  H  H19  1  0.99833100  0.72746900  0.98432100  1
  H  H20  1  0.00166900  0.27253100  0.98432100  1
  H  H21  1  0.77253100  0.50166900  0.48432100  1
  N  N22  1  0.38016200  0.95580900  0.85040100  1
  N  N23  1  0.45580900  0.88016200  0.35040100  1
  N  N24  1  0.54419100  0.11983800  0.35040100  1
  N  N25  1  0.61983800  0.04419100  0.85040100  1
  N  N26  1  0.11983800  0.54419100  0.64959900  1
  N  N27  1  0.04419100  0.61983800  0.14959900  1
  N  N28  1  0.95580900  0.38016200  0.14959900  1
  N  N29  1  0.88016200  0.45580900  0.64959900  1
  N  N30  1  0.50000000  0.00000000  0.85152500  1
  N  N31  1  0.50000000  0.00000000  0.35152500  1
  N  N32  1  0.00000000  0.50000000  0.64847500  1
  N  N33  1  0.00000000  0.50000000  0.14847500  1
  N  N34  1  0.33230300  0.40287400  0.84783100  1
  N  N35  1  0.90287400  0.83230300  0.34783100  1
  N  N36  1  0.09712600  0.16769700  0.34783100  1
  N  N37  1  0.66769700  0.59712600  0.84783100  1
  N  N38  1  0.16769700  0.09712600  0.65216900  1
  N  N39  1  0.59712600  0.66769700  0.15216900  1
  N  N40  1  0.40287400  0.33230300  0.15216900  1
  N  N41  1  0.83230300  0.90287400  0.65216900  1
  N  N42  1  0.86774000  0.86774000  0.50000000  1
  N  N43  1  0.36774000  0.36774000  0.00000000  1
  N  N44  1  0.63226000  0.63226000  0.00000000  1
  N  N45  1  0.13226000  0.13226000  0.50000000  1
  O  O46  1  0.21814000  0.02732700  0.10873000  1
  O  O47  1  0.52732700  0.71814000  0.60873000  1
  O  O48  1  0.47267300  0.28186000  0.60873000  1
  O  O49  1  0.78186000  0.97267300  0.10873000  1
  O  O50  1  0.28186000  0.47267300  0.39127000  1
  O  O51  1  0.97267300  0.78186000  0.89127000  1
  O  O52  1  0.02732700  0.21814000  0.89127000  1
  O  O53  1  0.71814000  0.52732700  0.39127000  1
