# generated using pymatgen
data_CuP2(H2O3)2
_symmetry_space_group_name_H-M   'P 1'
_cell_length_a   9.48455800
_cell_length_b   8.27389400
_cell_length_c   8.85147271
_cell_angle_alpha   67.14764785
_cell_angle_beta   90.00000000
_cell_angle_gamma   90.00000000
_symmetry_Int_Tables_number   1
_chemical_formula_structural   CuP2(H2O3)2
_chemical_formula_sum   'Cu4 P8 H16 O24'
_cell_volume   640.09143795
_cell_formula_units_Z   4
loop_
 _symmetry_equiv_pos_site_id
 _symmetry_equiv_pos_as_xyz
  1  'x, y, z'
loop_
 _atom_site_type_symbol
 _atom_site_label
 _atom_site_symmetry_multiplicity
 _atom_site_fract_x
 _atom_site_fract_y
 _atom_site_fract_z
 _atom_site_occupancy
  Cu  Cu0  1  0.10206600  0.15292500  0.31875200  1
  Cu  Cu1  1  0.60206600  0.34707500  0.68124800  1
  Cu  Cu2  1  0.89793400  0.84707500  0.68124800  1
  Cu  Cu3  1  0.39793400  0.65292500  0.31875200  1
  P  P4  1  0.15159700  0.72063700  0.50529500  1
  P  P5  1  0.65159700  0.77936300  0.49470500  1
  P  P6  1  0.84840300  0.27936300  0.49470500  1
  P  P7  1  0.34840300  0.22063700  0.50529500  1
  P  P8  1  0.01723400  0.75521000  0.04964800  1
  P  P9  1  0.51723400  0.74479000  0.95035200  1
  P  P10  1  0.98276600  0.24479000  0.95035200  1
  P  P11  1  0.48276600  0.25521000  0.04964800  1
  H  H12  1  0.08113100  0.59716600  0.45830300  1
  H  H13  1  0.58113100  0.90283400  0.54169700  1
  H  H14  1  0.91886900  0.40283400  0.54169700  1
  H  H15  1  0.41886900  0.09716600  0.45830300  1
  H  H16  1  0.14929700  0.82623200  0.98847000  1
  H  H17  1  0.64929700  0.67376800  0.01153000  1
  H  H18  1  0.85070300  0.17376800  0.01153000  1
  H  H19  1  0.35070300  0.32623200  0.98847000  1
  H  H20  1  0.52006800  0.96958800  0.22351000  1
  H  H21  1  0.02006800  0.53041200  0.77649000  1
  H  H22  1  0.47993200  0.03041200  0.77649000  1
  H  H23  1  0.97993200  0.46958800  0.22351000  1
  H  H24  1  0.51075200  0.63285700  0.75732400  1
  H  H25  1  0.01075200  0.86714300  0.24267600  1
  H  H26  1  0.48924800  0.36714300  0.24267600  1
  H  H27  1  0.98924800  0.13285700  0.75732400  1
  O  O28  1  0.10668400  0.89970200  0.36949000  1
  O  O29  1  0.60668400  0.60029800  0.63051000  1
  O  O30  1  0.89331600  0.10029800  0.63051000  1
  O  O31  1  0.39331600  0.39970200  0.36949000  1
  O  O32  1  0.31075300  0.68427900  0.50078500  1
  O  O33  1  0.81075300  0.81572100  0.49921500  1
  O  O34  1  0.68924700  0.31572100  0.49921500  1
  O  O35  1  0.18924700  0.18427900  0.50078500  1
  O  O36  1  0.09747600  0.69905900  0.67664300  1
  O  O37  1  0.59747600  0.80094100  0.32335700  1
  O  O38  1  0.90252400  0.30094100  0.32335700  1
  O  O39  1  0.40252400  0.19905900  0.67664300  1
  O  O40  1  0.41354300  0.73212900  0.08586200  1
  O  O41  1  0.91354300  0.76787100  0.91413800  1
  O  O42  1  0.58645700  0.26787100  0.91413800  1
  O  O43  1  0.08645700  0.23212900  0.08586200  1
  O  O44  1  0.45068300  0.64547200  0.84907800  1
  O  O45  1  0.95068300  0.85452800  0.15092200  1
  O  O46  1  0.54931700  0.35452800  0.15092200  1
  O  O47  1  0.04931700  0.14547200  0.84907800  1
  O  O48  1  0.05589500  0.56376700  0.16620200  1
  O  O49  1  0.55589500  0.93623300  0.83379800  1
  O  O50  1  0.94410500  0.43623300  0.83379800  1
  O  O51  1  0.44410500  0.06376700  0.16620200  1
