# generated using pymatgen
data_Na2Ni(H7N3)2
_symmetry_space_group_name_H-M   'P 1'
_cell_length_a   8.55839798
_cell_length_b   8.55839798
_cell_length_c   8.55839798
_cell_angle_alpha   116.07414281
_cell_angle_beta   116.07414281
_cell_angle_gamma   96.94591114
_symmetry_Int_Tables_number   1
_chemical_formula_structural   Na2Ni(H7N3)2
_chemical_formula_sum   'Na4 Ni2 H28 N12'
_cell_volume   465.85738196
_cell_formula_units_Z   2
loop_
 _symmetry_equiv_pos_site_id
 _symmetry_equiv_pos_as_xyz
  1  'x, y, z'
loop_
 _atom_site_type_symbol
 _atom_site_label
 _atom_site_symmetry_multiplicity
 _atom_site_fract_x
 _atom_site_fract_y
 _atom_site_fract_z
 _atom_site_occupancy
  Na  Na0  1  0.73517500  0.60038300  0.33555800  1
  Na  Na1  1  0.39961700  0.73517500  0.13479200  1
  Na  Na2  1  0.60038300  0.26482500  0.86520800  1
  Na  Na3  1  0.26482500  0.39961700  0.66444200  1
  Ni  Ni4  1  0.32419900  0.32419900  0.00000000  1
  Ni  Ni5  1  0.67580100  0.67580100  0.00000000  1
  H  H6  1  0.91181500  0.14585000  0.20154800  1
  H  H7  1  0.64368500  0.91422200  0.55790800  1
  H  H8  1  0.90506400  0.52357900  0.03062300  1
  H  H9  1  0.50704400  0.12555900  0.03062300  1
  H  H10  1  0.28973300  0.08818500  0.23403500  1
  H  H11  1  0.54113700  0.26519400  0.25345600  1
  H  H12  1  0.98826300  0.71231900  0.25345600  1
  H  H13  1  0.91422200  0.35631500  0.27053700  1
  H  H14  1  0.85415000  0.05569800  0.76596500  1
  H  H15  1  0.47642100  0.50704400  0.38148500  1
  H  H16  1  0.87444100  0.90506400  0.38148500  1
  H  H17  1  0.05569800  0.28973300  0.20154800  1
  H  H18  1  0.71231900  0.45886300  0.72405700  1
  H  H19  1  0.26519400  0.01173700  0.72405700  1
  H  H20  1  0.28768100  0.54113700  0.27594300  1
  H  H21  1  0.73480600  0.98826300  0.27594300  1
  H  H22  1  0.94430200  0.71026700  0.79845200  1
  H  H23  1  0.12555900  0.09493600  0.61851500  1
  H  H24  1  0.52357900  0.49295600  0.61851500  1
  H  H25  1  0.14585000  0.94430200  0.23403500  1
  H  H26  1  0.08577800  0.64368500  0.72946300  1
  H  H27  1  0.45886300  0.73480600  0.74654400  1
  H  H28  1  0.01173700  0.28768100  0.74654400  1
  H  H29  1  0.71026700  0.91181500  0.76596500  1
  H  H30  1  0.09493600  0.47642100  0.96937700  1
  H  H31  1  0.49295600  0.87444100  0.96937700  1
  H  H32  1  0.35631500  0.08577800  0.44209200  1
  H  H33  1  0.08818500  0.85415000  0.79845200  1
  N  N34  1  0.86555900  0.59644800  0.12994400  1
  N  N35  1  0.53349500  0.26438500  0.12994400  1
  N  N36  1  0.00185600  0.28397500  0.28583100  1
  N  N37  1  0.40355200  0.53349500  0.26911000  1
  N  N38  1  0.73561500  0.86555900  0.26911000  1
  N  N39  1  0.71602500  0.00185600  0.71788100  1
  N  N40  1  0.28397500  0.99814400  0.28211900  1
  N  N41  1  0.59644800  0.46650500  0.73089000  1
  N  N42  1  0.26438500  0.13444100  0.73089000  1
  N  N43  1  0.99814400  0.71602500  0.71416900  1
  N  N44  1  0.13444100  0.40355200  0.87005600  1
  N  N45  1  0.46650500  0.73561500  0.87005600  1
