# generated using pymatgen
data_Ca7Si6H4CO23
_symmetry_space_group_name_H-M   'P 1'
_cell_length_a   9.47227711
_cell_length_b   9.47227711
_cell_length_c   6.69318619
_cell_angle_alpha   75.43674315
_cell_angle_beta   75.43674315
_cell_angle_gamma   108.17625913
_symmetry_Int_Tables_number   1
_chemical_formula_structural   Ca7Si6H4CO23
_chemical_formula_sum   'Ca7 Si6 H4 C1 O23'
_cell_volume   515.48340544
_cell_formula_units_Z   1
loop_
 _symmetry_equiv_pos_site_id
 _symmetry_equiv_pos_as_xyz
  1  'x, y, z'
loop_
 _atom_site_type_symbol
 _atom_site_label
 _atom_site_symmetry_multiplicity
 _atom_site_fract_x
 _atom_site_fract_y
 _atom_site_fract_z
 _atom_site_occupancy
  Ca  Ca0  1  0.99803500  0.99803500  0.54005200  1
  Ca  Ca1  1  0.32701300  0.05710700  0.99931400  1
  Ca  Ca2  1  0.05710700  0.32701300  0.99931400  1
  Ca  Ca3  1  0.23908600  0.73927600  0.51422500  1
  Ca  Ca4  1  0.73927600  0.23908600  0.51422500  1
  Ca  Ca5  1  0.91735500  0.62503500  0.02587300  1
  Ca  Ca6  1  0.62503500  0.91735500  0.02587300  1
  Si  Si7  1  0.82005400  0.61195100  0.57883200  1
  Si  Si8  1  0.61195100  0.82005400  0.57883200  1
  Si  Si9  1  0.66309500  0.30989800  0.01610200  1
  Si  Si10  1  0.30989800  0.66309500  0.01610200  1
  Si  Si11  1  0.37009100  0.16025800  0.44392000  1
  Si  Si12  1  0.16025800  0.37009100  0.44392000  1
  H  H13  1  0.33565300  0.33565300  0.70688700  1
  H  H14  1  0.42889600  0.42889600  0.83487500  1
  H  H15  1  0.66102800  0.66102800  0.29643300  1
  H  H16  1  0.57241400  0.57241400  0.15819800  1
  C  C17  1  0.00080600  0.00080600  0.00137600  1
  O  O18  1  0.96905300  0.72740300  0.62027400  1
  O  O19  1  0.72740300  0.96905300  0.62027400  1
  O  O20  1  0.71737600  0.71737600  0.49752000  1
  O  O21  1  0.69911600  0.48011000  0.82725700  1
  O  O22  1  0.48011000  0.69911600  0.82725700  1
  O  O23  1  0.85097200  0.52504900  0.40452800  1
  O  O24  1  0.52504900  0.85097200  0.40452800  1
  O  O25  1  0.80813900  0.33593600  0.11088400  1
  O  O26  1  0.33593600  0.80813900  0.11088400  1
  O  O27  1  0.62034700  0.16608300  0.92210900  1
  O  O28  1  0.16608300  0.62034700  0.92210900  1
  O  O29  1  0.50336500  0.29499200  0.20547300  1
  O  O30  1  0.29499200  0.50336500  0.20547300  1
  O  O31  1  0.45366500  0.12844400  0.62190200  1
  O  O32  1  0.12844400  0.45366500  0.62190200  1
  O  O33  1  0.26390000  0.01077700  0.39442800  1
  O  O34  1  0.01077700  0.26390000  0.39442800  1
  O  O35  1  0.24654700  0.24654700  0.53208200  1
  O  O36  1  0.05064300  0.90397200  0.92901300  1
  O  O37  1  0.90397200  0.05064300  0.92901300  1
  O  O38  1  0.05799100  0.05799100  0.13566700  1
  O  O39  1  0.33635300  0.33635300  0.85467600  1
  O  O40  1  0.66411400  0.66411400  0.14416400  1
