# generated using pymatgen
data_KYbP4(H4O9)2
_symmetry_space_group_name_H-M   'P 1'
_cell_length_a   7.40826787
_cell_length_b   7.40826787
_cell_length_c   15.13367193
_cell_angle_alpha   89.87723608
_cell_angle_beta   89.87723608
_cell_angle_gamma   108.96477139
_symmetry_Int_Tables_number   1
_chemical_formula_structural   KYbP4(H4O9)2
_chemical_formula_sum   'K2 Yb2 P8 H16 O36'
_cell_volume   785.48271916
_cell_formula_units_Z   2
loop_
 _symmetry_equiv_pos_site_id
 _symmetry_equiv_pos_as_xyz
  1  'x, y, z'
loop_
 _atom_site_type_symbol
 _atom_site_label
 _atom_site_symmetry_multiplicity
 _atom_site_fract_x
 _atom_site_fract_y
 _atom_site_fract_z
 _atom_site_occupancy
  K  K0  1  0.44663900  0.55336100  0.75000000  1
  K  K1  1  0.55336100  0.44663900  0.25000000  1
  Yb  Yb2  1  0.11041400  0.88958600  0.75000000  1
  Yb  Yb3  1  0.88958600  0.11041400  0.25000000  1
  P  P4  1  0.02159800  0.20993600  0.58403000  1
  P  P5  1  0.79006400  0.97840200  0.91597000  1
  P  P6  1  0.97840200  0.79006300  0.41597000  1
  P  P7  1  0.20993600  0.02159800  0.08403000  1
  P  P8  1  0.18376400  0.24572600  0.92506400  1
  P  P9  1  0.75427400  0.81623600  0.57493600  1
  P  P10  1  0.81623600  0.75427400  0.07493600  1
  P  P11  1  0.24572600  0.18376400  0.42506400  1
  H  H12  1  0.24412700  0.67070900  0.89846700  1
  H  H13  1  0.32929100  0.75587300  0.60153300  1
  H  H14  1  0.75587300  0.32929100  0.10153300  1
  H  H15  1  0.67070900  0.24412700  0.39846700  1
  H  H16  1  0.12172700  0.60106900  0.61349300  1
  H  H17  1  0.39893100  0.87827300  0.88650700  1
  H  H18  1  0.87827300  0.39893100  0.38650700  1
  H  H19  1  0.60106900  0.12172700  0.11349300  1
  H  H20  1  0.88588300  0.48805400  0.82856800  1
  H  H21  1  0.51194600  0.11411700  0.67143200  1
  H  H22  1  0.11411700  0.51194600  0.17143200  1
  H  H23  1  0.48805400  0.88588300  0.32856800  1
  H  H24  1  0.93887700  0.45813300  0.72702600  1
  H  H25  1  0.54186700  0.06112300  0.77297400  1
  H  H26  1  0.06112300  0.54186700  0.27297400  1
  H  H27  1  0.45813300  0.93887700  0.22702600  1
  O  O28  1  0.96016600  0.16092200  0.95224100  1
  O  O29  1  0.83907800  0.03983400  0.54775900  1
  O  O30  1  0.03983400  0.83907800  0.04775900  1
  O  O31  1  0.16092200  0.96016600  0.45224100  1
  O  O32  1  0.14018000  0.28326400  0.49407100  1
  O  O33  1  0.71673700  0.85982000  0.00592900  1
  O  O34  1  0.85982000  0.71673700  0.50592900  1
  O  O35  1  0.28326300  0.14018000  0.99407100  1
  O  O36  1  0.86258200  0.86139000  0.85333100  1
  O  O37  1  0.13861000  0.13741800  0.64666900  1
  O  O38  1  0.13741800  0.13861000  0.14666900  1
  O  O39  1  0.86139000  0.86258200  0.35333100  1
  O  O40  1  0.95065800  0.36880500  0.61440300  1
  O  O41  1  0.63119500  0.04934200  0.88559700  1
  O  O42  1  0.04934200  0.63119500  0.38559700  1
  O  O43  1  0.36880500  0.95065800  0.11440300  1
  O  O44  1  0.81181100  0.78353000  0.66653000  1
  O  O45  1  0.21647000  0.18818900  0.83347000  1
  O  O46  1  0.18818900  0.21647000  0.33347000  1
  O  O47  1  0.78353000  0.81181100  0.16653000  1
  O  O48  1  0.24841800  0.45683400  0.94563500  1
  O  O49  1  0.54316600  0.75158200  0.55436500  1
  O  O50  1  0.75158200  0.54316600  0.05436500  1
  O  O51  1  0.45683400  0.24841800  0.44563500  1
  O  O52  1  0.21171700  0.71975900  0.63794600  1
  O  O53  1  0.28024100  0.78828300  0.86205400  1
  O  O54  1  0.78828300  0.28024100  0.36205400  1
  O  O55  1  0.71975900  0.21171700  0.13794600  1
  O  O56  1  0.68033200  0.42084400  0.89509500  1
  O  O57  1  0.57915600  0.31966800  0.60490500  1
  O  O58  1  0.31966800  0.57915600  0.10490500  1
  O  O59  1  0.42084400  0.68033200  0.39509500  1
  O  O60  1  0.97067300  0.54475400  0.77817900  1
  O  O61  1  0.45524600  0.02932700  0.72182100  1
  O  O62  1  0.02932700  0.45524600  0.22182100  1
  O  O63  1  0.54475400  0.97067300  0.27817900  1
