# generated using pymatgen
data_NaCaAlH2OF6
_symmetry_space_group_name_H-M   'P 1'
_cell_length_a   8.07319684
_cell_length_b   8.07319684
_cell_length_c   10.04886500
_cell_angle_alpha   62.77369274
_cell_angle_beta   62.77369274
_cell_angle_gamma   81.57601725
_symmetry_Int_Tables_number   1
_chemical_formula_structural   NaCaAlH2OF6
_chemical_formula_sum   'Na4 Ca4 Al4 H8 O4 F24'
_cell_volume   516.22430465
_cell_formula_units_Z   4
loop_
 _symmetry_equiv_pos_site_id
 _symmetry_equiv_pos_as_xyz
  1  'x, y, z'
loop_
 _atom_site_type_symbol
 _atom_site_label
 _atom_site_symmetry_multiplicity
 _atom_site_fract_x
 _atom_site_fract_y
 _atom_site_fract_z
 _atom_site_occupancy
  Na  Na0  1  0.73944300  0.49364100  0.00801500  1
  Na  Na1  1  0.49364100  0.73944300  0.50801500  1
  Na  Na2  1  0.50635900  0.26055700  0.49198500  1
  Na  Na3  1  0.26055700  0.50635900  0.99198500  1
  Ca  Ca4  1  0.07781900  0.92218100  0.75000000  1
  Ca  Ca5  1  0.92218100  0.07781900  0.25000000  1
  Ca  Ca6  1  0.67934000  0.32066000  0.75000000  1
  Ca  Ca7  1  0.32066000  0.67934000  0.25000000  1
  Al  Al8  1  0.39920800  0.15217000  0.25616500  1
  Al  Al9  1  0.15217000  0.39920800  0.75616500  1
  Al  Al10  1  0.84783000  0.60079200  0.24383500  1
  Al  Al11  1  0.60079200  0.84783000  0.74383500  1
  H  H12  1  0.77267100  0.00583200  0.02433700  1
  H  H13  1  0.00583200  0.77267100  0.52433700  1
  H  H14  1  0.68790700  0.91620500  0.95727500  1
  H  H15  1  0.91620500  0.68790700  0.45727500  1
  H  H16  1  0.99416800  0.22732900  0.47566300  1
  H  H17  1  0.22732900  0.99416800  0.97566300  1
  H  H18  1  0.08379500  0.31209300  0.54272500  1
  H  H19  1  0.31209300  0.08379500  0.04272500  1
  O  O20  1  0.77256400  0.01980800  0.92239100  1
  O  O21  1  0.01980800  0.77256400  0.42239100  1
  O  O22  1  0.98019200  0.22743600  0.57760900  1
  O  O23  1  0.22743600  0.98019200  0.07760900  1
  F  F24  1  0.58699300  0.08685700  0.71732400  1
  F  F25  1  0.08685700  0.58699300  0.21732400  1
  F  F26  1  0.35019700  0.83009200  0.79961400  1
  F  F27  1  0.83009200  0.35019700  0.29961400  1
  F  F28  1  0.33199900  0.06096200  0.47952100  1
  F  F29  1  0.06096200  0.33199900  0.97952100  1
  F  F30  1  0.45782300  0.24415800  0.03089900  1
  F  F31  1  0.24415800  0.45782300  0.53089900  1
  F  F32  1  0.15544900  0.15398900  0.79518700  1
  F  F33  1  0.15398900  0.15544900  0.29518700  1
  F  F34  1  0.39179300  0.39834700  0.72970700  1
  F  F35  1  0.39834700  0.39179300  0.22970700  1
  F  F36  1  0.91314300  0.41300700  0.78267600  1
  F  F37  1  0.41300700  0.91314300  0.28267600  1
  F  F38  1  0.16990800  0.64980300  0.70038600  1
  F  F39  1  0.64980300  0.16990800  0.20038600  1
  F  F40  1  0.93903800  0.66800100  0.02047900  1
  F  F41  1  0.66800100  0.93903800  0.52047900  1
  F  F42  1  0.75584200  0.54217700  0.46910100  1
  F  F43  1  0.54217700  0.75584200  0.96910100  1
  F  F44  1  0.84601100  0.84455100  0.70481300  1
  F  F45  1  0.84455100  0.84601100  0.20481300  1
  F  F46  1  0.60165300  0.60820700  0.77029300  1
  F  F47  1  0.60820700  0.60165300  0.27029300  1
