# generated using pymatgen
data_Ca(CO2)2
_symmetry_space_group_name_H-M   'P 1'
_cell_length_a   7.35071600
_cell_length_b   6.19941500
_cell_length_c   9.86833403
_cell_angle_alpha   72.58848437
_cell_angle_beta   90.00000000
_cell_angle_gamma   90.00000000
_symmetry_Int_Tables_number   1
_chemical_formula_structural   Ca(CO2)2
_chemical_formula_sum   'Ca4 C8 O16'
_cell_volume   429.09613047
_cell_formula_units_Z   4
loop_
 _symmetry_equiv_pos_site_id
 _symmetry_equiv_pos_as_xyz
  1  'x, y, z'
loop_
 _atom_site_type_symbol
 _atom_site_label
 _atom_site_symmetry_multiplicity
 _atom_site_fract_x
 _atom_site_fract_y
 _atom_site_fract_z
 _atom_site_occupancy
  Ca  Ca0  1  0.00000000  0.39911800  0.69925400  1
  Ca  Ca1  1  0.50000000  0.51878000  0.19058100  1
  Ca  Ca2  1  0.00000000  0.60088200  0.30074600  1
  Ca  Ca3  1  0.50000000  0.48122000  0.80941900  1
  C  C4  1  0.00000000  0.92342500  0.45085200  1
  C  C5  1  0.89321500  0.50000000  0.00000000  1
  C  C6  1  0.60636600  0.50000000  0.50000000  1
  C  C7  1  0.39363400  0.50000000  0.50000000  1
  C  C8  1  0.50000000  0.01187100  0.92931400  1
  C  C9  1  0.10678500  0.50000000  0.00000000  1
  C  C10  1  0.00000000  0.07657500  0.54914800  1
  C  C11  1  0.50000000  0.98812900  0.07068600  1
  O  O12  1  0.00000000  0.00530500  0.31750000  1
  O  O13  1  0.68292200  0.54281000  0.38001600  1
  O  O14  1  0.00000000  0.28806000  0.48636800  1
  O  O15  1  0.31707800  0.45719000  0.61998400  1
  O  O16  1  0.68292200  0.45719000  0.61998400  1
  O  O17  1  0.81509800  0.54807000  0.10185600  1
  O  O18  1  0.00000000  0.99469500  0.68250000  1
  O  O19  1  0.50000000  0.82871100  0.88627800  1
  O  O20  1  0.18490200  0.45193000  0.89814400  1
  O  O21  1  0.81509800  0.45193000  0.89814400  1
  O  O22  1  0.50000000  0.86893100  0.73425400  1
  O  O23  1  0.31707800  0.54281000  0.38001600  1
  O  O24  1  0.50000000  0.17128900  0.11372200  1
  O  O25  1  0.18490200  0.54807000  0.10185600  1
  O  O26  1  0.50000000  0.13106900  0.26574600  1
  O  O27  1  0.00000000  0.71194000  0.51363200  1
