# generated using pymatgen
data_H9C2N7O6
_symmetry_space_group_name_H-M   'P 1'
_cell_length_a   6.98958600
_cell_length_b   9.10706900
_cell_length_c   14.23136000
_cell_angle_alpha   90.00000000
_cell_angle_beta   90.00000000
_cell_angle_gamma   90.00000000
_symmetry_Int_Tables_number   1
_chemical_formula_structural   H9C2N7O6
_chemical_formula_sum   'H36 C8 N28 O24'
_cell_volume   905.89212574
_cell_formula_units_Z   4
loop_
 _symmetry_equiv_pos_site_id
 _symmetry_equiv_pos_as_xyz
  1  'x, y, z'
loop_
 _atom_site_type_symbol
 _atom_site_label
 _atom_site_symmetry_multiplicity
 _atom_site_fract_x
 _atom_site_fract_y
 _atom_site_fract_z
 _atom_site_occupancy
  H  H0  1  0.87963400  0.63626800  0.24923900  1
  H  H1  1  0.12036600  0.13626800  0.75076100  1
  H  H2  1  0.87963400  0.13626800  0.25076100  1
  H  H3  1  0.12036600  0.63626800  0.74923900  1
  H  H4  1  0.93742500  0.60574200  0.13003000  1
  H  H5  1  0.06257500  0.10574200  0.86997000  1
  H  H6  1  0.93742500  0.10574200  0.36997000  1
  H  H7  1  0.06257500  0.60574200  0.63003000  1
  H  H8  1  0.06336800  0.79937300  0.33372100  1
  H  H9  1  0.93663200  0.29937300  0.66627900  1
  H  H10  1  0.06336800  0.29937300  0.16627900  1
  H  H11  1  0.93663200  0.79937300  0.83372100  1
  H  H12  1  0.30833000  0.82181900  0.30717700  1
  H  H13  1  0.69167000  0.32181900  0.69282300  1
  H  H14  1  0.30833000  0.32181900  0.19282300  1
  H  H15  1  0.69167000  0.82181900  0.80717700  1
  H  H16  1  0.25651200  0.61116800  0.09231900  1
  H  H17  1  0.74348800  0.11116800  0.90768100  1
  H  H18  1  0.25651200  0.11116800  0.40768100  1
  H  H19  1  0.74348800  0.61116800  0.59231900  1
  H  H20  1  0.67666700  0.80087600  0.04408300  1
  H  H21  1  0.32333300  0.30087600  0.95591700  1
  H  H22  1  0.67666700  0.30087600  0.45591700  1
  H  H23  1  0.32333300  0.80087600  0.54408300  1
  H  H24  1  0.59149800  0.62344700  0.07593800  1
  H  H25  1  0.40850200  0.12344700  0.92406200  1
  H  H26  1  0.59149800  0.12344700  0.42406200  1
  H  H27  1  0.40850200  0.62344700  0.57593800  1
  H  H28  1  0.28100500  0.98198500  0.14622700  1
  H  H29  1  0.71899500  0.48198500  0.85377300  1
  H  H30  1  0.28100500  0.48198500  0.35377300  1
  H  H31  1  0.71899500  0.98198500  0.64622700  1
  H  H32  1  0.52732500  0.00266600  0.12853500  1
  H  H33  1  0.47267500  0.50266600  0.87146500  1
  H  H34  1  0.52732500  0.50266600  0.37146500  1
  H  H35  1  0.47267500  0.00266600  0.62853500  1
  C  C36  1  0.14072700  0.71198900  0.20892900  1
  C  C37  1  0.85927300  0.21198900  0.79107100  1
  C  C38  1  0.14072700  0.21198900  0.29107100  1
  C  C39  1  0.85927300  0.71198900  0.70892900  1
  C  C40  1  0.42453300  0.79304000  0.11748000  1
  C  C41  1  0.57546700  0.29304000  0.88252000  1
  C  C42  1  0.42453300  0.29304000  0.38252000  1
  C  C43  1  0.57546700  0.79304000  0.61748000  1
  N  N44  1  0.97677100  0.64184300  0.19561500  1
  N  N45  1  0.02322900  0.14184300  0.80438500  1
  N  N46  1  0.97677100  0.14184300  0.30438500  1
  N  N47  1  0.02322900  0.64184300  0.69561500  1
  N  N48  1  0.17545100  0.78349600  0.28829700  1
  N  N49  1  0.82454900  0.28349500  0.71170300  1
  N  N50  1  0.17545100  0.28349500  0.21170300  1
  N  N51  1  0.82454900  0.78349600  0.78829700  1
  N  N52  1  0.27629400  0.69889600  0.13870100  1
  N  N53  1  0.72370600  0.19889600  0.86129900  1
  N  N54  1  0.27629400  0.19889600  0.36129900  1
  N  N55  1  0.72370600  0.69889600  0.63870100  1
  N  N56  1  0.57204700  0.73502300  0.07235500  1
  N  N57  1  0.42795300  0.23502300  0.92764500  1
  N  N58  1  0.57204700  0.23502300  0.42764500  1
  N  N59  1  0.42795300  0.73502300  0.57235500  1
  N  N60  1  0.41335400  0.93503700  0.13922100  1
  N  N61  1  0.58664600  0.43503700  0.86077900  1
  N  N62  1  0.41335400  0.43503700  0.36077900  1
  N  N63  1  0.58664600  0.93503700  0.63922100  1
  N  N64  1  0.04381600  0.02250600  0.54384700  1
  N  N65  1  0.95618400  0.52250600  0.45615300  1
  N  N66  1  0.04381600  0.52250600  0.95615300  1
  N  N67  1  0.95618400  0.02250600  0.04384700  1
  N  N68  1  0.34105600  0.82109900  0.86065800  1
  N  N69  1  0.65894400  0.32109900  0.13934200  1
  N  N70  1  0.34105600  0.32109900  0.63934200  1
  N  N71  1  0.65894400  0.82109900  0.36065800  1
  O  O72  1  0.01824700  0.97197400  0.62525700  1
  O  O73  1  0.98175300  0.47197400  0.37474300  1
  O  O74  1  0.01824700  0.47197400  0.87474300  1
  O  O75  1  0.98175300  0.97197400  0.12525700  1
  O  O76  1  0.92513200  0.10891800  0.50713300  1
  O  O77  1  0.07486800  0.60891800  0.49286700  1
  O  O78  1  0.92513200  0.60891800  0.99286700  1
  O  O79  1  0.07486800  0.10891800  0.00713300  1
  O  O80  1  0.19507000  0.98475300  0.49784100  1
  O  O81  1  0.80493000  0.48475300  0.50215900  1
  O  O82  1  0.19507000  0.48475300  0.00215900  1
  O  O83  1  0.80493000  0.98475300  0.99784100  1
  O  O84  1  0.47017700  0.91811700  0.87203600  1
  O  O85  1  0.52982300  0.41811700  0.12796400  1
  O  O86  1  0.47017700  0.41811700  0.62796400  1
  O  O87  1  0.52982300  0.91811700  0.37203600  1
  O  O88  1  0.17795700  0.83822300  0.89680600  1
  O  O89  1  0.82204300  0.33822300  0.10319400  1
  O  O90  1  0.17795700  0.33822300  0.60319400  1
  O  O91  1  0.82204300  0.83822300  0.39680600  1
  O  O92  1  0.37916800  0.70684100  0.81248500  1
  O  O93  1  0.62083200  0.20684100  0.18751500  1
  O  O94  1  0.37916800  0.20684100  0.68751500  1
  O  O95  1  0.62083200  0.70684100  0.31248500  1
