# generated using pymatgen
data_GaH12N3(OF2)3
_symmetry_space_group_name_H-M   'P 1'
_cell_length_a   6.60800800
_cell_length_b   7.37313580
_cell_length_c   10.14890445
_cell_angle_alpha   85.75446682
_cell_angle_beta   78.53367846
_cell_angle_gamma   68.87445467
_symmetry_Int_Tables_number   1
_chemical_formula_structural   GaH12N3(OF2)3
_chemical_formula_sum   'Ga2 H24 N6 O6 F12'
_cell_volume   452.03316033
_cell_formula_units_Z   2
loop_
 _symmetry_equiv_pos_site_id
 _symmetry_equiv_pos_as_xyz
  1  'x, y, z'
loop_
 _atom_site_type_symbol
 _atom_site_label
 _atom_site_symmetry_multiplicity
 _atom_site_fract_x
 _atom_site_fract_y
 _atom_site_fract_z
 _atom_site_occupancy
  Ga  Ga0  1  0.00000000  0.00000000  0.00000000  1
  Ga  Ga1  1  0.50000000  0.50000000  0.50000000  1
  H  H2  1  0.36556900  0.19884200  0.89310200  1
  H  H3  1  0.63443100  0.80115800  0.10689800  1
  H  H4  1  0.43531400  0.38946500  0.81558200  1
  H  H5  1  0.56468600  0.61053500  0.18441800  1
  H  H6  1  0.61249200  0.22267900  0.90044800  1
  H  H7  1  0.38750800  0.77732100  0.09955200  1
  H  H8  1  0.24595800  0.54383200  0.99074300  1
  H  H9  1  0.75404200  0.45616800  0.00925700  1
  H  H10  1  0.77021500  0.66193500  0.67230000  1
  H  H11  1  0.22978500  0.33806500  0.32770000  1
  H  H12  1  0.97444500  0.73103900  0.71044700  1
  H  H13  1  0.02555500  0.26896100  0.28955300  1
  H  H14  1  0.78743700  0.68054400  0.83608900  1
  H  H15  1  0.21256300  0.31945600  0.16391100  1
  H  H16  1  0.15445300  0.42855000  0.68150000  1
  H  H17  1  0.84554700  0.57145000  0.31850000  1
  H  H18  1  0.68154100  0.88816200  0.34573200  1
  H  H19  1  0.31845900  0.11183800  0.65426800  1
  H  H20  1  0.90959300  0.95023800  0.28600700  1
  H  H21  1  0.09040700  0.04976200  0.71399300  1
  H  H22  1  0.66985800  0.11952500  0.36783900  1
  H  H23  1  0.33014200  0.88047500  0.63216100  1
  H  H24  1  0.98619400  0.81368400  0.47444500  1
  H  H25  1  0.01380600  0.18631600  0.52555500  1
  N  N26  1  0.44526200  0.29988300  0.89893100  1
  N  N27  1  0.55473800  0.70011700  0.10106900  1
  N  N28  1  0.87787800  0.64661500  0.73825700  1
  N  N29  1  0.12212200  0.35338500  0.26174300  1
  N  N30  1  0.77148500  0.97115300  0.36369200  1
  N  N31  1  0.22851500  0.02884700  0.63630800  1
  O  O32  1  0.34191400  0.40660400  0.01925000  1
  O  O33  1  0.65808600  0.59339600  0.98075000  1
  O  O34  1  0.01141900  0.44900500  0.74684500  1
  O  O35  1  0.98858100  0.55099500  0.25315500  1
  O  O36  1  0.83291800  0.91604000  0.49082200  1
  O  O37  1  0.16708200  0.08396000  0.50917800  1
  F  F38  1  0.87681500  0.05957400  0.83662400  1
  F  F39  1  0.12318500  0.94042600  0.16337600  1
  F  F40  1  0.73573300  0.96272900  0.09660500  1
  F  F41  1  0.26426700  0.03727100  0.90339500  1
  F  F42  1  0.87512700  0.26890100  0.05585100  1
  F  F43  1  0.12487300  0.73109900  0.94414900  1
  F  F44  1  0.58782000  0.67765800  0.36967900  1
  F  F45  1  0.41218000  0.32234200  0.63032100  1
  F  F46  1  0.80831800  0.35426900  0.49046200  1
  F  F47  1  0.19168200  0.64573100  0.50953800  1
  F  F48  1  0.49810600  0.34593600  0.35558100  1
  F  F49  1  0.50189400  0.65406400  0.64441900  1
