# generated using pymatgen
data_Na4Co3P4(H3O4)6
_symmetry_space_group_name_H-M   'P 1'
_cell_length_a   9.25665900
_cell_length_b   7.42932700
_cell_length_c   15.29639004
_cell_angle_alpha   84.48507193
_cell_angle_beta   90.00000000
_cell_angle_gamma   90.00000000
_symmetry_Int_Tables_number   1
_chemical_formula_structural   Na4Co3P4(H3O4)6
_chemical_formula_sum   'Na8 Co6 P8 H36 O48'
_cell_volume   1047.07491723
_cell_formula_units_Z   2
loop_
 _symmetry_equiv_pos_site_id
 _symmetry_equiv_pos_as_xyz
  1  'x, y, z'
loop_
 _atom_site_type_symbol
 _atom_site_label
 _atom_site_symmetry_multiplicity
 _atom_site_fract_x
 _atom_site_fract_y
 _atom_site_fract_z
 _atom_site_occupancy
  Na  Na0  1  0.60795900  0.45143500  0.21703000  1
  Na  Na1  1  0.10795900  0.54856500  0.28297000  1
  Na  Na2  1  0.39204100  0.54856500  0.78297000  1
  Na  Na3  1  0.89204100  0.45143500  0.71703000  1
  Na  Na4  1  0.51539300  0.74057100  0.37020300  1
  Na  Na5  1  0.01539300  0.25942900  0.12979700  1
  Na  Na6  1  0.48460700  0.25942900  0.62979700  1
  Na  Na7  1  0.98460700  0.74057100  0.87020300  1
  Co  Co8  1  0.50000000  0.50000000  0.00000000  1
  Co  Co9  1  0.00000000  0.50000000  0.50000000  1
  Co  Co10  1  0.73988000  0.97253900  0.00390200  1
  Co  Co11  1  0.23988000  0.02746100  0.49609800  1
  Co  Co12  1  0.26012000  0.02746100  0.99609800  1
  Co  Co13  1  0.76012000  0.97253900  0.50390200  1
  P  P14  1  0.52377600  0.89724100  0.88276500  1
  P  P15  1  0.02377600  0.10275900  0.61723500  1
  P  P16  1  0.47622400  0.10275900  0.11723500  1
  P  P17  1  0.97622400  0.89724100  0.38276500  1
  P  P18  1  0.97712400  0.24670400  0.92726400  1
  P  P19  1  0.47712400  0.75329600  0.57273600  1
  P  P20  1  0.02287600  0.75329600  0.07273600  1
  P  P21  1  0.52287600  0.24670400  0.42726400  1
  H  H22  1  0.50410700  0.12070000  0.30089600  1
  H  H23  1  0.00410700  0.87930000  0.19910400  1
  H  H24  1  0.49589300  0.87930000  0.69910400  1
  H  H25  1  0.99589300  0.12070000  0.80089600  1
  H  H26  1  0.65870400  0.83846900  0.20099900  1
  H  H27  1  0.15870400  0.16153100  0.29900100  1
  H  H28  1  0.34129600  0.16153100  0.79900100  1
  H  H29  1  0.84129600  0.83846900  0.70099900  1
  H  H30  1  0.71863900  0.76876800  0.76722400  1
  H  H31  1  0.21863900  0.23123200  0.73277600  1
  H  H32  1  0.28136100  0.23123200  0.23277600  1
  H  H33  1  0.78136100  0.76876800  0.26722400  1
  H  H34  1  0.75414200  0.13784900  0.68317700  1
  H  H35  1  0.25414200  0.86215100  0.81682300  1
  H  H36  1  0.24585800  0.86215100  0.31682300  1
  H  H37  1  0.74585800  0.13784900  0.18317700  1
  H  H38  1  0.68807700  0.14435900  0.77757300  1
  H  H39  1  0.18807700  0.85564100  0.72242700  1
  H  H40  1  0.31192300  0.85564100  0.22242700  1
  H  H41  1  0.81192300  0.14435900  0.27757300  1
  H  H42  1  0.74321100  0.36305500  0.54314300  1
  H  H43  1  0.24321100  0.63694500  0.95685700  1
  H  H44  1  0.25678900  0.63694500  0.45685700  1
  H  H45  1  0.75678900  0.36305500  0.04314300  1
  H  H46  1  0.73585200  0.57360600  0.55277900  1
  H  H47  1  0.23585200  0.42639400  0.94722100  1
  H  H48  1  0.26414800  0.42639400  0.44722100  1
  H  H49  1  0.76414800  0.57360600  0.05277900  1
  H  H50  1  0.60124700  0.27543500  0.88755100  1
  H  H51  1  0.10124700  0.72456500  0.61244900  1
  H  H52  1  0.39875300  0.72456500  0.11244900  1
  H  H53  1  0.89875300  0.27543500  0.38755100  1
  H  H54  1  0.69241500  0.45294900  0.87359500  1
  H  H55  1  0.19241500  0.54705100  0.62640500  1
  H  H56  1  0.30758500  0.54705100  0.12640500  1
  H  H57  1  0.80758500  0.45294900  0.37359500  1
  O  O58  1  0.94203200  0.42515100  0.87519200  1
  O  O59  1  0.44203200  0.57484900  0.62480800  1
  O  O60  1  0.05796800  0.57484900  0.12480800  1
  O  O61  1  0.55796800  0.42515100  0.37519200  1
  O  O62  1  0.86709400  0.19503100  0.00264200  1
  O  O63  1  0.36709400  0.80496900  0.49735800  1
  O  O64  1  0.13290600  0.80496900  0.99735800  1
  O  O65  1  0.63290600  0.19503100  0.50264200  1
  O  O66  1  0.55468000  0.76337200  0.96476200  1
  O  O67  1  0.05468000  0.23662800  0.53523800  1
  O  O68  1  0.44532000  0.23662800  0.03523800  1
  O  O69  1  0.94532000  0.76337200  0.46476200  1
  O  O70  1  0.63146900  0.01930500  0.11427600  1
  O  O71  1  0.13146900  0.98069500  0.38572400  1
  O  O72  1  0.36853100  0.98069500  0.88572400  1
  O  O73  1  0.86853100  0.01930500  0.61427600  1
  O  O74  1  0.63939900  0.05046900  0.88917400  1
  O  O75  1  0.13939900  0.94953100  0.61082600  1
  O  O76  1  0.36060100  0.94953100  0.11082600  1
  O  O77  1  0.86060100  0.05046900  0.38917400  1
  O  O78  1  0.86870500  0.75494700  0.02982900  1
  O  O79  1  0.36870500  0.24505300  0.47017100  1
  O  O80  1  0.13129500  0.24505300  0.97017100  1
  O  O81  1  0.63129500  0.75494700  0.52982900  1
  O  O82  1  0.54102400  0.81043000  0.79588400  1
  O  O83  1  0.04102400  0.18957000  0.70411600  1
  O  O84  1  0.45897600  0.18957000  0.20411600  1
  O  O85  1  0.95897600  0.81043000  0.29588400  1
  O  O86  1  0.97018300  0.08400000  0.86539900  1
  O  O87  1  0.47018300  0.91600000  0.63460100  1
  O  O88  1  0.02981700  0.91600000  0.13460100  1
  O  O89  1  0.52981700  0.08400000  0.36539900  1
  O  O90  1  0.67838200  0.74800300  0.25141000  1
  O  O91  1  0.17838200  0.25199700  0.24859000  1
  O  O92  1  0.32161800  0.25199700  0.74859000  1
  O  O93  1  0.82161800  0.74800300  0.75141000  1
  O  O94  1  0.69632100  0.21461000  0.71959800  1
  O  O95  1  0.19632100  0.78539000  0.78040200  1
  O  O96  1  0.30367900  0.78539000  0.28040200  1
  O  O97  1  0.80367900  0.21461000  0.21959800  1
  O  O98  1  0.70149000  0.46380800  0.06576700  1
  O  O99  1  0.20149000  0.53619200  0.43423300  1
  O  O100  1  0.29851000  0.53619200  0.93423300  1
  O  O101  1  0.79851000  0.46380800  0.56576700  1
  O  O102  1  0.59206100  0.41055800  0.87996200  1
  O  O103  1  0.09206100  0.58944200  0.62003800  1
  O  O104  1  0.40793900  0.58944200  0.12003800  1
  O  O105  1  0.90793900  0.41055800  0.37996200  1
