# generated using pymatgen
data_FePH6NO5
_symmetry_space_group_name_H-M   'P 1'
_cell_length_a   5.73448532
_cell_length_b   9.02125507
_cell_length_c   4.81082287
_cell_angle_alpha   89.98012914
_cell_angle_beta   89.77098451
_cell_angle_gamma   89.89314699
_symmetry_Int_Tables_number   1
_chemical_formula_structural   FePH6NO5
_chemical_formula_sum   'Fe2 P2 H12 N2 O10'
_cell_volume   248.87227887
_cell_formula_units_Z   2
loop_
 _symmetry_equiv_pos_site_id
 _symmetry_equiv_pos_as_xyz
  1  'x, y, z'
loop_
 _atom_site_type_symbol
 _atom_site_label
 _atom_site_symmetry_multiplicity
 _atom_site_fract_x
 _atom_site_fract_y
 _atom_site_fract_z
 _atom_site_occupancy
  Fe  Fe0  1  0.50004000  0.02266600  0.50783200  1
  Fe  Fe1  1  0.00008800  0.97703100  0.00817600  1
  P  P2  1  0.50016200  0.80392600  0.07830300  1
  P  P3  1  0.99960200  0.19594800  0.57801700  1
  H  H4  1  0.49965100  0.54251500  0.81025700  1
  H  H5  1  0.00000600  0.45750800  0.31031100  1
  H  H6  1  0.50003900  0.54615600  0.44939400  1
  H  H7  1  0.00029500  0.45406000  0.94941500  1
  H  H8  1  0.64867500  0.41244300  0.62309900  1
  H  H9  1  0.35121400  0.41270600  0.62353500  1
  H  H10  1  0.85130400  0.58765500  0.12379400  1
  H  H11  1  0.14872800  0.58745100  0.12314900  1
  H  H12  1  0.63640400  0.18965100  0.06870400  1
  H  H13  1  0.36332200  0.19013400  0.07128400  1
  H  H14  1  0.86367900  0.81001300  0.57017700  1
  H  H15  1  0.13678400  0.81057200  0.56928200  1
  N  N16  1  0.49990800  0.47761200  0.62687900  1
  N  N17  1  0.00007000  0.52250000  0.12689800  1
  O  O18  1  0.50043400  0.83791900  0.76596900  1
  O  O19  1  0.00071000  0.16196900  0.26568900  1
  O  O20  1  0.49947000  0.63277500  0.12247700  1
  O  O21  1  0.00043300  0.36709900  0.62208600  1
  O  O22  1  0.71906300  0.87319400  0.22568400  1
  O  O23  1  0.28219700  0.87451400  0.22811700  1
  O  O24  1  0.78020100  0.12667200  0.72608700  1
  O  O25  1  0.21709800  0.12510600  0.72673700  1
  O  O26  1  0.50024300  0.20100800  0.19413100  1
  O  O27  1  0.00018000  0.79919900  0.69391900  1
