# generated using pymatgen
data_Sb4H8C2S7N
_symmetry_space_group_name_H-M   'P 1'
_cell_length_a   7.78900800
_cell_length_b   7.78900800
_cell_length_c   26.34878300
_cell_angle_alpha   90.00000000
_cell_angle_beta   90.00000000
_cell_angle_gamma   99.05857226
_symmetry_Int_Tables_number   1
_chemical_formula_structural   Sb4H8C2S7N
_chemical_formula_sum   'Sb16 H32 C8 S28 N4'
_cell_volume   1578.60777185
_cell_formula_units_Z   4
loop_
 _symmetry_equiv_pos_site_id
 _symmetry_equiv_pos_as_xyz
  1  'x, y, z'
loop_
 _atom_site_type_symbol
 _atom_site_label
 _atom_site_symmetry_multiplicity
 _atom_site_fract_x
 _atom_site_fract_y
 _atom_site_fract_z
 _atom_site_occupancy
  Sb  Sb0  1  0.29586900  0.09695600  0.81990400  1
  Sb  Sb1  1  0.09695600  0.29586900  0.18009600  1
  Sb  Sb2  1  0.59695600  0.79586900  0.31990400  1
  Sb  Sb3  1  0.79586900  0.59695600  0.68009600  1
  Sb  Sb4  1  0.70413100  0.90304400  0.18009600  1
  Sb  Sb5  1  0.90304400  0.70413100  0.81990400  1
  Sb  Sb6  1  0.40304400  0.20413100  0.68009600  1
  Sb  Sb7  1  0.20413100  0.40304400  0.31990400  1
  Sb  Sb8  1  0.46570700  0.53429300  0.88873600  1
  Sb  Sb9  1  0.53429300  0.46570700  0.11126400  1
  Sb  Sb10  1  0.03429300  0.96570700  0.38873600  1
  Sb  Sb11  1  0.96570700  0.03429300  0.61126400  1
  Sb  Sb12  1  0.86383000  0.13617000  0.75611600  1
  Sb  Sb13  1  0.13617000  0.86383000  0.24388400  1
  Sb  Sb14  1  0.63617000  0.36383000  0.25611600  1
  Sb  Sb15  1  0.36383000  0.63617000  0.74388400  1
  H  H16  1  0.75215500  0.24784500  0.92368300  1
  H  H17  1  0.24784500  0.75215500  0.07631700  1
  H  H18  1  0.74784500  0.25215500  0.42368300  1
  H  H19  1  0.25215500  0.74784500  0.57631700  1
  H  H20  1  0.88021500  0.11978500  0.89907900  1
  H  H21  1  0.11978500  0.88021500  0.10092100  1
  H  H22  1  0.61978500  0.38021500  0.39907900  1
  H  H23  1  0.38021500  0.61978500  0.60092100  1
  H  H24  1  0.01810300  0.39121200  0.94602000  1
  H  H25  1  0.39121200  0.01810300  0.05398000  1
  H  H26  1  0.89121200  0.51810300  0.44602000  1
  H  H27  1  0.51810300  0.89121200  0.55398000  1
  H  H28  1  0.98189700  0.60878800  0.05398000  1
  H  H29  1  0.60878800  0.98189700  0.94602000  1
  H  H30  1  0.10878800  0.48189700  0.55398000  1
  H  H31  1  0.48189700  0.10878800  0.44602000  1
  H  H32  1  0.10144400  0.19306100  0.95683500  1
  H  H33  1  0.19306100  0.10144400  0.04316500  1
  H  H34  1  0.69306100  0.60144400  0.45683500  1
  H  H35  1  0.60144400  0.69306100  0.54316500  1
  H  H36  1  0.89855600  0.80693900  0.04316500  1
  H  H37  1  0.80693900  0.89855600  0.95683500  1
  H  H38  1  0.30693900  0.39855600  0.54316500  1
  H  H39  1  0.39855600  0.30693900  0.45683500  1
  H  H40  1  0.95379300  0.26623000  0.00181100  1
  H  H41  1  0.26623000  0.95379300  0.99818900  1
  H  H42  1  0.76623000  0.45379300  0.50181100  1
  H  H43  1  0.45379300  0.76623000  0.49818900  1
  H  H44  1  0.04620700  0.73377000  0.99818900  1
  H  H45  1  0.73377000  0.04620700  0.00181100  1
  H  H46  1  0.23377000  0.54620700  0.49818900  1
  H  H47  1  0.54620700  0.23377000  0.50181100  1
  C  C48  1  0.98875400  0.25984800  0.96160800  1
  C  C49  1  0.25984800  0.98875400  0.03839200  1
  C  C50  1  0.75984800  0.48875400  0.46160800  1
  C  C51  1  0.48875400  0.75984800  0.53839200  1
  C  C52  1  0.01124600  0.74015200  0.03839200  1
  C  C53  1  0.74015200  0.01124600  0.96160800  1
  C  C54  1  0.24015200  0.51124600  0.53839200  1
  C  C55  1  0.51124600  0.24015200  0.46160800  1
  S  S56  1  0.42040200  0.57959800  0.98297400  1
  S  S57  1  0.57959800  0.42040200  0.01702600  1
  S  S58  1  0.07959800  0.92040200  0.48297400  1
  S  S59  1  0.92040200  0.07959800  0.51702600  1
  S  S60  1  0.13651200  0.86348800  0.87574600  1
  S  S61  1  0.86348800  0.13651200  0.12425400  1
  S  S62  1  0.36348800  0.63651200  0.37574600  1
  S  S63  1  0.63651200  0.36348800  0.62425400  1
  S  S64  1  0.42016200  0.21714300  0.90251800  1
  S  S65  1  0.21714300  0.42016200  0.09748200  1
  S  S66  1  0.71714300  0.92016200  0.40251800  1
  S  S67  1  0.92016200  0.71714300  0.59748200  1
  S  S68  1  0.57983800  0.78285700  0.09748200  1
  S  S69  1  0.78285700  0.57983800  0.90251800  1
  S  S70  1  0.28285700  0.07983800  0.59748200  1
  S  S71  1  0.07983800  0.28285700  0.40251800  1
  S  S72  1  0.05723800  0.94276200  0.72548000  1
  S  S73  1  0.94276200  0.05723800  0.27452000  1
  S  S74  1  0.44276200  0.55723800  0.22548000  1
  S  S75  1  0.55723800  0.44276200  0.77452000  1
  S  S76  1  0.07054200  0.29537400  0.81990000  1
  S  S77  1  0.29537400  0.07054200  0.18010000  1
  S  S78  1  0.79537400  0.57054200  0.31990000  1
  S  S79  1  0.57054200  0.79537400  0.68010000  1
  S  S80  1  0.92945800  0.70462600  0.18010000  1
  S  S81  1  0.70462600  0.92945800  0.81990000  1
  S  S82  1  0.20462600  0.42945800  0.68010000  1
  S  S83  1  0.42945800  0.20462600  0.31990000  1
  N  N84  1  0.83745100  0.16254900  0.93348600  1
  N  N85  1  0.16254900  0.83745100  0.06651400  1
  N  N86  1  0.66254900  0.33745100  0.43348600  1
  N  N87  1  0.33745100  0.66254900  0.56651400  1
