# generated using pymatgen
data_VP2(HO)6
_symmetry_space_group_name_H-M   'P 1'
_cell_length_a   7.34086346
_cell_length_b   7.34086346
_cell_length_c   7.68889221
_cell_angle_alpha   63.60039280
_cell_angle_beta   63.60039280
_cell_angle_gamma   67.68650538
_symmetry_Int_Tables_number   1
_chemical_formula_structural   VP2(HO)6
_chemical_formula_sum   'V2 P4 H12 O12'
_cell_volume   323.76378607
_cell_formula_units_Z   2
loop_
 _symmetry_equiv_pos_site_id
 _symmetry_equiv_pos_as_xyz
  1  'x, y, z'
loop_
 _atom_site_type_symbol
 _atom_site_label
 _atom_site_symmetry_multiplicity
 _atom_site_fract_x
 _atom_site_fract_y
 _atom_site_fract_z
 _atom_site_occupancy
  V  V0  1  0.75840900  0.24159100  0.25000000  1
  V  V1  1  0.24159100  0.75840900  0.75000000  1
  P  P2  1  0.43266300  0.10868900  0.71079500  1
  P  P3  1  0.89131100  0.56733700  0.78920500  1
  P  P4  1  0.56733700  0.89131100  0.28920500  1
  P  P5  1  0.10868900  0.43266300  0.21079500  1
  H  H6  1  0.08646900  0.86039200  0.37080000  1
  H  H7  1  0.13960800  0.91353100  0.12920000  1
  H  H8  1  0.91353100  0.13960800  0.62920000  1
  H  H9  1  0.86039200  0.08646900  0.87080000  1
  H  H10  1  0.45540100  0.17357900  0.84632100  1
  H  H11  1  0.82642100  0.54459900  0.65367900  1
  H  H12  1  0.54459900  0.82642100  0.15367900  1
  H  H13  1  0.17357900  0.45540100  0.34632100  1
  H  H14  1  0.29804500  0.27975300  0.61413700  1
  H  H15  1  0.72024700  0.70195500  0.88586300  1
  H  H16  1  0.70195500  0.72024700  0.38586300  1
  H  H17  1  0.27975300  0.29804500  0.11413700  1
  O  O18  1  0.64557500  0.06256100  0.54909200  1
  O  O19  1  0.93743900  0.35442500  0.95090800  1
  O  O20  1  0.35442500  0.93743900  0.45090800  1
  O  O21  1  0.06256100  0.64557500  0.04909200  1
  O  O22  1  0.67151800  0.07844000  0.15206600  1
  O  O23  1  0.92156000  0.32848200  0.34793400  1
  O  O24  1  0.32848200  0.92156000  0.84793400  1
  O  O25  1  0.07844000  0.67151800  0.65206600  1
  O  O26  1  0.04370500  0.95629500  0.25000000  1
  O  O27  1  0.95629500  0.04370500  0.75000000  1
  O  O28  1  0.55909800  0.44090200  0.25000000  1
  O  O29  1  0.44090200  0.55909800  0.75000000  1
