# generated using pymatgen
data_Hg2H2C2NCl5
_symmetry_space_group_name_H-M   'P 1'
_cell_length_a   7.43286800
_cell_length_b   10.86550000
_cell_length_c   18.44373808
_cell_angle_alpha   67.14722500
_cell_angle_beta   90.00000000
_cell_angle_gamma   90.00000000
_symmetry_Int_Tables_number   1
_chemical_formula_structural   Hg2H2C2NCl5
_chemical_formula_sum   'Hg8 H8 C8 N4 Cl20'
_cell_volume   1372.62898515
_cell_formula_units_Z   4
loop_
 _symmetry_equiv_pos_site_id
 _symmetry_equiv_pos_as_xyz
  1  'x, y, z'
loop_
 _atom_site_type_symbol
 _atom_site_label
 _atom_site_symmetry_multiplicity
 _atom_site_fract_x
 _atom_site_fract_y
 _atom_site_fract_z
 _atom_site_occupancy
  Hg  Hg0  1  0.86460100  0.67510400  0.90253100  1
  Hg  Hg1  1  0.63539900  0.67510400  0.40253100  1
  Hg  Hg2  1  0.13539900  0.32489600  0.09746900  1
  Hg  Hg3  1  0.36460100  0.32489600  0.59746900  1
  Hg  Hg4  1  0.62614000  0.50205600  0.15598100  1
  Hg  Hg5  1  0.87386000  0.50205600  0.65598100  1
  Hg  Hg6  1  0.37386000  0.49794400  0.84401900  1
  Hg  Hg7  1  0.12614000  0.49794400  0.34401900  1
  H  H8  1  0.82398200  0.01931300  0.83867000  1
  H  H9  1  0.67601800  0.01931300  0.33867000  1
  H  H10  1  0.17601800  0.98068700  0.16133000  1
  H  H11  1  0.32398200  0.98068700  0.66133000  1
  H  H12  1  0.62806700  0.20311200  0.79833100  1
  H  H13  1  0.87193300  0.20311200  0.29833100  1
  H  H14  1  0.37193300  0.79688800  0.20166900  1
  H  H15  1  0.12806700  0.79688800  0.70166900  1
  C  C16  1  0.52854500  0.01217800  0.88215400  1
  C  C17  1  0.97145500  0.01217800  0.38215400  1
  C  C18  1  0.47145500  0.98782200  0.11784600  1
  C  C19  1  0.02854500  0.98782200  0.61784600  1
  C  C20  1  0.71546300  0.27801600  0.42904800  1
  C  C21  1  0.78453700  0.27801600  0.92904800  1
  C  C22  1  0.28453700  0.72198400  0.57095200  1
  C  C23  1  0.21546300  0.72198400  0.07095200  1
  N  N24  1  0.60749100  0.10419600  0.83669100  1
  N  N25  1  0.89250900  0.10419600  0.33669100  1
  N  N26  1  0.39250900  0.89580400  0.16330900  1
  N  N27  1  0.10749100  0.89580400  0.66330900  1
  Cl  Cl28  1  0.56338100  0.40170000  0.73607900  1
  Cl  Cl29  1  0.93661900  0.40170000  0.23607900  1
  Cl  Cl30  1  0.43661900  0.59830000  0.26392100  1
  Cl  Cl31  1  0.06338100  0.59830000  0.76392100  1
  Cl  Cl32  1  0.51735100  0.96468000  0.34013800  1
  Cl  Cl33  1  0.98264900  0.96468000  0.84013800  1
  Cl  Cl34  1  0.48264900  0.03532000  0.65986200  1
  Cl  Cl35  1  0.01735100  0.03532000  0.15986200  1
  Cl  Cl36  1  0.78927900  0.36454400  0.98135600  1
  Cl  Cl37  1  0.71072100  0.36454400  0.48135600  1
  Cl  Cl38  1  0.21072100  0.63545600  0.01864400  1
  Cl  Cl39  1  0.28927900  0.63545600  0.51864400  1
  Cl  Cl40  1  0.71809100  0.71472600  0.06276100  1
  Cl  Cl41  1  0.78190900  0.71472600  0.56276100  1
  Cl  Cl42  1  0.28190900  0.28527400  0.93723900  1
  Cl  Cl43  1  0.21809100  0.28527400  0.43723900  1
  Cl  Cl44  1  0.97346300  0.70854300  0.30884700  1
  Cl  Cl45  1  0.52653700  0.70854300  0.80884700  1
  Cl  Cl46  1  0.02653700  0.29145700  0.69115300  1
  Cl  Cl47  1  0.47346300  0.29145700  0.19115300  1
