# generated using pymatgen
data_ZnH12C6S2(N5O)2
_symmetry_space_group_name_H-M   'P 1'
_cell_length_a   10.02171245
_cell_length_b   10.02171245
_cell_length_c   18.73689901
_cell_angle_alpha   67.70601032
_cell_angle_beta   67.70601032
_cell_angle_gamma   27.45753362
_symmetry_Int_Tables_number   1
_chemical_formula_structural   ZnH12C6S2(N5O)2
_chemical_formula_sum   'Zn2 H24 C12 S4 N20 O4'
_cell_volume   798.79881835
_cell_formula_units_Z   2
loop_
 _symmetry_equiv_pos_site_id
 _symmetry_equiv_pos_as_xyz
  1  'x, y, z'
loop_
 _atom_site_type_symbol
 _atom_site_label
 _atom_site_symmetry_multiplicity
 _atom_site_fract_x
 _atom_site_fract_y
 _atom_site_fract_z
 _atom_site_occupancy
  Zn  Zn0  1  0.66664700  0.33335300  0.75000000  1
  Zn  Zn1  1  0.33335300  0.66664700  0.25000000  1
  H  H2  1  0.39510900  0.84330100  0.04124200  1
  H  H3  1  0.15669900  0.60489100  0.45875800  1
  H  H4  1  0.60489100  0.15669900  0.95875800  1
  H  H5  1  0.84330100  0.39510900  0.54124200  1
  H  H6  1  0.50177900  0.58485500  0.03525100  1
  H  H7  1  0.41514500  0.49822100  0.46474900  1
  H  H8  1  0.49822100  0.41514500  0.96474900  1
  H  H9  1  0.58485500  0.50177900  0.53525100  1
  H  H10  1  0.11913800  0.24168200  0.95157000  1
  H  H11  1  0.75831800  0.88086200  0.54843000  1
  H  H12  1  0.88086200  0.75831800  0.04843000  1
  H  H13  1  0.24168200  0.11913800  0.45157000  1
  H  H14  1  0.01212700  0.29522700  0.87489000  1
  H  H15  1  0.70477300  0.98787300  0.62511000  1
  H  H16  1  0.98787300  0.70477300  0.12511000  1
  H  H17  1  0.29522700  0.01212700  0.37489000  1
  H  H18  1  0.87907500  0.47561700  0.73723400  1
  H  H19  1  0.52438300  0.12092500  0.76276600  1
  H  H20  1  0.12092500  0.52438300  0.26276600  1
  H  H21  1  0.47561700  0.87907500  0.23723400  1
  H  H22  1  0.76677000  0.70165900  0.76100000  1
  H  H23  1  0.29834100  0.23323000  0.73900000  1
  H  H24  1  0.23323000  0.29834100  0.23900000  1
  H  H25  1  0.70165900  0.76677000  0.26100000  1
  C  C26  1  0.09930100  0.98113500  0.86356000  1
  C  C27  1  0.01886500  0.90069900  0.63644000  1
  C  C28  1  0.90069900  0.01886500  0.13644000  1
  C  C29  1  0.98113500  0.09930100  0.36356000  1
  C  C30  1  0.26775800  0.91946800  0.94915500  1
  C  C31  1  0.08053200  0.73224200  0.55084500  1
  C  C32  1  0.73224200  0.08053200  0.05084500  1
  C  C33  1  0.91946800  0.26775800  0.44915500  1
  C  C34  1  0.13813600  0.59904100  0.85268800  1
  C  C35  1  0.40095900  0.86186400  0.64731200  1
  C  C36  1  0.86186400  0.40095900  0.14731200  1
  C  C37  1  0.59904100  0.13813600  0.35268800  1
  S  S38  1  0.85438400  0.75353300  0.90204600  1
  S  S39  1  0.24646700  0.14561600  0.59795400  1
  S  S40  1  0.14561600  0.24646700  0.09795400  1
  S  S41  1  0.75353300  0.85438400  0.40204600  1
  N  N42  1  0.34841500  0.48204800  0.81667000  1
  N  N43  1  0.51795200  0.65158500  0.68333000  1
  N  N44  1  0.65158500  0.51795200  0.18333000  1
  N  N45  1  0.48204800  0.34841500  0.31667000  1
  N  N46  1  0.94577500  0.11991600  0.81632300  1
  N  N47  1  0.88008400  0.05422500  0.68367700  1
  N  N48  1  0.05422500  0.88008400  0.18367700  1
  N  N49  1  0.11991600  0.94577500  0.31632300  1
  N  N50  1  0.27012100  0.81833800  0.91606400  1
  N  N51  1  0.18166200  0.72987900  0.58393600  1
  N  N52  1  0.72987900  0.18166200  0.08393600  1
  N  N53  1  0.81833800  0.27012100  0.41606400  1
  N  N54  1  0.42507700  0.75412900  0.00928200  1
  N  N55  1  0.24587100  0.57492300  0.49071800  1
  N  N56  1  0.57492300  0.24587100  0.99071800  1
  N  N57  1  0.75412900  0.42507700  0.50928200  1
  N  N58  1  0.11844400  0.17215400  0.92402000  1
  N  N59  1  0.82784600  0.88155600  0.57598000  1
  N  N60  1  0.88155600  0.82784600  0.07598000  1
  N  N61  1  0.17215400  0.11844400  0.42402000  1
  O  O62  1  0.91795200  0.49399300  0.76994800  1
  O  O63  1  0.50600700  0.08204800  0.73005200  1
  O  O64  1  0.08204800  0.50600700  0.23005200  1
  O  O65  1  0.49399300  0.91795200  0.26994800  1
