# generated using pymatgen
data_PH5N2O3
_symmetry_space_group_name_H-M   'P 1'
_cell_length_a   8.28288200
_cell_length_b   8.31290242
_cell_length_c   8.61766471
_cell_angle_alpha   107.62515845
_cell_angle_beta   118.65647727
_cell_angle_gamma   85.37980082
_symmetry_Int_Tables_number   1
_chemical_formula_structural   PH5N2O3
_chemical_formula_sum   'P4 H20 N8 O12'
_cell_volume   494.75903702
_cell_formula_units_Z   4
loop_
 _symmetry_equiv_pos_site_id
 _symmetry_equiv_pos_as_xyz
  1  'x, y, z'
loop_
 _atom_site_type_symbol
 _atom_site_label
 _atom_site_symmetry_multiplicity
 _atom_site_fract_x
 _atom_site_fract_y
 _atom_site_fract_z
 _atom_site_occupancy
  P  P0  1  0.33578300  0.24469200  0.71043900  1
  P  P1  1  0.66421700  0.75530800  0.28956100  1
  P  P2  1  0.26979000  0.25313900  0.02654100  1
  P  P3  1  0.73021000  0.74686100  0.97345900  1
  H  H4  1  0.00004800  0.20654900  0.00258900  1
  H  H5  1  0.99995200  0.79345100  0.99741100  1
  H  H6  1  0.68688800  0.00993500  0.94267000  1
  H  H7  1  0.31311200  0.99006500  0.05733000  1
  H  H8  1  0.25577800  0.51737300  0.77091900  1
  H  H9  1  0.74422200  0.48262700  0.22908100  1
  H  H10  1  0.25485100  0.56174100  0.39478500  1
  H  H11  1  0.74514900  0.43825900  0.60521500  1
  H  H12  1  0.91512500  0.85435800  0.70829500  1
  H  H13  1  0.08487500  0.14564200  0.29170500  1
  H  H14  1  0.69175200  0.07564600  0.50906900  1
  H  H15  1  0.30824800  0.92435400  0.49093100  1
  H  H16  1  0.53241800  0.19120600  0.39190400  1
  H  H17  1  0.46758200  0.80879400  0.60809600  1
  H  H18  1  0.90548200  0.26344000  0.38275700  1
  H  H19  1  0.09451800  0.73656000  0.61724300  1
  H  H20  1  0.10271400  0.69474600  0.31372400  1
  H  H21  1  0.89728600  0.30525400  0.68627600  1
  H  H22  1  0.40556400  0.76875000  0.37586000  1
  H  H23  1  0.59443600  0.23125000  0.62414000  1
  N  N24  1  0.87313300  0.27156200  0.25169900  1
  N  N25  1  0.12686700  0.72843800  0.74830100  1
  N  N26  1  0.21410700  0.68057500  0.43195400  1
  N  N27  1  0.78589300  0.31942500  0.56804600  1
  N  N28  1  0.98114800  0.20014900  0.19541100  1
  N  N29  1  0.01885200  0.79985100  0.80458900  1
  N  N30  1  0.64070000  0.19946100  0.52278300  1
  N  N31  1  0.35930000  0.80053900  0.47721700  1
  O  O32  1  0.20668100  0.39913000  0.69426300  1
  O  O33  1  0.79331900  0.60087000  0.30573700  1
  O  O34  1  0.75721000  0.88869900  0.47760400  1
  O  O35  1  0.24279000  0.11130100  0.52239600  1
  O  O36  1  0.46362200  0.70325800  0.21088500  1
  O  O37  1  0.53637800  0.29674200  0.78911500  1
  O  O38  1  0.68799400  0.83327400  0.14855800  1
  O  O39  1  0.31200600  0.16672600  0.85144200  1
  O  O40  1  0.04733200  0.19915900  0.91112400  1
  O  O41  1  0.95266800  0.80084100  0.08887600  1
  O  O42  1  0.64733300  0.89161400  0.86496500  1
  O  O43  1  0.35266700  0.10838600  0.13503500  1
