# generated using pymatgen
data_CdRe2H8C2(N2O5)2
_symmetry_space_group_name_H-M   'P 1'
_cell_length_a   10.51898100
_cell_length_b   8.30276900
_cell_length_c   15.79618623
_cell_angle_alpha   85.35952739
_cell_angle_beta   90.00000000
_cell_angle_gamma   90.00000000
_symmetry_Int_Tables_number   1
_chemical_formula_structural   CdRe2H8C2(N2O5)2
_chemical_formula_sum   'Cd4 Re8 H32 C8 N16 O40'
_cell_volume   1375.06398107
_cell_formula_units_Z   4
loop_
 _symmetry_equiv_pos_site_id
 _symmetry_equiv_pos_as_xyz
  1  'x, y, z'
loop_
 _atom_site_type_symbol
 _atom_site_label
 _atom_site_symmetry_multiplicity
 _atom_site_fract_x
 _atom_site_fract_y
 _atom_site_fract_z
 _atom_site_occupancy
  Cd  Cd0  1  0.57102500  0.87789400  0.25222500  1
  Cd  Cd1  1  0.07102500  0.62210600  0.74777500  1
  Cd  Cd2  1  0.42897500  0.12210600  0.74777500  1
  Cd  Cd3  1  0.92897500  0.37789400  0.25222500  1
  Re  Re4  1  0.90463700  0.96866400  0.15039700  1
  Re  Re5  1  0.40463700  0.53133600  0.84960300  1
  Re  Re6  1  0.09536300  0.03133600  0.84960300  1
  Re  Re7  1  0.59536300  0.46866400  0.15039700  1
  Re  Re8  1  0.68511900  0.18738800  0.41424500  1
  Re  Re9  1  0.18511900  0.31261200  0.58575500  1
  Re  Re10  1  0.31488100  0.81261200  0.58575500  1
  Re  Re11  1  0.81488100  0.68738800  0.41424500  1
  H  H12  1  0.34633400  0.48676700  0.40678300  1
  H  H13  1  0.84633400  0.01323300  0.59321700  1
  H  H14  1  0.65366600  0.51323300  0.59321700  1
  H  H15  1  0.15366600  0.98676700  0.40678300  1
  H  H16  1  0.48413400  0.59083400  0.37501800  1
  H  H17  1  0.98413400  0.90916600  0.62498200  1
  H  H18  1  0.51586600  0.40916600  0.62498200  1
  H  H19  1  0.01586600  0.09083400  0.37501800  1
  H  H20  1  0.14933800  0.57260800  0.35463500  1
  H  H21  1  0.64933800  0.92739200  0.64536500  1
  H  H22  1  0.85066200  0.42739200  0.64536500  1
  H  H23  1  0.35066200  0.07260800  0.35463500  1
  H  H24  1  0.13906300  0.74680900  0.28394900  1
  H  H25  1  0.63906300  0.75319100  0.71605100  1
  H  H26  1  0.86093700  0.25319100  0.71605100  1
  H  H27  1  0.36093700  0.24680900  0.28394900  1
  H  H28  1  0.34449900  0.17253100  0.98452200  1
  H  H29  1  0.84449900  0.32746900  0.01547800  1
  H  H30  1  0.65550100  0.82746900  0.01547800  1
  H  H31  1  0.15550100  0.67253100  0.98452200  1
  H  H32  1  0.49567700  0.23886400  0.01039100  1
  H  H33  1  0.99567700  0.26113600  0.98960900  1
  H  H34  1  0.50432300  0.76113600  0.98960900  1
  H  H35  1  0.00432300  0.73886400  0.01039100  1
  H  H36  1  0.24479900  0.97361000  0.06968900  1
  H  H37  1  0.74479900  0.52639000  0.93031100  1
  H  H38  1  0.75520100  0.02639000  0.93031100  1
  H  H39  1  0.25520100  0.47361000  0.06968900  1
  H  H40  1  0.31647600  0.88675400  0.16196700  1
  H  H41  1  0.81647600  0.61324600  0.83803300  1
  H  H42  1  0.68352400  0.11324600  0.83803300  1
  H  H43  1  0.18352400  0.38675400  0.16196700  1
  C  C44  1  0.31858000  0.68633700  0.32309600  1
  C  C45  1  0.81858000  0.81366300  0.67690400  1
  C  C46  1  0.68142000  0.31366300  0.67690400  1
  C  C47  1  0.18142000  0.18633700  0.32309600  1
  C  C48  1  0.42320200  0.06136700  0.09442900  1
  C  C49  1  0.92320200  0.43863300  0.90557100  1
  C  C50  1  0.57679800  0.93863300  0.90557100  1
  C  C51  1  0.07679800  0.56136700  0.09442900  1
  N  N52  1  0.38871700  0.57622900  0.36903600  1
  N  N53  1  0.88871700  0.92377100  0.63096400  1
  N  N54  1  0.61128300  0.42377100  0.63096400  1
  N  N55  1  0.11128300  0.07622900  0.36903600  1
  N  N56  1  0.19129400  0.67111800  0.32410000  1
  N  N57  1  0.69129400  0.82888200  0.67590000  1
  N  N58  1  0.80870600  0.32888200  0.67590000  1
  N  N59  1  0.30870600  0.17111800  0.32410000  1
  N  N60  1  0.41844800  0.16985700  0.02583900  1
  N  N61  1  0.91844800  0.33014300  0.97416100  1
  N  N62  1  0.58155200  0.83014300  0.97416100  1
  N  N63  1  0.08155200  0.66985700  0.02583900  1
  N  N64  1  0.32256400  0.96174000  0.10753900  1
  N  N65  1  0.82256400  0.53826000  0.89246100  1
  N  N66  1  0.67743600  0.03826000  0.89246100  1
  N  N67  1  0.17743600  0.46174000  0.10753900  1
  O  O68  1  0.79051700  0.89194700  0.22459900  1
  O  O69  1  0.29051700  0.60805300  0.77540100  1
  O  O70  1  0.20948300  0.10805300  0.77540100  1
  O  O71  1  0.70948300  0.39194700  0.22459900  1
  O  O72  1  0.90937100  0.18151600  0.15062100  1
  O  O73  1  0.40937100  0.31848400  0.84937900  1
  O  O74  1  0.09062900  0.81848400  0.84937900  1
  O  O75  1  0.59062900  0.68151600  0.15062100  1
  O  O76  1  0.86533600  0.91802400  0.04783500  1
  O  O77  1  0.36533600  0.58197600  0.95216500  1
  O  O78  1  0.13466400  0.08197600  0.95216500  1
  O  O79  1  0.63466400  0.41802400  0.04783500  1
  O  O80  1  0.05346100  0.89275500  0.18035700  1
  O  O81  1  0.55346100  0.60724500  0.81964300  1
  O  O82  1  0.94653900  0.10724500  0.81964300  1
  O  O83  1  0.44653900  0.39275500  0.18035700  1
  O  O84  1  0.58890500  0.06968200  0.35095700  1
  O  O85  1  0.08890500  0.43031800  0.64904300  1
  O  O86  1  0.41109500  0.93031800  0.64904300  1
  O  O87  1  0.91109500  0.56968200  0.35095700  1
  O  O88  1  0.83892200  0.21615300  0.37040000  1
  O  O89  1  0.33892200  0.28384700  0.62960000  1
  O  O90  1  0.16107800  0.78384700  0.62960000  1
  O  O91  1  0.66107800  0.71615300  0.37040000  1
  O  O92  1  0.69589100  0.09053200  0.51659000  1
  O  O93  1  0.19589100  0.40946800  0.48341000  1
  O  O94  1  0.30410900  0.90946800  0.48341000  1
  O  O95  1  0.80410900  0.59053200  0.51659000  1
  O  O96  1  0.61302300  0.37369300  0.42236900  1
  O  O97  1  0.11302300  0.12630700  0.57763100  1
  O  O98  1  0.38697700  0.62630700  0.57763100  1
  O  O99  1  0.88697700  0.87369300  0.42236900  1
  O  O100  1  0.36857100  0.80628000  0.27790300  1
  O  O101  1  0.86857100  0.69372000  0.72209700  1
  O  O102  1  0.63142900  0.19372000  0.72209700  1
  O  O103  1  0.13142900  0.30628000  0.27790300  1
  O  O104  1  0.52084400  0.05718200  0.14270200  1
  O  O105  1  0.02084400  0.44281800  0.85729800  1
  O  O106  1  0.47915600  0.94281800  0.85729800  1
  O  O107  1  0.97915600  0.55718200  0.14270200  1
