# generated using pymatgen
data_CsCoH18N6(ClO2)4
_symmetry_space_group_name_H-M   'P 1'
_cell_length_a   9.95730583
_cell_length_b   9.95730583
_cell_length_c   9.95730604
_cell_angle_alpha   42.90510988
_cell_angle_beta   42.90510988
_cell_angle_gamma   42.90511096
_symmetry_Int_Tables_number   1
_chemical_formula_structural   CsCoH18N6(ClO2)4
_chemical_formula_sum   'Cs1 Co1 H18 N6 Cl4 O8'
_cell_volume   414.65182748
_cell_formula_units_Z   1
loop_
 _symmetry_equiv_pos_site_id
 _symmetry_equiv_pos_as_xyz
  1  'x, y, z'
loop_
 _atom_site_type_symbol
 _atom_site_label
 _atom_site_symmetry_multiplicity
 _atom_site_fract_x
 _atom_site_fract_y
 _atom_site_fract_z
 _atom_site_occupancy
  Cs  Cs0  1  0.50000000  0.50000000  0.50000000  1
  Co  Co1  1  0.00000000  0.00000000  0.00000000  1
  H  H2  1  0.83122500  0.41530000  0.83009700  1
  H  H3  1  0.83009700  0.83122500  0.41530000  1
  H  H4  1  0.41530000  0.83009700  0.83122500  1
  H  H5  1  0.16877500  0.58470000  0.16990300  1
  H  H6  1  0.16990300  0.16877500  0.58470000  1
  H  H7  1  0.58470000  0.16990300  0.16877500  1
  H  H8  1  0.97321400  0.31996800  0.93550900  1
  H  H9  1  0.93550900  0.97321400  0.31996800  1
  H  H10  1  0.31996800  0.93550900  0.97321400  1
  H  H11  1  0.02678600  0.68003200  0.06449100  1
  H  H12  1  0.06449100  0.02678600  0.68003200  1
  H  H13  1  0.68003200  0.06449100  0.02678600  1
  H  H14  1  0.72966700  0.32357300  0.09316800  1
  H  H15  1  0.09316800  0.72966700  0.32357300  1
  H  H16  1  0.32357300  0.09316800  0.72966700  1
  H  H17  1  0.27033300  0.67642700  0.90683200  1
  H  H18  1  0.90683200  0.27033300  0.67642700  1
  H  H19  1  0.67642700  0.90683200  0.27033300  1
  N  N20  1  0.87299900  0.29429100  0.95966500  1
  N  N21  1  0.95966500  0.87299900  0.29429100  1
  N  N22  1  0.29429100  0.95966500  0.87299900  1
  N  N23  1  0.12700100  0.70570900  0.04033500  1
  N  N24  1  0.04033500  0.12700100  0.70570900  1
  N  N25  1  0.70570900  0.04033500  0.12700100  1
  Cl  Cl26  1  0.63138100  0.63138100  0.63138100  1
  Cl  Cl27  1  0.36861900  0.36861900  0.36861900  1
  Cl  Cl28  1  0.80841300  0.80841300  0.80841300  1
  Cl  Cl29  1  0.19158700  0.19158700  0.19158700  1
  O  O30  1  0.86252200  0.86252200  0.86252200  1
  O  O31  1  0.13747800  0.13747800  0.13747800  1
  O  O32  1  0.71483600  0.00541000  0.65067900  1
  O  O33  1  0.65067900  0.71483600  0.00541000  1
  O  O34  1  0.00541000  0.65067900  0.71483600  1
  O  O35  1  0.28516400  0.99459000  0.34932100  1
  O  O36  1  0.34932100  0.28516400  0.99459000  1
  O  O37  1  0.99459000  0.34932100  0.28516400  1
