# generated using pymatgen
data_CoH17C(NO)8
_symmetry_space_group_name_H-M   'P 1'
_cell_length_a   7.94205308
_cell_length_b   7.94205308
_cell_length_c   12.64028046
_cell_angle_alpha   73.43925738
_cell_angle_beta   73.43925738
_cell_angle_gamma   60.86692470
_symmetry_Int_Tables_number   1
_chemical_formula_structural   CoH17C(NO)8
_chemical_formula_sum   'Co2 H34 C2 N16 O16'
_cell_volume   657.28054765
_cell_formula_units_Z   2
loop_
 _symmetry_equiv_pos_site_id
 _symmetry_equiv_pos_as_xyz
  1  'x, y, z'
loop_
 _atom_site_type_symbol
 _atom_site_label
 _atom_site_symmetry_multiplicity
 _atom_site_fract_x
 _atom_site_fract_y
 _atom_site_fract_z
 _atom_site_occupancy
  Co  Co0  1  0.01692600  0.47696400  0.49526000  1
  Co  Co1  1  0.47696400  0.01692600  0.99526000  1
  H  H2  1  0.74638900  0.52649100  0.68329000  1
  H  H3  1  0.52649100  0.74638900  0.18329000  1
  H  H4  1  0.65111800  0.58620300  0.56921700  1
  H  H5  1  0.58620300  0.65111800  0.06921700  1
  H  H6  1  0.69278500  0.74790800  0.60192500  1
  H  H7  1  0.74790800  0.69278500  0.10192500  1
  H  H8  1  0.10448000  0.17794300  0.67208800  1
  H  H9  1  0.17794300  0.10448000  0.17208800  1
  H  H10  1  0.17239600  0.08912300  0.55446700  1
  H  H11  1  0.08912300  0.17239600  0.05446700  1
  H  H12  1  0.93961200  0.18487200  0.61259400  1
  H  H13  1  0.18487200  0.93961200  0.11259400  1
  H  H14  1  0.33531400  0.44998700  0.33996700  1
  H  H15  1  0.44998700  0.33531400  0.83996700  1
  H  H16  1  0.40701900  0.27082100  0.45035400  1
  H  H17  1  0.27082100  0.40701900  0.95035400  1
  H  H18  1  0.29623400  0.25418500  0.36206200  1
  H  H19  1  0.25418500  0.29623400  0.86206200  1
  H  H20  1  0.88019000  0.79839700  0.34717800  1
  H  H21  1  0.79839700  0.88019000  0.84717800  1
  H  H22  1  0.09413000  0.77301200  0.36221700  1
  H  H23  1  0.77301200  0.09413000  0.86221700  1
  H  H24  1  0.89366400  0.86401400  0.45643000  1
  H  H25  1  0.86401400  0.89366400  0.95643000  1
  H  H26  1  0.27674000  0.40642000  0.62223900  1
  H  H27  1  0.40642000  0.27674000  0.12223900  1
  H  H28  1  0.05558400  0.56377900  0.67438400  1
  H  H29  1  0.56377900  0.05558400  0.17438400  1
  H  H30  1  0.19249600  0.63843700  0.56328700  1
  H  H31  1  0.63843700  0.19249600  0.06328700  1
  H  H32  1  0.64816800  0.44586400  0.31812900  1
  H  H33  1  0.44586400  0.64816800  0.81812900  1
  H  H34  1  0.80992100  0.27700500  0.23185600  1
  H  H35  1  0.27700500  0.80992100  0.73185600  1
  C  C36  1  0.93261200  0.31782700  0.33864300  1
  C  C37  1  0.31782700  0.93261200  0.83864300  1
  N  N38  1  0.74610400  0.60117400  0.60188000  1
  N  N39  1  0.60117400  0.74610400  0.10188000  1
  N  N40  1  0.06596800  0.20083200  0.59578100  1
  N  N41  1  0.20083200  0.06596800  0.09578100  1
  N  N42  1  0.30110800  0.34963100  0.40062400  1
  N  N43  1  0.34963100  0.30110800  0.90062400  1
  N  N44  1  0.96698900  0.76304400  0.40393900  1
  N  N45  1  0.76304400  0.96698900  0.90393900  1
  N  N46  1  0.15149000  0.52741400  0.60125200  1
  N  N47  1  0.52741400  0.15149000  0.10125200  1
  N  N48  1  0.78002800  0.32771000  0.30334400  1
  N  N49  1  0.32771000  0.78002800  0.80334400  1
  N  N50  1  0.81411100  0.42166300  0.89653200  1
  N  N51  1  0.42166300  0.81411100  0.39653200  1
  N  N52  1  0.10135900  0.65715300  0.11782200  1
  N  N53  1  0.65715300  0.10135900  0.61782200  1
  O  O54  1  0.87887400  0.44282200  0.40572300  1
  O  O55  1  0.44282200  0.87887400  0.90572300  1
  O  O56  1  0.10623500  0.19657100  0.31087700  1
  O  O57  1  0.19657100  0.10623500  0.81087700  1
  O  O58  1  0.72211900  0.39345200  0.83996100  1
  O  O59  1  0.39345200  0.72211900  0.33996100  1
  O  O60  1  0.81365500  0.34274900  0.99933900  1
  O  O61  1  0.34274900  0.81365500  0.49933900  1
  O  O62  1  0.90227500  0.52630900  0.85067100  1
  O  O63  1  0.52630900  0.90227500  0.35067100  1
  O  O64  1  0.96933500  0.82741000  0.13275600  1
  O  O65  1  0.82741000  0.96933400  0.63275600  1
  O  O66  1  0.26605600  0.59064200  0.14659400  1
  O  O67  1  0.59064200  0.26605600  0.64659400  1
  O  O68  1  0.06739400  0.55463600  0.07322800  1
  O  O69  1  0.55463600  0.06739400  0.57322800  1
