# generated using pymatgen
data_Ca(GaO2)2
_symmetry_space_group_name_H-M   'P 1'
_cell_length_a   8.93786900
_cell_length_b   8.07387100
_cell_length_c   10.72860865
_cell_angle_alpha   85.13213138
_cell_angle_beta   90.00000000
_cell_angle_gamma   90.00000000
_symmetry_Int_Tables_number   1
_chemical_formula_structural   Ca(GaO2)2
_chemical_formula_sum   'Ca8 Ga16 O32'
_cell_volume   771.41819960
_cell_formula_units_Z   8
loop_
 _symmetry_equiv_pos_site_id
 _symmetry_equiv_pos_as_xyz
  1  'x, y, z'
loop_
 _atom_site_type_symbol
 _atom_site_label
 _atom_site_symmetry_multiplicity
 _atom_site_fract_x
 _atom_site_fract_y
 _atom_site_fract_z
 _atom_site_occupancy
  Ca  Ca0  1  0.71473800  0.00063400  0.87182700  1
  Ca  Ca1  1  0.21473800  0.99936600  0.62817300  1
  Ca  Ca2  1  0.28526200  0.99936600  0.12817300  1
  Ca  Ca3  1  0.78526200  0.00063400  0.37182700  1
  Ca  Ca4  1  0.73897800  0.46259200  0.85552000  1
  Ca  Ca5  1  0.23897800  0.53740800  0.64448000  1
  Ca  Ca6  1  0.26102200  0.53740800  0.14448000  1
  Ca  Ca7  1  0.76102200  0.46259200  0.35552000  1
  Ga  Ga8  1  0.05816000  0.76513300  0.86984800  1
  Ga  Ga9  1  0.55816000  0.23486700  0.63015200  1
  Ga  Ga10  1  0.94184000  0.23486700  0.13015200  1
  Ga  Ga11  1  0.44184000  0.76513300  0.36984800  1
  Ga  Ga12  1  0.05592400  0.17535600  0.86182500  1
  Ga  Ga13  1  0.55592400  0.82464400  0.63817500  1
  Ga  Ga14  1  0.94407600  0.82464400  0.13817500  1
  Ga  Ga15  1  0.44407600  0.17535600  0.36182500  1
  Ga  Ga16  1  0.90449900  0.30061100  0.61019700  1
  Ga  Ga17  1  0.40449900  0.69938900  0.88980300  1
  Ga  Ga18  1  0.09550100  0.69938900  0.38980300  1
  Ga  Ga19  1  0.59550100  0.30061100  0.11019700  1
  Ga  Ga20  1  0.89170400  0.70906900  0.61683700  1
  Ga  Ga21  1  0.39170400  0.29093100  0.88316300  1
  Ga  Ga22  1  0.10829600  0.29093100  0.38316300  1
  Ga  Ga23  1  0.60829600  0.70906900  0.11683700  1
  O  O24  1  0.97080500  0.97226400  0.82864200  1
  O  O25  1  0.47080500  0.02773600  0.67135800  1
  O  O26  1  0.02919500  0.02773600  0.17135800  1
  O  O27  1  0.52919500  0.97226400  0.32864200  1
  O  O28  1  0.74402100  0.23272000  0.71466300  1
  O  O29  1  0.24402100  0.76728000  0.78533700  1
  O  O30  1  0.25597900  0.76728000  0.28533700  1
  O  O31  1  0.75597900  0.23272000  0.21466300  1
  O  O32  1  0.08627200  0.27409800  0.69732100  1
  O  O33  1  0.58627200  0.72590200  0.80267900  1
  O  O34  1  0.91372800  0.72590200  0.30267900  1
  O  O35  1  0.41372800  0.27409800  0.19732100  1
  O  O36  1  0.07159500  0.79106000  0.54376800  1
  O  O37  1  0.57159500  0.20894000  0.95623200  1
  O  O38  1  0.92840500  0.20894000  0.45623200  1
  O  O39  1  0.42840500  0.79106000  0.04376800  1
  O  O40  1  0.83679800  0.51219700  0.55227200  1
  O  O41  1  0.33679800  0.48780300  0.94772800  1
  O  O42  1  0.16320200  0.48780300  0.44772800  1
  O  O43  1  0.66320200  0.51219700  0.05227200  1
  O  O44  1  0.74404500  0.86217100  0.56924900  1
  O  O45  1  0.24404500  0.13782900  0.93075100  1
  O  O46  1  0.25595500  0.13782900  0.43075100  1
  O  O47  1  0.75595500  0.86217100  0.06924900  1
  O  O48  1  0.56584400  0.63061300  0.28223800  1
  O  O49  1  0.06584400  0.36938700  0.21776200  1
  O  O50  1  0.43415600  0.36938700  0.71776200  1
  O  O51  1  0.93415600  0.63061300  0.78223800  1
  O  O52  1  0.58257500  0.27778600  0.45900800  1
  O  O53  1  0.08257500  0.72221400  0.04099200  1
  O  O54  1  0.41742500  0.72221400  0.54099200  1
  O  O55  1  0.91742500  0.27778600  0.95900800  1
