# generated using pymatgen
data_MnPH5CO4
_symmetry_space_group_name_H-M   'P 1'
_cell_length_a   4.93428600
_cell_length_b   5.88915100
_cell_length_c   17.70579000
_cell_angle_alpha   90.00000000
_cell_angle_beta   90.00000000
_cell_angle_gamma   90.00000000
_symmetry_Int_Tables_number   1
_chemical_formula_structural   MnPH5CO4
_chemical_formula_sum   'Mn4 P4 H20 C4 O16'
_cell_volume   514.50821956
_cell_formula_units_Z   4
loop_
 _symmetry_equiv_pos_site_id
 _symmetry_equiv_pos_as_xyz
  1  'x, y, z'
loop_
 _atom_site_type_symbol
 _atom_site_label
 _atom_site_symmetry_multiplicity
 _atom_site_fract_x
 _atom_site_fract_y
 _atom_site_fract_z
 _atom_site_occupancy
  Mn  Mn0  1  0.66730500  0.28227400  0.73669900  1
  Mn  Mn1  1  0.33269500  0.78227400  0.26330100  1
  Mn  Mn2  1  0.16730500  0.78227400  0.76330100  1
  Mn  Mn3  1  0.83269500  0.28227400  0.23669900  1
  P  P4  1  0.72569300  0.78277300  0.65242900  1
  P  P5  1  0.27430700  0.28277300  0.34757100  1
  P  P6  1  0.22569300  0.28277300  0.84757100  1
  P  P7  1  0.77430700  0.78277300  0.15242900  1
  H  H8  1  0.71776400  0.60645600  0.53109200  1
  H  H9  1  0.28223600  0.10645600  0.46890800  1
  H  H10  1  0.21776400  0.10645600  0.96890800  1
  H  H11  1  0.78223600  0.60645600  0.03109200  1
  H  H12  1  0.68759100  0.90718900  0.52181500  1
  H  H13  1  0.31240900  0.40718900  0.47818500  1
  H  H14  1  0.18759100  0.40718900  0.97818500  1
  H  H15  1  0.81240900  0.90718900  0.02181500  1
  H  H16  1  0.01074600  0.78214100  0.54254200  1
  H  H17  1  0.98925400  0.28214100  0.45745800  1
  H  H18  1  0.51074600  0.28214100  0.95745800  1
  H  H19  1  0.48925400  0.78214100  0.04254200  1
  H  H20  1  0.24049500  0.42015500  0.64497300  1
  H  H21  1  0.75950500  0.92015500  0.35502700  1
  H  H22  1  0.74049500  0.92015500  0.85502700  1
  H  H23  1  0.25950500  0.42015500  0.14497300  1
  H  H24  1  0.23089300  0.15339600  0.64691700  1
  H  H25  1  0.76910700  0.65339600  0.35308300  1
  H  H26  1  0.73089300  0.65339600  0.85308300  1
  H  H27  1  0.26910700  0.15339600  0.14691700  1
  C  C28  1  0.79143400  0.77041000  0.55242000  1
  C  C29  1  0.20856600  0.27041000  0.44758000  1
  C  C30  1  0.29143400  0.27041000  0.94758000  1
  C  C31  1  0.70856600  0.77041000  0.05242000  1
  O  O32  1  0.41902700  0.78411100  0.66499500  1
  O  O33  1  0.58097300  0.28411100  0.33500500  1
  O  O34  1  0.91902700  0.28411100  0.83500500  1
  O  O35  1  0.08097300  0.78411100  0.16499500  1
  O  O36  1  0.35504900  0.28338200  0.64308600  1
  O  O37  1  0.64495100  0.78338200  0.35691400  1
  O  O38  1  0.85504900  0.78338200  0.85691400  1
  O  O39  1  0.14495100  0.28338200  0.14308600  1
  O  O40  1  0.86873900  0.57254600  0.68905900  1
  O  O41  1  0.13126100  0.07254600  0.31094100  1
  O  O42  1  0.36873900  0.07254600  0.81094100  1
  O  O43  1  0.63126100  0.57254600  0.18905900  1
  O  O44  1  0.86984300  0.99536800  0.68704400  1
  O  O45  1  0.13015700  0.49536800  0.31295600  1
  O  O46  1  0.36984300  0.49536800  0.81295600  1
  O  O47  1  0.63015700  0.99536800  0.18704400  1
