# generated using pymatgen
data_MnH19C6I3N2
_symmetry_space_group_name_H-M   'P 1'
_cell_length_a   10.97985200
_cell_length_b   12.03761900
_cell_length_c   13.37048769
_cell_angle_alpha   84.07932672
_cell_angle_beta   90.00000000
_cell_angle_gamma   90.00000000
_symmetry_Int_Tables_number   1
_chemical_formula_structural   MnH19C6I3N2
_chemical_formula_sum   'Mn4 H76 C24 I12 N8'
_cell_volume   1757.76759518
_cell_formula_units_Z   4
loop_
 _symmetry_equiv_pos_site_id
 _symmetry_equiv_pos_as_xyz
  1  'x, y, z'
loop_
 _atom_site_type_symbol
 _atom_site_label
 _atom_site_symmetry_multiplicity
 _atom_site_fract_x
 _atom_site_fract_y
 _atom_site_fract_z
 _atom_site_occupancy
  Mn  Mn0  1  0.94863200  0.81521600  0.76415500  1
  Mn  Mn1  1  0.44863200  0.68478400  0.23584500  1
  Mn  Mn2  1  0.05136800  0.18478400  0.23584500  1
  Mn  Mn3  1  0.55136800  0.31521600  0.76415500  1
  H  H4  1  0.80643400  0.79571400  0.34503400  1
  H  H5  1  0.30643400  0.70428600  0.65496600  1
  H  H6  1  0.19356600  0.20428600  0.65496600  1
  H  H7  1  0.69356600  0.29571400  0.34503400  1
  H  H8  1  0.72814300  0.76870500  0.01386800  1
  H  H9  1  0.22814300  0.73129500  0.98613200  1
  H  H10  1  0.27185700  0.23129500  0.98613200  1
  H  H11  1  0.77185700  0.26870500  0.01386800  1
  H  H12  1  0.71350300  0.85875800  0.89913100  1
  H  H13  1  0.21350300  0.64124200  0.10086900  1
  H  H14  1  0.28649700  0.14124200  0.10086900  1
  H  H15  1  0.78649700  0.35875800  0.89913100  1
  H  H16  1  0.84286100  0.87235900  0.97834200  1
  H  H17  1  0.34286100  0.62764100  0.02165800  1
  H  H18  1  0.15713900  0.12764100  0.02165800  1
  H  H19  1  0.65713900  0.37235900  0.97834200  1
  H  H20  1  0.99356800  0.71128800  0.99429900  1
  H  H21  1  0.49356800  0.78871200  0.00570100  1
  H  H22  1  0.00643200  0.28871200  0.00570100  1
  H  H23  1  0.50643200  0.21128800  0.99429900  1
  H  H24  1  0.96481500  0.59631700  0.92303600  1
  H  H25  1  0.46481500  0.90368300  0.07696400  1
  H  H26  1  0.03518500  0.40368300  0.07696400  1
  H  H27  1  0.53518500  0.09631700  0.92303600  1
  H  H28  1  0.86661400  0.61905100  0.02632000  1
  H  H29  1  0.36661400  0.88094900  0.97368000  1
  H  H30  1  0.13338600  0.38094900  0.97368000  1
  H  H31  1  0.63338600  0.11905100  0.02632000  1
  H  H32  1  0.79631100  0.59484200  0.81285300  1
  H  H33  1  0.29631100  0.90515800  0.18714700  1
  H  H34  1  0.20368900  0.40515800  0.18714700  1
  H  H35  1  0.70368900  0.09484200  0.81285300  1
  H  H36  1  0.69460900  0.71071300  0.79796300  1
  H  H37  1  0.19460900  0.78928700  0.20203700  1
  H  H38  1  0.30539100  0.28928700  0.20203700  1
  H  H39  1  0.80539100  0.21071300  0.79796300  1
  H  H40  1  0.69332300  0.61885200  0.91339300  1
  H  H41  1  0.19332300  0.88114800  0.08660700  1
  H  H42  1  0.30667700  0.38114800  0.08660700  1
  H  H43  1  0.80667700  0.11885200  0.91339300  1
  H  H44  1  0.99190400  0.64527100  0.27264400  1
  H  H45  1  0.49190400  0.85472900  0.72735600  1
  H  H46  1  0.00809600  0.35472900  0.72735600  1
  H  H47  1  0.50809600  0.14527100  0.27264400  1
  H  H48  1  0.93566400  0.77414500  0.20719300  1
  H  H49  1  0.43566400  0.72585500  0.79280700  1
  H  H50  1  0.06433600  0.22585500  0.79280700  1
  H  H51  1  0.56433600  0.27414500  0.20719300  1
  H  H52  1  0.83476200  0.65661800  0.23408200  1
  H  H53  1  0.33476200  0.84338200  0.76591800  1
  H  H54  1  0.16523800  0.34338200  0.76591800  1
  H  H55  1  0.66523800  0.15661800  0.23408200  1
  H  H56  1  0.91534100  0.59115600  0.44897800  1
  H  H57  1  0.41534100  0.90884400  0.55102200  1
  H  H58  1  0.08465900  0.40884400  0.55102200  1
  H  H59  1  0.58465900  0.09115600  0.44897800  1
  H  H60  1  0.76252200  0.60976300  0.40209700  1
  H  H61  1  0.26252200  0.89023700  0.59790300  1
  H  H62  1  0.23747800  0.39023700  0.59790300  1
  H  H63  1  0.73747800  0.10976300  0.40209700  1
  H  H64  1  0.81415300  0.68605500  0.50319000  1
  H  H65  1  0.31415300  0.81394500  0.49681000  1
  H  H66  1  0.18584700  0.31394500  0.49681000  1
  H  H67  1  0.68584700  0.18605500  0.50319000  1
  H  H68  1  0.95472300  0.84262700  0.46629200  1
  H  H69  1  0.45472300  0.65737300  0.53370800  1
  H  H70  1  0.04527700  0.15737300  0.53370800  1
  H  H71  1  0.54527700  0.34262700  0.46629200  1
  H  H72  1  0.00375700  0.87903000  0.33862400  1
  H  H73  1  0.50375700  0.62097000  0.66137600  1
  H  H74  1  0.99624300  0.12097000  0.66137600  1
  H  H75  1  0.49624300  0.37903000  0.33862400  1
  H  H76  1  0.06343800  0.75536600  0.40974100  1
  H  H77  1  0.56343800  0.74463400  0.59025900  1
  H  H78  1  0.93656200  0.24463400  0.59025900  1
  H  H79  1  0.43656200  0.25536600  0.40974100  1
  C  C80  1  0.77852300  0.81307500  0.95029800  1
  C  C81  1  0.27852300  0.68692500  0.04970200  1
  C  C82  1  0.22147700  0.18692500  0.04970200  1
  C  C83  1  0.72147700  0.31307500  0.95029800  1
  C  C84  1  0.92204900  0.66028000  0.96414700  1
  C  C85  1  0.42204900  0.83972000  0.03585300  1
  C  C86  1  0.07795100  0.33972000  0.03585300  1
  C  C87  1  0.57795100  0.16028000  0.96414700  1
  C  C88  1  0.75102800  0.65892100  0.85229300  1
  C  C89  1  0.25102800  0.84107900  0.14770700  1
  C  C90  1  0.24897200  0.34107900  0.14770700  1
  C  C91  1  0.74897200  0.15892100  0.85229300  1
  C  C92  1  0.91343400  0.70158500  0.26048000  1
  C  C93  1  0.41343400  0.79841500  0.73952000  1
  C  C94  1  0.08656600  0.29841500  0.73952000  1
  C  C95  1  0.58656600  0.20158500  0.26048000  1
  C  C96  1  0.84033300  0.65064400  0.43399800  1
  C  C97  1  0.34033300  0.84935600  0.56600200  1
  C  C98  1  0.15966700  0.34935600  0.56600200  1
  C  C99  1  0.65966700  0.15064400  0.43399800  1
  C  C100  1  0.98366800  0.81010400  0.39637500  1
  C  C101  1  0.48366800  0.68989600  0.60362500  1
  C  C102  1  0.01633200  0.18989600  0.60362500  1
  C  C103  1  0.51633200  0.31010400  0.39637500  1
  I  I104  1  0.07270200  0.64914400  0.68923100  1
  I  I105  1  0.57270200  0.85085600  0.31076900  1
  I  I106  1  0.92729800  0.35085600  0.31076900  1
  I  I107  1  0.42729800  0.14914400  0.68923100  1
  I  I108  1  0.09680800  0.95835500  0.84286100  1
  I  I109  1  0.59680800  0.54164500  0.15713900  1
  I  I110  1  0.90319200  0.04164500  0.15713900  1
  I  I111  1  0.40319200  0.45835500  0.84286100  1
  I  I112  1  0.78219700  0.91422600  0.63844600  1
  I  I113  1  0.28219700  0.58577400  0.36155400  1
  I  I114  1  0.21780300  0.08577400  0.36155400  1
  I  I115  1  0.71780300  0.41422600  0.63844600  1
  N  N116  1  0.84326900  0.73097000  0.89409800  1
  N  N117  1  0.34326900  0.76903000  0.10590200  1
  N  N118  1  0.15673100  0.26903000  0.10590200  1
  N  N119  1  0.65673100  0.23097000  0.89409800  1
  N  N120  1  0.88193000  0.74322300  0.35870500  1
  N  N121  1  0.38193000  0.75677700  0.64129500  1
  N  N122  1  0.11807000  0.25677700  0.64129500  1
  N  N123  1  0.61807000  0.24322300  0.35870500  1
