# generated using pymatgen
data_P2H10N2O7
_symmetry_space_group_name_H-M   'P 1'
_cell_length_a   11.45753700
_cell_length_b   8.32676000
_cell_length_c   9.31244533
_cell_angle_alpha   74.11632697
_cell_angle_beta   90.00000000
_cell_angle_gamma   90.00000000
_symmetry_Int_Tables_number   1
_chemical_formula_structural   P2H10N2O7
_chemical_formula_sum   'P8 H40 N8 O28'
_cell_volume   854.52457374
_cell_formula_units_Z   4
loop_
 _symmetry_equiv_pos_site_id
 _symmetry_equiv_pos_as_xyz
  1  'x, y, z'
loop_
 _atom_site_type_symbol
 _atom_site_label
 _atom_site_symmetry_multiplicity
 _atom_site_fract_x
 _atom_site_fract_y
 _atom_site_fract_z
 _atom_site_occupancy
  P  P0  1  0.48116500  0.25175200  0.18367400  1
  P  P1  1  0.98116500  0.74824800  0.31632600  1
  P  P2  1  0.51883500  0.74824800  0.81632600  1
  P  P3  1  0.01883500  0.25175200  0.68367400  1
  P  P4  1  0.50627600  0.86505500  0.30667700  1
  P  P5  1  0.00627600  0.13494500  0.19332300  1
  P  P6  1  0.49372400  0.13494500  0.69332300  1
  P  P7  1  0.99372400  0.86505500  0.80667700  1
  H  H8  1  0.81995900  0.98765400  0.55039900  1
  H  H9  1  0.31995900  0.01234600  0.94960100  1
  H  H10  1  0.18004100  0.01234600  0.44960100  1
  H  H11  1  0.68004100  0.98765400  0.05039900  1
  H  H12  1  0.78814800  0.12844700  0.03860400  1
  H  H13  1  0.28814800  0.87155300  0.46139600  1
  H  H14  1  0.21185200  0.87155300  0.96139600  1
  H  H15  1  0.71185200  0.12844700  0.53860400  1
  H  H16  1  0.19548500  0.03028600  0.03914800  1
  H  H17  1  0.69548500  0.96971400  0.46085200  1
  H  H18  1  0.80451500  0.96971400  0.96085200  1
  H  H19  1  0.30451500  0.03028600  0.53914800  1
  H  H20  1  0.70700000  0.12043700  0.88043900  1
  H  H21  1  0.20700000  0.87956300  0.61956100  1
  H  H22  1  0.29300000  0.87956300  0.11956100  1
  H  H23  1  0.79300000  0.12043700  0.38043900  1
  H  H24  1  0.37405300  0.52339600  0.73128500  1
  H  H25  1  0.87405300  0.47660400  0.76871500  1
  H  H26  1  0.62594700  0.47660400  0.26871500  1
  H  H27  1  0.12594700  0.52339600  0.23128500  1
  H  H28  1  0.24499000  0.39876000  0.98060000  1
  H  H29  1  0.74499000  0.60124000  0.51940000  1
  H  H30  1  0.75501000  0.60124000  0.01940000  1
  H  H31  1  0.25501000  0.39876000  0.48060000  1
  H  H32  1  0.70189700  0.42250600  0.63180100  1
  H  H33  1  0.20189700  0.57749400  0.86819900  1
  H  H34  1  0.29810300  0.57749400  0.36819900  1
  H  H35  1  0.79810300  0.42250600  0.13180100  1
  H  H36  1  0.70425900  0.68026600  0.77907300  1
  H  H37  1  0.20425900  0.31973400  0.72092700  1
  H  H38  1  0.29574100  0.31973400  0.22092700  1
  H  H39  1  0.79574100  0.68026600  0.27907300  1
  H  H40  1  0.11056200  0.27097300  0.32163600  1
  H  H41  1  0.61056200  0.72902700  0.17836400  1
  H  H42  1  0.88943800  0.72902700  0.67836400  1
  H  H43  1  0.38943800  0.27097300  0.82163600  1
  H  H44  1  0.52135300  0.69855900  0.58762700  1
  H  H45  1  0.02135300  0.30144100  0.91237300  1
  H  H46  1  0.47864700  0.30144100  0.41237300  1
  H  H47  1  0.97864700  0.69855900  0.08762700  1
  N  N48  1  0.75499800  0.05451000  0.48116500  1
  N  N49  1  0.25499800  0.94549000  0.01883500  1
  N  N50  1  0.24500200  0.94549000  0.51883500  1
  N  N51  1  0.74500200  0.05451000  0.98116500  1
  N  N52  1  0.77460100  0.49517700  0.59540900  1
  N  N53  1  0.27460100  0.50482300  0.90459100  1
  N  N54  1  0.22539900  0.50482300  0.40459100  1
  N  N55  1  0.72539900  0.49517700  0.09540900  1
  O  O56  1  0.52594700  0.06032100  0.28726800  1
  O  O57  1  0.02594700  0.93967900  0.21273200  1
  O  O58  1  0.47405300  0.93967900  0.71273200  1
  O  O59  1  0.97405300  0.06032100  0.78726800  1
  O  O60  1  0.69140200  0.55576400  0.22335300  1
  O  O61  1  0.19140200  0.44423600  0.27664700  1
  O  O62  1  0.30859800  0.44423600  0.77664700  1
  O  O63  1  0.80859800  0.55576400  0.72335300  1
  O  O64  1  0.51385700  0.35345500  0.30473500  1
  O  O65  1  0.01385700  0.64654500  0.19526500  1
  O  O66  1  0.48614300  0.64654500  0.69526500  1
  O  O67  1  0.98614300  0.35345500  0.80473500  1
  O  O68  1  0.34063200  0.22024100  0.21218700  1
  O  O69  1  0.84063200  0.77975900  0.28781300  1
  O  O70  1  0.65936800  0.77975900  0.78781300  1
  O  O71  1  0.15936800  0.22024100  0.71218700  1
  O  O72  1  0.56983000  0.84070000  0.15980800  1
  O  O73  1  0.06983000  0.15930000  0.34019200  1
  O  O74  1  0.43017000  0.15930000  0.84019200  1
  O  O75  1  0.93017000  0.84070000  0.65980800  1
  O  O76  1  0.57708300  0.77529100  0.44340500  1
  O  O77  1  0.07708300  0.22470900  0.05659500  1
  O  O78  1  0.42291700  0.22470900  0.55659500  1
  O  O79  1  0.92291700  0.77529100  0.94340500  1
  O  O80  1  0.37803900  0.82150200  0.30639100  1
  O  O81  1  0.87803900  0.17849800  0.19360900  1
  O  O82  1  0.62196100  0.17849800  0.69360900  1
  O  O83  1  0.12196100  0.82150200  0.80639100  1
