# generated using pymatgen
data_MoH8N2O5F2
_symmetry_space_group_name_H-M   'P 1'
_cell_length_a   5.95664600
_cell_length_b   7.62132924
_cell_length_c   8.80943034
_cell_angle_alpha   96.40256270
_cell_angle_beta   108.14117373
_cell_angle_gamma   89.91079351
_symmetry_Int_Tables_number   1
_chemical_formula_structural   MoH8N2O5F2
_chemical_formula_sum   'Mo2 H16 N4 O10 F4'
_cell_volume   377.44384771
_cell_formula_units_Z   2
loop_
 _symmetry_equiv_pos_site_id
 _symmetry_equiv_pos_as_xyz
  1  'x, y, z'
loop_
 _atom_site_type_symbol
 _atom_site_label
 _atom_site_symmetry_multiplicity
 _atom_site_fract_x
 _atom_site_fract_y
 _atom_site_fract_z
 _atom_site_occupancy
  Mo  Mo0  1  0.84946600  0.75425700  0.74240100  1
  Mo  Mo1  1  0.15053400  0.24574300  0.25759900  1
  H  H2  1  0.68041700  0.28485900  0.47875600  1
  H  H3  1  0.31958300  0.71514100  0.52124400  1
  H  H4  1  0.83808000  0.17784300  0.63610700  1
  H  H5  1  0.16192000  0.82215700  0.36389300  1
  H  H6  1  0.57309500  0.33880500  0.93781600  1
  H  H7  1  0.42690500  0.66119500  0.06218400  1
  H  H8  1  0.94086100  0.37911600  0.60938800  1
  H  H9  1  0.05913900  0.62088400  0.39061200  1
  H  H10  1  0.45092900  0.78225200  0.92628200  1
  H  H11  1  0.54907100  0.21774800  0.07371800  1
  H  H12  1  0.54279900  0.86232900  0.11679700  1
  H  H13  1  0.45720100  0.13767100  0.88320300  1
  H  H14  1  0.50127700  0.61817700  0.36953300  1
  H  H15  1  0.49872300  0.38182300  0.63046700  1
  H  H16  1  0.78198700  0.71013300  0.00520200  1
  H  H17  1  0.21801300  0.28986700  0.99479800  1
  N  N18  1  0.79017900  0.30243900  0.59829400  1
  N  N19  1  0.20982100  0.69756100  0.40170600  1
  N  N20  1  0.53671400  0.75119100  0.03922400  1
  N  N21  1  0.46328600  0.24880900  0.96077600  1
  O  O22  1  0.96100400  0.96098800  0.65811000  1
  O  O23  1  0.03899600  0.03901200  0.34189000  1
  O  O24  1  0.02404400  0.97225100  0.83497300  1
  O  O25  1  0.97595600  0.02774900  0.16502700  1
  O  O26  1  0.91812700  0.69400800  0.95159300  1
  O  O27  1  0.08187300  0.30599200  0.04840700  1
  O  O28  1  0.67372300  0.39982800  0.69738700  1
  O  O29  1  0.32627700  0.60017200  0.30261300  1
  O  O30  1  0.55043700  0.79322500  0.71226100  1
  O  O31  1  0.44956300  0.20677500  0.28773900  1
  F  F32  1  0.73468600  0.66198600  0.49366000  1
  F  F33  1  0.26531400  0.33801400  0.50634000  1
  F  F34  1  0.09219900  0.58575800  0.71347700  1
  F  F35  1  0.90780100  0.41424200  0.28652300  1
