# generated using pymatgen
data_Al2H12(SeO5)3
_symmetry_space_group_name_H-M   'P 1'
_cell_length_a   8.99765046
_cell_length_b   8.99765046
_cell_length_c   11.09387900
_cell_angle_alpha   90.00000000
_cell_angle_beta   90.00000000
_cell_angle_gamma   120.00000335
_symmetry_Int_Tables_number   1
_chemical_formula_structural   Al2H12(SeO5)3
_chemical_formula_sum   'Al4 H24 Se6 O30'
_cell_volume   777.80776913
_cell_formula_units_Z   2
loop_
 _symmetry_equiv_pos_site_id
 _symmetry_equiv_pos_as_xyz
  1  'x, y, z'
loop_
 _atom_site_type_symbol
 _atom_site_label
 _atom_site_symmetry_multiplicity
 _atom_site_fract_x
 _atom_site_fract_y
 _atom_site_fract_z
 _atom_site_occupancy
  Al  Al0  1  0.66666700  0.33333300  0.62446800  1
  Al  Al1  1  0.33333300  0.66666700  0.12446800  1
  Al  Al2  1  0.66666700  0.33333300  0.04182300  1
  Al  Al3  1  0.33333300  0.66666700  0.54182300  1
  H  H4  1  0.58407100  0.41067100  0.43145400  1
  H  H5  1  0.58932900  0.17340000  0.43145400  1
  H  H6  1  0.82660000  0.41592900  0.43145400  1
  H  H7  1  0.41067100  0.58407100  0.93145400  1
  H  H8  1  0.17340000  0.58932900  0.93145400  1
  H  H9  1  0.41592900  0.82660000  0.93145400  1
  H  H10  1  0.54449200  0.96259600  0.01172600  1
  H  H11  1  0.03740400  0.58189700  0.01172600  1
  H  H12  1  0.41810300  0.45550800  0.01172600  1
  H  H13  1  0.96259600  0.54449200  0.51172600  1
  H  H14  1  0.58189700  0.03740400  0.51172600  1
  H  H15  1  0.45550800  0.41810300  0.51172600  1
  H  H16  1  0.57833800  0.80023700  0.71037000  1
  H  H17  1  0.19976300  0.77810100  0.71037000  1
  H  H18  1  0.22189900  0.42166200  0.71037000  1
  H  H19  1  0.80023700  0.57833800  0.21037000  1
  H  H20  1  0.77810100  0.19976300  0.21037000  1
  H  H21  1  0.42166200  0.22189900  0.21037000  1
  H  H22  1  0.42355700  0.48762800  0.67905500  1
  H  H23  1  0.51237200  0.93592900  0.67905500  1
  H  H24  1  0.06407100  0.57644300  0.67905500  1
  H  H25  1  0.48762800  0.42355700  0.17905500  1
  H  H26  1  0.93592900  0.51237200  0.17905500  1
  H  H27  1  0.57644300  0.06407100  0.17905500  1
  Se  Se28  1  0.73635700  0.61860200  0.83066900  1
  Se  Se29  1  0.38139800  0.11775400  0.83066900  1
  Se  Se30  1  0.88224600  0.26364300  0.83066900  1
  Se  Se31  1  0.61860200  0.73635700  0.33066900  1
  Se  Se32  1  0.11775400  0.38139800  0.33066900  1
  Se  Se33  1  0.26364300  0.88224600  0.33066900  1
  O  O34  1  0.61831800  0.48291500  0.70917100  1
  O  O35  1  0.51708500  0.13540300  0.70917100  1
  O  O36  1  0.86459700  0.38168200  0.70917100  1
  O  O37  1  0.48291500  0.61831800  0.20917100  1
  O  O38  1  0.13540300  0.51708500  0.20917100  1
  O  O39  1  0.38168200  0.86459700  0.20917100  1
  O  O40  1  0.51108900  0.34757600  0.50022500  1
  O  O41  1  0.65242400  0.16351300  0.50022500  1
  O  O42  1  0.83648700  0.48891100  0.50022500  1
  O  O43  1  0.34757600  0.51108900  0.00022500  1
  O  O44  1  0.16351300  0.65242400  0.00022500  1
  O  O45  1  0.48891100  0.83648700  0.00022500  1
  O  O46  1  0.65836500  0.75315900  0.82505500  1
  O  O47  1  0.24684100  0.90520600  0.82505500  1
  O  O48  1  0.09479400  0.34163500  0.82505500  1
  O  O49  1  0.75315900  0.65836500  0.32505500  1
  O  O50  1  0.90520600  0.24684100  0.32505500  1
  O  O51  1  0.34163500  0.09479400  0.32505500  1
  O  O52  1  0.62113900  0.48377200  0.95209600  1
  O  O53  1  0.51622800  0.13736700  0.95209600  1
  O  O54  1  0.86263300  0.37886100  0.95209600  1
  O  O55  1  0.48377200  0.62113900  0.45209600  1
  O  O56  1  0.13736700  0.51622800  0.45209600  1
  O  O57  1  0.37886100  0.86263300  0.45209600  1
  O  O58  1  0.48164700  0.31661000  0.14774300  1
  O  O59  1  0.68339000  0.16503800  0.14774300  1
  O  O60  1  0.83496200  0.51835300  0.14774300  1
  O  O61  1  0.31661000  0.48164700  0.64774300  1
  O  O62  1  0.16503800  0.68339000  0.64774300  1
  O  O63  1  0.51835300  0.83496200  0.64774300  1
