# generated using pymatgen
data_H2Os4Pt(CO)15
_symmetry_space_group_name_H-M   'P 1'
_cell_length_a   8.97583100
_cell_length_b   13.46568300
_cell_length_c   20.51354993
_cell_angle_alpha   89.13052865
_cell_angle_beta   90.00000000
_cell_angle_gamma   90.00000000
_symmetry_Int_Tables_number   1
_chemical_formula_structural   H2Os4Pt(CO)15
_chemical_formula_sum   'H8 Os16 Pt4 C60 O60'
_cell_volume   2479.09899100
_cell_formula_units_Z   4
loop_
 _symmetry_equiv_pos_site_id
 _symmetry_equiv_pos_as_xyz
  1  'x, y, z'
loop_
 _atom_site_type_symbol
 _atom_site_label
 _atom_site_symmetry_multiplicity
 _atom_site_fract_x
 _atom_site_fract_y
 _atom_site_fract_z
 _atom_site_occupancy
  H  H0  1  0.66418300  0.14993700  0.18732800  1
  H  H1  1  0.16418300  0.85006300  0.31267200  1
  H  H2  1  0.33581700  0.85006300  0.81267200  1
  H  H3  1  0.83581700  0.14993700  0.68732800  1
  H  H4  1  0.73707600  0.33085900  0.19877500  1
  H  H5  1  0.23707600  0.66914100  0.30122500  1
  H  H6  1  0.26292400  0.66914100  0.80122500  1
  H  H7  1  0.76292400  0.33085900  0.69877500  1
  Os  Os8  1  0.49893900  0.15722000  0.13276500  1
  Os  Os9  1  0.99893900  0.84278000  0.36723500  1
  Os  Os10  1  0.50106100  0.84278000  0.86723500  1
  Os  Os11  1  0.00106100  0.15722000  0.63276500  1
  Os  Os12  1  0.60048700  0.36529700  0.13398500  1
  Os  Os13  1  0.10048700  0.63470300  0.36601500  1
  Os  Os14  1  0.39951300  0.63470300  0.86601500  1
  Os  Os15  1  0.89951300  0.36529700  0.63398500  1
  Os  Os16  1  0.65551700  0.23875900  0.25302200  1
  Os  Os17  1  0.15551700  0.76124100  0.24697800  1
  Os  Os18  1  0.34448300  0.76124100  0.74697800  1
  Os  Os19  1  0.84448300  0.23875900  0.75302200  1
  Os  Os20  1  0.73609000  0.22033700  0.04189000  1
  Os  Os21  1  0.23609000  0.77966300  0.45811000  1
  Os  Os22  1  0.26391000  0.77966300  0.95811000  1
  Os  Os23  1  0.76391000  0.22033700  0.54189000  1
  Pt  Pt24  1  0.37220500  0.29909000  0.21883600  1
  Pt  Pt25  1  0.87220500  0.70091000  0.28116400  1
  Pt  Pt26  1  0.62779500  0.70091000  0.78116400  1
  Pt  Pt27  1  0.12779500  0.29909000  0.71883600  1
  C  C28  1  0.30628400  0.30212700  0.30730100  1
  C  C29  1  0.80628400  0.69787300  0.19269900  1
  C  C30  1  0.69371600  0.69787300  0.69269900  1
  C  C31  1  0.19371600  0.30212700  0.80730100  1
  C  C32  1  0.19738700  0.33704800  0.17084500  1
  C  C33  1  0.69738700  0.66295200  0.32915500  1
  C  C34  1  0.80261300  0.66295200  0.82915500  1
  C  C35  1  0.30261300  0.33704800  0.67084500  1
  C  C36  1  0.35874900  0.09478500  0.19119900  1
  C  C37  1  0.85874900  0.90521500  0.30880100  1
  C  C38  1  0.64125100  0.90521500  0.80880100  1
  C  C39  1  0.14125100  0.09478500  0.69119900  1
  C  C40  1  0.35380500  0.17720000  0.06581400  1
  C  C41  1  0.85380500  0.82280000  0.43418600  1
  C  C42  1  0.64619500  0.82280000  0.93418600  1
  C  C43  1  0.14619500  0.17720000  0.56581400  1
  C  C44  1  0.55953600  0.03238500  0.10011600  1
  C  C45  1  0.05953600  0.96761500  0.39988400  1
  C  C46  1  0.44046400  0.96761500  0.89988400  1
  C  C47  1  0.94046400  0.03238500  0.60011600  1
  C  C48  1  0.53854500  0.46719500  0.19204300  1
  C  C49  1  0.03854500  0.53280500  0.30795700  1
  C  C50  1  0.46145500  0.53280500  0.80795700  1
  C  C51  1  0.96145500  0.46719500  0.69204300  1
  C  C52  1  0.46140600  0.41181700  0.07093500  1
  C  C53  1  0.96140600  0.58818300  0.42906500  1
  C  C54  1  0.53859400  0.58818300  0.92906500  1
  C  C55  1  0.03859400  0.41181700  0.57093500  1
  C  C56  1  0.76405100  0.44004800  0.09918500  1
  C  C57  1  0.26405100  0.55995200  0.40081500  1
  C  C58  1  0.23594900  0.55995200  0.90081500  1
  C  C59  1  0.73594900  0.44004800  0.59918500  1
  C  C60  1  0.85397500  0.19284500  0.27175900  1
  C  C61  1  0.35397500  0.80715500  0.22824100  1
  C  C62  1  0.14602500  0.80715500  0.72824100  1
  C  C63  1  0.64602500  0.19284500  0.77175900  1
  C  C64  1  0.67198200  0.34152300  0.31565600  1
  C  C65  1  0.17198200  0.65847700  0.18434400  1
  C  C66  1  0.32801800  0.65847700  0.68434400  1
  C  C67  1  0.82801800  0.34152300  0.81565600  1
  C  C68  1  0.56359800  0.14886200  0.31378100  1
  C  C69  1  0.06359800  0.85113800  0.18621900  1
  C  C70  1  0.43640200  0.85113800  0.68621900  1
  C  C71  1  0.93640200  0.14886200  0.81378100  1
  C  C72  1  0.87289200  0.17163700  0.10856600  1
  C  C73  1  0.37289200  0.82836300  0.39143400  1
  C  C74  1  0.12710800  0.82836300  0.89143400  1
  C  C75  1  0.62710800  0.17163700  0.60856600  1
  C  C76  1  0.58956800  0.27069800  0.97939200  1
  C  C77  1  0.08956800  0.72930200  0.52060800  1
  C  C78  1  0.41043200  0.72930200  0.02060800  1
  C  C79  1  0.91043200  0.27069800  0.47939200  1
  C  C80  1  0.89368400  0.29572700  0.00232300  1
  C  C81  1  0.39368400  0.70427300  0.49767700  1
  C  C82  1  0.10631600  0.70427300  0.99767700  1
  C  C83  1  0.60631600  0.29572700  0.50232300  1
  C  C84  1  0.76694200  0.10402300  0.99204900  1
  C  C85  1  0.26694200  0.89597700  0.50795100  1
  C  C86  1  0.23305800  0.89597700  0.00795100  1
  C  C87  1  0.73305800  0.10402300  0.49204900  1
  O  O88  1  0.26283400  0.30106500  0.36042100  1
  O  O89  1  0.76283400  0.69893500  0.13957900  1
  O  O90  1  0.73716600  0.69893500  0.63957900  1
  O  O91  1  0.23716600  0.30106500  0.86042100  1
  O  O92  1  0.09122800  0.35859800  0.14210700  1
  O  O93  1  0.59122800  0.64140200  0.35789300  1
  O  O94  1  0.90877200  0.64140200  0.85789300  1
  O  O95  1  0.40877200  0.35859800  0.64210700  1
  O  O96  1  0.27656600  0.04559800  0.22160400  1
  O  O97  1  0.77656600  0.95440200  0.27839600  1
  O  O98  1  0.72343400  0.95440200  0.77839600  1
  O  O99  1  0.22343400  0.04559800  0.72160400  1
  O  O100  1  0.26339900  0.19286600  0.02618100  1
  O  O101  1  0.76339900  0.80713400  0.47381900  1
  O  O102  1  0.73660100  0.80713400  0.97381900  1
  O  O103  1  0.23660100  0.19286600  0.52618100  1
  O  O104  1  0.59054500  0.95313600  0.08216500  1
  O  O105  1  0.09054500  0.04686400  0.41783500  1
  O  O106  1  0.40945500  0.04686400  0.91783500  1
  O  O107  1  0.90945500  0.95313600  0.58216500  1
  O  O108  1  0.51405900  0.53700400  0.22344700  1
  O  O109  1  0.01405900  0.46299600  0.27655300  1
  O  O110  1  0.48594100  0.46299600  0.77655300  1
  O  O111  1  0.98594100  0.53700400  0.72344700  1
  O  O112  1  0.36903100  0.44257100  0.03630400  1
  O  O113  1  0.86903100  0.55742900  0.46369600  1
  O  O114  1  0.63096900  0.55742900  0.96369600  1
  O  O115  1  0.13096900  0.44257100  0.53630400  1
  O  O116  1  0.86201000  0.49073400  0.08253800  1
  O  O117  1  0.36201000  0.50926600  0.41746200  1
  O  O118  1  0.13799000  0.50926600  0.91746200  1
  O  O119  1  0.63799000  0.49073400  0.58253800  1
  O  O120  1  0.97066600  0.16494200  0.28880400  1
  O  O121  1  0.47066600  0.83505800  0.21119600  1
  O  O122  1  0.02933400  0.83505800  0.71119600  1
  O  O123  1  0.52933400  0.16494200  0.78880400  1
  O  O124  1  0.68834600  0.40614100  0.35165300  1
  O  O125  1  0.18834600  0.59385900  0.14834700  1
  O  O126  1  0.31165400  0.59385900  0.64834700  1
  O  O127  1  0.81165400  0.40614100  0.85165300  1
  O  O128  1  0.50337900  0.09787500  0.35137200  1
  O  O129  1  0.00337900  0.90212500  0.14862800  1
  O  O130  1  0.49662100  0.90212500  0.64862800  1
  O  O131  1  0.99662100  0.09787500  0.85137200  1
  O  O132  1  0.96342300  0.13978800  0.14316200  1
  O  O133  1  0.46342300  0.86021200  0.35683800  1
  O  O134  1  0.03657700  0.86021200  0.85683800  1
  O  O135  1  0.53657700  0.13978800  0.64316200  1
  O  O136  1  0.51122400  0.30003200  0.93861300  1
  O  O137  1  0.01122400  0.69996800  0.56138700  1
  O  O138  1  0.48877600  0.69996800  0.06138700  1
  O  O139  1  0.98877600  0.30003200  0.43861300  1
  O  O140  1  0.99318000  0.33761900  0.97832600  1
  O  O141  1  0.49318000  0.66238100  0.52167400  1
  O  O142  1  0.00682000  0.66238100  0.02167400  1
  O  O143  1  0.50682000  0.33761900  0.47832600  1
  O  O144  1  0.78811900  0.03423000  0.96047400  1
  O  O145  1  0.28811900  0.96577000  0.53952600  1
  O  O146  1  0.21188100  0.96577000  0.03952600  1
  O  O147  1  0.71188100  0.03423000  0.46047400  1
