# generated using pymatgen
data_VH4NO3
_symmetry_space_group_name_H-M   'P 1'
_cell_length_a   4.95935000
_cell_length_b   5.85986300
_cell_length_c   12.00363700
_cell_angle_alpha   90.00000000
_cell_angle_beta   90.00000000
_cell_angle_gamma   90.00000000
_symmetry_Int_Tables_number   1
_chemical_formula_structural   VH4NO3
_chemical_formula_sum   'V4 H16 N4 O12'
_cell_volume   348.83903409
_cell_formula_units_Z   4
loop_
 _symmetry_equiv_pos_site_id
 _symmetry_equiv_pos_as_xyz
  1  'x, y, z'
loop_
 _atom_site_type_symbol
 _atom_site_label
 _atom_site_symmetry_multiplicity
 _atom_site_fract_x
 _atom_site_fract_y
 _atom_site_fract_z
 _atom_site_occupancy
  V  V0  1  0.46421000  0.75000000  0.32687600  1
  V  V1  1  0.53579000  0.25000000  0.67312400  1
  V  V2  1  0.46421000  0.25000000  0.17312400  1
  V  V3  1  0.53579000  0.75000000  0.82687600  1
  H  H4  1  0.75671800  0.75000000  0.04386900  1
  H  H5  1  0.24328200  0.25000000  0.95613100  1
  H  H6  1  0.75671800  0.25000000  0.45613100  1
  H  H7  1  0.24328200  0.75000000  0.54386900  1
  H  H8  1  0.10354400  0.75000000  0.03029800  1
  H  H9  1  0.89645600  0.25000000  0.96970200  1
  H  H10  1  0.10354400  0.25000000  0.46970200  1
  H  H11  1  0.89645600  0.75000000  0.53029800  1
  H  H12  1  0.95100800  0.89260100  0.13629400  1
  H  H13  1  0.04899200  0.39260100  0.86370600  1
  H  H14  1  0.95100800  0.10739900  0.36370600  1
  H  H15  1  0.04899200  0.60739900  0.63629400  1
  H  H16  1  0.04899200  0.10739900  0.86370600  1
  H  H17  1  0.95100800  0.60739900  0.13629400  1
  H  H18  1  0.04899200  0.89260100  0.63629400  1
  H  H19  1  0.95100800  0.39260100  0.36370600  1
  N  N20  1  0.94097600  0.75000000  0.08609900  1
  N  N21  1  0.05902400  0.25000000  0.91390100  1
  N  N22  1  0.94097600  0.25000000  0.41390100  1
  N  N23  1  0.05902400  0.75000000  0.58609900  1
  O  O24  1  0.12790100  0.75000000  0.33070900  1
  O  O25  1  0.87209900  0.25000000  0.66929100  1
  O  O26  1  0.12790100  0.25000000  0.16929100  1
  O  O27  1  0.87209900  0.75000000  0.83070900  1
  O  O28  1  0.57813000  0.75000000  0.45931300  1
  O  O29  1  0.42187000  0.25000000  0.54068700  1
  O  O30  1  0.57813000  0.25000000  0.04068700  1
  O  O31  1  0.42187000  0.75000000  0.95931300  1
  O  O32  1  0.58119400  0.50000000  0.25000000  1
  O  O33  1  0.41880600  0.00000000  0.75000000  1
  O  O34  1  0.41880600  0.50000000  0.75000000  1
  O  O35  1  0.58119400  0.00000000  0.25000000  1
