# generated using pymatgen
data_KCr2H(CO)10
_symmetry_space_group_name_H-M   'P 1'
_cell_length_a   6.97914500
_cell_length_b   8.58647276
_cell_length_c   28.71189847
_cell_angle_alpha   91.27521338
_cell_angle_beta   94.20408852
_cell_angle_gamma   100.54692922
_symmetry_Int_Tables_number   1
_chemical_formula_structural   KCr2H(CO)10
_chemical_formula_sum   'K4 Cr8 H4 C40 O40'
_cell_volume   1685.85866514
_cell_formula_units_Z   4
loop_
 _symmetry_equiv_pos_site_id
 _symmetry_equiv_pos_as_xyz
  1  'x, y, z'
loop_
 _atom_site_type_symbol
 _atom_site_label
 _atom_site_symmetry_multiplicity
 _atom_site_fract_x
 _atom_site_fract_y
 _atom_site_fract_z
 _atom_site_occupancy
  K  K0  1  0.59245500  0.75730500  0.87146500  1
  K  K1  1  0.40754500  0.24269500  0.12853500  1
  K  K2  1  0.32468300  0.71074300  0.36473600  1
  K  K3  1  0.67531700  0.28925700  0.63526400  1
  Cr  Cr4  1  0.80874600  0.79540700  0.20855500  1
  Cr  Cr5  1  0.19125400  0.20459300  0.79144500  1
  Cr  Cr6  1  0.98517800  0.10663600  0.28004700  1
  Cr  Cr7  1  0.01482200  0.89336400  0.71995300  1
  Cr  Cr8  1  0.86648100  0.31167400  0.98438400  1
  Cr  Cr9  1  0.13351900  0.68832600  0.01561600  1
  Cr  Cr10  1  0.12250700  0.18992600  0.48572700  1
  Cr  Cr11  1  0.87749300  0.81007400  0.51427300  1
  H  H12  1  0.01746500  0.04265200  0.91966600  1
  H  H13  1  0.98253500  0.95734800  0.08033400  1
  H  H14  1  0.00000000  0.50000000  0.00000000  1
  H  H15  1  0.00000000  0.00000000  0.50000000  1
  C  C16  1  0.76411000  0.61174100  0.17099500  1
  C  C17  1  0.23589000  0.38825900  0.82900500  1
  C  C18  1  0.04853100  0.87105800  0.18141900  1
  C  C19  1  0.95146900  0.12894200  0.81858100  1
  C  C20  1  0.31953800  0.08242800  0.83378600  1
  C  C21  1  0.68046200  0.91757200  0.16621400  1
  C  C22  1  0.43036300  0.27831400  0.76414900  1
  C  C23  1  0.56963700  0.72168600  0.23585100  1
  C  C24  1  0.06470000  0.30081500  0.74192700  1
  C  C25  1  0.93530000  0.69918500  0.25807300  1
  C  C26  1  0.03708000  0.28161500  0.32180800  1
  C  C27  1  0.96292000  0.71838500  0.67819200  1
  C  C28  1  0.09026200  0.22926000  0.22903400  1
  C  C29  1  0.90973800  0.77074000  0.77096600  1
  C  C30  1  0.16407900  0.04455300  0.93906300  1
  C  C31  1  0.83592100  0.95544700  0.06093700  1
  C  C32  1  0.81728400  0.98373900  0.32211300  1
  C  C33  1  0.18271600  0.01626100  0.67788700  1
  C  C34  1  0.25543800  0.81606500  0.74308000  1
  C  C35  1  0.74456200  0.18393500  0.25692000  1
  C  C36  1  0.73091100  0.10626700  0.96757300  1
  C  C37  1  0.26908900  0.89373300  0.03242700  1
  C  C38  1  0.08896100  0.26972900  0.95810300  1
  C  C39  1  0.91103900  0.73027100  0.04189700  1
  C  C40  1  0.77459100  0.39116300  0.92716900  1
  C  C41  1  0.22540900  0.60883700  0.07283100  1
  C  C42  1  0.65172200  0.35598000  0.01693800  1
  C  C43  1  0.34827800  0.64402000  0.98306200  1
  C  C44  1  0.02789500  0.73598200  0.95562100  1
  C  C45  1  0.97210500  0.26401800  0.04437900  1
  C  C46  1  0.25574400  0.38249800  0.46611100  1
  C  C47  1  0.74425600  0.61750200  0.53388900  1
  C  C48  1  0.18979400  0.08489300  0.43193700  1
  C  C49  1  0.81020600  0.91510700  0.56806300  1
  C  C50  1  0.88385700  0.22528000  0.45353100  1
  C  C51  1  0.11614300  0.77472000  0.54646900  1
  C  C52  1  0.94809500  0.72317300  0.45818800  1
  C  C53  1  0.05190500  0.27682700  0.54181200  1
  C  C54  1  0.34979600  0.15286000  0.52083300  1
  C  C55  1  0.65020400  0.84714000  0.47916700  1
  O  O56  1  0.73487200  0.49226200  0.14863300  1
  O  O57  1  0.26512800  0.50773800  0.85136700  1
  O  O58  1  0.19000500  0.91727300  0.16280200  1
  O  O59  1  0.80999500  0.08272700  0.83719800  1
  O  O60  1  0.39657100  0.00349800  0.85872900  1
  O  O61  1  0.60342900  0.99650200  0.14127100  1
  O  O62  1  0.57368100  0.33225400  0.74720600  1
  O  O63  1  0.42631900  0.66774600  0.25279400  1
  O  O64  1  0.99776200  0.36334600  0.71074100  1
  O  O65  1  0.00223800  0.63665400  0.28925900  1
  O  O66  1  0.08742200  0.38542100  0.34933500  1
  O  O67  1  0.91257800  0.61457900  0.65066500  1
  O  O68  1  0.14253000  0.30758900  0.19821100  1
  O  O69  1  0.85747000  0.69241100  0.80178900  1
  O  O70  1  0.82076200  0.98788400  0.71030200  1
  O  O71  1  0.17923800  0.01211600  0.28969800  1
  O  O72  1  0.70935400  0.91920900  0.34752000  1
  O  O73  1  0.29064600  0.08079100  0.65248000  1
  O  O74  1  0.38419900  0.75277300  0.75471000  1
  O  O75  1  0.61580100  0.24722700  0.24529000  1
  O  O76  1  0.65194700  0.98007900  0.95426900  1
  O  O77  1  0.34805300  0.01992100  0.04573100  1
  O  O78  1  0.23747000  0.24560800  0.94171400  1
  O  O79  1  0.76253000  0.75439200  0.05828600  1
  O  O80  1  0.72113900  0.43942000  0.89183400  1
  O  O81  1  0.27886100  0.56058000  0.10816600  1
  O  O82  1  0.52699400  0.37809700  0.03965600  1
  O  O83  1  0.47300600  0.62190300  0.96034400  1
  O  O84  1  0.95732100  0.74761600  0.91798800  1
  O  O85  1  0.04267900  0.25238400  0.08201200  1
  O  O86  1  0.33987800  0.50066700  0.45187100  1
  O  O87  1  0.66012200  0.49933300  0.54812900  1
  O  O88  1  0.23122200  0.02101000  0.39894600  1
  O  O89  1  0.76877800  0.97899000  0.60105400  1
  O  O90  1  0.74154800  0.25046800  0.43383700  1
  O  O91  1  0.25845200  0.74953200  0.56616300  1
  O  O92  1  0.98625800  0.67124500  0.42273300  1
  O  O93  1  0.01374200  0.32875500  0.57726700  1
  O  O94  1  0.48874900  0.13651800  0.54415100  1
  O  O95  1  0.51125100  0.86348200  0.45584900  1
