# generated using pymatgen
data_NaH3(CO2)2
_symmetry_space_group_name_H-M   'P 1'
_cell_length_a   9.16149800
_cell_length_b   9.43160161
_cell_length_c   9.72465022
_cell_angle_alpha   83.23565371
_cell_angle_beta   111.57869400
_cell_angle_gamma   109.82031941
_symmetry_Int_Tables_number   1
_chemical_formula_structural   NaH3(CO2)2
_chemical_formula_sum   'Na6 H18 C12 O24'
_cell_volume   735.07885097
_cell_formula_units_Z   6
loop_
 _symmetry_equiv_pos_site_id
 _symmetry_equiv_pos_as_xyz
  1  'x, y, z'
loop_
 _atom_site_type_symbol
 _atom_site_label
 _atom_site_symmetry_multiplicity
 _atom_site_fract_x
 _atom_site_fract_y
 _atom_site_fract_z
 _atom_site_occupancy
  Na  Na0  1  0.67192900  0.65870200  0.80267500  1
  Na  Na1  1  0.32807100  0.34129800  0.19732500  1
  Na  Na2  1  0.30755400  0.54220000  0.47563000  1
  Na  Na3  1  0.69244600  0.45780000  0.52437000  1
  Na  Na4  1  0.69687600  0.06648300  0.64981500  1
  Na  Na5  1  0.30312400  0.93351700  0.35018500  1
  H  H6  1  0.70656000  0.77809900  0.38368800  1
  H  H7  1  0.29344000  0.22190100  0.61631200  1
  H  H8  1  0.45639100  0.79996800  0.95025500  1
  H  H9  1  0.54360900  0.20003200  0.04974500  1
  H  H10  1  0.39345500  0.01469900  0.71191200  1
  H  H11  1  0.60654500  0.98530100  0.28808800  1
  H  H12  1  0.15866800  0.01405400  0.90156500  1
  H  H13  1  0.84133200  0.98594600  0.09843500  1
  H  H14  1  0.15132600  0.59708000  0.00394900  1
  H  H15  1  0.84867400  0.40292000  0.99605100  1
  H  H16  1  0.06252800  0.79891500  0.00398600  1
  H  H17  1  0.93747200  0.20108500  0.99601400  1
  H  H18  1  0.15659100  0.37375900  0.76593900  1
  H  H19  1  0.84340900  0.62624100  0.23406100  1
  H  H20  1  0.06618500  0.82786400  0.56885300  1
  H  H21  1  0.93381500  0.17213600  0.43114700  1
  H  H22  1  0.50000000  0.50000000  0.00000000  1
  H  H23  1  0.00000000  0.50000000  0.50000000  1
  C  C24  1  0.63064600  0.78333300  0.44853600  1
  C  C25  1  0.36935400  0.21666700  0.55146400  1
  C  C26  1  0.47782500  0.87326600  0.85747100  1
  C  C27  1  0.52217500  0.12673400  0.14252900  1
  C  C28  1  0.02680000  0.95120300  0.84249000  1
  C  C29  1  0.97320000  0.04879700  0.15751000  1
  C  C30  1  0.19778300  0.63950500  0.11955700  1
  C  C31  1  0.80221700  0.36049500  0.88044300  1
  C  C32  1  0.29140200  0.43457200  0.81414900  1
  C  C33  1  0.70859800  0.56542800  0.18585100  1
  C  C34  1  0.08650700  0.72818300  0.53875600  1
  C  C35  1  0.91349300  0.27181700  0.46124400  1
  O  O36  1  0.60643900  0.67999900  0.53994400  1
  O  O37  1  0.39356100  0.32000100  0.46005600  1
  O  O38  1  0.57582400  0.89586300  0.42197000  1
  O  O39  1  0.42417600  0.10413700  0.57803000  1
  O  O40  1  0.58581600  0.87495400  0.80902000  1
  O  O41  1  0.41418400  0.12504600  0.19098000  1
  O  O42  1  0.37786300  0.95501800  0.80774500  1
  O  O43  1  0.62213700  0.04498200  0.19225500  1
  O  O44  1  0.94304100  0.99880800  0.72810900  1
  O  O45  1  0.05695900  0.00119200  0.27189100  1
  O  O46  1  0.96835900  0.82259100  0.90412900  1
  O  O47  1  0.03164100  0.17740900  0.09587100  1
  O  O48  1  0.26984900  0.56648300  0.22199000  1
  O  O49  1  0.73015100  0.43351700  0.77801000  1
  O  O50  1  0.17137200  0.76157800  0.13388700  1
  O  O51  1  0.82862800  0.23842200  0.86611300  1
  O  O52  1  0.37195700  0.50661700  0.73513800  1
  O  O53  1  0.62804300  0.49338300  0.26486200  1
  O  O54  1  0.35368400  0.42300400  0.95694700  1
  O  O55  1  0.64631600  0.57699600  0.04305300  1
  O  O56  1  0.20483100  0.74189000  0.49863900  1
  O  O57  1  0.79516900  0.25811000  0.50136100  1
  O  O58  1  0.97721100  0.60080400  0.54922700  1
  O  O59  1  0.02278900  0.39919600  0.45077300  1
