# generated using pymatgen
data_SnCl8O25
_symmetry_space_group_name_H-M   'P 1'
_cell_length_a   16.43127649
_cell_length_b   16.43127649
_cell_length_c   7.56881300
_cell_angle_alpha   90.00000000
_cell_angle_beta   90.00000000
_cell_angle_gamma   120.00000198
_symmetry_Int_Tables_number   1
_chemical_formula_structural   SnCl8O25
_chemical_formula_sum   'Sn3 Cl24 O75'
_cell_volume   1769.70552085
_cell_formula_units_Z   3
loop_
 _symmetry_equiv_pos_site_id
 _symmetry_equiv_pos_as_xyz
  1  'x, y, z'
loop_
 _atom_site_type_symbol
 _atom_site_label
 _atom_site_symmetry_multiplicity
 _atom_site_fract_x
 _atom_site_fract_y
 _atom_site_fract_z
 _atom_site_occupancy
  Sn  Sn0  1  0.66666700  0.33333300  0.15521100  1
  Sn  Sn1  1  0.00000000  0.00000000  0.63179800  1
  Sn  Sn2  1  0.33333300  0.66666700  0.06608000  1
  Cl  Cl3  1  0.67719300  0.00511700  0.88522300  1
  Cl  Cl4  1  0.32792400  0.32280700  0.88522300  1
  Cl  Cl5  1  0.99488300  0.67207600  0.88522300  1
  Cl  Cl6  1  0.65999300  0.62332600  0.45635500  1
  Cl  Cl7  1  0.96333300  0.34000700  0.45635500  1
  Cl  Cl8  1  0.37667400  0.03666700  0.45635500  1
  Cl  Cl9  1  0.66909900  0.15514300  0.37500600  1
  Cl  Cl10  1  0.48604500  0.33090100  0.37500600  1
  Cl  Cl11  1  0.84485700  0.51395500  0.37500600  1
  Cl  Cl12  1  0.50406900  0.14579900  0.93441400  1
  Cl  Cl13  1  0.64173000  0.49593100  0.93441400  1
  Cl  Cl14  1  0.85420100  0.35827000  0.93441400  1
  Cl  Cl15  1  0.83436100  0.02758900  0.41180900  1
  Cl  Cl16  1  0.19322800  0.16563900  0.41180900  1
  Cl  Cl17  1  0.97241100  0.80677200  0.41180900  1
  Cl  Cl18  1  0.02313400  0.19197400  0.84616200  1
  Cl  Cl19  1  0.16884000  0.97686600  0.84616200  1
  Cl  Cl20  1  0.80802600  0.83116000  0.84616200  1
  Cl  Cl21  1  0.14828700  0.64107400  0.31143900  1
  Cl  Cl22  1  0.49278600  0.85171300  0.31143900  1
  Cl  Cl23  1  0.35892600  0.50721400  0.31143900  1
  Cl  Cl24  1  0.30363000  0.83373900  0.85946100  1
  Cl  Cl25  1  0.53010900  0.69637000  0.85946100  1
  Cl  Cl26  1  0.16626100  0.46989100  0.85946100  1
  O  O27  1  0.61973600  0.21339800  0.31422800  1
  O  O28  1  0.59366100  0.38026400  0.31422800  1
  O  O29  1  0.78660200  0.40633900  0.31422800  1
  O  O30  1  0.68831900  0.11813800  0.21894400  1
  O  O31  1  0.42981900  0.31168100  0.21894400  1
  O  O32  1  0.88186200  0.57018100  0.21894400  1
  O  O33  1  0.59909600  0.08496800  0.48781500  1
  O  O34  1  0.48587200  0.40090400  0.48781500  1
  O  O35  1  0.91503200  0.51412800  0.48781500  1
  O  O36  1  0.75298300  0.21855400  0.46926100  1
  O  O37  1  0.46557200  0.24701700  0.46926100  1
  O  O38  1  0.78144600  0.53442800  0.46926100  1
  O  O39  1  0.56164800  0.25400700  0.96556300  1
  O  O40  1  0.69236000  0.43835200  0.96556300  1
  O  O41  1  0.74599300  0.30764000  0.96556300  1
  O  O42  1  0.44231200  0.10426100  0.08258700  1
  O  O43  1  0.66194800  0.55768800  0.08258700  1
  O  O44  1  0.89573900  0.33805200  0.08258700  1
  O  O45  1  0.45396400  0.13910700  0.77460200  1
  O  O46  1  0.68514300  0.54603600  0.77460200  1
  O  O47  1  0.86089300  0.31485700  0.77460200  1
  O  O48  1  0.56930100  0.11241600  0.91635800  1
  O  O49  1  0.54311500  0.43069900  0.91635800  1
  O  O50  1  0.88758400  0.45688500  0.91635800  1
  O  O51  1  0.88617600  0.97223000  0.46351900  1
  O  O52  1  0.08605400  0.11382400  0.46351900  1
  O  O53  1  0.02777000  0.91394600  0.46351900  1
  O  O54  1  0.75603000  0.99857900  0.53189700  1
  O  O55  1  0.24254900  0.24397000  0.53189700  1
  O  O56  1  0.00142100  0.75745100  0.53189700  1
  O  O57  1  0.90003900  0.12635400  0.42526300  1
  O  O58  1  0.22631500  0.09996100  0.42526300  1
  O  O59  1  0.87364600  0.77368500  0.42526300  1
  O  O60  1  0.80263200  0.99738300  0.23508200  1
  O  O61  1  0.19475100  0.19736800  0.23508200  1
  O  O62  1  0.00261700  0.80524900  0.23508200  1
  O  O63  1  0.96658500  0.08403100  0.79165000  1
  O  O64  1  0.11744600  0.03341500  0.79165000  1
  O  O65  1  0.91596900  0.88255400  0.79165000  1
  O  O66  1  0.02421500  0.24572700  0.69536300  1
  O  O67  1  0.22151300  0.97578500  0.69536300  1
  O  O68  1  0.75427300  0.77848700  0.69536300  1
  O  O69  1  0.96917500  0.19642100  0.99021500  1
  O  O70  1  0.22724600  0.03082500  0.99021500  1
  O  O71  1  0.80357900  0.77275400  0.99021500  1
  O  O72  1  0.11628800  0.21383000  0.89549700  1
  O  O73  1  0.09754200  0.88371200  0.89549700  1
  O  O74  1  0.78617000  0.90245800  0.89549700  1
  O  O75  1  0.25014900  0.69709800  0.23378900  1
  O  O76  1  0.44694900  0.74985100  0.23378900  1
  O  O77  1  0.30290200  0.55305100  0.23378900  1
  O  O78  1  0.08447500  0.63710100  0.17680500  1
  O  O79  1  0.55262600  0.91552500  0.17680500  1
  O  O80  1  0.36289900  0.44737400  0.17680500  1
  O  O81  1  0.15089400  0.69527400  0.46154500  1
  O  O82  1  0.54438000  0.84910600  0.46154500  1
  O  O83  1  0.30472600  0.45562000  0.46154500  1
  O  O84  1  0.13065100  0.54871700  0.35739000  1
  O  O85  1  0.41806600  0.86934900  0.35739000  1
  O  O86  1  0.45128300  0.58193400  0.35739000  1
  O  O87  1  0.36004400  0.78142200  0.90634500  1
  O  O88  1  0.42137800  0.63995600  0.90634500  1
  O  O89  1  0.21857800  0.57862200  0.90634500  1
  O  O90  1  0.30277000  0.88422700  0.01340900  1
  O  O91  1  0.58145700  0.69723000  0.01340900  1
  O  O92  1  0.11577300  0.41854300  0.01340900  1
  O  O93  1  0.21025300  0.76423400  0.80579300  1
  O  O94  1  0.55398100  0.78974700  0.80579300  1
  O  O95  1  0.23576600  0.44601900  0.80579300  1
  O  O96  1  0.35910900  0.89452000  0.71800000  1
  O  O97  1  0.53541100  0.64089100  0.71800000  1
  O  O98  1  0.10548000  0.46458900  0.71800000  1
  O  O99  1  0.68214900  0.70507500  0.33771600  1
  O  O100  1  0.02292600  0.31785100  0.33771600  1
  O  O101  1  0.29492500  0.97707400  0.33771600  1
