# generated using pymatgen
data_KMgIn(MoO4)3
_symmetry_space_group_name_H-M   'P 1'
_cell_length_a   9.97016799
_cell_length_b   9.97016799
_cell_length_c   9.97016811
_cell_angle_alpha   58.21892008
_cell_angle_beta   58.21892008
_cell_angle_gamma   58.21892341
_symmetry_Int_Tables_number   1
_chemical_formula_structural   KMgIn(MoO4)3
_chemical_formula_sum   'K2 Mg2 In2 Mo6 O24'
_cell_volume   672.19967277
_cell_formula_units_Z   2
loop_
 _symmetry_equiv_pos_site_id
 _symmetry_equiv_pos_as_xyz
  1  'x, y, z'
loop_
 _atom_site_type_symbol
 _atom_site_label
 _atom_site_symmetry_multiplicity
 _atom_site_fract_x
 _atom_site_fract_y
 _atom_site_fract_z
 _atom_site_occupancy
  K  K0  1  0.50090200  0.50090200  0.50090200  1
  K  K1  1  0.00090200  0.00090200  0.00090200  1
  Mg  Mg2  1  0.14389700  0.14389700  0.14389700  1
  Mg  Mg3  1  0.64389700  0.64389700  0.64389700  1
  In  In4  1  0.35577500  0.35577500  0.35577500  1
  In  In5  1  0.85577500  0.85577500  0.85577500  1
  Mo  Mo6  1  0.03442900  0.46080000  0.75249600  1
  Mo  Mo7  1  0.46080000  0.75249600  0.03442900  1
  Mo  Mo8  1  0.25249600  0.96080000  0.53442900  1
  Mo  Mo9  1  0.75249600  0.03442900  0.46080000  1
  Mo  Mo10  1  0.53442900  0.25249600  0.96080000  1
  Mo  Mo11  1  0.96080000  0.53442900  0.25249600  1
  O  O12  1  0.00723700  0.63976200  0.77875600  1
  O  O13  1  0.13976200  0.50723700  0.27875600  1
  O  O14  1  0.06320100  0.27696900  0.93261000  1
  O  O15  1  0.43483300  0.57161400  0.22393800  1
  O  O16  1  0.27696900  0.93261000  0.06320100  1
  O  O17  1  0.07161400  0.93483300  0.72393800  1
  O  O18  1  0.49584900  0.71995800  0.85695400  1
  O  O19  1  0.63976200  0.77875600  0.00723700  1
  O  O20  1  0.22393800  0.43483300  0.57161400  1
  O  O21  1  0.27875600  0.13976200  0.50723700  1
  O  O22  1  0.21995800  0.99584900  0.35695400  1
  O  O23  1  0.43261000  0.77696900  0.56320100  1
  O  O24  1  0.57161400  0.22393800  0.43483300  1
  O  O25  1  0.77875600  0.00723700  0.63976200  1
  O  O26  1  0.71995800  0.85695400  0.49584900  1
  O  O27  1  0.77696900  0.56320100  0.43261000  1
  O  O28  1  0.35695400  0.21995800  0.99584900  1
  O  O29  1  0.50723700  0.27875600  0.13976200  1
  O  O30  1  0.93261000  0.06320100  0.27696900  1
  O  O31  1  0.72393800  0.07161400  0.93483300  1
  O  O32  1  0.56320100  0.43261000  0.77696900  1
  O  O33  1  0.93483300  0.72393800  0.07161400  1
  O  O34  1  0.85695400  0.49584900  0.71995800  1
  O  O35  1  0.99584900  0.35695400  0.21995800  1
