# generated using pymatgen
data_Cu3(IN)4
_symmetry_space_group_name_H-M   'P 1'
_cell_length_a   6.41375654
_cell_length_b   8.59198769
_cell_length_c   8.86972666
_cell_angle_alpha   127.14618565
_cell_angle_beta   113.17003582
_cell_angle_gamma   88.15711316
_symmetry_Int_Tables_number   1
_chemical_formula_structural   Cu3(IN)4
_chemical_formula_sum   'Cu3 I4 N4'
_cell_volume   343.81998123
_cell_formula_units_Z   1
loop_
 _symmetry_equiv_pos_site_id
 _symmetry_equiv_pos_as_xyz
  1  'x, y, z'
loop_
 _atom_site_type_symbol
 _atom_site_label
 _atom_site_symmetry_multiplicity
 _atom_site_fract_x
 _atom_site_fract_y
 _atom_site_fract_z
 _atom_site_occupancy
  Cu  Cu0  1  0.77895100  0.50091200  0.96284200  1
  Cu  Cu1  1  0.22104900  0.49908800  0.03715800  1
  Cu  Cu2  1  0.50000000  0.00000000  0.50000000  1
  I  I3  1  0.65704300  0.70845600  0.31750300  1
  I  I4  1  0.34295700  0.29154400  0.68249700  1
  I  I5  1  0.97376000  0.26324800  0.02373200  1
  I  I6  1  0.02624000  0.73675200  0.97626800  1
  N  N7  1  0.39677700  0.77427100  0.70983600  1
  N  N8  1  0.60322300  0.22572900  0.29016400  1
  N  N9  1  0.33119500  0.79451000  0.58770400  1
  N  N10  1  0.66880500  0.20549000  0.41229600  1
