# generated using pymatgen
data_Ba4La8Mn11SnO36
_symmetry_space_group_name_H-M   'P 1'
_cell_length_a   5.62734000
_cell_length_b   9.77204565
_cell_length_c   14.90405092
_cell_angle_alpha   108.97616428
_cell_angle_beta   100.58115989
_cell_angle_gamma   90.26893575
_symmetry_Int_Tables_number   1
_chemical_formula_structural   Ba4La8Mn11SnO36
_chemical_formula_sum   'Ba4 La8 Mn11 Sn1 O36'
_cell_volume   760.03215530
_cell_formula_units_Z   1
loop_
 _symmetry_equiv_pos_site_id
 _symmetry_equiv_pos_as_xyz
  1  'x, y, z'
loop_
 _atom_site_type_symbol
 _atom_site_label
 _atom_site_symmetry_multiplicity
 _atom_site_fract_x
 _atom_site_fract_y
 _atom_site_fract_z
 _atom_site_occupancy
  Ba  Ba0  1  0.29244500  0.62242800  0.58186500  1
  Ba  Ba1  1  0.12731500  0.12532900  0.25343900  1
  Ba  Ba2  1  0.95584700  0.62175900  0.91490100  1
  Ba  Ba3  1  0.45675000  0.12838300  0.91403100  1
  La  La4  1  0.54150600  0.86558100  0.08681800  1
  La  La5  1  0.04293600  0.38383800  0.08463400  1
  La  La6  1  0.20895500  0.87542400  0.41824500  1
  La  La7  1  0.70848300  0.37510500  0.41815600  1
  La  La8  1  0.87096700  0.87158500  0.74286000  1
  La  La9  1  0.62581000  0.62451700  0.25153400  1
  La  La10  1  0.37546500  0.37517800  0.74945900  1
  La  La11  1  0.79272300  0.12815900  0.58521100  1
  Mn  Mn12  1  0.50015900  0.49927700  0.00007600  1
  Mn  Mn13  1  0.66753200  0.99973200  0.33514500  1
  Mn  Mn14  1  0.33278200  0.00071000  0.66541800  1
  Mn  Mn15  1  0.16662100  0.50072800  0.33394100  1
  Mn  Mn16  1  0.08528600  0.74929700  0.17006200  1
  Mn  Mn17  1  0.83259900  0.49903000  0.66577500  1
  Mn  Mn18  1  0.74955500  0.75065800  0.49776900  1
  Mn  Mn19  1  0.58321500  0.25455500  0.16854100  1
  Mn  Mn20  1  0.25064800  0.24850100  0.50094000  1
  Mn  Mn21  1  0.41508600  0.74628600  0.83088300  1
  Mn  Mn22  1  0.91667900  0.25097700  0.83120100  1
  Sn  Sn23  1  0.00019500  0.00075100  0.00003300  1
  O  O24  1  0.32266600  0.62461900  0.10051600  1
  O  O25  1  0.36697700  0.88286600  0.25163300  1
  O  O26  1  0.13308600  0.65059300  0.26562900  1
  O  O27  1  0.03943700  0.85832900  0.07815700  1
  O  O28  1  0.97093800  0.62958500  0.42202900  1
  O  O29  1  0.81068200  0.13299800  0.09637100  1
  O  O30  1  0.81482400  0.60055600  0.09040500  1
  O  O31  1  0.01692500  0.89961500  0.58046300  1
  O  O32  1  0.84928800  0.39999400  0.25036600  1
  O  O33  1  0.83500700  0.86624800  0.23495000  1
  O  O34  1  0.80052400  0.65204600  0.59747900  1
  O  O35  1  0.63731200  0.15512000  0.27294900  1
  O  O36  1  0.70020400  0.85185000  0.40147600  1
  O  O37  1  0.53787700  0.36935900  0.07774900  1
  O  O38  1  0.63599500  0.62314000  0.75668000  1
  O  O39  1  0.48758400  0.12109400  0.43387000  1
  O  O40  1  0.48964800  0.60163200  0.41098000  1
  O  O41  1  0.32744300  0.09726900  0.08632100  1
  O  O42  1  0.68694000  0.88432700  0.91531800  1
  O  O43  1  0.53241300  0.37991600  0.58255600  1
  O  O44  1  0.51320300  0.88361500  0.56393200  1
  O  O45  1  0.34760100  0.38240900  0.23185800  1
  O  O46  1  0.46667800  0.65117300  0.93790500  1
  O  O47  1  0.30072600  0.15118100  0.60061700  1
  O  O48  1  0.37027600  0.86497300  0.73842900  1
  O  O49  1  0.20586100  0.36298800  0.41094500  1
  O  O50  1  0.13472100  0.12552000  0.75247300  1
  O  O51  1  0.15400700  0.59696400  0.74973600  1
  O  O52  1  0.98258900  0.09566600  0.42352400  1
  O  O53  1  0.19856400  0.38714500  0.91618500  1
  O  O54  1  0.00118100  0.36345400  0.56548000  1
  O  O55  1  0.16827600  0.87172500  0.89329300  1
  O  O56  1  0.96528600  0.15751100  0.93370300  1
  O  O57  1  0.86743900  0.35060600  0.73498500  1
  O  O58  1  0.65405800  0.09915000  0.74189700  1
  O  O59  1  0.67420500  0.37697900  0.89820300  1
