# generated using pymatgen
data_K3Mn3H2C12O13
_symmetry_space_group_name_H-M   'P 1'
_cell_length_a   14.20910300
_cell_length_b   8.87079200
_cell_length_c   15.93311399
_cell_angle_alpha   78.69374111
_cell_angle_beta   90.00000000
_cell_angle_gamma   90.00000000
_symmetry_Int_Tables_number   1
_chemical_formula_structural   K3Mn3H2C12O13
_chemical_formula_sum   'K12 Mn12 H8 C48 O52'
_cell_volume   1969.33056014
_cell_formula_units_Z   4
loop_
 _symmetry_equiv_pos_site_id
 _symmetry_equiv_pos_as_xyz
  1  'x, y, z'
loop_
 _atom_site_type_symbol
 _atom_site_label
 _atom_site_symmetry_multiplicity
 _atom_site_fract_x
 _atom_site_fract_y
 _atom_site_fract_z
 _atom_site_occupancy
  K  K0  1  0.58845300  0.32716600  0.29087600  1
  K  K1  1  0.08845300  0.67283400  0.20912400  1
  K  K2  1  0.41154700  0.67283400  0.70912400  1
  K  K3  1  0.91154700  0.32716600  0.79087600  1
  K  K4  1  0.73642400  0.19407200  0.04868300  1
  K  K5  1  0.23642400  0.80592800  0.45131700  1
  K  K6  1  0.26357600  0.80592800  0.95131700  1
  K  K7  1  0.76357600  0.19407200  0.54868300  1
  K  K8  1  0.53397700  0.81962200  0.14048200  1
  K  K9  1  0.03397700  0.18037800  0.35951800  1
  K  K10  1  0.46602300  0.18037800  0.85951800  1
  K  K11  1  0.96602300  0.81962200  0.64048200  1
  Mn  Mn12  1  0.83344400  0.75331800  0.94487400  1
  Mn  Mn13  1  0.33344400  0.24668200  0.55512600  1
  Mn  Mn14  1  0.16655600  0.24668200  0.05512600  1
  Mn  Mn15  1  0.66655600  0.75331800  0.44487400  1
  Mn  Mn16  1  0.66010900  0.65135000  0.94946500  1
  Mn  Mn17  1  0.16010900  0.34865000  0.55053500  1
  Mn  Mn18  1  0.33989100  0.34865000  0.05053500  1
  Mn  Mn19  1  0.83989100  0.65135000  0.44946500  1
  Mn  Mn20  1  0.71659900  0.86884700  0.80431300  1
  Mn  Mn21  1  0.21659900  0.13115300  0.69568700  1
  Mn  Mn22  1  0.28340100  0.13115300  0.19568700  1
  Mn  Mn23  1  0.78340100  0.86884700  0.30431300  1
  H  H24  1  0.68163600  0.41971300  0.68429800  1
  H  H25  1  0.18163600  0.58028700  0.81570200  1
  H  H26  1  0.31836400  0.58028700  0.31570200  1
  H  H27  1  0.81836400  0.41971300  0.18429800  1
  H  H28  1  0.63780800  0.26322300  0.67552600  1
  H  H29  1  0.13780800  0.73677700  0.82447400  1
  H  H30  1  0.36219200  0.73677700  0.32447400  1
  H  H31  1  0.86219200  0.26322300  0.17552600  1
  C  C32  1  0.91849600  0.72100200  0.86785700  1
  C  C33  1  0.41849600  0.27899800  0.63214300  1
  C  C34  1  0.08150400  0.27899800  0.13214300  1
  C  C35  1  0.58150400  0.72100200  0.36785700  1
  C  C36  1  0.86718600  0.94796700  0.94466000  1
  C  C37  1  0.36718600  0.05203300  0.55534000  1
  C  C38  1  0.13281400  0.05203300  0.05534000  1
  C  C39  1  0.63281400  0.94796700  0.44466000  1
  C  C40  1  0.89804800  0.67451600  0.03809300  1
  C  C41  1  0.39804800  0.32548400  0.46190700  1
  C  C42  1  0.10195200  0.32548400  0.96190700  1
  C  C43  1  0.60195200  0.67451600  0.53809300  1
  C  C44  1  0.72213400  0.80549300  0.00940600  1
  C  C45  1  0.22213400  0.19450700  0.49059400  1
  C  C46  1  0.27786600  0.19450700  0.99059400  1
  C  C47  1  0.77786600  0.80549300  0.50940600  1
  C  C48  1  0.78293500  0.54790500  0.93177300  1
  C  C49  1  0.28293500  0.45209500  0.56822700  1
  C  C50  1  0.21706500  0.45209500  0.06822700  1
  C  C51  1  0.71706500  0.54790500  0.43177300  1
  C  C52  1  0.63295900  0.52293500  0.04557800  1
  C  C53  1  0.13295900  0.47706500  0.45442200  1
  C  C54  1  0.36704100  0.47706500  0.95442200  1
  C  C55  1  0.86704100  0.52293500  0.54557800  1
  C  C56  1  0.61144000  0.53932900  0.87755800  1
  C  C57  1  0.11144000  0.46067100  0.62244200  1
  C  C58  1  0.38856000  0.46067100  0.12244200  1
  C  C59  1  0.88856000  0.53932900  0.37755800  1
  C  C60  1  0.55935200  0.77317600  0.94629500  1
  C  C61  1  0.05935200  0.22682400  0.55370500  1
  C  C62  1  0.44064800  0.22682400  0.05370500  1
  C  C63  1  0.94064800  0.77317600  0.44629500  1
  C  C64  1  0.75409500  0.69912600  0.76490400  1
  C  C65  1  0.25409500  0.30087400  0.73509600  1
  C  C66  1  0.24590500  0.30087400  0.23509600  1
  C  C67  1  0.74590500  0.69912600  0.26490400  1
  C  C68  1  0.80270600  0.98722600  0.74721200  1
  C  C69  1  0.30270600  0.01277400  0.75278800  1
  C  C70  1  0.19729400  0.01277400  0.25278800  1
  C  C71  1  0.69729400  0.98722600  0.24721200  1
  C  C72  1  0.68227500  0.01490700  0.86290700  1
  C  C73  1  0.18227500  0.98509300  0.63709300  1
  C  C74  1  0.31772500  0.98509300  0.13709300  1
  C  C75  1  0.81772500  0.01490700  0.36290700  1
  C  C76  1  0.61953900  0.90426700  0.73354700  1
  C  C77  1  0.11953900  0.09573300  0.76645300  1
  C  C78  1  0.38046100  0.09573300  0.26645300  1
  C  C79  1  0.88046100  0.90426700  0.23354700  1
  O  O80  1  0.97460600  0.69796300  0.81680200  1
  O  O81  1  0.47460600  0.30203700  0.68319800  1
  O  O82  1  0.02539400  0.30203700  0.18319800  1
  O  O83  1  0.52539400  0.69796300  0.31680200  1
  O  O84  1  0.88810500  0.07544200  0.94718800  1
  O  O85  1  0.38810500  0.92455800  0.55281200  1
  O  O86  1  0.11189500  0.92455800  0.05281200  1
  O  O87  1  0.61189500  0.07544200  0.44718800  1
  O  O88  1  0.94217500  0.62529500  0.10012900  1
  O  O89  1  0.44217500  0.37470500  0.39987100  1
  O  O90  1  0.05782500  0.37470500  0.89987100  1
  O  O91  1  0.55782500  0.62529500  0.60012900  1
  O  O92  1  0.70062900  0.88635700  0.05961900  1
  O  O93  1  0.20062900  0.11364300  0.44038100  1
  O  O94  1  0.29937100  0.11364300  0.94038100  1
  O  O95  1  0.79937100  0.88635700  0.55961900  1
  O  O96  1  0.81093000  0.42451800  0.92095800  1
  O  O97  1  0.31093000  0.57548200  0.57904200  1
  O  O98  1  0.18907000  0.57548200  0.07904200  1
  O  O99  1  0.68907000  0.42451800  0.42095800  1
  O  O100  1  0.61329400  0.43482100  0.10921400  1
  O  O101  1  0.11329400  0.56517900  0.39078600  1
  O  O102  1  0.38670600  0.56517900  0.89078600  1
  O  O103  1  0.88670600  0.43482100  0.60921400  1
  O  O104  1  0.57642500  0.46336200  0.83293900  1
  O  O105  1  0.07642500  0.53663800  0.66706100  1
  O  O106  1  0.42357500  0.53663800  0.16706100  1
  O  O107  1  0.92357500  0.46336200  0.33293900  1
  O  O108  1  0.49188100  0.85003600  0.95075900  1
  O  O109  1  0.99188100  0.14996400  0.54924100  1
  O  O110  1  0.50811900  0.14996400  0.04924100  1
  O  O111  1  0.00811900  0.85003600  0.45075900  1
  O  O112  1  0.78139700  0.59829300  0.73272100  1
  O  O113  1  0.28139700  0.40170700  0.76727900  1
  O  O114  1  0.21860300  0.40170700  0.26727900  1
  O  O115  1  0.71860300  0.59829300  0.23272100  1
  O  O116  1  0.86119200  0.06812900  0.70824200  1
  O  O117  1  0.36119200  0.93187100  0.79175800  1
  O  O118  1  0.13880800  0.93187100  0.29175800  1
  O  O119  1  0.63880800  0.06812900  0.20824200  1
  O  O120  1  0.65951400  0.11874500  0.89501300  1
  O  O121  1  0.15951400  0.88125500  0.60498700  1
  O  O122  1  0.34048600  0.88125500  0.10498700  1
  O  O123  1  0.84048600  0.11874500  0.39501300  1
  O  O124  1  0.55693400  0.93305500  0.68423600  1
  O  O125  1  0.05693400  0.06694500  0.81576400  1
  O  O126  1  0.44306600  0.06694500  0.31576400  1
  O  O127  1  0.94306600  0.93305500  0.18423600  1
  O  O128  1  0.69727700  0.31859000  0.67277600  1
  O  O129  1  0.19727700  0.68141000  0.82722400  1
  O  O130  1  0.30272300  0.68141000  0.32722400  1
  O  O131  1  0.80272300  0.31859000  0.17277600  1
