# generated using pymatgen
data_Mg21FeSi12(HO16)3
_symmetry_space_group_name_H-M   'P 1'
_cell_length_a   5.76518300
_cell_length_b   7.75528804
_cell_length_c   21.79505876
_cell_angle_alpha   87.77979512
_cell_angle_beta   88.71896078
_cell_angle_gamma   68.74501693
_symmetry_Int_Tables_number   1
_chemical_formula_structural   Mg21FeSi12(HO16)3
_chemical_formula_sum   'Mg21 Fe1 Si12 H3 O48'
_cell_volume   907.46633496
_cell_formula_units_Z   1
loop_
 _symmetry_equiv_pos_site_id
 _symmetry_equiv_pos_as_xyz
  1  'x, y, z'
loop_
 _atom_site_type_symbol
 _atom_site_label
 _atom_site_symmetry_multiplicity
 _atom_site_fract_x
 _atom_site_fract_y
 _atom_site_fract_z
 _atom_site_occupancy
  Mg  Mg0  1  0.32416900  0.21283800  0.65981400  1
  Mg  Mg1  1  0.96865300  0.56702500  0.76298000  1
  Mg  Mg2  1  0.88685500  0.19603100  0.43044400  1
  Mg  Mg3  1  0.88396100  0.22518000  0.72252500  1
  Mg  Mg4  1  0.40435800  0.16391300  0.96121900  1
  Mg  Mg5  1  0.36059000  0.79177300  0.39780200  1
  Mg  Mg6  1  0.05612000  0.84500500  0.04424300  1
  Mg  Mg7  1  0.32766900  0.82459900  0.91356300  1
  Mg  Mg8  1  0.74440500  0.46953200  0.61862400  1
  Mg  Mg9  1  0.48331400  0.50501100  0.99478500  1
  Mg  Mg10  1  0.63543700  0.18989400  0.08428100  1
  Mg  Mg11  1  0.91243800  0.16353600  0.96068600  1
  Mg  Mg12  1  0.72357100  0.11493600  0.57846600  1
  Mg  Mg13  1  0.16976500  0.19506800  0.83577900  1
  Mg  Mg14  1  0.79920600  0.86450100  0.67680500  1
  Mg  Mg15  1  0.16328700  0.82455900  0.26562300  1
  Mg  Mg16  1  0.57155400  0.83777400  0.03914300  1
  Mg  Mg17  1  0.16150000  0.57927400  0.60389900  1
  Mg  Mg18  1  0.98179300  0.50469100  0.21272600  1
  Mg  Mg19  1  0.49860200  0.50726300  0.49992500  1
  Mg  Mg20  1  0.64994700  0.92068500  0.19996000  1
  Fe  Fe21  1  0.16279200  0.18278800  0.30295200  1
  Si  Si22  1  0.77625100  0.94416800  0.85403700  1
  Si  Si23  1  0.94840600  0.58381000  0.92111000  1
  Si  Si24  1  0.13555500  0.24105700  0.52891000  1
  Si  Si25  1  0.29048500  0.90465200  0.58288400  1
  Si  Si26  1  0.59869900  0.31277100  0.83139800  1
  Si  Si27  1  0.33156800  0.82545100  0.75253900  1
  Si  Si28  1  0.42915300  0.61405900  0.15266200  1
  Si  Si29  1  0.52371200  0.42551500  0.30568200  1
  Si  Si30  1  0.96775000  0.56716000  0.46742300  1
  Si  Si31  1  0.71477400  0.03397400  0.35032300  1
  Si  Si32  1  0.16891700  0.10043500  0.15100200  1
  Si  Si33  1  0.01932200  0.42733400  0.06572500  1
  H  H34  1  0.31900800  0.62029300  0.82297100  1
  H  H35  1  0.59168800  0.99171700  0.45165600  1
  H  H36  1  0.64541700  0.33681800  0.19324700  1
  O  O37  1  0.24728400  0.97911100  0.99274100  1
  O  O38  1  0.66883300  0.65849000  0.95403800  1
  O  O39  1  0.49040400  0.00751900  0.88260200  1
  O  O40  1  0.08541200  0.16342600  0.60244900  1
  O  O41  1  0.70684400  0.09393000  0.79334000  1
  O  O42  1  0.06409900  0.35540000  0.91574100  1
  O  O43  1  0.88660200  0.71110500  0.85115000  1
  O  O44  1  0.01976400  0.86974500  0.60319100  1
  O  O45  1  0.81304700  0.26821700  0.51497800  1
  O  O46  1  0.10921700  0.76457400  0.72637700  1
  O  O47  1  0.31722900  0.40149000  0.80463000  1
  O  O48  1  0.15441400  0.65465700  0.95262700  1
  O  O49  1  0.99080400  0.00738400  0.88388600  1
  O  O50  1  0.39897700  0.64270600  0.32134300  1
  O  O51  1  0.12058800  0.33624400  0.45187300  1
  O  O52  1  0.63836000  0.26006700  0.65981800  1
  O  O53  1  0.28463000  0.00442100  0.51009400  1
  O  O54  1  0.36265600  0.73418100  0.82529000  1
  O  O55  1  0.23006600  0.05750700  0.74907200  1
  O  O56  1  0.59138300  0.31518200  0.90732900  1
  O  O57  1  0.29761300  0.36855900  0.27379600  1
  O  O58  1  0.16731600  0.67618700  0.19278100  1
  O  O59  1  0.69088800  0.62443600  0.43747600  1
  O  O60  1  0.43627900  0.01127300  0.35052900  1
  O  O61  1  0.51583100  0.95308100  0.61948100  1
  O  O62  1  0.36340700  0.31673600  0.55347300  1
  O  O63  1  0.82268100  0.37354800  0.79960600  1
  O  O64  1  0.61602700  0.73772800  0.72628900  1
  O  O65  1  0.39338500  0.67383200  0.07958500  1
  O  O66  1  0.79668900  0.93849600  0.27906200  1
  O  O67  1  0.55077000  0.37853200  0.15506900  1
  O  O68  1  0.74724000  0.98331700  0.43049300  1
  O  O69  1  0.60552100  0.27733700  0.36473300  1
  O  O70  1  0.92550400  0.55221300  0.54352900  1
  O  O71  1  0.02519400  0.44882700  0.67648800  1
  O  O72  1  0.95977100  0.02345400  0.12801300  1
  O  O73  1  0.82297700  0.34373700  0.03521100  1
  O  O74  1  0.80077000  0.36631900  0.26857500  1
  O  O75  1  0.63002800  0.67711800  0.18919100  1
  O  O76  1  0.43984900  0.66297500  0.57822900  1
  O  O77  1  0.02204800  0.02851700  0.35649700  1
  O  O78  1  0.06325800  0.33246400  0.14009500  1
  O  O79  1  0.90778000  0.64978100  0.07047300  1
  O  O80  1  0.23614500  0.04472600  0.22566100  1
  O  O81  1  0.18113000  0.65587000  0.45220300  1
  O  O82  1  0.45168900  0.02194600  0.12189000  1
  O  O83  1  0.30342800  0.34397100  0.03542800  1
  O  O84  1  0.72414200  0.02523500  0.01059400  1
