data_image0
_chemical_formula_structural       Al2Ce2Si4
_chemical_formula_sum              "Al2 Ce2 Si4"
_cell_length_a       4.19713
_cell_length_b       4.19722
_cell_length_c       11.2874
_cell_angle_alpha    90
_cell_angle_beta     89.9977
_cell_angle_gamma    120.001

_space_group_name_H-M_alt    "P 1"
_space_group_IT_number       1

loop_
  _space_group_symop_operation_xyz
  'x, y, z'

loop_
  _atom_site_type_symbol
  _atom_site_label
  _atom_site_symmetry_multiplicity
  _atom_site_fract_x
  _atom_site_fract_y
  _atom_site_fract_z
  _atom_site_occupancy
  Al  Al1       1.0  0.66700  0.33300  0.41600  1.0000
  Al  Al2       1.0  0.33300  0.66700  0.58400  1.0000
  Ce  Ce1       1.0  0.00000  0.00000  0.18300  1.0000
  Ce  Ce2       1.0  0.00000  0.00000  0.81700  1.0000
  Si  Si1       1.0  0.33300  0.66700  0.99500  1.0000
  Si  Si2       1.0  0.66700  0.33300  0.00459  1.0000
  Si  Si3       1.0  0.33300  0.66700  0.35700  1.0000
  Si  Si4       1.0  0.66700  0.33300  0.64300  1.0000
