# generated using pymatgen
data_K2Fe2P2O7F2
_symmetry_space_group_name_H-M   'P 1'
_cell_length_a   7.08159600
_cell_length_b   10.32039700
_cell_length_c   10.61000100
_cell_angle_alpha   90.00000000
_cell_angle_beta   90.00000000
_cell_angle_gamma   90.00000000
_symmetry_Int_Tables_number   1
_chemical_formula_structural   K2Fe2P2O7F2
_chemical_formula_sum   'K8 Fe8 P8 O28 F8'
_cell_volume   775.43067231
_cell_formula_units_Z   4
loop_
 _symmetry_equiv_pos_site_id
 _symmetry_equiv_pos_as_xyz
  1  'x, y, z'
loop_
 _atom_site_type_symbol
 _atom_site_label
 _atom_site_symmetry_multiplicity
 _atom_site_fract_x
 _atom_site_fract_y
 _atom_site_fract_z
 _atom_site_occupancy
  K  K0  1  0.56950300  0.16384200  0.05360600  1
  K  K1  1  0.93049700  0.33615800  0.55360600  1
  K  K2  1  0.93049700  0.66384200  0.05360600  1
  K  K3  1  0.56950300  0.83615800  0.55360600  1
  K  K4  1  0.06950300  0.33615800  0.94639400  1
  K  K5  1  0.43049700  0.83615800  0.94639400  1
  K  K6  1  0.06950300  0.66384200  0.44639400  1
  K  K7  1  0.43049700  0.16384200  0.44639400  1
  Fe  Fe8  1  0.00000000  0.16106900  0.25000000  1
  Fe  Fe9  1  0.50000000  0.33893100  0.75000000  1
  Fe  Fe10  1  0.50000000  0.66106900  0.25000000  1
  Fe  Fe11  1  0.00000000  0.00000000  0.50000000  1
  Fe  Fe12  1  0.00000000  0.00000000  0.00000000  1
  Fe  Fe13  1  0.00000000  0.83893100  0.75000000  1
  Fe  Fe14  1  0.50000000  0.50000000  0.00000000  1
  Fe  Fe15  1  0.50000000  0.50000000  0.50000000  1
  P  P16  1  0.79026900  0.42868800  0.25438600  1
  P  P17  1  0.29026900  0.92868800  0.24561400  1
  P  P18  1  0.29026900  0.07131200  0.74561400  1
  P  P19  1  0.70973100  0.07131200  0.75438600  1
  P  P20  1  0.79026900  0.57131200  0.75438600  1
  P  P21  1  0.20973100  0.57131200  0.74561400  1
  P  P22  1  0.70973100  0.92868800  0.25438600  1
  P  P23  1  0.20973100  0.42868800  0.24561400  1
  O  O24  1  0.15630800  0.00763000  0.33923200  1
  O  O25  1  0.34369200  0.50763000  0.33923200  1
  O  O26  1  0.84369200  0.99237000  0.66076800  1
  O  O27  1  0.36398700  0.18463800  0.83891500  1
  O  O28  1  0.65630800  0.49237000  0.66076800  1
  O  O29  1  0.76584400  0.99577300  0.88434400  1
  O  O30  1  0.00000000  0.49287700  0.75000000  1
  O  O31  1  0.00000000  0.50712300  0.25000000  1
  O  O32  1  0.63601300  0.18463800  0.66108500  1
  O  O33  1  0.76584400  0.00422700  0.38434400  1
  O  O34  1  0.73415600  0.50422700  0.38434400  1
  O  O35  1  0.23415600  0.99577300  0.61565600  1
  O  O36  1  0.23415600  0.00422700  0.11565600  1
  O  O37  1  0.86398700  0.31536200  0.16108500  1
  O  O38  1  0.15630800  0.99237000  0.83923200  1
  O  O39  1  0.36398700  0.81536200  0.33891500  1
  O  O40  1  0.73415600  0.49577300  0.88434400  1
  O  O41  1  0.63601300  0.81536200  0.16108500  1
  O  O42  1  0.84369200  0.00763000  0.16076800  1
  O  O43  1  0.65630800  0.50763000  0.16076800  1
  O  O44  1  0.34369200  0.49237000  0.83923200  1
  O  O45  1  0.50000000  0.99287700  0.75000000  1
  O  O46  1  0.26584400  0.49577300  0.61565600  1
  O  O47  1  0.86398700  0.68463800  0.66108500  1
  O  O48  1  0.13601300  0.68463800  0.83891500  1
  O  O49  1  0.26584400  0.50422700  0.11565600  1
  O  O50  1  0.13601300  0.31536200  0.33891500  1
  O  O51  1  0.50000000  0.00712300  0.25000000  1
  F  F52  1  0.32317500  0.29198800  0.16671600  1
  F  F53  1  0.67682500  0.70801200  0.83328400  1
  F  F54  1  0.17682500  0.20801200  0.66671600  1
  F  F55  1  0.32317500  0.70801200  0.66671600  1
  F  F56  1  0.82317500  0.79198800  0.33328400  1
  F  F57  1  0.17682500  0.79198800  0.16671600  1
  F  F58  1  0.67682500  0.29198800  0.33328400  1
  F  F59  1  0.82317500  0.20801200  0.83328400  1
