# generated using pymatgen
data_Mo2H5C5N3O14
_symmetry_space_group_name_H-M   'P 1'
_cell_length_a   7.73478600
_cell_length_b   12.26623600
_cell_length_c   18.32156300
_cell_angle_alpha   90.00000000
_cell_angle_beta   90.00000000
_cell_angle_gamma   90.00000000
_symmetry_Int_Tables_number   1
_chemical_formula_structural   Mo2H5C5N3O14
_chemical_formula_sum   'Mo8 H20 C20 N12 O56'
_cell_volume   1738.28962839
_cell_formula_units_Z   4
loop_
 _symmetry_equiv_pos_site_id
 _symmetry_equiv_pos_as_xyz
  1  'x, y, z'
loop_
 _atom_site_type_symbol
 _atom_site_label
 _atom_site_symmetry_multiplicity
 _atom_site_fract_x
 _atom_site_fract_y
 _atom_site_fract_z
 _atom_site_occupancy
  Mo  Mo0  1  0.70399600  0.47077400  0.33090200  1
  Mo  Mo1  1  0.20399600  0.02922600  0.16909800  1
  Mo  Mo2  1  0.29600400  0.52922600  0.83090200  1
  Mo  Mo3  1  0.79600400  0.97077400  0.66909800  1
  Mo  Mo4  1  0.29600400  0.52922600  0.66909800  1
  Mo  Mo5  1  0.79600400  0.97077400  0.83090200  1
  Mo  Mo6  1  0.70399600  0.47077400  0.16909800  1
  Mo  Mo7  1  0.20399600  0.02922600  0.33090200  1
  H  H8  1  0.20200100  0.41894800  0.25000000  1
  H  H9  1  0.70200100  0.08105200  0.25000000  1
  H  H10  1  0.79799900  0.58105200  0.75000000  1
  H  H11  1  0.29799900  0.91894800  0.75000000  1
  H  H12  1  0.55376700  0.71885400  0.45941400  1
  H  H13  1  0.05376700  0.78114600  0.04058600  1
  H  H14  1  0.44623300  0.28114600  0.95941400  1
  H  H15  1  0.94623300  0.21885400  0.54058600  1
  H  H16  1  0.44623300  0.28114600  0.54058600  1
  H  H17  1  0.94623300  0.21885400  0.95941400  1
  H  H18  1  0.55376700  0.71885400  0.04058600  1
  H  H19  1  0.05376700  0.78114600  0.45941400  1
  H  H20  1  0.59080100  0.21109400  0.34680700  1
  H  H21  1  0.09080100  0.28890600  0.15319300  1
  H  H22  1  0.40919900  0.78890600  0.84680700  1
  H  H23  1  0.90919900  0.71109400  0.65319300  1
  H  H24  1  0.40919900  0.78890600  0.65319300  1
  H  H25  1  0.90919900  0.71109400  0.84680700  1
  H  H26  1  0.59080100  0.21109400  0.15319300  1
  H  H27  1  0.09080100  0.28890600  0.34680700  1
  C  C28  1  0.34487100  0.42750200  0.25000000  1
  C  C29  1  0.84487100  0.07249800  0.25000000  1
  C  C30  1  0.65512900  0.57249800  0.75000000  1
  C  C31  1  0.15512900  0.92750200  0.75000000  1
  C  C32  1  0.62208300  0.24565800  0.40118500  1
  C  C33  1  0.12208300  0.25434200  0.09881500  1
  C  C34  1  0.37791700  0.75434200  0.90118500  1
  C  C35  1  0.87791700  0.74565800  0.59881500  1
  C  C36  1  0.37791700  0.75434200  0.59881500  1
  C  C37  1  0.87791700  0.74565800  0.90118500  1
  C  C38  1  0.62208300  0.24565800  0.09881500  1
  C  C39  1  0.12208300  0.25434200  0.40118500  1
  C  C40  1  0.62916500  0.68934300  0.41172100  1
  C  C41  1  0.12916500  0.81065700  0.08827900  1
  C  C42  1  0.37083500  0.31065700  0.91172100  1
  C  C43  1  0.87083500  0.18934300  0.58827900  1
  C  C44  1  0.37083500  0.31065700  0.58827900  1
  C  C45  1  0.87083500  0.18934300  0.91172100  1
  C  C46  1  0.62916500  0.68934300  0.08827900  1
  C  C47  1  0.12916500  0.81065700  0.41172100  1
  N  N48  1  0.77261100  0.45338400  0.55455500  1
  N  N49  1  0.27261100  0.04661600  0.94544500  1
  N  N50  1  0.22738900  0.54661600  0.05455500  1
  N  N51  1  0.72738900  0.95338400  0.44544500  1
  N  N52  1  0.22738900  0.54661600  0.44544500  1
  N  N53  1  0.72738900  0.95338400  0.05455500  1
  N  N54  1  0.77261100  0.45338400  0.94544500  1
  N  N55  1  0.27261100  0.04661600  0.55455500  1
  N  N56  1  0.56407900  0.22526900  0.75000000  1
  N  N57  1  0.06407900  0.27473100  0.75000000  1
  N  N58  1  0.43592100  0.77473100  0.25000000  1
  N  N59  1  0.93592100  0.72526900  0.25000000  1
  O  O60  1  0.72824200  0.36838400  0.25000000  1
  O  O61  1  0.22824200  0.13161600  0.25000000  1
  O  O62  1  0.27175800  0.63161600  0.75000000  1
  O  O63  1  0.77175800  0.86838400  0.75000000  1
  O  O64  1  0.66176800  0.56824300  0.25000000  1
  O  O65  1  0.16176800  0.93175700  0.25000000  1
  O  O66  1  0.33823200  0.43175700  0.75000000  1
  O  O67  1  0.83823200  0.06824300  0.75000000  1
  O  O68  1  0.60742900  0.58523500  0.39771100  1
  O  O69  1  0.10742900  0.91476500  0.10228900  1
  O  O70  1  0.39257100  0.41476500  0.89771100  1
  O  O71  1  0.89257100  0.08523500  0.60228900  1
  O  O72  1  0.39257100  0.41476500  0.60228900  1
  O  O73  1  0.89257100  0.08523500  0.89771100  1
  O  O74  1  0.60742900  0.58523500  0.10228900  1
  O  O75  1  0.10742900  0.91476500  0.39771100  1
  O  O76  1  0.68141300  0.34696200  0.39883500  1
  O  O77  1  0.18141300  0.15303800  0.10116500  1
  O  O78  1  0.31858700  0.65303800  0.89883500  1
  O  O79  1  0.81858700  0.84696200  0.60116500  1
  O  O80  1  0.31858700  0.65303800  0.60116500  1
  O  O81  1  0.81858700  0.84696200  0.89883500  1
  O  O82  1  0.68141300  0.34696200  0.10116500  1
  O  O83  1  0.18141300  0.15303800  0.39883500  1
  O  O84  1  0.41730000  0.43169100  0.31229300  1
  O  O85  1  0.91730000  0.06830900  0.18770700  1
  O  O86  1  0.58270000  0.56830900  0.81229300  1
  O  O87  1  0.08270000  0.93169100  0.68770700  1
  O  O88  1  0.58270000  0.56830900  0.68770700  1
  O  O89  1  0.08270000  0.93169100  0.81229300  1
  O  O90  1  0.41730000  0.43169100  0.18770700  1
  O  O91  1  0.91730000  0.06830900  0.31229300  1
  O  O92  1  0.91870500  0.49445900  0.34661100  1
  O  O93  1  0.41870500  0.00554100  0.15338900  1
  O  O94  1  0.08129500  0.50554100  0.84661100  1
  O  O95  1  0.58129500  0.99445900  0.65338900  1
  O  O96  1  0.08129500  0.50554100  0.65338900  1
  O  O97  1  0.58129500  0.99445900  0.84661100  1
  O  O98  1  0.91870500  0.49445900  0.15338900  1
  O  O99  1  0.41870500  0.00554100  0.34661100  1
  O  O100  1  0.72082700  0.75219300  0.37607900  1
  O  O101  1  0.22082700  0.74780700  0.12392100  1
  O  O102  1  0.27917300  0.24780700  0.87607900  1
  O  O103  1  0.77917300  0.25219300  0.62392100  1
  O  O104  1  0.27917300  0.24780700  0.62392100  1
  O  O105  1  0.77917300  0.25219300  0.87607900  1
  O  O106  1  0.72082700  0.75219300  0.12392100  1
  O  O107  1  0.22082700  0.74780700  0.37607900  1
  O  O108  1  0.60529000  0.19517100  0.45848300  1
  O  O109  1  0.10529000  0.30482900  0.04151700  1
  O  O110  1  0.39471000  0.80482900  0.95848300  1
  O  O111  1  0.89471000  0.69517100  0.54151700  1
  O  O112  1  0.39471000  0.80482900  0.54151700  1
  O  O113  1  0.89471000  0.69517100  0.95848300  1
  O  O114  1  0.60529000  0.19517100  0.04151700  1
  O  O115  1  0.10529000  0.30482900  0.45848300  1
