# generated using pymatgen
data_Cr8Bi4O29
_symmetry_space_group_name_H-M   'P 1'
_cell_length_a   5.06886800
_cell_length_b   13.36490292
_cell_length_c   18.75398074
_cell_angle_alpha   95.55340809
_cell_angle_beta   93.40194775
_cell_angle_gamma   90.91947514
_symmetry_Int_Tables_number   1
_chemical_formula_structural   Cr8Bi4O29
_chemical_formula_sum   'Cr16 Bi8 O58'
_cell_volume   1261.99202762
_cell_formula_units_Z   2
loop_
 _symmetry_equiv_pos_site_id
 _symmetry_equiv_pos_as_xyz
  1  'x, y, z'
loop_
 _atom_site_type_symbol
 _atom_site_label
 _atom_site_symmetry_multiplicity
 _atom_site_fract_x
 _atom_site_fract_y
 _atom_site_fract_z
 _atom_site_occupancy
  Cr  Cr0  1  0.21604500  0.11071800  0.45837000  1
  Cr  Cr1  1  0.78395500  0.88928200  0.54163000  1
  Cr  Cr2  1  0.26343400  0.88754600  0.04799400  1
  Cr  Cr3  1  0.73656600  0.11245400  0.95200600  1
  Cr  Cr4  1  0.20096400  0.60862500  0.95660200  1
  Cr  Cr5  1  0.79903600  0.39137500  0.04339800  1
  Cr  Cr6  1  0.27502800  0.38890200  0.54582100  1
  Cr  Cr7  1  0.72497200  0.61109800  0.45417900  1
  Cr  Cr8  1  0.29900300  0.61774500  0.24439300  1
  Cr  Cr9  1  0.70099700  0.38225500  0.75560700  1
  Cr  Cr10  1  0.32143300  0.12049800  0.74308500  1
  Cr  Cr11  1  0.67856700  0.87950200  0.25691500  1
  Cr  Cr12  1  0.16991900  0.87817300  0.76676200  1
  Cr  Cr13  1  0.83008100  0.12182700  0.23323800  1
  Cr  Cr14  1  0.29455400  0.37873700  0.26810900  1
  Cr  Cr15  1  0.70544600  0.62126300  0.73189100  1
  Bi  Bi16  1  0.22445800  0.80681600  0.40310500  1
  Bi  Bi17  1  0.77554200  0.19318400  0.59689500  1
  Bi  Bi18  1  0.23698600  0.30539700  0.90189900  1
  Bi  Bi19  1  0.76301400  0.69460300  0.09810100  1
  Bi  Bi20  1  0.73047100  0.30195500  0.40884200  1
  Bi  Bi21  1  0.26952900  0.69804500  0.59115800  1
  Bi  Bi22  1  0.68703700  0.79612400  0.91013000  1
  Bi  Bi23  1  0.31296300  0.20387600  0.08987000  1
  O  O24  1  0.44731400  0.68149600  0.47652700  1
  O  O25  1  0.55268600  0.31850400  0.52347300  1
  O  O26  1  0.36705700  0.50134800  0.58205200  1
  O  O27  1  0.63294300  0.49865200  0.41794800  1
  O  O28  1  0.09694000  0.32909300  0.60044900  1
  O  O29  1  0.90306000  0.67090700  0.39955100  1
  O  O30  1  0.09010300  0.82258100  0.10112000  1
  O  O31  1  0.90989700  0.17741900  0.89888000  1
  O  O32  1  0.08221800  0.32171800  0.02912000  1
  O  O33  1  0.91778200  0.67828200  0.97088000  1
  O  O34  1  0.37919100  0.11055700  0.53757100  1
  O  O35  1  0.62080900  0.88944300  0.46242900  1
  O  O36  1  0.06427800  0.81568900  0.52701800  1
  O  O37  1  0.93572200  0.18431100  0.47298200  1
  O  O38  1  0.36464900  0.60896300  0.03547000  1
  O  O39  1  0.63535100  0.39103700  0.96453000  1
  O  O40  1  0.54618200  0.81831700  0.02382900  1
  O  O41  1  0.45381800  0.18168300  0.97617100  1
  O  O42  1  0.39007500  0.66296700  0.90157000  1
  O  O43  1  0.60992500  0.33703300  0.09843000  1
  O  O44  1  0.34891800  0.99939500  0.08678600  1
  O  O45  1  0.65108200  0.00060500  0.91321400  1
  O  O46  1  0.08194100  0.89756600  0.97398900  1
  O  O47  1  0.91805900  0.10243400  0.02601100  1
  O  O48  1  0.08905000  0.39809500  0.47113200  1
  O  O49  1  0.91095000  0.60190500  0.52886800  1
  O  O50  1  0.40332300  0.16319400  0.40292100  1
  O  O51  1  0.59667700  0.83680600  0.59707900  1
  O  O52  1  0.40101000  0.69120200  0.31796300  1
  O  O53  1  0.59899000  0.30879800  0.68203700  1
  O  O54  1  0.41292800  0.19538300  0.81747800  1
  O  O55  1  0.58707200  0.80461700  0.18252200  1
  O  O56  1  0.12998900  0.99552600  0.42612600  1
  O  O57  1  0.87001100  0.00447400  0.57387400  1
  O  O58  1  0.12459500  0.49354800  0.92208400  1
  O  O59  1  0.87540500  0.50645200  0.07791600  1
  O  O60  1  0.17591100  0.31107300  0.19347800  1
  O  O61  1  0.82408900  0.68892700  0.80652200  1
  O  O62  1  0.16981700  0.82234700  0.68324100  1
  O  O63  1  0.83018300  0.17765300  0.31675900  1
  O  O64  1  0.54183100  0.59724200  0.19222300  1
  O  O65  1  0.45816900  0.40275800  0.80777700  1
  O  O66  1  0.17959000  0.50388800  0.27074700  1
  O  O67  1  0.82041000  0.49611200  0.72925300  1
  O  O68  1  0.57875500  0.09343000  0.69684200  1
  O  O69  1  0.42124500  0.90657000  0.30315800  1
  O  O70  1  0.05887400  0.67068700  0.20042200  1
  O  O71  1  0.94112600  0.32931300  0.79957800  1
  O  O72  1  0.10000000  0.17228300  0.69123000  1
  O  O73  1  0.90000000  0.82771700  0.30877000  1
  O  O74  1  0.17534200  0.01563000  0.77177400  1
  O  O75  1  0.82465800  0.98437000  0.22822600  1
  O  O76  1  0.19663400  0.32948900  0.33918300  1
  O  O77  1  0.80336600  0.67051100  0.66081700  1
  O  O78  1  0.26866600  0.83472100  0.84483500  1
  O  O79  1  0.73133400  0.16527900  0.15516500  1
  O  O80  1  0.38568600  0.62317200  0.72681000  1
  O  O81  1  0.61431400  0.37682800  0.27319000  1
