# generated using pymatgen
data_Mo2H3(CO2)4
_symmetry_space_group_name_H-M   'P 1'
_cell_length_a   5.94479800
_cell_length_b   12.72569000
_cell_length_c   13.38828800
_cell_angle_alpha   90.00000000
_cell_angle_beta   90.00000000
_cell_angle_gamma   90.00000000
_symmetry_Int_Tables_number   1
_chemical_formula_structural   Mo2H3(CO2)4
_chemical_formula_sum   'Mo8 H12 C16 O32'
_cell_volume   1012.84616437
_cell_formula_units_Z   4
loop_
 _symmetry_equiv_pos_site_id
 _symmetry_equiv_pos_as_xyz
  1  'x, y, z'
loop_
 _atom_site_type_symbol
 _atom_site_label
 _atom_site_symmetry_multiplicity
 _atom_site_fract_x
 _atom_site_fract_y
 _atom_site_fract_z
 _atom_site_occupancy
  Mo  Mo0  1  0.55709300  0.07327700  0.79152200  1
  Mo  Mo1  1  0.05709300  0.42672300  0.20847800  1
  Mo  Mo2  1  0.44290700  0.57327700  0.70847800  1
  Mo  Mo3  1  0.94290700  0.92672300  0.29152200  1
  Mo  Mo4  1  0.97787000  0.17699900  0.69770600  1
  Mo  Mo5  1  0.47787000  0.32300100  0.30229400  1
  Mo  Mo6  1  0.02213000  0.67699900  0.80229400  1
  Mo  Mo7  1  0.52213000  0.82300100  0.19770600  1
  H  H8  1  0.40222000  0.30736700  0.57111900  1
  H  H9  1  0.90222000  0.19263300  0.42888100  1
  H  H10  1  0.59778000  0.80736700  0.92888100  1
  H  H11  1  0.09778000  0.69263300  0.07111900  1
  H  H12  1  0.79652300  0.90599100  0.55068500  1
  H  H13  1  0.29652300  0.59400900  0.44931500  1
  H  H14  1  0.20347700  0.40599100  0.94931500  1
  H  H15  1  0.70347700  0.09400900  0.05068500  1
  H  H16  1  0.13700200  0.94896500  0.91996100  1
  H  H17  1  0.63700200  0.55103500  0.08003900  1
  H  H18  1  0.86299800  0.44896500  0.58003900  1
  H  H19  1  0.36299800  0.05103500  0.41996100  1
  C  C20  1  0.75271400  0.27815300  0.88494200  1
  C  C21  1  0.25271400  0.22184700  0.11505800  1
  C  C22  1  0.24728600  0.77815300  0.61505800  1
  C  C23  1  0.74728600  0.72184700  0.38494200  1
  C  C24  1  0.50432500  0.25504700  0.61907700  1
  C  C25  1  0.00432500  0.24495300  0.38092300  1
  C  C26  1  0.49567500  0.75504700  0.88092300  1
  C  C27  1  0.99567500  0.74495300  0.11907700  1
  C  C28  1  0.78629900  0.97066000  0.60484200  1
  C  C29  1  0.28629900  0.52934000  0.39515800  1
  C  C30  1  0.21370100  0.47066000  0.89515800  1
  C  C31  1  0.71370100  0.02934000  0.10484200  1
  C  C32  1  0.03360600  0.99945500  0.87081700  1
  C  C33  1  0.53360600  0.50054500  0.12918300  1
  C  C34  1  0.96639400  0.49945500  0.62918300  1
  C  C35  1  0.46639400  0.00054500  0.37081700  1
  O  O36  1  0.59622400  0.21333700  0.89516800  1
  O  O37  1  0.09622400  0.28666300  0.10483200  1
  O  O38  1  0.40377600  0.71333700  0.60483200  1
  O  O39  1  0.90377600  0.78666300  0.39516800  1
  O  O40  1  0.91412300  0.28884700  0.82580600  1
  O  O41  1  0.41412300  0.21115300  0.17419400  1
  O  O42  1  0.08587700  0.78884700  0.67419400  1
  O  O43  1  0.58587700  0.71115300  0.32580600  1
  O  O44  1  0.39748200  0.19292100  0.67761000  1
  O  O45  1  0.89748200  0.30707900  0.32239000  1
  O  O46  1  0.60251800  0.69292100  0.82239000  1
  O  O47  1  0.10251800  0.80707900  0.17761000  1
  O  O48  1  0.71642900  0.26289700  0.61092700  1
  O  O49  1  0.21642900  0.23710300  0.38907300  1
  O  O50  1  0.28357100  0.76289700  0.88907300  1
  O  O51  1  0.78357100  0.73710300  0.11092700  1
  O  O52  1  0.61986500  0.96807000  0.66496200  1
  O  O53  1  0.11986500  0.53193000  0.33503800  1
  O  O54  1  0.38013500  0.46807000  0.83503800  1
  O  O55  1  0.88013500  0.03193000  0.16496200  1
  O  O56  1  0.94171800  0.03970700  0.60007700  1
  O  O57  1  0.44171800  0.46029300  0.39992300  1
  O  O58  1  0.05828200  0.53970700  0.89992300  1
  O  O59  1  0.55828200  0.96029300  0.10007700  1
  O  O60  1  0.82240000  0.98817400  0.87619800  1
  O  O61  1  0.32240000  0.51182600  0.12380200  1
  O  O62  1  0.17760000  0.48817400  0.62380200  1
  O  O63  1  0.67760000  0.01182600  0.37619800  1
  O  O64  1  0.13988000  0.06350200  0.81363100  1
  O  O65  1  0.63988000  0.43649800  0.18636900  1
  O  O66  1  0.86012000  0.56350200  0.68636900  1
  O  O67  1  0.36012000  0.93649800  0.31363100  1
