# generated using pymatgen
data_MoH4O5
_symmetry_space_group_name_H-M   'P 1'
_cell_length_a   14.18474000
_cell_length_b   10.64384100
_cell_length_c   11.22715928
_cell_angle_alpha   89.32839800
_cell_angle_beta   90.00000000
_cell_angle_gamma   90.00000000
_symmetry_Int_Tables_number   1
_chemical_formula_structural   MoH4O5
_chemical_formula_sum   'Mo16 H64 O80'
_cell_volume   1694.96137582
_cell_formula_units_Z   16
loop_
 _symmetry_equiv_pos_site_id
 _symmetry_equiv_pos_as_xyz
  1  'x, y, z'
loop_
 _atom_site_type_symbol
 _atom_site_label
 _atom_site_symmetry_multiplicity
 _atom_site_fract_x
 _atom_site_fract_y
 _atom_site_fract_z
 _atom_site_occupancy
  Mo  Mo0  1  0.26033600  0.36112400  0.39741300  1
  Mo  Mo1  1  0.23966400  0.86112400  0.89741300  1
  Mo  Mo2  1  0.73966400  0.63887600  0.60258700  1
  Mo  Mo3  1  0.76033600  0.13887600  0.10258700  1
  Mo  Mo4  1  0.25408800  0.12041500  0.13585600  1
  Mo  Mo5  1  0.24591200  0.62041500  0.63585600  1
  Mo  Mo6  1  0.74591200  0.87958500  0.86414400  1
  Mo  Mo7  1  0.75408800  0.37958500  0.36414400  1
  Mo  Mo8  1  0.22421000  0.40836600  0.12951500  1
  Mo  Mo9  1  0.27579000  0.90836600  0.62951500  1
  Mo  Mo10  1  0.77579000  0.59163400  0.87048500  1
  Mo  Mo11  1  0.72421000  0.09163400  0.37048500  1
  Mo  Mo12  1  0.26906500  0.35007100  0.86036400  1
  Mo  Mo13  1  0.23093500  0.85007100  0.36036400  1
  Mo  Mo14  1  0.73093500  0.64992900  0.13963600  1
  Mo  Mo15  1  0.76906500  0.14992900  0.63963600  1
  H  H16  1  0.44110000  0.50706700  0.38694500  1
  H  H17  1  0.05890000  0.00706700  0.88694500  1
  H  H18  1  0.55890000  0.49293300  0.61305500  1
  H  H19  1  0.94110000  0.99293300  0.11305500  1
  H  H20  1  0.44446500  0.39354900  0.48371000  1
  H  H21  1  0.05553500  0.89354900  0.98371000  1
  H  H22  1  0.55553500  0.60645100  0.51629000  1
  H  H23  1  0.94446500  0.10645100  0.01629000  1
  H  H24  1  0.41647600  0.13565400  0.22277600  1
  H  H25  1  0.08352400  0.63565400  0.72277600  1
  H  H26  1  0.58352400  0.86434600  0.77722400  1
  H  H27  1  0.91647600  0.36434600  0.27722400  1
  H  H28  1  0.46770000  0.96743500  0.13235400  1
  H  H29  1  0.03230000  0.46743500  0.63235400  1
  H  H30  1  0.53230000  0.03256500  0.86764600  1
  H  H31  1  0.96770000  0.53256500  0.36764600  1
  H  H32  1  0.03900000  0.46708800  0.13629600  1
  H  H33  1  0.46100000  0.96708800  0.63629600  1
  H  H34  1  0.96100000  0.53291200  0.86370400  1
  H  H35  1  0.53900000  0.03291200  0.36370400  1
  H  H36  1  0.09098200  0.57086500  0.22146400  1
  H  H37  1  0.40901800  0.07086500  0.72146400  1
  H  H38  1  0.90901800  0.42913500  0.77853600  1
  H  H39  1  0.59098200  0.92913500  0.27853600  1
  H  H40  1  0.44744100  0.38405800  0.96913900  1
  H  H41  1  0.05255900  0.88405800  0.46913900  1
  H  H42  1  0.55255900  0.61594200  0.03086100  1
  H  H43  1  0.94744100  0.11594200  0.53086100  1
  H  H44  1  0.44623500  0.50267200  0.88200800  1
  H  H45  1  0.05376500  0.00267200  0.38200800  1
  H  H46  1  0.55376500  0.49732800  0.11799200  1
  H  H47  1  0.94623500  0.99732800  0.61799200  1
  H  H48  1  0.04906300  0.20973600  0.38663800  1
  H  H49  1  0.45093700  0.70973600  0.88663800  1
  H  H50  1  0.95093700  0.79026400  0.61336200  1
  H  H51  1  0.54906300  0.29026400  0.11336200  1
  H  H52  1  0.96215300  0.15330600  0.31345400  1
  H  H53  1  0.53784700  0.65330600  0.81345400  1
  H  H54  1  0.03784700  0.84669400  0.68654600  1
  H  H55  1  0.46215300  0.34669400  0.18654600  1
  H  H56  1  0.96535000  0.14715200  0.80178200  1
  H  H57  1  0.53465000  0.64715200  0.30178200  1
  H  H58  1  0.03465000  0.85284800  0.19821800  1
  H  H59  1  0.46535000  0.35284800  0.69821800  1
  H  H60  1  0.05400500  0.20804700  0.86010600  1
  H  H61  1  0.44599500  0.70804700  0.36010600  1
  H  H62  1  0.94599500  0.79195300  0.13989400  1
  H  H63  1  0.55400500  0.29195300  0.63989400  1
  H  H64  1  0.02193900  0.28297200  0.11345400  1
  H  H65  1  0.47806100  0.78297200  0.61345400  1
  H  H66  1  0.97806100  0.71702800  0.88654600  1
  H  H67  1  0.52193900  0.21702800  0.38654600  1
  H  H68  1  0.92779400  0.33827600  0.05598100  1
  H  H69  1  0.57220600  0.83827600  0.55598100  1
  H  H70  1  0.07220600  0.66172400  0.94401900  1
  H  H71  1  0.42779400  0.16172400  0.44401900  1
  H  H72  1  0.04557700  0.60500200  0.44024900  1
  H  H73  1  0.45442300  0.10500200  0.94024900  1
  H  H74  1  0.95442300  0.39499800  0.55975100  1
  H  H75  1  0.54557700  0.89499800  0.05975100  1
  H  H76  1  0.93335300  0.74253000  0.37490200  1
  H  H77  1  0.56664700  0.24253000  0.87490200  1
  H  H78  1  0.06664700  0.25747000  0.62509800  1
  H  H79  1  0.43335300  0.75747000  0.12509800  1
  O  O80  1  0.25581900  0.51426400  0.51145000  1
  O  O81  1  0.24418100  0.01426400  0.01145000  1
  O  O82  1  0.74418100  0.48573600  0.48855000  1
  O  O83  1  0.75581900  0.98573600  0.98855000  1
  O  O84  1  0.29652000  0.27516100  0.24570500  1
  O  O85  1  0.20348000  0.77516100  0.74570500  1
  O  O86  1  0.70348000  0.72483900  0.75429500  1
  O  O87  1  0.79652000  0.22483900  0.25429500  1
  O  O88  1  0.30520700  0.24689600  0.49257200  1
  O  O89  1  0.19479300  0.74689600  0.99257200  1
  O  O90  1  0.69479300  0.75310400  0.50742800  1
  O  O91  1  0.80520700  0.25310400  0.00742800  1
  O  O92  1  0.26102100  0.49846000  0.26180900  1
  O  O93  1  0.23897900  0.99846000  0.76180900  1
  O  O94  1  0.73897900  0.50154000  0.73819100  1
  O  O95  1  0.76102100  0.00154000  0.23819100  1
  O  O96  1  0.21974800  0.01316900  0.25442200  1
  O  O97  1  0.28025200  0.51316900  0.75442200  1
  O  O98  1  0.78025200  0.98683100  0.74557800  1
  O  O99  1  0.71974800  0.48683100  0.24557800  1
  O  O100  1  0.29816000  0.27047200  0.01250200  1
  O  O101  1  0.20184000  0.77047200  0.51250200  1
  O  O102  1  0.70184000  0.72952800  0.98749800  1
  O  O103  1  0.79816000  0.22952800  0.48749800  1
  O  O104  1  0.18189300  0.75014400  0.25773100  1
  O  O105  1  0.31810700  0.25014400  0.75773100  1
  O  O106  1  0.81810700  0.24985600  0.74226900  1
  O  O107  1  0.68189300  0.74985600  0.24226900  1
  O  O108  1  0.24655700  0.49467100  0.99508000  1
  O  O109  1  0.25344300  0.99467100  0.49508000  1
  O  O110  1  0.75344300  0.50532900  0.00492000  1
  O  O111  1  0.74655700  0.00532900  0.50492000  1
  O  O112  1  0.13844300  0.33388100  0.39324900  1
  O  O113  1  0.36155700  0.83388100  0.89324900  1
  O  O114  1  0.86155700  0.66611900  0.60675100  1
  O  O115  1  0.63844300  0.16611900  0.10675100  1
  O  O116  1  0.15016600  0.23363200  0.13023200  1
  O  O117  1  0.34983400  0.73363200  0.63023200  1
  O  O118  1  0.84983400  0.76636800  0.86976800  1
  O  O119  1  0.65016600  0.26636800  0.36976800  1
  O  O120  1  0.40817600  0.67043500  0.11776400  1
  O  O121  1  0.09182400  0.17043500  0.61776400  1
  O  O122  1  0.59182400  0.32956500  0.88223600  1
  O  O123  1  0.90817600  0.82956500  0.38223600  1
  O  O124  1  0.14737700  0.32357900  0.85000900  1
  O  O125  1  0.35262300  0.82357900  0.35000900  1
  O  O126  1  0.85262300  0.67642100  0.14999100  1
  O  O127  1  0.64737700  0.17642100  0.64999100  1
  O  O128  1  0.41764100  0.41980600  0.40564900  1
  O  O129  1  0.08235900  0.91980600  0.90564900  1
  O  O130  1  0.58235900  0.58019400  0.59435100  1
  O  O131  1  0.91764100  0.08019400  0.09435100  1
  O  O132  1  0.39029700  0.09311600  0.15206200  1
  O  O133  1  0.10970300  0.59311600  0.65206200  1
  O  O134  1  0.60970300  0.90688400  0.84793800  1
  O  O135  1  0.89029700  0.40688400  0.34793800  1
  O  O136  1  0.09762900  0.51948100  0.14827400  1
  O  O137  1  0.40237100  0.01948100  0.64827400  1
  O  O138  1  0.90237100  0.48051900  0.85172600  1
  O  O139  1  0.59762900  0.98051900  0.35172600  1
  O  O140  1  0.42417600  0.41312200  0.88986900  1
  O  O141  1  0.07582400  0.91312200  0.38986900  1
  O  O142  1  0.57582400  0.58687800  0.11013100  1
  O  O143  1  0.92417600  0.08687800  0.61013100  1
  O  O144  1  0.00284500  0.13984300  0.38246600  1
  O  O145  1  0.49715500  0.63984300  0.88246600  1
  O  O146  1  0.99715500  0.86015700  0.61753400  1
  O  O147  1  0.50284500  0.36015700  0.11753400  1
  O  O148  1  0.00438200  0.14378400  0.87409300  1
  O  O149  1  0.49561800  0.64378400  0.37409300  1
  O  O150  1  0.99561800  0.85621600  0.12590700  1
  O  O151  1  0.50438200  0.35621600  0.62590700  1
  O  O152  1  0.97363100  0.34958800  0.12046100  1
  O  O153  1  0.52636900  0.84958800  0.62046100  1
  O  O154  1  0.02636900  0.65041200  0.87953900  1
  O  O155  1  0.47363100  0.15041200  0.37953900  1
  O  O156  1  0.01067400  0.60584200  0.36497100  1
  O  O157  1  0.48932600  0.10584200  0.86497100  1
  O  O158  1  0.98932600  0.39415800  0.63502900  1
  O  O159  1  0.51067400  0.89415800  0.13502900  1
