# generated using pymatgen
data_K2MoH2S2O9
_symmetry_space_group_name_H-M   'P 1'
_cell_length_a   10.13282654
_cell_length_b   10.13282654
_cell_length_c   10.22661882
_cell_angle_alpha   85.69462791
_cell_angle_beta   85.69462791
_cell_angle_gamma   61.23397456
_symmetry_Int_Tables_number   1
_chemical_formula_structural   K2MoH2S2O9
_chemical_formula_sum   'K8 Mo4 H8 S8 O36'
_cell_volume   916.92148229
_cell_formula_units_Z   4
loop_
 _symmetry_equiv_pos_site_id
 _symmetry_equiv_pos_as_xyz
  1  'x, y, z'
loop_
 _atom_site_type_symbol
 _atom_site_label
 _atom_site_symmetry_multiplicity
 _atom_site_fract_x
 _atom_site_fract_y
 _atom_site_fract_z
 _atom_site_occupancy
  K  K0  1  0.34786800  0.65213200  0.75000000  1
  K  K1  1  0.65213200  0.34786800  0.25000000  1
  K  K2  1  0.21666700  0.49409900  0.09034900  1
  K  K3  1  0.50590100  0.78333300  0.40965100  1
  K  K4  1  0.78333300  0.50590100  0.90965100  1
  K  K5  1  0.49409900  0.21666700  0.59034900  1
  K  K6  1  0.06953700  0.93046300  0.25000000  1
  K  K7  1  0.93046300  0.06953700  0.75000000  1
  Mo  Mo8  1  0.04448600  0.45881900  0.59875900  1
  Mo  Mo9  1  0.54118100  0.95551400  0.90124100  1
  Mo  Mo10  1  0.95551400  0.54118100  0.40124100  1
  Mo  Mo11  1  0.45881900  0.04448600  0.09875900  1
  H  H12  1  0.02207200  0.79299100  0.93362100  1
  H  H13  1  0.20700900  0.97792800  0.56637900  1
  H  H14  1  0.97792800  0.20700900  0.06637900  1
  H  H15  1  0.79299100  0.02207200  0.43362100  1
  H  H16  1  0.00469300  0.71634000  0.81305100  1
  H  H17  1  0.28366000  0.99530700  0.68694900  1
  H  H18  1  0.99530700  0.28366000  0.18694900  1
  H  H19  1  0.71634000  0.00469300  0.31305100  1
  S  S20  1  0.75029000  0.42020500  0.56711100  1
  S  S21  1  0.57979500  0.24971000  0.93288900  1
  S  S22  1  0.24971000  0.57979500  0.43288900  1
  S  S23  1  0.42020500  0.75029000  0.06711100  1
  S  S24  1  0.21542700  0.19263400  0.39521000  1
  S  S25  1  0.80736600  0.78457300  0.10479000  1
  S  S26  1  0.78457300  0.80736600  0.60479000  1
  S  S27  1  0.19263400  0.21542700  0.89521000  1
  O  O28  1  0.88927600  0.36896300  0.64842700  1
  O  O29  1  0.63103700  0.11072400  0.85157300  1
  O  O30  1  0.11072400  0.63103700  0.35157300  1
  O  O31  1  0.36896300  0.88927600  0.14842700  1
  O  O32  1  0.78849800  0.46420900  0.42828800  1
  O  O33  1  0.53579100  0.21150200  0.07171200  1
  O  O34  1  0.21150200  0.53579100  0.57171200  1
  O  O35  1  0.46420900  0.78849800  0.92828800  1
  O  O36  1  0.72204900  0.29152200  0.55980500  1
  O  O37  1  0.70847800  0.27795100  0.94019500  1
  O  O38  1  0.27795100  0.70847800  0.44019500  1
  O  O39  1  0.29152200  0.72204900  0.05980500  1
  O  O40  1  0.62250200  0.55202900  0.62479700  1
  O  O41  1  0.44797100  0.37749800  0.87520300  1
  O  O42  1  0.37749800  0.44797100  0.37520300  1
  O  O43  1  0.55202900  0.62250200  0.12479700  1
  O  O44  1  0.21636900  0.24404100  0.53103200  1
  O  O45  1  0.75595900  0.78363100  0.96896800  1
  O  O46  1  0.78363100  0.75595900  0.46896800  1
  O  O47  1  0.24404100  0.21636900  0.03103200  1
  O  O48  1  0.11918400  0.33257200  0.30985200  1
  O  O49  1  0.66742800  0.88081600  0.19014800  1
  O  O50  1  0.88081600  0.66742800  0.69014800  1
  O  O51  1  0.33257200  0.11918400  0.80985200  1
  O  O52  1  0.14947700  0.09010500  0.40575600  1
  O  O53  1  0.90989500  0.85052300  0.09424400  1
  O  O54  1  0.85052300  0.90989500  0.59424400  1
  O  O55  1  0.09010500  0.14947700  0.90575600  1
  O  O56  1  0.37222200  0.11856100  0.34122700  1
  O  O57  1  0.88143900  0.62777800  0.15877300  1
  O  O58  1  0.62777800  0.88143900  0.65877300  1
  O  O59  1  0.11856100  0.37222200  0.84122700  1
  O  O60  1  0.06975400  0.75062200  0.84851100  1
  O  O61  1  0.24937800  0.93024600  0.65148900  1
  O  O62  1  0.93024600  0.24937800  0.15148900  1
  O  O63  1  0.75062200  0.06975400  0.34851100  1
