# generated using pymatgen
data_Mo2P4O15
_symmetry_space_group_name_H-M   'P 1'
_cell_length_a   8.97918700
_cell_length_b   8.51703300
_cell_length_c   9.52320142
_cell_angle_alpha   71.13631922
_cell_angle_beta   90.00000000
_cell_angle_gamma   90.00000000
_symmetry_Int_Tables_number   1
_chemical_formula_structural   Mo2P4O15
_chemical_formula_sum   'Mo4 P8 O30'
_cell_volume   689.18020464
_cell_formula_units_Z   2
loop_
 _symmetry_equiv_pos_site_id
 _symmetry_equiv_pos_as_xyz
  1  'x, y, z'
loop_
 _atom_site_type_symbol
 _atom_site_label
 _atom_site_symmetry_multiplicity
 _atom_site_fract_x
 _atom_site_fract_y
 _atom_site_fract_z
 _atom_site_occupancy
  Mo  Mo0  1  0.51300100  0.18911500  0.00270000  1
  Mo  Mo1  1  0.95368600  0.45446500  0.59725000  1
  Mo  Mo2  1  0.01300100  0.81088500  0.99730000  1
  Mo  Mo3  1  0.45368600  0.54553500  0.40275000  1
  P  P4  1  0.67355700  0.83192100  0.18978200  1
  P  P5  1  0.13445200  0.65673900  0.26352100  1
  P  P6  1  0.29173700  0.79552400  0.58453500  1
  P  P7  1  0.89404400  0.94452700  0.39609100  1
  P  P8  1  0.17355700  0.16807900  0.81021800  1
  P  P9  1  0.63445200  0.34326100  0.73647900  1
  P  P10  1  0.79173700  0.20447600  0.41546500  1
  P  P11  1  0.39404400  0.05547300  0.60390900  1
  O  O12  1  0.90542300  0.30243500  0.48595100  1
  O  O13  1  0.36635100  0.28537900  0.13752500  1
  O  O14  1  0.90340800  0.14522200  0.29824700  1
  O  O15  1  0.12198500  0.35173000  0.73731000  1
  O  O16  1  0.31011500  0.99716800  0.47229300  1
  O  O17  1  0.23021600  0.31895900  0.12586100  1
  O  O18  1  0.15248800  0.75870300  0.89923300  1
  O  O19  1  0.30528000  0.65677100  0.24014200  1
  O  O20  1  0.10547000  0.57615300  0.42916800  1
  O  O21  1  0.29378500  0.15680900  0.92572800  1
  O  O22  1  0.38474800  0.35454400  0.41430400  1
  O  O23  1  0.59066400  0.15241100  0.81534800  1
  O  O24  1  0.53656200  0.42048300  0.83308800  1
  O  O25  1  0.23774800  0.11270100  0.67728900  1
  O  O26  1  0.53528000  0.93968700  0.12664700  1
  O  O27  1  0.40542300  0.69756500  0.51404900  1
  O  O28  1  0.86635100  0.71462100  0.86247500  1
  O  O29  1  0.40340800  0.85477800  0.70175300  1
  O  O30  1  0.62198500  0.64827000  0.26269000  1
  O  O31  1  0.81011500  0.00283200  0.52770700  1
  O  O32  1  0.73021600  0.68104100  0.87413900  1
  O  O33  1  0.65248800  0.24129700  0.10076700  1
  O  O34  1  0.80528000  0.34322900  0.75985800  1
  O  O35  1  0.60547000  0.42384700  0.57083200  1
  O  O36  1  0.79378500  0.84319100  0.07427200  1
  O  O37  1  0.88474800  0.64545600  0.58569600  1
  O  O38  1  0.09066400  0.84758900  0.18465200  1
  O  O39  1  0.03656200  0.57951700  0.16691200  1
  O  O40  1  0.73774800  0.88729900  0.32271100  1
  O  O41  1  0.03528000  0.06031300  0.87335300  1
