# generated using pymatgen
data_MnH12C2NCl3O2
_symmetry_space_group_name_H-M   'P 1'
_cell_length_a   10.64589833
_cell_length_b   10.64589833
_cell_length_c   9.24874172
_cell_angle_alpha   89.29663537
_cell_angle_beta   89.29663537
_cell_angle_gamma   70.16779031
_symmetry_Int_Tables_number   1
_chemical_formula_structural   MnH12C2NCl3O2
_chemical_formula_sum   'Mn4 H48 C8 N4 Cl12 O8'
_cell_volume   985.92760123
_cell_formula_units_Z   4
loop_
 _symmetry_equiv_pos_site_id
 _symmetry_equiv_pos_as_xyz
  1  'x, y, z'
loop_
 _atom_site_type_symbol
 _atom_site_label
 _atom_site_symmetry_multiplicity
 _atom_site_fract_x
 _atom_site_fract_y
 _atom_site_fract_z
 _atom_site_occupancy
  Mn  Mn0  1  0.23829500  0.26554100  0.21422300  1
  Mn  Mn1  1  0.73445900  0.76170500  0.28577700  1
  Mn  Mn2  1  0.76170500  0.73445900  0.78577700  1
  Mn  Mn3  1  0.26554100  0.23829500  0.71422300  1
  H  H4  1  0.38837500  0.85792500  0.41641200  1
  H  H5  1  0.14207500  0.61162500  0.08358800  1
  H  H6  1  0.61162500  0.14207500  0.58358800  1
  H  H7  1  0.85792500  0.38837500  0.91641200  1
  H  H8  1  0.33516200  0.90501200  0.58572700  1
  H  H9  1  0.09498800  0.66483800  0.91427300  1
  H  H10  1  0.66483800  0.09498800  0.41427300  1
  H  H11  1  0.90501200  0.33516200  0.08572700  1
  H  H12  1  0.25577900  0.05717000  0.03134900  1
  H  H13  1  0.94283000  0.74422100  0.46865100  1
  H  H14  1  0.74422100  0.94283000  0.96865100  1
  H  H15  1  0.05717000  0.25577900  0.53134900  1
  H  H16  1  0.35416300  0.99123400  0.15679700  1
  H  H17  1  0.00876600  0.64583700  0.34320300  1
  H  H18  1  0.64583700  0.00876600  0.84320300  1
  H  H19  1  0.99123400  0.35416300  0.65679700  1
  H  H20  1  0.45407200  0.22500800  0.02811800  1
  H  H21  1  0.77499200  0.54592800  0.47188200  1
  H  H22  1  0.54592800  0.77499200  0.97188200  1
  H  H23  1  0.22500800  0.45407200  0.52811800  1
  H  H24  1  0.51873500  0.15327200  0.17174200  1
  H  H25  1  0.84672800  0.48126500  0.32825800  1
  H  H26  1  0.48126500  0.84672800  0.82825800  1
  H  H27  1  0.15327200  0.51873500  0.67174200  1
  H  H28  1  0.17003400  0.82013900  0.37838100  1
  H  H29  1  0.17986100  0.82996600  0.12161900  1
  H  H30  1  0.82996600  0.17986100  0.62161900  1
  H  H31  1  0.82013900  0.17003400  0.87838100  1
  H  H32  1  0.12207100  0.89876900  0.54936000  1
  H  H33  1  0.10123100  0.87792900  0.95064000  1
  H  H34  1  0.87792900  0.10123100  0.45064000  1
  H  H35  1  0.89876900  0.12207100  0.04936000  1
  H  H36  1  0.16151600  0.99054800  0.40056600  1
  H  H37  1  0.00945200  0.83848400  0.09943400  1
  H  H38  1  0.83848400  0.00945200  0.59943400  1
  H  H39  1  0.99054800  0.16151600  0.90056600  1
  H  H40  1  0.30394200  0.68332600  0.61956400  1
  H  H41  1  0.31667400  0.69605800  0.88043600  1
  H  H42  1  0.69605800  0.31667400  0.38043600  1
  H  H43  1  0.68332600  0.30394200  0.11956400  1
  H  H44  1  0.38474100  0.64145600  0.44755300  1
  H  H45  1  0.35854400  0.61525900  0.05244700  1
  H  H46  1  0.61525900  0.35854400  0.55244700  1
  H  H47  1  0.64145600  0.38474100  0.94755300  1
  H  H48  1  0.47387600  0.67832400  0.59596600  1
  H  H49  1  0.32167600  0.52612400  0.90403400  1
  H  H50  1  0.52612400  0.32167600  0.40403400  1
  H  H51  1  0.67832400  0.47387600  0.09596600  1
  C  C52  1  0.18505700  0.89255400  0.45319200  1
  C  C53  1  0.10744600  0.81494300  0.04680800  1
  C  C54  1  0.81494300  0.10744600  0.54680800  1
  C  C55  1  0.89255400  0.18505700  0.95319200  1
  C  C56  1  0.37634400  0.70186300  0.54456700  1
  C  C57  1  0.29813700  0.62365600  0.95543300  1
  C  C58  1  0.62365600  0.29813700  0.45543300  1
  C  C59  1  0.70186300  0.37634400  0.04456700  1
  N  N60  1  0.32706400  0.84534700  0.50014000  1
  N  N61  1  0.15465300  0.67293600  0.99986000  1
  N  N62  1  0.67293600  0.15465300  0.49986000  1
  N  N63  1  0.84534700  0.32706400  0.00014000  1
  Cl  Cl64  1  0.34311800  0.15846500  0.45404700  1
  Cl  Cl65  1  0.84153500  0.65688200  0.04595300  1
  Cl  Cl66  1  0.65688200  0.84153500  0.54595300  1
  Cl  Cl67  1  0.15846500  0.34311800  0.95404700  1
  Cl  Cl68  1  0.00221800  0.28358800  0.29743900  1
  Cl  Cl69  1  0.71641200  0.99778200  0.20256100  1
  Cl  Cl70  1  0.99778200  0.71641200  0.70256100  1
  Cl  Cl71  1  0.28358800  0.00221800  0.79743900  1
  Cl  Cl72  1  0.21040300  0.49968500  0.29649600  1
  Cl  Cl73  1  0.50031500  0.78959700  0.20350400  1
  Cl  Cl74  1  0.78959700  0.50031500  0.70350400  1
  Cl  Cl75  1  0.49968500  0.21040300  0.79649600  1
  O  O76  1  0.26628800  0.05967000  0.13757800  1
  O  O77  1  0.94033000  0.73371200  0.36242200  1
  O  O78  1  0.73371200  0.94033000  0.86242200  1
  O  O79  1  0.05967000  0.26628800  0.63757800  1
  O  O80  1  0.44549600  0.23194900  0.13517000  1
  O  O81  1  0.76805100  0.55450400  0.36483000  1
  O  O82  1  0.55450400  0.76805100  0.86483000  1
  O  O83  1  0.23194900  0.44549600  0.63517000  1
