# generated using pymatgen
data_Cu4SnP10
_symmetry_space_group_name_H-M   'P 1'
_cell_length_a   11.42942582
_cell_length_b   5.68069749
_cell_length_c   7.36674197
_cell_angle_alpha   115.51035763
_cell_angle_beta   140.87262137
_cell_angle_gamma   56.27723174
_symmetry_Int_Tables_number   1
_chemical_formula_structural   Cu4SnP10
_chemical_formula_sum   'Cu4 Sn1 P10'
_cell_volume   251.04245574
_cell_formula_units_Z   1
loop_
 _symmetry_equiv_pos_site_id
 _symmetry_equiv_pos_as_xyz
  1  'x, y, z'
loop_
 _atom_site_type_symbol
 _atom_site_label
 _atom_site_symmetry_multiplicity
 _atom_site_fract_x
 _atom_site_fract_y
 _atom_site_fract_z
 _atom_site_occupancy
  Cu  Cu0  1  0.07109100  0.78468100  0.00000000  1
  Cu  Cu1  1  0.23649600  0.96787300  0.00000000  1
  Cu  Cu2  1  0.72888700  0.84635100  0.49924900  1
  Cu  Cu3  1  0.22963800  0.84635100  0.50075100  1
  Sn  Sn4  1  0.88081200  0.33360300  0.00000000  1
  P  P5  1  0.67589800  0.01257400  0.00000000  1
  P  P6  1  0.31577500  0.31187200  0.00000000  1
  P  P7  1  0.79338100  0.38663400  0.53929600  1
  P  P8  1  0.25408500  0.38663400  0.46070400  1
  P  P9  1  0.47101900  0.46624000  0.00000000  1
  P  P10  1  0.01003000  0.64788700  0.59007900  1
  P  P11  1  0.41995100  0.64788700  0.40992100  1
  P  P12  1  0.52216200  0.87674900  0.00000000  1
  P  P13  1  0.97868300  0.01468300  0.47719000  1
  P  P14  1  0.50149300  0.01468300  0.52281000  1
