# generated using pymatgen
data_NaFePO4
_symmetry_space_group_name_H-M   'P 1'
_cell_length_a   4.98250573
_cell_length_b   6.35166400
_cell_length_c   10.55444156
_cell_angle_alpha   90.00032993
_cell_angle_beta   90.09482832
_cell_angle_gamma   90.00170034
_symmetry_Int_Tables_number   1
_chemical_formula_structural   NaFePO4
_chemical_formula_sum   'Na4 Fe4 P4 O16'
_cell_volume   334.01808951
_cell_formula_units_Z   4
loop_
 _symmetry_equiv_pos_site_id
 _symmetry_equiv_pos_as_xyz
  1  'x, y, z'
loop_
 _atom_site_type_symbol
 _atom_site_label
 _atom_site_symmetry_multiplicity
 _atom_site_fract_x
 _atom_site_fract_y
 _atom_site_fract_z
 _atom_site_occupancy
  Na  Na0  1  0.99999600  0.99999400  0.99996700  1
  Na  Na1  1  0.49996600  0.00000100  0.50002000  1
  Na  Na2  1  0.99998900  0.49999600  0.99997100  1
  Na  Na3  1  0.49996000  0.50001000  0.50001500  1
  Fe  Fe4  1  0.48779100  0.75002400  0.21313800  1
  Fe  Fe5  1  0.51204700  0.25000300  0.78678200  1
  Fe  Fe6  1  0.01118400  0.74993700  0.71292500  1
  Fe  Fe7  1  0.98874400  0.25002900  0.28709000  1
  P  P8  1  0.56025900  0.75000800  0.89208000  1
  P  P9  1  0.93913600  0.75001000  0.39225600  1
  P  P10  1  0.43983000  0.25000800  0.10791300  1
  P  P11  1  0.06083200  0.24997200  0.60777300  1
  O  O12  1  0.74899500  0.25000000  0.11625400  1
  O  O13  1  0.25107400  0.74998300  0.88372400  1
  O  O14  1  0.75184500  0.25000400  0.61582200  1
  O  O15  1  0.24813200  0.75001200  0.38425900  1
  O  O16  1  0.65470200  0.74998600  0.03295000  1
  O  O17  1  0.34538500  0.25000000  0.96704300  1
  O  O18  1  0.15436700  0.24999700  0.46668200  1
  O  O19  1  0.84550100  0.75001400  0.53334800  1
  O  O20  1  0.19444500  0.44458700  0.67428000  1
  O  O21  1  0.69313200  0.55525500  0.82547400  1
  O  O22  1  0.80556400  0.94464500  0.32570300  1
  O  O23  1  0.30702100  0.05525700  0.17453700  1
  O  O24  1  0.80557900  0.55536800  0.32570700  1
  O  O25  1  0.30703800  0.44477800  0.17452700  1
  O  O26  1  0.19439500  0.05533400  0.67426300  1
  O  O27  1  0.69309000  0.94478600  0.82549400  1
