# generated using pymatgen
data_Mn5P4(HO2)10
_symmetry_space_group_name_H-M   'P 1'
_cell_length_a   10.05432771
_cell_length_b   10.05432771
_cell_length_c   9.61450367
_cell_angle_alpha   84.34754562
_cell_angle_beta   84.34754562
_cell_angle_gamma   54.81049549
_symmetry_Int_Tables_number   1
_chemical_formula_structural   Mn5P4(HO2)10
_chemical_formula_sum   'Mn10 P8 H20 O40'
_cell_volume   789.40290221
_cell_formula_units_Z   2
loop_
 _symmetry_equiv_pos_site_id
 _symmetry_equiv_pos_as_xyz
  1  'x, y, z'
loop_
 _atom_site_type_symbol
 _atom_site_label
 _atom_site_symmetry_multiplicity
 _atom_site_fract_x
 _atom_site_fract_y
 _atom_site_fract_z
 _atom_site_occupancy
  Mn  Mn0  1  0.39664000  0.60336000  0.75000000  1
  Mn  Mn1  1  0.60336000  0.39664000  0.25000000  1
  Mn  Mn2  1  0.70262700  0.64656400  0.63469400  1
  Mn  Mn3  1  0.35343600  0.29737300  0.86530600  1
  Mn  Mn4  1  0.29737300  0.35343600  0.36530600  1
  Mn  Mn5  1  0.64656400  0.70262700  0.13469400  1
  Mn  Mn6  1  0.27276400  0.09233800  0.18476800  1
  Mn  Mn7  1  0.90766200  0.72723600  0.31523200  1
  Mn  Mn8  1  0.72723600  0.90766200  0.81523200  1
  Mn  Mn9  1  0.09233800  0.27276400  0.68476800  1
  P  P10  1  0.76236000  0.40565600  0.91014200  1
  P  P11  1  0.59434400  0.23764000  0.58985800  1
  P  P12  1  0.23764000  0.59434400  0.08985800  1
  P  P13  1  0.40565600  0.76236000  0.41014200  1
  P  P14  1  0.92113600  0.40013200  0.37133400  1
  P  P15  1  0.59986800  0.07886400  0.12866600  1
  P  P16  1  0.07886400  0.59986800  0.62866600  1
  P  P17  1  0.40013200  0.92113600  0.87133400  1
  H  H18  1  0.58672800  0.88293500  0.41212200  1
  H  H19  1  0.11706500  0.41327200  0.08787800  1
  H  H20  1  0.41327200  0.11706500  0.58787800  1
  H  H21  1  0.88293500  0.58672800  0.91212200  1
  H  H22  1  0.66539900  0.92720200  0.52218500  1
  H  H23  1  0.07279800  0.33460100  0.97781500  1
  H  H24  1  0.33460100  0.07279800  0.47781500  1
  H  H25  1  0.92720200  0.66539900  0.02218500  1
  H  H26  1  0.97560400  0.16066900  0.21971000  1
  H  H27  1  0.83933100  0.02439600  0.28029000  1
  H  H28  1  0.02439600  0.83933100  0.78029000  1
  H  H29  1  0.16066900  0.97560400  0.71971000  1
  H  H30  1  0.07582600  0.99032700  0.13758700  1
  H  H31  1  0.00967300  0.92417400  0.36241300  1
  H  H32  1  0.92417400  0.00967300  0.86241300  1
  H  H33  1  0.99032700  0.07582600  0.63758700  1
  H  H34  1  0.75034600  0.20528400  0.00840700  1
  H  H35  1  0.79471600  0.24965400  0.49159300  1
  H  H36  1  0.24965400  0.79471600  0.99159300  1
  H  H37  1  0.20528400  0.75034600  0.50840700  1
  O  O38  1  0.64456400  0.51121300  0.79310900  1
  O  O39  1  0.48878700  0.35543600  0.70689100  1
  O  O40  1  0.35543600  0.48878700  0.20689100  1
  O  O41  1  0.51121300  0.64456400  0.29310900  1
  O  O42  1  0.69108800  0.47756000  0.05530900  1
  O  O43  1  0.52244000  0.30891200  0.44469100  1
  O  O44  1  0.30891200  0.52244000  0.94469100  1
  O  O45  1  0.47756000  0.69108800  0.55530900  1
  O  O46  1  0.92468700  0.38771800  0.86842000  1
  O  O47  1  0.61228200  0.07531300  0.63158000  1
  O  O48  1  0.07531300  0.61228200  0.13158000  1
  O  O49  1  0.38771800  0.92468700  0.36842000  1
  O  O50  1  0.79772400  0.22910900  0.91896100  1
  O  O51  1  0.77089100  0.20227600  0.58103900  1
  O  O52  1  0.20227600  0.77089100  0.08103900  1
  O  O53  1  0.22910900  0.79772400  0.41896100  1
  O  O54  1  0.89977700  0.42805000  0.53188600  1
  O  O55  1  0.57195000  0.10022300  0.96811400  1
  O  O56  1  0.10022300  0.57195000  0.46811400  1
  O  O57  1  0.42805000  0.89977700  0.03188600  1
  O  O58  1  0.10461300  0.29811800  0.32543400  1
  O  O59  1  0.70188200  0.89538700  0.17456600  1
  O  O60  1  0.89538700  0.70188200  0.67456600  1
  O  O61  1  0.29811800  0.10461300  0.82543400  1
  O  O62  1  0.84178400  0.30970600  0.34234500  1
  O  O63  1  0.69029400  0.15821600  0.15765500  1
  O  O64  1  0.15821600  0.69029400  0.65765500  1
  O  O65  1  0.30970600  0.84178400  0.84234500  1
  O  O66  1  0.83452700  0.56841000  0.28876400  1
  O  O67  1  0.43159000  0.16547300  0.21123600  1
  O  O68  1  0.16547300  0.43159000  0.71123600  1
  O  O69  1  0.56841000  0.83452700  0.78876400  1
  O  O70  1  0.68106900  0.83610300  0.47133300  1
  O  O71  1  0.16389700  0.31893100  0.02866700  1
  O  O72  1  0.31893100  0.16389700  0.52866700  1
  O  O73  1  0.83610300  0.68106900  0.97133300  1
  O  O74  1  0.06622200  0.09120400  0.15139900  1
  O  O75  1  0.90879600  0.93377800  0.34860100  1
  O  O76  1  0.93377800  0.90879600  0.84860100  1
  O  O77  1  0.09120400  0.06622200  0.65139900  1
