# generated using pymatgen
data_CaTi2O6
_symmetry_space_group_name_H-M   'P 1'
_cell_length_a   8.96095600
_cell_length_b   5.22575000
_cell_length_c   10.03525429
_cell_angle_alpha   89.71028987
_cell_angle_beta   90.00000000
_cell_angle_gamma   90.00000000
_symmetry_Int_Tables_number   1
_chemical_formula_structural   CaTi2O6
_chemical_formula_sum   'Ca4 Ti8 O24'
_cell_volume   469.92202852
_cell_formula_units_Z   4
loop_
 _symmetry_equiv_pos_site_id
 _symmetry_equiv_pos_as_xyz
  1  'x, y, z'
loop_
 _atom_site_type_symbol
 _atom_site_label
 _atom_site_symmetry_multiplicity
 _atom_site_fract_x
 _atom_site_fract_y
 _atom_site_fract_z
 _atom_site_occupancy
  Ca  Ca0  1  0.00324000  0.49357600  0.24972500  1
  Ca  Ca1  1  0.50324000  0.00642400  0.75027500  1
  Ca  Ca2  1  0.99676000  0.50642400  0.75027500  1
  Ca  Ca3  1  0.49676000  0.99357600  0.24972500  1
  Ti  Ti4  1  0.33788800  0.48965300  0.48654800  1
  Ti  Ti5  1  0.83788800  0.01034700  0.51345200  1
  Ti  Ti6  1  0.66211200  0.51034700  0.51345200  1
  Ti  Ti7  1  0.16211200  0.98965300  0.48654800  1
  Ti  Ti8  1  0.32801600  0.50018400  0.98301600  1
  Ti  Ti9  1  0.82801600  0.99981600  0.01698400  1
  Ti  Ti10  1  0.67198400  0.49981600  0.01698400  1
  Ti  Ti11  1  0.17198400  0.00018400  0.98301600  1
  O  O12  1  0.99852000  0.13167200  0.39198700  1
  O  O13  1  0.49852000  0.36832800  0.60801300  1
  O  O14  1  0.00148000  0.86832800  0.60801300  1
  O  O15  1  0.50148000  0.63167200  0.39198700  1
  O  O16  1  0.50385700  0.64730400  0.89803100  1
  O  O17  1  0.00385700  0.85269600  0.10196900  1
  O  O18  1  0.49614300  0.35269600  0.10196900  1
  O  O19  1  0.99614300  0.14730400  0.89803100  1
  O  O20  1  0.68291100  0.81315700  0.11654300  1
  O  O21  1  0.18291100  0.68684300  0.88345700  1
  O  O22  1  0.31708900  0.18684300  0.88345700  1
  O  O23  1  0.81708900  0.31315700  0.11654300  1
  O  O24  1  0.17735500  0.31831800  0.60209400  1
  O  O25  1  0.67735500  0.18168200  0.39790600  1
  O  O26  1  0.82264500  0.68168200  0.39790600  1
  O  O27  1  0.32264500  0.81831800  0.60209400  1
  O  O28  1  0.18120600  0.67132100  0.39384400  1
  O  O29  1  0.68120600  0.82867900  0.60615600  1
  O  O30  1  0.81879400  0.32867900  0.60615600  1
  O  O31  1  0.31879400  0.17132100  0.39384400  1
  O  O32  1  0.67533900  0.18897600  0.90465100  1
  O  O33  1  0.17533900  0.31102400  0.09534900  1
  O  O34  1  0.32466100  0.81102400  0.09534900  1
  O  O35  1  0.82466100  0.68897600  0.90465100  1
