# generated using pymatgen
data_V2PH10C2N2O8F
_symmetry_space_group_name_H-M   'P 1'
_cell_length_a   8.40997400
_cell_length_b   9.28677500
_cell_length_c   12.61299800
_cell_angle_alpha   90.00000000
_cell_angle_beta   90.00000000
_cell_angle_gamma   90.00000000
_symmetry_Int_Tables_number   1
_chemical_formula_structural   V2PH10C2N2O8F
_chemical_formula_sum   'V8 P4 H40 C8 N8 O32 F4'
_cell_volume   985.09452107
_cell_formula_units_Z   4
loop_
 _symmetry_equiv_pos_site_id
 _symmetry_equiv_pos_as_xyz
  1  'x, y, z'
loop_
 _atom_site_type_symbol
 _atom_site_label
 _atom_site_symmetry_multiplicity
 _atom_site_fract_x
 _atom_site_fract_y
 _atom_site_fract_z
 _atom_site_occupancy
  V  V0  1  0.25483600  0.56705300  0.10554400  1
  V  V1  1  0.24516400  0.43294700  0.60554400  1
  V  V2  1  0.75483600  0.93294700  0.89445600  1
  V  V3  1  0.74516400  0.06705300  0.39445600  1
  V  V4  1  0.52279600  0.29316000  0.00382800  1
  V  V5  1  0.97720400  0.70684000  0.50382800  1
  V  V6  1  0.02279600  0.20684000  0.99617200  1
  V  V7  1  0.47720400  0.79316000  0.49617200  1
  P  P8  1  0.25858400  0.56729600  0.36446300  1
  P  P9  1  0.24141600  0.43270400  0.86446300  1
  P  P10  1  0.75858400  0.93270400  0.63553700  1
  P  P11  1  0.74141600  0.06729600  0.13553700  1
  H  H12  1  0.38813300  0.16641200  0.67789600  1
  H  H13  1  0.11186700  0.83358800  0.17789600  1
  H  H14  1  0.88813300  0.33358800  0.32210400  1
  H  H15  1  0.61186700  0.66641200  0.82210400  1
  H  H16  1  0.45682900  0.99454700  0.69308200  1
  H  H17  1  0.04317100  0.00545300  0.19308200  1
  H  H18  1  0.95682900  0.50545300  0.30691800  1
  H  H19  1  0.54317100  0.49454700  0.80691800  1
  H  H20  1  0.43066400  0.10151000  0.79860600  1
  H  H21  1  0.06933600  0.89849000  0.29860600  1
  H  H22  1  0.93066400  0.39849000  0.20139400  1
  H  H23  1  0.56933600  0.60151000  0.70139400  1
  H  H24  1  0.22649500  0.73911500  0.91271900  1
  H  H25  1  0.27350500  0.26088500  0.41271900  1
  H  H26  1  0.72649500  0.76088500  0.08728100  1
  H  H27  1  0.77350500  0.23911500  0.58728100  1
  H  H28  1  0.19448800  0.91790000  0.93500600  1
  H  H29  1  0.30551200  0.08210000  0.43500600  1
  H  H30  1  0.69448800  0.58210000  0.06499400  1
  H  H31  1  0.80551200  0.41790000  0.56499400  1
  H  H32  1  0.37701800  0.85554200  0.89904000  1
  H  H33  1  0.12298200  0.14445800  0.39904000  1
  H  H34  1  0.87701800  0.64445800  0.10096000  1
  H  H35  1  0.62298200  0.35554200  0.60096000  1
  H  H36  1  0.29209800  0.79216700  0.72743100  1
  H  H37  1  0.20790200  0.20783300  0.22743100  1
  H  H38  1  0.79209800  0.70783300  0.27256900  1
  H  H39  1  0.70790200  0.29216700  0.77256900  1
  H  H40  1  0.09118100  0.81816500  0.76244000  1
  H  H41  1  0.40881900  0.18183500  0.26244000  1
  H  H42  1  0.59118100  0.68183500  0.23756000  1
  H  H43  1  0.90881900  0.31816500  0.73756000  1
  H  H44  1  0.14908400  0.08745600  0.78809900  1
  H  H45  1  0.35091600  0.91254400  0.28809900  1
  H  H46  1  0.64908400  0.41254400  0.21190100  1
  H  H47  1  0.85091600  0.58745600  0.71190100  1
  H  H48  1  0.16119200  0.02044900  0.65715000  1
  H  H49  1  0.33880800  0.97955100  0.15715000  1
  H  H50  1  0.66119200  0.47955100  0.34285000  1
  H  H51  1  0.83880800  0.52044900  0.84285000  1
  C  C52  1  0.21140800  0.86052000  0.77351700  1
  C  C53  1  0.28859200  0.13948000  0.27351700  1
  C  C54  1  0.71140800  0.63948000  0.22648300  1
  C  C55  1  0.78859200  0.36052000  0.72648300  1
  C  C56  1  0.21617100  0.01539500  0.73564800  1
  C  C57  1  0.28382900  0.98460500  0.23564800  1
  C  C58  1  0.71617100  0.48460500  0.26435200  1
  C  C59  1  0.78382900  0.51539500  0.76435200  1
  N  N60  1  0.38256900  0.07231600  0.72575100  1
  N  N61  1  0.11743100  0.92768400  0.22575100  1
  N  N62  1  0.88256900  0.42768400  0.27424900  1
  N  N63  1  0.61743100  0.57231600  0.77424900  1
  N  N64  1  0.25401100  0.84367600  0.88794100  1
  N  N65  1  0.24598900  0.15632400  0.38794100  1
  N  N66  1  0.75401100  0.65632400  0.11205900  1
  N  N67  1  0.74598900  0.34367600  0.61205900  1
  O  O68  1  0.23278200  0.55598900  0.94664800  1
  O  O69  1  0.26721800  0.44401100  0.44664800  1
  O  O70  1  0.73278200  0.94401100  0.05335200  1
  O  O71  1  0.76721800  0.05598900  0.55335200  1
  O  O72  1  0.10024200  0.32702900  0.88032700  1
  O  O73  1  0.39975800  0.67297100  0.38032700  1
  O  O74  1  0.60024200  0.17297100  0.11967300  1
  O  O75  1  0.89975800  0.82702900  0.61967300  1
  O  O76  1  0.23214200  0.50242600  0.75368700  1
  O  O77  1  0.26785800  0.49757400  0.25368700  1
  O  O78  1  0.73214200  0.99757400  0.24631300  1
  O  O79  1  0.76785800  0.00242600  0.74631300  1
  O  O80  1  0.40308900  0.35086200  0.87211800  1
  O  O81  1  0.09691100  0.64913800  0.37211800  1
  O  O82  1  0.90308900  0.14913800  0.12788200  1
  O  O83  1  0.59691100  0.85086200  0.62788200  1
  O  O84  1  0.91292200  0.16765300  0.37845600  1
  O  O85  1  0.58707800  0.83234700  0.87845600  1
  O  O86  1  0.41292200  0.33234700  0.62154400  1
  O  O87  1  0.08707800  0.66765300  0.12154400  1
  O  O88  1  0.60343400  0.18662500  0.39367900  1
  O  O89  1  0.89656600  0.81337500  0.89367900  1
  O  O90  1  0.10343400  0.31337500  0.60632100  1
  O  O91  1  0.39656600  0.68662500  0.10632100  1
  O  O92  1  0.88313400  0.12137100  0.92149900  1
  O  O93  1  0.61686600  0.87862900  0.42149900  1
  O  O94  1  0.38313400  0.37862900  0.07850100  1
  O  O95  1  0.11686600  0.62137100  0.57850100  1
  O  O96  1  0.17390600  0.09627100  0.01045900  1
  O  O97  1  0.32609400  0.90372900  0.51045900  1
  O  O98  1  0.67390600  0.40372900  0.98954100  1
  O  O99  1  0.82609400  0.59627100  0.48954100  1
  F  F100  1  0.54883800  0.12343300  0.91722500  1
  F  F101  1  0.95116200  0.87656700  0.41722500  1
  F  F102  1  0.04883800  0.37656700  0.08277500  1
  F  F103  1  0.45116200  0.62343300  0.58277500  1
