# generated using pymatgen
data_Mn6VSi5HO19
_symmetry_space_group_name_H-M   'P 1'
_cell_length_a   6.80805289
_cell_length_b   29.33707795
_cell_length_c   7.67206179
_cell_angle_alpha   90.00000000
_cell_angle_beta   95.73974463
_cell_angle_gamma   90.00000000
_symmetry_Int_Tables_number   1
_chemical_formula_structural   Mn6VSi5HO19
_chemical_formula_sum   'Mn24 V4 Si20 H4 O76'
_cell_volume   1524.64603113
_cell_formula_units_Z   4
loop_
 _symmetry_equiv_pos_site_id
 _symmetry_equiv_pos_as_xyz
  1  'x, y, z'
loop_
 _atom_site_type_symbol
 _atom_site_label
 _atom_site_symmetry_multiplicity
 _atom_site_fract_x
 _atom_site_fract_y
 _atom_site_fract_z
 _atom_site_occupancy
  Mn  Mn0  1  0.13060050  0.52225400  0.34510130  1
  Mn  Mn1  1  0.63060050  0.97774600  0.84510130  1
  Mn  Mn2  1  0.86939950  0.47774600  0.65489870  1
  Mn  Mn3  1  0.36939950  0.02225400  0.15489870  1
  Mn  Mn4  1  0.81907953  0.81689839  0.47420620  1
  Mn  Mn5  1  0.31907953  0.68310161  0.97420620  1
  Mn  Mn6  1  0.18092047  0.18310161  0.52579380  1
  Mn  Mn7  1  0.68092047  0.31689839  0.02579380  1
  Mn  Mn8  1  0.04381682  0.63679950  0.27731772  1
  Mn  Mn9  1  0.54381682  0.86320050  0.77731772  1
  Mn  Mn10  1  0.95618318  0.36320050  0.72268228  1
  Mn  Mn11  1  0.45618318  0.13679950  0.22268228  1
  Mn  Mn12  1  0.83289026  0.58692905  0.58102322  1
  Mn  Mn13  1  0.33289026  0.91307095  0.08102322  1
  Mn  Mn14  1  0.16710974  0.41307095  0.41897678  1
  Mn  Mn15  1  0.66710974  0.08692905  0.91897678  1
  Mn  Mn16  1  0.35653229  0.57693654  0.06049593  1
  Mn  Mn17  1  0.85653229  0.92306346  0.56049593  1
  Mn  Mn18  1  0.64346771  0.42306346  0.93950407  1
  Mn  Mn19  1  0.14346771  0.07693654  0.43950407  1
  Mn  Mn20  1  0.02906429  0.75304341  0.18980640  1
  Mn  Mn21  1  0.52906429  0.74695659  0.68980640  1
  Mn  Mn22  1  0.97093571  0.24695659  0.81019360  1
  Mn  Mn23  1  0.47093571  0.25304341  0.31019360  1
  V  V24  1  0.00981566  0.71341764  0.61892984  1
  V  V25  1  0.50981566  0.78658236  0.11892984  1
  V  V26  1  0.99018434  0.28658236  0.38107016  1
  V  V27  1  0.49018434  0.21341764  0.88107016  1
  Si  Si28  1  0.80619261  0.66669875  0.91094152  1
  Si  Si29  1  0.30619261  0.83330125  0.41094152  1
  Si  Si30  1  0.19380739  0.33330125  0.08905848  1
  Si  Si31  1  0.69380739  0.16669875  0.58905848  1
  Si  Si32  1  0.85762570  0.56273426  0.98522597  1
  Si  Si33  1  0.35762570  0.93726574  0.48522597  1
  Si  Si34  1  0.14237430  0.43726574  0.01477403  1
  Si  Si35  1  0.64237430  0.06273426  0.51477403  1
  Si  Si36  1  0.63600880  0.51228635  0.27047207  1
  Si  Si37  1  0.13600880  0.98771365  0.77047207  1
  Si  Si38  1  0.36399120  0.48771365  0.72952793  1
  Si  Si39  1  0.86399120  0.01228635  0.22952793  1
  Si  Si40  1  0.68268523  0.40614368  0.33430763  1
  Si  Si41  1  0.18268523  0.09385632  0.83430763  1
  Si  Si42  1  0.31731477  0.59385632  0.66569237  1
  Si  Si43  1  0.81731477  0.90614368  0.16569237  1
  Si  Si44  1  0.46289264  0.35450700  0.61282285  1
  Si  Si45  1  0.96289264  0.14549300  0.11282285  1
  Si  Si46  1  0.53710736  0.64549300  0.38717715  1
  Si  Si47  1  0.03710736  0.85450700  0.88717715  1
  H  H48  1  0.53987748  0.28196579  0.65535665  1
  H  H49  1  0.03987748  0.21803421  0.15535665  1
  H  H50  1  0.46012252  0.71803421  0.34464335  1
  H  H51  1  0.96012252  0.78196579  0.84464335  1
  O  O52  1  0.84643711  0.75838516  0.64952815  1
  O  O53  1  0.34643711  0.74161484  0.14952815  1
  O  O54  1  0.15356289  0.24161484  0.35047185  1
  O  O55  1  0.65356289  0.25838516  0.85047185  1
  O  O56  1  0.04583215  0.70273686  0.40514019  1
  O  O57  1  0.54583215  0.79726314  0.90514019  1
  O  O58  1  0.95416785  0.29726314  0.59485981  1
  O  O59  1  0.45416785  0.20273686  0.09485981  1
  O  O60  1  0.23372209  0.72400264  0.73801892  1
  O  O61  1  0.73372209  0.77599736  0.23801792  1
  O  O62  1  0.76627791  0.27599736  0.26198208  1
  O  O63  1  0.26627791  0.22400264  0.76198108  1
  O  O64  1  0.89234422  0.66407452  0.71193642  1
  O  O65  1  0.39234422  0.83592548  0.21193642  1
  O  O66  1  0.10765578  0.33592548  0.28806358  1
  O  O67  1  0.60765578  0.16407452  0.78806358  1
  O  O68  1  0.99015938  0.68509956  0.04857375  1
  O  O69  1  0.49015938  0.81490044  0.54857375  1
  O  O70  1  0.00984062  0.31490044  0.95142625  1
  O  O71  1  0.50984062  0.18509956  0.45142625  1
  O  O72  1  0.61043568  0.69807858  0.89826499  1
  O  O73  1  0.11043568  0.80192142  0.39826499  1
  O  O74  1  0.38956432  0.30192142  0.10173501  1
  O  O75  1  0.88956432  0.19807858  0.60173501  1
  O  O76  1  0.74829815  0.61326347  0.95341243  1
  O  O77  1  0.24829815  0.88673653  0.45341243  1
  O  O78  1  0.25170185  0.38673653  0.04658757  1
  O  O79  1  0.75170185  0.11326347  0.54658757  1
  O  O80  1  0.05311005  0.57002460  0.12585560  1
  O  O81  1  0.55311005  0.92997540  0.62585560  1
  O  O82  1  0.94688995  0.42997540  0.87414440  1
  O  O83  1  0.44688995  0.07002460  0.37414440  1
  O  O84  1  0.89809404  0.54256365  0.79608950  1
  O  O85  1  0.39809404  0.95743635  0.29608950  1
  O  O86  1  0.10190596  0.45743635  0.20391050  1
  O  O87  1  0.60190596  0.04256365  0.70391050  1
  O  O88  1  0.69759759  0.53000299  0.07628999  1
  O  O89  1  0.19759759  0.96999701  0.57628999  1
  O  O90  1  0.30240241  0.46999701  0.92371001  1
  O  O91  1  0.80240241  0.03000299  0.42371001  1
  O  O92  1  0.42567547  0.53670142  0.28624320  1
  O  O93  1  0.92567547  0.96329858  0.78624320  1
  O  O94  1  0.57432453  0.46329858  0.71375680  1
  O  O95  1  0.07432453  0.03670142  0.21375680  1
  O  O96  1  0.81307991  0.52283182  0.42522641  1
  O  O97  1  0.31307991  0.97716818  0.92522641  1
  O  O98  1  0.18692009  0.47716818  0.57477359  1
  O  O99  1  0.68692009  0.02283182  0.07477359  1
  O  O100  1  0.60644051  0.45651005  0.25504692  1
  O  O101  1  0.10644051  0.04348995  0.75504692  1
  O  O102  1  0.39355949  0.54348995  0.74495308  1
  O  O103  1  0.89355949  0.95651005  0.24495308  1
  O  O104  1  0.86775978  0.40969045  0.48657422  1
  O  O105  1  0.36775978  0.09030955  0.98657422  1
  O  O106  1  0.13224022  0.59030955  0.51342578  1
  O  O107  1  0.63224022  0.90969045  0.01342578  1
  O  O108  1  0.71803772  0.37959285  0.15494911  1
  O  O109  1  0.21803772  0.12040715  0.65494911  1
  O  O110  1  0.28196228  0.62040715  0.84505089  1
  O  O111  1  0.78196228  0.87959285  0.34505089  1
  O  O112  1  0.49618814  0.38383998  0.43054052  1
  O  O113  1  0.99618814  0.11616002  0.93054052  1
  O  O114  1  0.50381186  0.61616002  0.56945948  1
  O  O115  1  0.00381286  0.88383998  0.06945948  1
  O  O116  1  0.24649802  0.37195751  0.65031339  1
  O  O117  1  0.74649802  0.12804249  0.15031339  1
  O  O118  1  0.75350198  0.62804249  0.34968661  1
  O  O119  1  0.25350198  0.87195751  0.84968661  1
  O  O120  1  0.63508319  0.36092367  0.77685103  1
  O  O121  1  0.13508319  0.13907633  0.27685103  1
  O  O122  1  0.36491681  0.63907633  0.22314897  1
  O  O123  1  0.86491681  0.86092367  0.72314897  1
  O  O124  1  0.47705101  0.29940178  0.55271769  1
  O  O125  1  0.97705101  0.20059822  0.05271769  1
  O  O126  1  0.52294899  0.70059822  0.44728231  1
  O  O127  1  0.02294899  0.79940178  0.94728231  1
