# generated using pymatgen
data_Al9Fe2Si4HO24
_symmetry_space_group_name_H-M   'P 1'
_cell_length_a   9.26884599
_cell_length_b   9.26884599
_cell_length_c   5.78210245
_cell_angle_alpha   89.56265045
_cell_angle_beta   89.56265045
_cell_angle_gamma   130.23250715
_symmetry_Int_Tables_number   1
_chemical_formula_structural   Al9Fe2Si4HO24
_chemical_formula_sum   'Al9 Fe2 Si4 H1 O24'
_cell_volume   379.17063645
_cell_formula_units_Z   1
loop_
 _symmetry_equiv_pos_site_id
 _symmetry_equiv_pos_as_xyz
  1  'x, y, z'
loop_
 _atom_site_type_symbol
 _atom_site_label
 _atom_site_symmetry_multiplicity
 _atom_site_fract_x
 _atom_site_fract_y
 _atom_site_fract_z
 _atom_site_occupancy
  Al  Al0  1  0.67201300  0.32798700  0.00000000  1
  Al  Al1  1  0.32798700  0.67201300  0.00000000  1
  Al  Al2  1  0.67454300  0.32545700  0.50000000  1
  Al  Al3  1  0.32545700  0.67454300  0.50000000  1
  Al  Al4  1  0.85561300  0.68168400  0.73530800  1
  Al  Al5  1  0.68168400  0.85561300  0.73530800  1
  Al  Al6  1  0.14438700  0.31831600  0.26469200  1
  Al  Al7  1  0.31831600  0.14438700  0.26469200  1
  Al  Al8  1  0.00000000  0.00000000  0.00000000  1
  Fe  Fe9  1  0.36128400  0.36128400  0.73429000  1
  Fe  Fe10  1  0.63871600  0.63871600  0.26571000  1
  Si  Si11  1  0.96759700  0.30336300  0.76093000  1
  Si  Si12  1  0.30336300  0.96759700  0.76093000  1
  Si  Si13  1  0.03240300  0.69663700  0.23907000  1
  Si  Si14  1  0.69663700  0.03240300  0.23907000  1
  H  H15  1  0.00000000  0.00000000  0.50000000  1
  O  O16  1  0.23041300  0.23041300  0.04560200  1
  O  O17  1  0.76958700  0.76958700  0.95439800  1
  O  O18  1  0.17883200  0.17883200  0.47245300  1
  O  O19  1  0.82116800  0.82116800  0.52754700  1
  O  O20  1  0.09874900  0.42197200  0.98663600  1
  O  O21  1  0.42197200  0.09874900  0.98663600  1
  O  O22  1  0.90125100  0.57802800  0.01336400  1
  O  O23  1  0.57802800  0.90125100  0.01336400  1
  O  O24  1  0.58670400  0.90702800  0.47840200  1
  O  O25  1  0.90702800  0.58670400  0.47840200  1
  O  O26  1  0.41329600  0.09297200  0.52159800  1
  O  O27  1  0.09297200  0.41329600  0.52159800  1
  O  O28  1  0.91072600  0.09492300  0.77961800  1
  O  O29  1  0.09492300  0.91072600  0.77961800  1
  O  O30  1  0.08927400  0.90507700  0.22038200  1
  O  O31  1  0.90507700  0.08927400  0.22038200  1
  O  O32  1  0.77138400  0.27387200  0.75091400  1
  O  O33  1  0.27387200  0.77138400  0.75091400  1
  O  O34  1  0.22861600  0.72612800  0.24908600  1
  O  O35  1  0.72612800  0.22861600  0.24908600  1
  O  O36  1  0.62526300  0.43038000  0.74251400  1
  O  O37  1  0.43038000  0.62526300  0.74251400  1
  O  O38  1  0.37473700  0.56962000  0.25748600  1
  O  O39  1  0.56962000  0.37473700  0.25748600  1
