# generated using pymatgen
data_CeAl3(PO7)2
_symmetry_space_group_name_H-M   'P 1'
_cell_length_a   6.69067568
_cell_length_b   6.69067568
_cell_length_c   6.69067575
_cell_angle_alpha   62.56346673
_cell_angle_beta   62.56346673
_cell_angle_gamma   62.56346504
_symmetry_Int_Tables_number   1
_chemical_formula_structural   CeAl3(PO7)2
_chemical_formula_sum   'Ce1 Al3 P2 O14'
_cell_volume   223.87785507
_cell_formula_units_Z   1
loop_
 _symmetry_equiv_pos_site_id
 _symmetry_equiv_pos_as_xyz
  1  'x, y, z'
loop_
 _atom_site_type_symbol
 _atom_site_label
 _atom_site_symmetry_multiplicity
 _atom_site_fract_x
 _atom_site_fract_y
 _atom_site_fract_z
 _atom_site_occupancy
  Ce  Ce0  1  0.00000100  0.00000100  0.00000100  1
  Al  Al1  1  0.49999500  0.00000600  0.00000600  1
  Al  Al2  1  0.00000600  0.00000600  0.49999500  1
  Al  Al3  1  0.00000600  0.49999500  0.00000600  1
  P  P4  1  0.68191800  0.68191800  0.68191800  1
  P  P5  1  0.31798500  0.31798500  0.31798500  1
  O  O6  1  0.58692400  0.58692400  0.58692400  1
  O  O7  1  0.41320400  0.41320400  0.41320400  1
  O  O8  1  0.47679100  0.83870400  0.83870400  1
  O  O9  1  0.83870400  0.83870400  0.47679100  1
  O  O10  1  0.83870400  0.47679100  0.83870400  1
  O  O11  1  0.52322100  0.16131000  0.16131000  1
  O  O12  1  0.16131000  0.16131000  0.52322100  1
  O  O13  1  0.16131000  0.52322100  0.16131000  1
  O  O14  1  0.09510600  0.75874400  0.75874400  1
  O  O15  1  0.75874400  0.75874400  0.09510600  1
  O  O16  1  0.75874400  0.09510600  0.75874400  1
  O  O17  1  0.90489700  0.24126400  0.24126400  1
  O  O18  1  0.24126400  0.24126400  0.90489700  1
  O  O19  1  0.24126400  0.90489700  0.24126400  1
