# generated using pymatgen
data_NiP2H2O7
_symmetry_space_group_name_H-M   'P 1'
_cell_length_a   13.02309500
_cell_length_b   8.89080700
_cell_length_c   9.67812350
_cell_angle_alpha   73.59756537
_cell_angle_beta   90.00000000
_cell_angle_gamma   90.00000000
_symmetry_Int_Tables_number   1
_chemical_formula_structural   NiP2H2O7
_chemical_formula_sum   'Ni8 P16 H16 O56'
_cell_volume   1074.98372771
_cell_formula_units_Z   8
loop_
 _symmetry_equiv_pos_site_id
 _symmetry_equiv_pos_as_xyz
  1  'x, y, z'
loop_
 _atom_site_type_symbol
 _atom_site_label
 _atom_site_symmetry_multiplicity
 _atom_site_fract_x
 _atom_site_fract_y
 _atom_site_fract_z
 _atom_site_occupancy
  Ni  Ni0  1  0.74493800  0.25262100  0.75057800  1
  Ni  Ni1  1  0.24493800  0.74737900  0.74942200  1
  Ni  Ni2  1  0.25506200  0.74737900  0.24942200  1
  Ni  Ni3  1  0.75506200  0.25262100  0.25057800  1
  Ni  Ni4  1  0.59023600  0.25150900  0.00328300  1
  Ni  Ni5  1  0.09023600  0.74849100  0.49671700  1
  Ni  Ni6  1  0.40976400  0.74849100  0.99671700  1
  Ni  Ni7  1  0.90976400  0.25150900  0.50328300  1
  P  P8  1  0.94810300  0.47463600  0.71548000  1
  P  P9  1  0.44810300  0.52536400  0.78452000  1
  P  P10  1  0.05189700  0.52536400  0.28452000  1
  P  P11  1  0.55189700  0.47463600  0.21548000  1
  P  P12  1  0.70704300  0.00775000  0.56704600  1
  P  P13  1  0.20704300  0.99225000  0.93295400  1
  P  P14  1  0.29295700  0.99225000  0.43295400  1
  P  P15  1  0.79295700  0.00775000  0.06704600  1
  P  P16  1  0.46111500  0.95938900  0.22066900  1
  P  P17  1  0.96111500  0.04061100  0.27933100  1
  P  P18  1  0.53888500  0.04061100  0.77933100  1
  P  P19  1  0.03888500  0.95938900  0.72066900  1
  P  P20  1  0.78511800  0.50100800  0.93310500  1
  P  P21  1  0.28511800  0.49899200  0.56689500  1
  P  P22  1  0.21488200  0.49899200  0.06689500  1
  P  P23  1  0.71488200  0.50100800  0.43310500  1
  H  H24  1  0.60698000  0.95615400  0.33506200  1
  H  H25  1  0.10698000  0.04384600  0.16493800  1
  H  H26  1  0.39302000  0.04384600  0.66493800  1
  H  H27  1  0.89302000  0.95615400  0.83506200  1
  H  H28  1  0.08809100  0.47395000  0.84444500  1
  H  H29  1  0.58809100  0.52605000  0.65555500  1
  H  H30  1  0.91190900  0.52605000  0.15555500  1
  H  H31  1  0.41190900  0.47395000  0.34444500  1
  H  H32  1  0.74594100  0.77920600  0.71810500  1
  H  H33  1  0.24594100  0.22079400  0.78189500  1
  H  H34  1  0.25405900  0.22079400  0.28189500  1
  H  H35  1  0.75405900  0.77920600  0.21810500  1
  H  H36  1  0.74002300  0.71991700  0.99051400  1
  H  H37  1  0.24002300  0.28008300  0.50948600  1
  H  H38  1  0.25997700  0.28008300  0.00948600  1
  H  H39  1  0.75997700  0.71991700  0.49051400  1
  O  O40  1  0.39708100  0.83371800  0.17950000  1
  O  O41  1  0.89708100  0.16628200  0.32050000  1
  O  O42  1  0.60291900  0.16628200  0.82050000  1
  O  O43  1  0.10291900  0.83371800  0.67950000  1
  O  O44  1  0.88672600  0.34202200  0.68110600  1
  O  O45  1  0.38672600  0.65797800  0.81889400  1
  O  O46  1  0.11327400  0.65797800  0.31889400  1
  O  O47  1  0.61327400  0.34202200  0.18110600  1
  O  O48  1  0.70969900  0.39520800  0.88305300  1
  O  O49  1  0.20969900  0.60479200  0.61694700  1
  O  O50  1  0.29030100  0.60479200  0.11694700  1
  O  O51  1  0.79030100  0.39520800  0.38305300  1
  O  O52  1  0.47845300  0.10652600  0.10238500  1
  O  O53  1  0.97845300  0.89347400  0.39761500  1
  O  O54  1  0.52154700  0.89347400  0.89761500  1
  O  O55  1  0.02154700  0.10652600  0.60238500  1
  O  O56  1  0.82614900  0.43340000  0.08499300  1
  O  O57  1  0.32614900  0.56660000  0.41500700  1
  O  O58  1  0.17385100  0.56660000  0.91500700  1
  O  O59  1  0.67385100  0.43340000  0.58499300  1
  O  O60  1  0.68828300  0.05478100  0.40620900  1
  O  O61  1  0.18828300  0.94521900  0.09379100  1
  O  O62  1  0.31171700  0.94521900  0.59379100  1
  O  O63  1  0.81171700  0.05478100  0.90620900  1
  O  O64  1  0.03979100  0.39852800  0.81600400  1
  O  O65  1  0.53979100  0.60147200  0.68399600  1
  O  O66  1  0.96020900  0.60147200  0.18399600  1
  O  O67  1  0.46020900  0.39852800  0.31600400  1
  O  O68  1  0.87470300  0.54678900  0.81739500  1
  O  O69  1  0.37470300  0.45321100  0.68260500  1
  O  O70  1  0.12529700  0.45321100  0.18260500  1
  O  O71  1  0.62529700  0.54678900  0.31739500  1
  O  O72  1  0.97422600  0.60897700  0.58875500  1
  O  O73  1  0.47422600  0.39102300  0.91124500  1
  O  O74  1  0.02577400  0.39102300  0.41124500  1
  O  O75  1  0.52577400  0.60897700  0.08875500  1
  O  O76  1  0.78069100  0.11555300  0.61670500  1
  O  O77  1  0.28069100  0.88444700  0.88329500  1
  O  O78  1  0.21930900  0.88444700  0.38329500  1
  O  O79  1  0.71930900  0.11555300  0.11670500  1
  O  O80  1  0.73559900  0.67006700  0.90984300  1
  O  O81  1  0.23559900  0.32993300  0.59015700  1
  O  O82  1  0.26440100  0.32993300  0.09015700  1
  O  O83  1  0.76440100  0.67006700  0.40984300  1
  O  O84  1  0.56059000  0.88177200  0.30139100  1
  O  O85  1  0.06059000  0.11822800  0.19860900  1
  O  O86  1  0.43941000  0.11822800  0.69860900  1
  O  O87  1  0.93941000  0.88177200  0.80139100  1
  O  O88  1  0.39847800  0.00464700  0.34935700  1
  O  O89  1  0.89847800  0.99535300  0.15064300  1
  O  O90  1  0.60152200  0.99535300  0.65064300  1
  O  O91  1  0.10152200  0.00464700  0.84935700  1
  O  O92  1  0.74648100  0.83000800  0.61190600  1
  O  O93  1  0.24648100  0.16999200  0.88809400  1
  O  O94  1  0.25351900  0.16999200  0.38809400  1
  O  O95  1  0.75351900  0.83000800  0.11190600  1
