# generated using pymatgen
data_Y2CuH5S2O12F
_symmetry_space_group_name_H-M   'P 1'
_cell_length_a   6.81364800
_cell_length_b   12.87591200
_cell_length_c   16.46733087
_cell_angle_alpha   51.56483358
_cell_angle_beta   90.00000000
_cell_angle_gamma   90.00000000
_symmetry_Int_Tables_number   1
_chemical_formula_structural   Y2CuH5S2O12F
_chemical_formula_sum   'Y8 Cu4 H20 S8 O48 F4'
_cell_volume   1131.65936766
_cell_formula_units_Z   4
loop_
 _symmetry_equiv_pos_site_id
 _symmetry_equiv_pos_as_xyz
  1  'x, y, z'
loop_
 _atom_site_type_symbol
 _atom_site_label
 _atom_site_symmetry_multiplicity
 _atom_site_fract_x
 _atom_site_fract_y
 _atom_site_fract_z
 _atom_site_occupancy
  Y  Y0  1  0.79759900  0.22475400  0.96368900  1
  Y  Y1  1  0.70240100  0.22475400  0.46368900  1
  Y  Y2  1  0.20240100  0.77524600  0.03631100  1
  Y  Y3  1  0.29759900  0.77524600  0.53631100  1
  Y  Y4  1  0.73806500  0.31481600  0.68093600  1
  Y  Y5  1  0.76193500  0.31481600  0.18093600  1
  Y  Y6  1  0.26193500  0.68518400  0.31906400  1
  Y  Y7  1  0.23806500  0.68518400  0.81906400  1
  Cu  Cu8  1  0.57858100  0.48762000  0.73854700  1
  Cu  Cu9  1  0.92141900  0.48762000  0.23854700  1
  Cu  Cu10  1  0.42141900  0.51238000  0.26145300  1
  Cu  Cu11  1  0.07858100  0.51238000  0.76145300  1
  H  H12  1  0.80431300  0.03767500  0.21126000  1
  H  H13  1  0.69568700  0.03767500  0.71126000  1
  H  H14  1  0.19568700  0.96232500  0.78874000  1
  H  H15  1  0.30431300  0.96232500  0.28874000  1
  H  H16  1  0.26588300  0.14590900  0.88741200  1
  H  H17  1  0.23411700  0.14590900  0.38741200  1
  H  H18  1  0.73411700  0.85409100  0.11258800  1
  H  H19  1  0.76588300  0.85409100  0.61258800  1
  H  H20  1  0.20319200  0.25099300  0.76295800  1
  H  H21  1  0.29680800  0.25099300  0.26295800  1
  H  H22  1  0.79680800  0.74900700  0.23704200  1
  H  H23  1  0.70319200  0.74900700  0.73704200  1
  H  H24  1  0.73366400  0.90099600  0.18471700  1
  H  H25  1  0.76633600  0.90099600  0.68471700  1
  H  H26  1  0.26633600  0.09900400  0.81528300  1
  H  H27  1  0.23366400  0.09900400  0.31528300  1
  H  H28  1  0.47718100  0.02763200  0.30903300  1
  H  H29  1  0.02281900  0.02763200  0.80903300  1
  H  H30  1  0.52281900  0.97236800  0.69096700  1
  H  H31  1  0.97718100  0.97236800  0.19096700  1
  S  S32  1  0.77140300  0.55606600  0.41412600  1
  S  S33  1  0.72859700  0.55606600  0.91412600  1
  S  S34  1  0.22859700  0.44393400  0.58587400  1
  S  S35  1  0.27140300  0.44393400  0.08587400  1
  S  S36  1  0.72682100  0.96469400  0.92315200  1
  S  S37  1  0.77317900  0.96469400  0.42315200  1
  S  S38  1  0.27317900  0.03530600  0.07684800  1
  S  S39  1  0.22682100  0.03530600  0.57684800  1
  O  O40  1  0.69778200  0.45004100  0.90545300  1
  O  O41  1  0.80221800  0.45004100  0.40545300  1
  O  O42  1  0.30221800  0.54995900  0.09454700  1
  O  O43  1  0.19778200  0.54995900  0.59454700  1
  O  O44  1  0.80281700  0.51149000  0.52011000  1
  O  O45  1  0.69718300  0.51149000  0.02011000  1
  O  O46  1  0.19718300  0.48851000  0.47989000  1
  O  O47  1  0.30281700  0.48851000  0.97989000  1
  O  O48  1  0.08378500  0.33298000  0.65919200  1
  O  O49  1  0.41621500  0.33298000  0.15919200  1
  O  O50  1  0.91621500  0.66702000  0.34080800  1
  O  O51  1  0.58378500  0.66702000  0.84080800  1
  O  O52  1  0.42636400  0.38535000  0.62106300  1
  O  O53  1  0.07363600  0.38535000  0.12106300  1
  O  O54  1  0.57363600  0.61465000  0.37893700  1
  O  O55  1  0.92636400  0.61465000  0.87893700  1
  O  O56  1  0.75068700  0.02462100  0.97671800  1
  O  O57  1  0.74931300  0.02462100  0.47671800  1
  O  O58  1  0.24931300  0.97537900  0.02328200  1
  O  O59  1  0.25068700  0.97537900  0.52328200  1
  O  O60  1  0.77066400  0.07469800  0.80740500  1
  O  O61  1  0.72933600  0.07469800  0.30740500  1
  O  O62  1  0.22933600  0.92530200  0.19259500  1
  O  O63  1  0.27066400  0.92530200  0.69259500  1
  O  O64  1  0.52948300  0.91266800  0.93447400  1
  O  O65  1  0.97051700  0.91266800  0.43447400  1
  O  O66  1  0.47051700  0.08733200  0.06552600  1
  O  O67  1  0.02948300  0.08733200  0.56552600  1
  O  O68  1  0.87569800  0.85948200  0.96449100  1
  O  O69  1  0.62430200  0.85948200  0.46449100  1
  O  O70  1  0.12430200  0.14051800  0.03550900  1
  O  O71  1  0.37569800  0.14051800  0.53550900  1
  O  O72  1  0.83619900  0.99520300  0.17962700  1
  O  O73  1  0.66380100  0.99520300  0.67962700  1
  O  O74  1  0.16380100  0.00479700  0.82037300  1
  O  O75  1  0.33619900  0.00479700  0.32037300  1
  O  O76  1  0.65629400  0.31776500  0.80819100  1
  O  O77  1  0.84370600  0.31776500  0.30819100  1
  O  O78  1  0.34370600  0.68223500  0.19180900  1
  O  O79  1  0.15629400  0.68223500  0.69180900  1
  O  O80  1  0.00822400  0.34544300  0.84104100  1
  O  O81  1  0.49177600  0.34544300  0.34104100  1
  O  O82  1  0.99177600  0.65455700  0.15895900  1
  O  O83  1  0.50822400  0.65455700  0.65895900  1
  O  O84  1  0.69974600  0.82029600  0.18340300  1
  O  O85  1  0.80025400  0.82029600  0.68340300  1
  O  O86  1  0.30025400  0.17970400  0.81659700  1
  O  O87  1  0.19974600  0.17970400  0.31659700  1
  F  F88  1  0.79520500  0.23997200  0.09376600  1
  F  F89  1  0.70479500  0.23997200  0.59376600  1
  F  F90  1  0.20479500  0.76002800  0.90623400  1
  F  F91  1  0.29520500  0.76002800  0.40623400  1
