# generated using pymatgen
data_BaSr2I6
_symmetry_space_group_name_H-M   'P 1'
_cell_length_a   14.47838233
_cell_length_b   14.47838233
_cell_length_c   7.53092500
_cell_angle_alpha   90.00000000
_cell_angle_beta   90.00000000
_cell_angle_gamma   120.00000151
_symmetry_Int_Tables_number   1
_chemical_formula_structural   BaSr2I6
_chemical_formula_sum   'Ba3 Sr6 I18'
_cell_volume   1367.15901122
_cell_formula_units_Z   3
loop_
 _symmetry_equiv_pos_site_id
 _symmetry_equiv_pos_as_xyz
  1  'x, y, z'
loop_
 _atom_site_type_symbol
 _atom_site_label
 _atom_site_symmetry_multiplicity
 _atom_site_fract_x
 _atom_site_fract_y
 _atom_site_fract_z
 _atom_site_occupancy
  Ba  Ba0  1  0.33333300  0.66666700  0.49421800  1
  Ba  Ba1  1  0.00000000  0.00000000  0.00000000  1
  Ba  Ba2  1  0.66666700  0.33333300  0.50578200  1
  Sr  Sr3  1  0.00000000  0.64460500  0.00000000  1
  Sr  Sr4  1  0.00000000  0.31091500  0.50000000  1
  Sr  Sr5  1  0.35539500  0.35539500  0.00000000  1
  Sr  Sr6  1  0.31091500  0.00000000  0.50000000  1
  Sr  Sr7  1  0.68908500  0.68908500  0.50000000  1
  Sr  Sr8  1  0.64460500  0.00000000  0.00000000  1
  I  I9  1  0.09452700  0.86413300  0.74853100  1
  I  I10  1  0.22097100  0.78541600  0.24265500  1
  I  I11  1  0.10554300  0.53021700  0.75159900  1
  I  I12  1  0.42467400  0.89445700  0.75159900  1
  I  I13  1  0.21458400  0.43555600  0.24265500  1
  I  I14  1  0.13586700  0.23039400  0.74853100  1
  I  I15  1  0.56444400  0.77902900  0.24265500  1
  I  I16  1  0.23039400  0.13586700  0.25146900  1
  I  I17  1  0.46978300  0.57532600  0.75159900  1
  I  I18  1  0.76960600  0.90547300  0.74853100  1
  I  I19  1  0.43555600  0.21458400  0.75734500  1
  I  I20  1  0.57532600  0.46978300  0.24840100  1
  I  I21  1  0.53021700  0.10554300  0.24840100  1
  I  I22  1  0.77902900  0.56444400  0.75734500  1
  I  I23  1  0.90547300  0.76960600  0.25146900  1
  I  I24  1  0.78541600  0.22097100  0.75734500  1
  I  I25  1  0.89445700  0.42467400  0.24840100  1
  I  I26  1  0.86413300  0.09452700  0.25146900  1
