# generated using pymatgen
data_Mn15Si26
_symmetry_space_group_name_H-M   'P 1'
_cell_length_a   5.49601688
_cell_length_b   5.49601714
_cell_length_c   32.79081740
_cell_angle_alpha   94.80726195
_cell_angle_beta   94.80726148
_cell_angle_gamma   90.00000368
_symmetry_Int_Tables_number   1
_chemical_formula_structural   Mn15Si26
_chemical_formula_sum   'Mn30 Si52'
_cell_volume   983.50516877
_cell_formula_units_Z   2
loop_
 _symmetry_equiv_pos_site_id
 _symmetry_equiv_pos_as_xyz
  1  'x, y, z'
loop_
 _atom_site_type_symbol
 _atom_site_label
 _atom_site_symmetry_multiplicity
 _atom_site_fract_x
 _atom_site_fract_y
 _atom_site_fract_z
 _atom_site_occupancy
  Mn  Mn0  1  0.21529100  0.71529100  0.43058200  1
  Mn  Mn1  1  0.28470900  0.78470900  0.56941800  1
  Mn  Mn2  1  0.53470900  0.53470900  0.06941800  1
  Mn  Mn3  1  0.46529100  0.46529100  0.93058200  1
  Mn  Mn4  1  0.15111300  0.65111300  0.30222700  1
  Mn  Mn5  1  0.34888700  0.84888700  0.69777300  1
  Mn  Mn6  1  0.59888700  0.59888700  0.19777300  1
  Mn  Mn7  1  0.40111300  0.40111300  0.80222700  1
  Mn  Mn8  1  0.08177100  0.58177100  0.16354100  1
  Mn  Mn9  1  0.41822900  0.91822900  0.83645900  1
  Mn  Mn10  1  0.66822900  0.66822900  0.33645900  1
  Mn  Mn11  1  0.33177100  0.33177100  0.66354100  1
  Mn  Mn12  1  0.01730000  0.51730100  0.03460100  1
  Mn  Mn13  1  0.48270000  0.98269900  0.96539900  1
  Mn  Mn14  1  0.73269900  0.73269900  0.46539900  1
  Mn  Mn15  1  0.26730000  0.26730000  0.53460100  1
  Mn  Mn16  1  0.94886900  0.44886900  0.89773700  1
  Mn  Mn17  1  0.55113100  0.05113100  0.10226300  1
  Mn  Mn18  1  0.80113100  0.80113100  0.60226300  1
  Mn  Mn19  1  0.19886900  0.19886900  0.39773700  1
  Mn  Mn20  1  0.88364500  0.38364500  0.76728800  1
  Mn  Mn21  1  0.61635500  0.11635500  0.23271200  1
  Mn  Mn22  1  0.86635500  0.86635500  0.73271200  1
  Mn  Mn23  1  0.13364500  0.13364500  0.26728800  1
  Mn  Mn24  1  0.81625800  0.31625800  0.63251500  1
  Mn  Mn25  1  0.68374200  0.18374200  0.36748500  1
  Mn  Mn26  1  0.93374200  0.93374200  0.86748500  1
  Mn  Mn27  1  0.06625800  0.06625800  0.13251500  1
  Mn  Mn28  1  0.75000000  0.25000000  0.50000000  1
  Mn  Mn29  1  0.00000000  0.00000000  0.00000000  1
  Si  Si30  1  0.37500000  0.77836600  0.25000000  1
  Si  Si31  1  0.52836600  0.62500000  0.75000000  1
  Si  Si32  1  0.22163400  0.12500000  0.75000000  1
  Si  Si33  1  0.87500000  0.47163400  0.25000000  1
  Si  Si34  1  0.64318400  0.20113100  0.70877700  1
  Si  Si35  1  0.06559300  0.50764600  0.70877700  1
  Si  Si36  1  0.25764600  0.31559300  0.20877700  1
  Si  Si37  1  0.79886900  0.93440700  0.29122300  1
  Si  Si38  1  0.49235400  0.35681600  0.29122300  1
  Si  Si39  1  0.10681600  0.74235400  0.79122300  1
  Si  Si40  1  0.68440700  0.04886900  0.79122300  1
  Si  Si41  1  0.95113100  0.89318400  0.20877700  1
  Si  Si42  1  0.99171700  0.01958500  0.67062200  1
  Si  Si43  1  0.67890500  0.65103800  0.67062200  1
  Si  Si44  1  0.40103800  0.92890500  0.17062200  1
  Si  Si45  1  0.98041500  0.32109500  0.32937800  1
  Si  Si46  1  0.34896200  0.00828300  0.32937800  1
  Si  Si47  1  0.75828300  0.59896200  0.82937800  1
  Si  Si48  1  0.07109500  0.23041500  0.82937800  1
  Si  Si49  1  0.76958500  0.24171700  0.17062200  1
  Si  Si50  1  0.48464600  0.97983800  0.63396000  1
  Si  Si51  1  0.14931400  0.65412100  0.63396000  1
  Si  Si52  1  0.40412100  0.39931400  0.13396000  1
  Si  Si53  1  0.02016200  0.85068600  0.36604000  1
  Si  Si54  1  0.34587900  0.51535400  0.36604000  1
  Si  Si55  1  0.26535400  0.59587900  0.86604000  1
  Si  Si56  1  0.60068600  0.27016200  0.86604000  1
  Si  Si57  1  0.72983800  0.73464600  0.13396000  1
  Si  Si58  1  0.12303200  0.14009800  0.59753000  1
  Si  Si59  1  0.47450000  0.45743200  0.59753000  1
  Si  Si60  1  0.66405900  0.24054800  0.02080200  1
  Si  Si61  1  0.21974500  0.33594100  0.97919800  1
  Si  Si62  1  0.75945200  0.64325700  0.97919800  1
  Si  Si63  1  0.39325700  0.00945200  0.47919800  1
  Si  Si64  1  0.08594100  0.46974500  0.47919800  1
  Si  Si65  1  0.35674300  0.78025500  0.02080200  1
  Si  Si66  1  0.53025500  0.60674300  0.52080200  1
  Si  Si67  1  0.99054800  0.91405900  0.52080200  1
  Si  Si68  1  0.83241700  0.87555800  0.06038400  1
  Si  Si69  1  0.81517400  0.16758300  0.93961600  1
  Si  Si70  1  0.12444200  0.77203300  0.93961600  1
  Si  Si71  1  0.52203300  0.37444200  0.43961600  1
  Si  Si72  1  0.91758300  0.06517400  0.43961600  1
  Si  Si73  1  0.22796700  0.18482600  0.06038400  1
  Si  Si74  1  0.93482600  0.47796700  0.56038400  1
  Si  Si75  1  0.62555800  0.08241700  0.56038400  1
  Si  Si76  1  0.89009800  0.37303200  0.09753000  1
  Si  Si77  1  0.27550000  0.10990200  0.90247000  1
  Si  Si78  1  0.62696800  0.79256800  0.90247000  1
  Si  Si79  1  0.54256800  0.87696800  0.40247000  1
  Si  Si80  1  0.85990200  0.52550000  0.40247000  1
  Si  Si81  1  0.20743200  0.72450000  0.09753000  1
