# generated using pymatgen
data_Ca2WO5
_symmetry_space_group_name_H-M   'P 1'
_cell_length_a   5.46648000
_cell_length_b   7.31445300
_cell_length_c   10.72098000
_cell_angle_alpha   90.00000000
_cell_angle_beta   90.00000000
_cell_angle_gamma   90.00000000
_symmetry_Int_Tables_number   1
_chemical_formula_structural   Ca2WO5
_chemical_formula_sum   'Ca8 W4 O20'
_cell_volume   428.67099892
_cell_formula_units_Z   4
loop_
 _symmetry_equiv_pos_site_id
 _symmetry_equiv_pos_as_xyz
  1  'x, y, z'
loop_
 _atom_site_type_symbol
 _atom_site_label
 _atom_site_symmetry_multiplicity
 _atom_site_fract_x
 _atom_site_fract_y
 _atom_site_fract_z
 _atom_site_occupancy
  Ca  Ca0  1  0.25000000  0.98950000  0.24184400  1
  Ca  Ca1  1  0.75000000  0.14939700  0.42027700  1
  Ca  Ca2  1  0.25000000  0.35060300  0.92027700  1
  Ca  Ca3  1  0.75000000  0.51050000  0.74184400  1
  Ca  Ca4  1  0.25000000  0.48950000  0.25815600  1
  Ca  Ca5  1  0.75000000  0.64939700  0.07972300  1
  Ca  Ca6  1  0.25000000  0.85060300  0.57972300  1
  Ca  Ca7  1  0.75000000  0.01050000  0.75815600  1
  W  W8  1  0.75000000  0.18535300  0.05850600  1
  W  W9  1  0.25000000  0.31464700  0.55850600  1
  W  W10  1  0.75000000  0.68535300  0.44149400  1
  W  W11  1  0.25000000  0.81464700  0.94149400  1
  O  O12  1  0.00000000  0.00000000  0.00000000  1
  O  O13  1  0.50000000  0.00000000  0.00000000  1
  O  O14  1  0.75000000  0.06828600  0.21497600  1
  O  O15  1  0.00078000  0.14574000  0.59771200  1
  O  O16  1  0.49922000  0.14574000  0.59771200  1
  O  O17  1  0.25000000  0.23121100  0.37935600  1
  O  O18  1  0.75000000  0.26878900  0.87935600  1
  O  O19  1  0.50078000  0.35426000  0.09771200  1
  O  O20  1  0.99922000  0.35426000  0.09771200  1
  O  O21  1  0.25000000  0.43171400  0.71497600  1
  O  O22  1  0.00000000  0.50000000  0.50000000  1
  O  O23  1  0.50000000  0.50000000  0.50000000  1
  O  O24  1  0.75000000  0.56828600  0.28502400  1
  O  O25  1  0.00078000  0.64574000  0.90228800  1
  O  O26  1  0.49922000  0.64574000  0.90228800  1
  O  O27  1  0.25000000  0.73121100  0.12064400  1
  O  O28  1  0.75000000  0.76878900  0.62064400  1
  O  O29  1  0.50078000  0.85426000  0.40228800  1
  O  O30  1  0.99922000  0.85426000  0.40228800  1
  O  O31  1  0.25000000  0.93171400  0.78502400  1
