# generated using pymatgen
data_FeP4O11
_symmetry_space_group_name_H-M   'P 1'
_cell_length_a   9.31529200
_cell_length_b   9.36464526
_cell_length_c   10.82459993
_cell_angle_alpha   109.08843515
_cell_angle_beta   108.22854954
_cell_angle_gamma   90.77436269
_symmetry_Int_Tables_number   1
_chemical_formula_structural   FeP4O11
_chemical_formula_sum   'Fe4 P16 O44'
_cell_volume   840.49005726
_cell_formula_units_Z   4
loop_
 _symmetry_equiv_pos_site_id
 _symmetry_equiv_pos_as_xyz
  1  'x, y, z'
loop_
 _atom_site_type_symbol
 _atom_site_label
 _atom_site_symmetry_multiplicity
 _atom_site_fract_x
 _atom_site_fract_y
 _atom_site_fract_z
 _atom_site_occupancy
  Fe  Fe0  1  0.22781200  0.76973100  0.50098700  1
  Fe  Fe1  1  0.77218800  0.23026900  0.49901300  1
  Fe  Fe2  1  0.74409200  0.72112400  0.97960700  1
  Fe  Fe3  1  0.25590800  0.27887600  0.02039300  1
  P  P4  1  0.58544600  0.39064600  0.71517400  1
  P  P5  1  0.41455400  0.60935400  0.28482600  1
  P  P6  1  0.08968700  0.94605300  0.75362100  1
  P  P7  1  0.91031300  0.05394700  0.24637900  1
  P  P8  1  0.76333800  0.92392100  0.61172500  1
  P  P9  1  0.23666200  0.07607900  0.38827500  1
  P  P10  1  0.55966500  0.91253900  0.77179100  1
  P  P11  1  0.44033500  0.08746100  0.22820900  1
  P  P12  1  0.09638900  0.72725700  0.91120900  1
  P  P13  1  0.90361100  0.27274300  0.08879100  1
  P  P14  1  0.56827500  0.25024500  0.92640900  1
  P  P15  1  0.43172500  0.74975500  0.07359100  1
  P  P16  1  0.26289000  0.41439900  0.55732000  1
  P  P17  1  0.73711000  0.58560100  0.44268000  1
  P  P18  1  0.09767500  0.40425100  0.75969500  1
  P  P19  1  0.90232500  0.59574900  0.24030500  1
  O  O20  1  0.94625600  0.31003400  0.69401300  1
  O  O21  1  0.05374400  0.68996600  0.30598700  1
  O  O22  1  0.81230800  0.90470900  0.17995900  1
  O  O23  1  0.18769200  0.09529100  0.82004100  1
  O  O24  1  0.29368400  0.48051800  0.19156200  1
  O  O25  1  0.70631600  0.51948200  0.80843800  1
  O  O26  1  0.81683500  0.63987500  0.35548000  1
  O  O27  1  0.18316500  0.36012500  0.64452000  1
  O  O28  1  0.36758400  0.02748500  0.32565200  1
  O  O29  1  0.63241600  0.97251500  0.67434800  1
  O  O30  1  0.91829100  0.16674000  0.38367200  1
  O  O31  1  0.08170900  0.83326000  0.61632800  1
  O  O32  1  0.73892600  0.74104800  0.56321200  1
  O  O33  1  0.26107400  0.25895200  0.43678800  1
  O  O34  1  0.58749400  0.18601500  0.31385800  1
  O  O35  1  0.41250600  0.81398500  0.68614200  1
  O  O36  1  0.31525100  0.13716300  0.13282600  1
  O  O37  1  0.68474900  0.86283700  0.86717400  1
  O  O38  1  0.19688200  0.53098900  0.50081800  1
  O  O39  1  0.80311800  0.46901100  0.49918200  1
  O  O40  1  0.91239300  0.97126200  0.74554700  1
  O  O41  1  0.08760700  0.02873800  0.25445300  1
  O  O42  1  0.24999200  0.72927800  0.03196300  1
  O  O43  1  0.75000800  0.27072200  0.96803700  1
  O  O44  1  0.51520900  0.31255600  0.80335300  1
  O  O45  1  0.48479100  0.68744400  0.19664700  1
  O  O46  1  0.91721300  0.41483700  0.22257400  1
  O  O47  1  0.08278700  0.58516300  0.77742600  1
  O  O48  1  0.79317000  0.59165000  0.10486900  1
  O  O49  1  0.20683000  0.40835000  0.89513100  1
  O  O50  1  0.61038500  0.26428800  0.60039800  1
  O  O51  1  0.38961500  0.73571200  0.39960200  1
  O  O52  1  0.03034500  0.26301900  0.03418900  1
  O  O53  1  0.96965500  0.73698100  0.96581100  1
  O  O54  1  0.56454300  0.53441600  0.34936800  1
  O  O55  1  0.43545700  0.46558400  0.65063200  1
  O  O56  1  0.49416900  0.68145300  0.96080300  1
  O  O57  1  0.50583100  0.31854700  0.03919700  1
  O  O58  1  0.51797700  0.07347700  0.85989100  1
  O  O59  1  0.48202300  0.92652300  0.14010900  1
  O  O60  1  0.13540600  0.86629100  0.87225900  1
  O  O61  1  0.86459400  0.13370900  0.12774100  1
  O  O62  1  0.76174600  0.98708200  0.50326200  1
  O  O63  1  0.23825400  0.01291800  0.49673800  1
