# generated using pymatgen
data_Cr5Si3
_symmetry_space_group_name_H-M   'P 1'
_cell_length_a   6.82090647
_cell_length_b   6.82090647
_cell_length_c   6.82090647
_cell_angle_alpha   96.46841538
_cell_angle_beta   96.46841538
_cell_angle_gamma   140.77684756
_symmetry_Int_Tables_number   1
_chemical_formula_structural   Cr5Si3
_chemical_formula_sum   'Cr10 Si6'
_cell_volume   189.02738103
_cell_formula_units_Z   2
loop_
 _symmetry_equiv_pos_site_id
 _symmetry_equiv_pos_as_xyz
  1  'x, y, z'
loop_
 _atom_site_type_symbol
 _atom_site_label
 _atom_site_symmetry_multiplicity
 _atom_site_fract_x
 _atom_site_fract_y
 _atom_site_fract_z
 _atom_site_occupancy
  Cr  Cr0  1  0.25000000  0.75000000  0.50000000  1
  Cr  Cr1  1  0.75000000  0.25000000  0.50000000  1
  Cr  Cr2  1  0.22801500  0.07643100  0.30444600  1
  Cr  Cr3  1  0.07643100  0.77198500  0.84841700  1
  Cr  Cr4  1  0.92356900  0.22801500  0.15158300  1
  Cr  Cr5  1  0.77198500  0.92356900  0.69555400  1
  Cr  Cr6  1  0.42356900  0.27198500  0.69555400  1
  Cr  Cr7  1  0.57643100  0.72801500  0.30444600  1
  Cr  Cr8  1  0.72801500  0.42356900  0.15158300  1
  Cr  Cr9  1  0.27198500  0.57643100  0.84841700  1
  Si  Si10  1  0.75000000  0.75000000  0.00000000  1
  Si  Si11  1  0.25000000  0.25000000  0.00000000  1
  Si  Si12  1  0.66732500  0.16732500  0.83465100  1
  Si  Si13  1  0.16732500  0.33267500  0.50000000  1
  Si  Si14  1  0.83267500  0.66732500  0.50000000  1
  Si  Si15  1  0.33267500  0.83267500  0.16534900  1
