# generated using pymatgen
data_TiNi(PO4)2
_symmetry_space_group_name_H-M   'P 1'
_cell_length_a   8.46549189
_cell_length_b   8.46549189
_cell_length_c   8.46549147
_cell_angle_alpha   61.13116633
_cell_angle_beta   61.13116633
_cell_angle_gamma   61.13116273
_symmetry_Int_Tables_number   1
_chemical_formula_structural   TiNi(PO4)2
_chemical_formula_sum   'Ti3 Ni3 P6 O24'
_cell_volume   439.90497663
_cell_formula_units_Z   3
loop_
 _symmetry_equiv_pos_site_id
 _symmetry_equiv_pos_as_xyz
  1  'x, y, z'
loop_
 _atom_site_type_symbol
 _atom_site_label
 _atom_site_symmetry_multiplicity
 _atom_site_fract_x
 _atom_site_fract_y
 _atom_site_fract_z
 _atom_site_occupancy
  Ti  Ti0  1  0.35520100  0.35520100  0.35520100  1
  Ti  Ti1  1  0.14233800  0.14233800  0.14233800  1
  Ti  Ti2  1  0.64518200  0.64518200  0.64518200  1
  Ni  Ni3  1  0.99717900  0.99717900  0.99717900  1
  Ni  Ni4  1  0.85819400  0.85819400  0.85819400  1
  Ni  Ni5  1  0.49875800  0.49875800  0.49875800  1
  P  P6  1  0.45627500  0.75239000  0.04702300  1
  P  P7  1  0.75239000  0.04702300  0.45627500  1
  P  P8  1  0.04702300  0.45627500  0.75239000  1
  P  P9  1  0.95279100  0.54621000  0.25000600  1
  P  P10  1  0.25000600  0.95279100  0.54621000  1
  P  P11  1  0.54621000  0.25000600  0.95279100  1
  O  O12  1  0.68373500  0.88269900  0.50327100  1
  O  O13  1  0.88269900  0.50327100  0.68373500  1
  O  O14  1  0.50327100  0.68373500  0.88269900  1
  O  O15  1  0.25445300  0.90919600  0.05842600  1
  O  O16  1  0.60835600  0.81737800  0.01382600  1
  O  O17  1  0.43232000  0.58936400  0.24490200  1
  O  O18  1  0.90919600  0.05842600  0.25445300  1
  O  O19  1  0.58936400  0.24490200  0.43232000  1
  O  O20  1  0.00215500  0.38224100  0.18197300  1
  O  O21  1  0.24490200  0.43232000  0.58936400  1
  O  O22  1  0.94570300  0.74097600  0.09601100  1
  O  O23  1  0.18197300  0.00215500  0.38224100  1
  O  O24  1  0.81737800  0.01382600  0.60835600  1
  O  O25  1  0.05842600  0.25445300  0.90919600  1
  O  O26  1  0.75669600  0.55347200  0.41265000  1
  O  O27  1  0.01382600  0.60835600  0.81737800  1
  O  O28  1  0.41265000  0.75669600  0.55347200  1
  O  O29  1  0.09601100  0.94570300  0.74097600  1
  O  O30  1  0.55347200  0.41265000  0.75669600  1
  O  O31  1  0.38224100  0.18197300  0.00215500  1
  O  O32  1  0.74097600  0.09601100  0.94570300  1
  O  O33  1  0.48887300  0.32802300  0.11180300  1
  O  O34  1  0.11180300  0.48887300  0.32802300  1
  O  O35  1  0.32802300  0.11180300  0.48887300  1
