# generated using pymatgen
data_CaTi2O6
_symmetry_space_group_name_H-M   'P 1'
_cell_length_a   8.97903200
_cell_length_b   5.22524900
_cell_length_c   10.03048424
_cell_angle_alpha   89.90012275
_cell_angle_beta   90.00000000
_cell_angle_gamma   90.00000000
_symmetry_Int_Tables_number   1
_chemical_formula_structural   CaTi2O6
_chemical_formula_sum   'Ca4 Ti8 O24'
_cell_volume   470.60631452
_cell_formula_units_Z   4
loop_
 _symmetry_equiv_pos_site_id
 _symmetry_equiv_pos_as_xyz
  1  'x, y, z'
loop_
 _atom_site_type_symbol
 _atom_site_label
 _atom_site_symmetry_multiplicity
 _atom_site_fract_x
 _atom_site_fract_y
 _atom_site_fract_z
 _atom_site_occupancy
  Ca  Ca0  1  0.99621100  0.50719300  0.24961400  1
  Ca  Ca1  1  0.49621100  0.99280700  0.75038600  1
  Ca  Ca2  1  0.00378900  0.49280700  0.75038600  1
  Ca  Ca3  1  0.50378900  0.00719300  0.24961400  1
  Ti  Ti4  1  0.66187300  0.50779000  0.49049800  1
  Ti  Ti5  1  0.16187300  0.99221000  0.50950200  1
  Ti  Ti6  1  0.33812700  0.49221000  0.50950200  1
  Ti  Ti7  1  0.83812700  0.00779000  0.49049800  1
  Ti  Ti8  1  0.67733100  0.50076600  0.98844000  1
  Ti  Ti9  1  0.17733100  0.99923400  0.01156000  1
  Ti  Ti10  1  0.32266900  0.49923400  0.01156000  1
  Ti  Ti11  1  0.82266900  0.00076600  0.98844000  1
  O  O12  1  0.99942900  0.87018800  0.39147900  1
  O  O13  1  0.49942900  0.62981200  0.60852100  1
  O  O14  1  0.00057100  0.12981200  0.60852100  1
  O  O15  1  0.50057100  0.37018800  0.39147900  1
  O  O16  1  0.49613400  0.35856900  0.89650100  1
  O  O17  1  0.99613400  0.14143100  0.10349900  1
  O  O18  1  0.50386600  0.64143100  0.10349900  1
  O  O19  1  0.00386600  0.85856900  0.89650100  1
  O  O20  1  0.31828600  0.18822700  0.11460300  1
  O  O21  1  0.81828600  0.31177300  0.88539700  1
  O  O22  1  0.68171400  0.81177300  0.88539700  1
  O  O23  1  0.18171400  0.68822700  0.11460300  1
  O  O24  1  0.82309400  0.67593000  0.60368700  1
  O  O25  1  0.32309400  0.82407000  0.39631300  1
  O  O26  1  0.17690600  0.32407000  0.39631300  1
  O  O27  1  0.67690600  0.17593000  0.60368700  1
  O  O28  1  0.82011500  0.33092400  0.39809300  1
  O  O29  1  0.32011500  0.16907600  0.60190700  1
  O  O30  1  0.17988500  0.66907600  0.60190700  1
  O  O31  1  0.67988500  0.83092400  0.39809300  1
  O  O32  1  0.32480600  0.81350300  0.90363000  1
  O  O33  1  0.82480600  0.68649700  0.09637000  1
  O  O34  1  0.67519400  0.18649700  0.09637000  1
  O  O35  1  0.17519400  0.31350300  0.90363000  1
