data_image0
_chemical_formula_structural       Cd2Cl2H2O2
_chemical_formula_sum              "Cd2 Cl2 H2 O2"
_cell_length_a       3.68596
_cell_length_b       3.68602
_cell_length_c       10.3074
_cell_angle_alpha    90
_cell_angle_beta     90
_cell_angle_gamma    120

_space_group_name_H-M_alt    "P 1"
_space_group_IT_number       1

loop_
  _space_group_symop_operation_xyz
  'x, y, z'

loop_
  _atom_site_type_symbol
  _atom_site_label
  _atom_site_symmetry_multiplicity
  _atom_site_fract_x
  _atom_site_fract_y
  _atom_site_fract_z
  _atom_site_occupancy
  Cd  Cd1       1.0  0.33300  0.66700  0.00775  1.0000
  Cd  Cd2       1.0  0.66700  0.33300  0.50800  1.0000
  Cl  Cl1       1.0  0.33300  0.66700  0.34300  1.0000
  Cl  Cl2       1.0  0.66700  0.33300  0.84300  1.0000
  H   H1        1.0  0.00000  0.00000  0.18300  1.0000
  H   H2        1.0  0.00000  0.00000  0.68300  1.0000
  O   O1        1.0  0.00000  0.00000  0.08750  1.0000
  O   O2        1.0  0.00001  0.00002  0.58700  1.0000
