# generated using pymatgen
data_MnCd6O8
_symmetry_space_group_name_H-M   'P 1'
_cell_length_a   9.41135000
_cell_length_b   9.41135000
_cell_length_c   11.52650265
_cell_angle_alpha   65.90515745
_cell_angle_beta   65.90515745
_cell_angle_gamma   90.00000000
_symmetry_Int_Tables_number   1
_chemical_formula_structural   MnCd6O8
_chemical_formula_sum   'Mn4 Cd24 O32'
_cell_volume   833.59629226
_cell_formula_units_Z   4
loop_
 _symmetry_equiv_pos_site_id
 _symmetry_equiv_pos_as_xyz
  1  'x, y, z'
loop_
 _atom_site_type_symbol
 _atom_site_label
 _atom_site_symmetry_multiplicity
 _atom_site_fract_x
 _atom_site_fract_y
 _atom_site_fract_z
 _atom_site_occupancy
  Mn  Mn0  1  0.50000000  0.50000000  0.00000000  1
  Mn  Mn1  1  0.75000000  0.25000000  0.50000000  1
  Mn  Mn2  1  0.25000000  0.75000000  0.50000000  1
  Mn  Mn3  1  0.00000000  0.00000000  0.00000000  1
  Cd  Cd4  1  0.12500000  0.37500000  0.75000000  1
  Cd  Cd5  1  0.37500000  0.12500000  0.25000000  1
  Cd  Cd6  1  0.62500000  0.87500000  0.75000000  1
  Cd  Cd7  1  0.87500000  0.62500000  0.25000000  1
  Cd  Cd8  1  0.25000000  0.25000000  0.00000000  1
  Cd  Cd9  1  0.50000000  0.00000000  0.50000000  1
  Cd  Cd10  1  0.75000000  0.75000000  0.00000000  1
  Cd  Cd11  1  0.00000000  0.50000000  0.50000000  1
  Cd  Cd12  1  0.37500000  0.62500000  0.75000000  1
  Cd  Cd13  1  0.62500000  0.37500000  0.25000000  1
  Cd  Cd14  1  0.87500000  0.12500000  0.75000000  1
  Cd  Cd15  1  0.12500000  0.87500000  0.25000000  1
  Cd  Cd16  1  0.37500000  0.12500000  0.75000000  1
  Cd  Cd17  1  0.62500000  0.87500000  0.25000000  1
  Cd  Cd18  1  0.87500000  0.62500000  0.75000000  1
  Cd  Cd19  1  0.12500000  0.37500000  0.25000000  1
  Cd  Cd20  1  0.50000000  0.50000000  0.50000000  1
  Cd  Cd21  1  0.75000000  0.25000000  0.00000000  1
  Cd  Cd22  1  0.00000000  0.00000000  0.50000000  1
  Cd  Cd23  1  0.25000000  0.75000000  0.00000000  1
  Cd  Cd24  1  0.62500000  0.37500000  0.75000000  1
  Cd  Cd25  1  0.87500000  0.12500000  0.25000000  1
  Cd  Cd26  1  0.12500000  0.87500000  0.75000000  1
  Cd  Cd27  1  0.37500000  0.62500000  0.25000000  1
  O  O28  1  0.37500000  0.37500000  0.75000000  1
  O  O29  1  0.62500000  0.12500000  0.25000000  1
  O  O30  1  0.87500000  0.87500000  0.75000000  1
  O  O31  1  0.12500000  0.62500000  0.25000000  1
  O  O32  1  0.62500000  0.62500000  0.25000000  1
  O  O33  1  0.87500000  0.37500000  0.75000000  1
  O  O34  1  0.12500000  0.12500000  0.25000000  1
  O  O35  1  0.37500000  0.87500000  0.75000000  1
  O  O36  1  0.21007800  0.00000000  0.00000000  1
  O  O37  1  0.46007800  0.75000000  0.50000000  1
  O  O38  1  0.71007800  0.50000000  0.00000000  1
  O  O39  1  0.96007800  0.25000000  0.50000000  1
  O  O40  1  0.64496100  0.14496100  0.71007800  1
  O  O41  1  0.89496100  0.89496100  0.21007800  1
  O  O42  1  0.14496100  0.64496100  0.71007800  1
  O  O43  1  0.39496100  0.39496100  0.21007800  1
  O  O44  1  0.50000000  0.28992200  0.00000000  1
  O  O45  1  0.75000000  0.03992200  0.50000000  1
  O  O46  1  0.00000000  0.78992200  0.00000000  1
  O  O47  1  0.25000000  0.53992200  0.50000000  1
  O  O48  1  0.35503900  0.85503900  0.28992200  1
  O  O49  1  0.60503900  0.60503900  0.78992200  1
  O  O50  1  0.85503900  0.35503900  0.28992200  1
  O  O51  1  0.10503900  0.10503900  0.78992200  1
  O  O52  1  0.50000000  0.71007800  0.00000000  1
  O  O53  1  0.75000000  0.46007800  0.50000000  1
  O  O54  1  0.00000000  0.21007800  0.00000000  1
  O  O55  1  0.25000000  0.96007800  0.50000000  1
  O  O56  1  0.78992200  0.00000000  0.00000000  1
  O  O57  1  0.03992200  0.75000000  0.50000000  1
  O  O58  1  0.28992200  0.50000000  0.00000000  1
  O  O59  1  0.53992200  0.25000000  0.50000000  1
