# generated using pymatgen
data_Li8(CoO2)5
_symmetry_space_group_name_H-M   'P 1'
_cell_length_a   6.65377434
_cell_length_b   10.10200960
_cell_length_c   8.65217328
_cell_angle_alpha   105.89442144
_cell_angle_beta   104.52788184
_cell_angle_gamma   103.36791182
_symmetry_Int_Tables_number   1
_chemical_formula_structural   Li8(CoO2)5
_chemical_formula_sum   'Li16 Co10 O20'
_cell_volume   512.58923784
_cell_formula_units_Z   2
loop_
 _symmetry_equiv_pos_site_id
 _symmetry_equiv_pos_as_xyz
  1  'x, y, z'
loop_
 _atom_site_type_symbol
 _atom_site_label
 _atom_site_symmetry_multiplicity
 _atom_site_fract_x
 _atom_site_fract_y
 _atom_site_fract_z
 _atom_site_occupancy
  Li  Li0  1  0.42705800  0.08413800  0.06594400  1
  Li  Li1  1  0.92087800  0.57981100  0.06431800  1
  Li  Li2  1  0.37944400  0.32032800  0.13592300  1
  Li  Li3  1  0.87260500  0.81576800  0.13409500  1
  Li  Li4  1  0.52617500  0.36758000  0.44194600  1
  Li  Li5  1  0.02687900  0.86336400  0.44139900  1
  Li  Li6  1  0.77410600  0.53254500  0.75830400  1
  Li  Li7  1  0.27308000  0.03649500  0.75853800  1
  Li  Li8  1  0.21230600  0.50255200  0.26971700  1
  Li  Li9  1  0.70798900  0.99983800  0.26653500  1
  Li  Li10  1  0.59185600  0.90028600  0.93325700  1
  Li  Li11  1  0.08784000  0.39759500  0.93024000  1
  Li  Li12  1  0.49509200  0.61562700  0.54879900  1
  Li  Li13  1  0.99497200  0.11859700  0.54993500  1
  Li  Li14  1  0.30487900  0.78121500  0.64988000  1
  Li  Li15  1  0.80492200  0.28429100  0.65124100  1
  Co  Co16  1  0.15006200  0.44997400  0.60003000  1
  Co  Co17  1  0.64993300  0.94993500  0.59992300  1
  Co  Co18  1  0.04744700  0.14942600  0.19848500  1
  Co  Co19  1  0.54699000  0.64717900  0.19679000  1
  Co  Co20  1  0.75308100  0.25290800  0.00321700  1
  Co  Co21  1  0.25260300  0.75062500  0.00150500  1
  Co  Co22  1  0.85560900  0.55864900  0.40419200  1
  Co  Co23  1  0.35675800  0.05833500  0.40734000  1
  Co  Co24  1  0.94304000  0.84158200  0.79261600  1
  Co  Co25  1  0.44438900  0.34132500  0.79590400  1
  O  O26  1  0.34745700  0.17801200  0.26113700  1
  O  O27  1  0.86397100  0.68125700  0.26312900  1
  O  O28  1  0.95263500  0.72213300  0.93910400  1
  O  O29  1  0.43600400  0.21868300  0.93690800  1
  O  O30  1  0.74612600  0.09687900  0.10458700  1
  O  O31  1  0.22785600  0.60141200  0.08954700  1
  O  O32  1  0.07228200  0.29868900  0.11050400  1
  O  O33  1  0.55386900  0.80321000  0.09524600  1
  O  O34  1  0.85825600  0.44288100  0.55965400  1
  O  O35  1  0.35697200  0.94255200  0.56123400  1
  O  O36  1  0.44192600  0.45719300  0.64054800  1
  O  O37  1  0.94290200  0.95731600  0.63866300  1
  O  O38  1  0.52913900  0.51356400  0.32881700  1
  O  O39  1  0.02818300  0.01918700  0.32022300  1
  O  O40  1  0.27159700  0.88070900  0.87955700  1
  O  O41  1  0.77098000  0.38658300  0.87135400  1
  O  O42  1  0.17627100  0.58338600  0.49042800  1
  O  O43  1  0.67410100  0.08155300  0.48741600  1
  O  O44  1  0.62574600  0.81832600  0.71245600  1
  O  O45  1  0.12373600  0.31650900  0.70941700  1
