# generated using pymatgen
data_CaZn2(PO5)2
_symmetry_space_group_name_H-M   'P 1'
_cell_length_a   6.69703800
_cell_length_b   7.66101500
_cell_length_c   16.59536100
_cell_angle_alpha   90.00000000
_cell_angle_beta   90.00000000
_cell_angle_gamma   90.00000000
_symmetry_Int_Tables_number   1
_chemical_formula_structural   CaZn2(PO5)2
_chemical_formula_sum   'Ca4 Zn8 P8 O40'
_cell_volume   851.44339328
_cell_formula_units_Z   4
loop_
 _symmetry_equiv_pos_site_id
 _symmetry_equiv_pos_as_xyz
  1  'x, y, z'
loop_
 _atom_site_type_symbol
 _atom_site_label
 _atom_site_symmetry_multiplicity
 _atom_site_fract_x
 _atom_site_fract_y
 _atom_site_fract_z
 _atom_site_occupancy
  Ca  Ca0  1  0.75000000  0.11802600  0.50000000  1
  Ca  Ca1  1  0.25000000  0.38197400  0.00000000  1
  Ca  Ca2  1  0.25000000  0.88197400  0.50000000  1
  Ca  Ca3  1  0.75000000  0.61802600  0.00000000  1
  Zn  Zn4  1  0.68954900  0.49106200  0.71399000  1
  Zn  Zn5  1  0.18954900  0.00893800  0.78601000  1
  Zn  Zn6  1  0.31045100  0.00893800  0.21399000  1
  Zn  Zn7  1  0.81045100  0.49106200  0.28601000  1
  Zn  Zn8  1  0.31045100  0.50893800  0.28601000  1
  Zn  Zn9  1  0.81045100  0.99106200  0.21399000  1
  Zn  Zn10  1  0.68954900  0.99106200  0.78601000  1
  Zn  Zn11  1  0.18954900  0.50893800  0.71399000  1
  P  P12  1  0.93875600  0.31438400  0.85217300  1
  P  P13  1  0.43875600  0.18561600  0.64782700  1
  P  P14  1  0.06124400  0.18561600  0.35217300  1
  P  P15  1  0.56124400  0.31438400  0.14782700  1
  P  P16  1  0.06124400  0.68561600  0.14782700  1
  P  P17  1  0.56124400  0.81438400  0.35217300  1
  P  P18  1  0.93875600  0.81438400  0.64782700  1
  P  P19  1  0.43875600  0.68561600  0.85217300  1
  O  O20  1  0.97847900  0.43975200  0.52284900  1
  O  O21  1  0.47847900  0.06024800  0.97715100  1
  O  O22  1  0.02152100  0.06024800  0.02284900  1
  O  O23  1  0.52152100  0.43975200  0.47715100  1
  O  O24  1  0.02152100  0.56024800  0.47715100  1
  O  O25  1  0.52152100  0.93975200  0.02284900  1
  O  O26  1  0.97847900  0.93975200  0.97715100  1
  O  O27  1  0.47847900  0.56024800  0.52284900  1
  O  O28  1  0.93905700  0.42530800  0.92952500  1
  O  O29  1  0.43905700  0.07469200  0.57047500  1
  O  O30  1  0.06094300  0.07469200  0.42952500  1
  O  O31  1  0.56094300  0.42530800  0.07047500  1
  O  O32  1  0.06094300  0.57469200  0.07047500  1
  O  O33  1  0.56094300  0.92530800  0.42952500  1
  O  O34  1  0.93905700  0.92530800  0.57047500  1
  O  O35  1  0.43905700  0.57469200  0.92952500  1
  O  O36  1  0.63672900  0.28644800  0.64571700  1
  O  O37  1  0.13672900  0.21355200  0.85428300  1
  O  O38  1  0.36327100  0.21355200  0.14571700  1
  O  O39  1  0.86327100  0.28644800  0.35428300  1
  O  O40  1  0.36327100  0.71355200  0.35428300  1
  O  O41  1  0.86327100  0.78644800  0.14571700  1
  O  O42  1  0.63672900  0.78644800  0.85428300  1
  O  O43  1  0.13672900  0.71355200  0.64571700  1
  O  O44  1  0.75263200  0.19932400  0.84760000  1
  O  O45  1  0.25263200  0.30067600  0.65240000  1
  O  O46  1  0.24736800  0.30067600  0.34760000  1
  O  O47  1  0.74736800  0.19932400  0.15240000  1
  O  O48  1  0.24736800  0.80067600  0.15240000  1
  O  O49  1  0.74736800  0.69932400  0.34760000  1
  O  O50  1  0.75263200  0.69932400  0.65240000  1
  O  O51  1  0.25263200  0.80067600  0.84760000  1
  O  O52  1  0.94021100  0.43968800  0.77570600  1
  O  O53  1  0.44021100  0.06031200  0.72429400  1
  O  O54  1  0.05978900  0.06031200  0.27570600  1
  O  O55  1  0.55978900  0.43968800  0.22429400  1
  O  O56  1  0.05978900  0.56031200  0.22429400  1
  O  O57  1  0.55978900  0.93968800  0.27570600  1
  O  O58  1  0.94021100  0.93968800  0.72429400  1
  O  O59  1  0.44021100  0.56031200  0.77570600  1
