# generated using pymatgen
data_Mn3OF5
_symmetry_space_group_name_H-M   'P 1'
_cell_length_a   4.89029200
_cell_length_b   5.89709019
_cell_length_c   8.10158697
_cell_angle_alpha   86.74073407
_cell_angle_beta   88.38542974
_cell_angle_gamma   88.71233512
_symmetry_Int_Tables_number   1
_chemical_formula_structural   Mn3OF5
_chemical_formula_sum   'Mn6 O2 F10'
_cell_volume   233.11604914
_cell_formula_units_Z   2
loop_
 _symmetry_equiv_pos_site_id
 _symmetry_equiv_pos_as_xyz
  1  'x, y, z'
loop_
 _atom_site_type_symbol
 _atom_site_label
 _atom_site_symmetry_multiplicity
 _atom_site_fract_x
 _atom_site_fract_y
 _atom_site_fract_z
 _atom_site_occupancy
  Mn  Mn0  1  0.50000000  0.50000000  0.00000000  1
  Mn  Mn1  1  0.51748100  0.81560900  0.66546400  1
  Mn  Mn2  1  0.48251900  0.18439100  0.33453600  1
  Mn  Mn3  1  0.97722600  0.34697100  0.67836000  1
  Mn  Mn4  1  0.02277400  0.65302900  0.32164000  1
  Mn  Mn5  1  0.00000000  0.00000000  0.00000000  1
  O  O6  1  0.68285700  0.53574600  0.78419700  1
  O  O7  1  0.31714300  0.46425400  0.21580300  1
  F  F8  1  0.80523000  0.36935900  0.43662900  1
  F  F9  1  0.80230300  0.03486900  0.76541000  1
  F  F10  1  0.79727800  0.70095000  0.10030600  1
  F  F11  1  0.69704200  0.20460600  0.09667400  1
  F  F12  1  0.70132200  0.87425500  0.42373900  1
  F  F13  1  0.29867800  0.12574500  0.57626100  1
  F  F14  1  0.30295800  0.79539400  0.90332600  1
  F  F15  1  0.19477000  0.63064100  0.56337100  1
  F  F16  1  0.19769700  0.96513100  0.23459000  1
  F  F17  1  0.20272200  0.29905000  0.89969400  1
