# generated using pymatgen
data_BaLa2O4
_symmetry_space_group_name_H-M   'P 1'
_cell_length_a   6.31597302
_cell_length_b   6.31597302
_cell_length_c   11.92853600
_cell_angle_alpha   90.00000000
_cell_angle_beta   90.00000000
_cell_angle_gamma   146.33138807
_symmetry_Int_Tables_number   1
_chemical_formula_structural   BaLa2O4
_chemical_formula_sum   'Ba2 La4 O8'
_cell_volume   263.80434977
_cell_formula_units_Z   2
loop_
 _symmetry_equiv_pos_site_id
 _symmetry_equiv_pos_as_xyz
  1  'x, y, z'
loop_
 _atom_site_type_symbol
 _atom_site_label
 _atom_site_symmetry_multiplicity
 _atom_site_fract_x
 _atom_site_fract_y
 _atom_site_fract_z
 _atom_site_occupancy
  Ba  Ba0  1  0.88991500  0.11008500  0.25000000  1
  Ba  Ba1  1  0.11008500  0.88991500  0.75000000  1
  La  La2  1  0.63379700  0.36620300  0.42747100  1
  La  La3  1  0.63379700  0.36620300  0.07252900  1
  La  La4  1  0.36620300  0.63379700  0.57252900  1
  La  La5  1  0.36620300  0.63379700  0.92747100  1
  O  O6  1  0.00000000  0.00000000  0.00000000  1
  O  O7  1  0.00000000  0.00000000  0.50000000  1
  O  O8  1  0.54593500  0.45406500  0.25000000  1
  O  O9  1  0.73711500  0.26288500  0.60404500  1
  O  O10  1  0.73711500  0.26288500  0.89595500  1
  O  O11  1  0.45406500  0.54593500  0.75000000  1
  O  O12  1  0.26288500  0.73711500  0.39595500  1
  O  O13  1  0.26288500  0.73711500  0.10404500  1
