# generated using pymatgen
data_FePO4
_symmetry_space_group_name_H-M   'P 1'
_cell_length_a   8.65674800
_cell_length_b   5.36044900
_cell_length_c   7.97156925
_cell_angle_alpha   65.05007705
_cell_angle_beta   90.00000000
_cell_angle_gamma   90.00000000
_symmetry_Int_Tables_number   1
_chemical_formula_structural   FePO4
_chemical_formula_sum   'Fe4 P4 O16'
_cell_volume   335.39167325
_cell_formula_units_Z   4
loop_
 _symmetry_equiv_pos_site_id
 _symmetry_equiv_pos_as_xyz
  1  'x, y, z'
loop_
 _atom_site_type_symbol
 _atom_site_label
 _atom_site_symmetry_multiplicity
 _atom_site_fract_x
 _atom_site_fract_y
 _atom_site_fract_z
 _atom_site_occupancy
  Fe  Fe0  1  0.96877800  0.24863900  0.71042600  1
  Fe  Fe1  1  0.46877800  0.75136100  0.78957400  1
  Fe  Fe2  1  0.53122200  0.24863900  0.21042600  1
  Fe  Fe3  1  0.03122200  0.75136100  0.28957400  1
  P  P4  1  0.81174800  0.69626400  0.68517700  1
  P  P5  1  0.31174800  0.30373600  0.81482300  1
  P  P6  1  0.68825200  0.69626400  0.18517700  1
  P  P7  1  0.18825200  0.30373600  0.31482300  1
  O  O8  1  0.90269300  0.65785700  0.52517800  1
  O  O9  1  0.32202100  0.60376400  0.66294200  1
  O  O10  1  0.64357800  0.78813800  0.63219800  1
  O  O11  1  0.39739800  0.09635300  0.76285100  1
  O  O12  1  0.82202100  0.39623600  0.83705800  1
  O  O13  1  0.89739800  0.90364700  0.73714900  1
  O  O14  1  0.14357800  0.21186200  0.86780200  1
  O  O15  1  0.40269300  0.34214300  0.97482200  1
  O  O16  1  0.59730700  0.65785700  0.02517800  1
  O  O17  1  0.85642200  0.78813800  0.13219800  1
  O  O18  1  0.10260200  0.09635300  0.26285100  1
  O  O19  1  0.17797900  0.60376400  0.16294200  1
  O  O20  1  0.60260200  0.90364700  0.23714900  1
  O  O21  1  0.35642200  0.21186200  0.36780200  1
  O  O22  1  0.67797900  0.39623600  0.33705800  1
  O  O23  1  0.09730700  0.34214300  0.47482200  1
