# generated using pymatgen
data_CrH12N3(OF2)3
_symmetry_space_group_name_H-M   'P 1'
_cell_length_a   6.70584363
_cell_length_b   7.06412055
_cell_length_c   9.62331846
_cell_angle_alpha   85.72367037
_cell_angle_beta   83.29790042
_cell_angle_gamma   69.58298291
_symmetry_Int_Tables_number   1
_chemical_formula_structural   CrH12N3(OF2)3
_chemical_formula_sum   'Cr2 H24 N6 O6 F12'
_cell_volume   424.02671688
_cell_formula_units_Z   2
loop_
 _symmetry_equiv_pos_site_id
 _symmetry_equiv_pos_as_xyz
  1  'x, y, z'
loop_
 _atom_site_type_symbol
 _atom_site_label
 _atom_site_symmetry_multiplicity
 _atom_site_fract_x
 _atom_site_fract_y
 _atom_site_fract_z
 _atom_site_occupancy
  Cr  Cr0  1  0.50000000  0.50000000  0.50000000  1
  Cr  Cr1  1  0.00000000  0.00000000  0.00000000  1
  H  H2  1  0.30069500  0.89464500  0.64030000  1
  H  H3  1  0.69930500  0.10535500  0.35970000  1
  H  H4  1  0.26403400  0.14727000  0.63019200  1
  H  H5  1  0.73596600  0.85273000  0.36980800  1
  H  H6  1  0.04863900  0.07079600  0.64745800  1
  H  H7  1  0.95136100  0.92920400  0.35254200  1
  H  H8  1  0.32865500  0.91585900  0.42421200  1
  H  H9  1  0.67134500  0.08414100  0.57578800  1
  H  H10  1  0.91400100  0.71392000  0.79521300  1
  H  H11  1  0.08599900  0.28608000  0.20478700  1
  H  H12  1  0.76933200  0.62497900  0.69834900  1
  H  H13  1  0.23066800  0.37502100  0.30165100  1
  H  H14  1  0.02108200  0.62188100  0.63196300  1
  H  H15  1  0.97891800  0.37811900  0.36803700  1
  H  H16  1  0.94951400  0.39266600  0.87344900  1
  H  H17  1  0.05048600  0.60733400  0.12655100  1
  H  H18  1  0.61040300  0.22000800  0.86377500  1
  H  H19  1  0.38959700  0.77999200  0.13622500  1
  H  H20  1  0.34580700  0.24909000  0.87274100  1
  H  H21  1  0.65419300  0.75091000  0.12725900  1
  H  H22  1  0.41918000  0.45715300  0.86264900  1
  H  H23  1  0.58082000  0.54284700  0.13735100  1
  H  H24  1  0.55368900  0.19075000  0.08031000  1
  H  H25  1  0.44631100  0.80925000  0.91969000  1
  N  N26  1  0.20477400  0.03830100  0.60363500  1
  N  N27  1  0.79522600  0.96169900  0.39636500  1
  N  N28  1  0.92174900  0.60796300  0.72390400  1
  N  N29  1  0.07825100  0.39203700  0.27609600  1
  N  N30  1  0.45381300  0.31050800  0.90178000  1
  N  N31  1  0.54618700  0.68949200  0.09822000  1
  O  O32  1  0.20774000  0.04343300  0.45581500  1
  O  O33  1  0.79226000  0.95656700  0.54418500  1
  O  O34  1  0.02367700  0.41030900  0.77815500  1
  O  O35  1  0.97632300  0.58969100  0.22184500  1
  O  O36  1  0.43477200  0.31666100  0.04991300  1
  O  O37  1  0.56522800  0.68333900  0.95008700  1
  F  F38  1  0.80811000  0.39163500  0.49606900  1
  F  F39  1  0.19189000  0.60836500  0.50393100  1
  F  F40  1  0.51923600  0.73392100  0.38100200  1
  F  F41  1  0.48076400  0.26607900  0.61899800  1
  F  F42  1  0.51594400  0.34619300  0.33489800  1
  F  F43  1  0.48405600  0.65380700  0.66510200  1
  F  F44  1  0.85203100  0.04525300  0.83071700  1
  F  F45  1  0.14796900  0.95474700  0.16928300  1
  F  F46  1  0.08909900  0.70898700  0.97973400  1
  F  F47  1  0.91090100  0.29101300  0.02026600  1
  F  F48  1  0.73658300  0.99600200  0.11215200  1
  F  F49  1  0.26341700  0.00399800  0.88784800  1
