# generated using pymatgen
data_Ba2In2O5
_symmetry_space_group_name_H-M   'P 1'
_cell_length_a   6.10107457
_cell_length_b   6.10107457
_cell_length_c   10.59019782
_cell_angle_alpha   69.56365266
_cell_angle_beta   69.56365266
_cell_angle_gamma   59.21758068
_symmetry_Int_Tables_number   1
_chemical_formula_structural   Ba2In2O5
_chemical_formula_sum   'Ba4 In4 O10'
_cell_volume   310.15229475
_cell_formula_units_Z   2
loop_
 _symmetry_equiv_pos_site_id
 _symmetry_equiv_pos_as_xyz
  1  'x, y, z'
loop_
 _atom_site_type_symbol
 _atom_site_label
 _atom_site_symmetry_multiplicity
 _atom_site_fract_x
 _atom_site_fract_y
 _atom_site_fract_z
 _atom_site_occupancy
  Ba  Ba0  1  0.76635400  0.23364600  0.25000000  1
  Ba  Ba1  1  0.23364600  0.76635400  0.75000000  1
  Ba  Ba2  1  0.50000000  0.00000000  0.00000000  1
  Ba  Ba3  1  0.00000000  0.50000000  0.50000000  1
  In  In4  1  0.90866800  0.36949400  0.86102600  1
  In  In5  1  0.63050600  0.09133200  0.63897400  1
  In  In6  1  0.36949400  0.90866800  0.36102600  1
  In  In7  1  0.09133200  0.63050600  0.13897400  1
  O  O8  1  0.73831900  0.26168100  0.75000000  1
  O  O9  1  0.64060500  0.75865300  0.79737400  1
  O  O10  1  0.24134700  0.35939500  0.70262600  1
  O  O11  1  0.50000000  0.00000000  0.50000000  1
  O  O12  1  0.35939500  0.24134700  0.20262600  1
  O  O13  1  0.75865300  0.64060500  0.29737400  1
  O  O14  1  0.00000000  0.00000000  0.50000000  1
  O  O15  1  0.26168100  0.73831900  0.25000000  1
  O  O16  1  0.00000000  0.00000000  0.00000000  1
  O  O17  1  0.00000000  0.50000000  0.00000000  1
