# generated using pymatgen
data_Na3VO4
_symmetry_space_group_name_H-M   'P 1'
_cell_length_a   5.98183292
_cell_length_b   5.98183292
_cell_length_c   5.98183292
_cell_angle_alpha   129.59764115
_cell_angle_beta   129.59764115
_cell_angle_gamma   74.05082574
_symmetry_Int_Tables_number   1
_chemical_formula_structural   Na3VO4
_chemical_formula_sum   'Na3 V1 O4'
_cell_volume   123.92909789
_cell_formula_units_Z   1
loop_
 _symmetry_equiv_pos_site_id
 _symmetry_equiv_pos_as_xyz
  1  'x, y, z'
loop_
 _atom_site_type_symbol
 _atom_site_label
 _atom_site_symmetry_multiplicity
 _atom_site_fract_x
 _atom_site_fract_y
 _atom_site_fract_z
 _atom_site_occupancy
  Na  Na0  1  0.50000000  0.50000000  0.00000000  1
  Na  Na1  1  0.75000000  0.25000000  0.50000000  1
  Na  Na2  1  0.25000000  0.75000000  0.50000000  1
  V  V3  1  0.00000000  0.00000000  0.00000000  1
  O  O4  1  0.69575100  0.09432800  0.00000000  1
  O  O5  1  0.30424900  0.30424900  0.39857700  1
  O  O6  1  0.90567200  0.90567200  0.60142300  1
  O  O7  1  0.09432800  0.69575100  0.00000000  1
