# generated using pymatgen
data_CoH32C8S4(NO5)2
_symmetry_space_group_name_H-M   'P 1'
_cell_length_a   12.55652000
_cell_length_b   9.89253100
_cell_length_c   13.10044378
_cell_angle_alpha   58.36529617
_cell_angle_beta   90.00000000
_cell_angle_gamma   90.00000000
_symmetry_Int_Tables_number   1
_chemical_formula_structural   CoH32C8S4(NO5)2
_chemical_formula_sum   'Co2 H64 C16 S8 N4 O20'
_cell_volume   1385.48287412
_cell_formula_units_Z   2
loop_
 _symmetry_equiv_pos_site_id
 _symmetry_equiv_pos_as_xyz
  1  'x, y, z'
loop_
 _atom_site_type_symbol
 _atom_site_label
 _atom_site_symmetry_multiplicity
 _atom_site_fract_x
 _atom_site_fract_y
 _atom_site_fract_z
 _atom_site_occupancy
  Co  Co0  1  0.50000000  0.00000000  0.50000000  1
  Co  Co1  1  0.00000000  0.00000000  0.00000000  1
  H  H2  1  0.00596900  0.18067300  0.47020100  1
  H  H3  1  0.42432200  0.64344000  0.34288900  1
  H  H4  1  0.76941700  0.77852400  0.46590800  1
  H  H5  1  0.90221400  0.38695900  0.46561500  1
  H  H6  1  0.40221400  0.61304100  0.03438500  1
  H  H7  1  0.01998900  0.17067200  0.33738500  1
  H  H8  1  0.13794800  0.88052500  0.91825900  1
  H  H9  1  0.50065000  0.59439500  0.71424000  1
  H  H10  1  0.89427200  0.12103500  0.41623300  1
  H  H11  1  0.99935000  0.59439500  0.21424000  1
  H  H12  1  0.83555100  0.53165100  0.33005300  1
  H  H13  1  0.33555100  0.46834900  0.16994700  1
  H  H14  1  0.92133900  0.56502100  0.77285000  1
  H  H15  1  0.64437600  0.84702900  0.35642200  1
  H  H16  1  0.56556400  0.54400300  0.14507700  1
  H  H17  1  0.71134100  0.32834400  0.91496900  1
  H  H18  1  0.73058300  0.77852400  0.96590800  1
  H  H19  1  0.78937400  0.98455900  0.98783900  1
  H  H20  1  0.10572800  0.87896500  0.58376700  1
  H  H21  1  0.39427200  0.87896500  0.08376700  1
  H  H22  1  0.64849800  0.51702200  0.65057000  1
  H  H23  1  0.92432200  0.35656000  0.15711100  1
  H  H24  1  0.48001100  0.17067200  0.83738500  1
  H  H25  1  0.49935000  0.40560500  0.28576000  1
  H  H26  1  0.50596900  0.81932700  0.02979900  1
  H  H27  1  0.78865900  0.32834400  0.41496900  1
  H  H28  1  0.49403100  0.18067300  0.97020100  1
  H  H29  1  0.63794800  0.11947500  0.58174100  1
  H  H30  1  0.09778600  0.61304100  0.53438500  1
  H  H31  1  0.07567800  0.64344000  0.84288900  1
  H  H32  1  0.99403100  0.81932700  0.52979900  1
  H  H33  1  0.98001100  0.82932800  0.66261500  1
  H  H34  1  0.07866100  0.43497900  0.22715000  1
  H  H35  1  0.30070400  0.68617400  0.26310400  1
  H  H36  1  0.93443600  0.54400300  0.64507700  1
  H  H37  1  0.80070400  0.31382600  0.23689600  1
  H  H38  1  0.66444900  0.53165100  0.83005300  1
  H  H39  1  0.35150200  0.48297800  0.34943000  1
  H  H40  1  0.14849800  0.48297800  0.84943000  1
  H  H41  1  0.85562400  0.84702900  0.85642200  1
  H  H42  1  0.85150200  0.51702200  0.15057000  1
  H  H43  1  0.86205200  0.11947500  0.08174100  1
  H  H44  1  0.57567800  0.35656000  0.65711100  1
  H  H45  1  0.28865900  0.67165600  0.08503100  1
  H  H46  1  0.26941700  0.22147600  0.03409200  1
  H  H47  1  0.71062600  0.98455900  0.48783900  1
  H  H48  1  0.14437600  0.15297100  0.14357800  1
  H  H49  1  0.43443600  0.45599700  0.85492300  1
  H  H50  1  0.51998900  0.82932800  0.16261500  1
  H  H51  1  0.69929600  0.31382600  0.73689600  1
  H  H52  1  0.57866100  0.56502100  0.27285000  1
  H  H53  1  0.60572800  0.12103500  0.91623300  1
  H  H54  1  0.21062600  0.01544100  0.01216100  1
  H  H55  1  0.59778600  0.38695900  0.96561500  1
  H  H56  1  0.36205200  0.88052500  0.41825900  1
  H  H57  1  0.19929600  0.68617400  0.76310400  1
  H  H58  1  0.23058300  0.22147600  0.53409200  1
  H  H59  1  0.06556400  0.45599700  0.35492300  1
  H  H60  1  0.21134100  0.67165600  0.58503100  1
  H  H61  1  0.16444900  0.46834900  0.66994700  1
  H  H62  1  0.35562400  0.15297100  0.64357800  1
  H  H63  1  0.28937400  0.01544100  0.51216100  1
  H  H64  1  0.42133900  0.43497900  0.72715000  1
  H  H65  1  0.00065000  0.40560500  0.78576000  1
  C  C66  1  0.85831700  0.40683400  0.38656200  1
  C  C67  1  0.03448400  0.80431700  0.60928600  1
  C  C68  1  0.37134200  0.60964000  0.29340000  1
  C  C69  1  0.96551600  0.19568300  0.39071400  1
  C  C70  1  0.64168300  0.40683400  0.88656200  1
  C  C71  1  0.62865800  0.39036000  0.70660000  1
  C  C72  1  0.53448400  0.19568300  0.89071400  1
  C  C73  1  0.12865800  0.60964000  0.79340000  1
  C  C74  1  0.46551600  0.80431700  0.10928600  1
  C  C75  1  0.14168300  0.59316600  0.61343800  1
  C  C76  1  0.35831700  0.59316600  0.11343800  1
  C  C77  1  0.02580600  0.47171200  0.27485300  1
  C  C78  1  0.87134200  0.39036000  0.20660000  1
  C  C79  1  0.97419400  0.52828800  0.72514700  1
  C  C80  1  0.52580600  0.52828800  0.22514700  1
  C  C81  1  0.47419400  0.47171200  0.77485300  1
  S  S82  1  0.19063300  0.13956100  0.72142200  1
  S  S83  1  0.89050700  0.82180100  0.99548900  1
  S  S84  1  0.39050700  0.17819900  0.50451100  1
  S  S85  1  0.60949300  0.82180100  0.49548900  1
  S  S86  1  0.69063300  0.86043900  0.77857800  1
  S  S87  1  0.80936700  0.86043900  0.27857800  1
  S  S88  1  0.10949300  0.17819900  0.00451100  1
  S  S89  1  0.30936700  0.13956100  0.22142200  1
  N  N90  1  0.43004600  0.63463200  0.18483300  1
  N  N91  1  0.06995400  0.63463200  0.68483300  1
  N  N92  1  0.93004600  0.36536800  0.31516700  1
  N  N93  1  0.56995400  0.36536800  0.81516700  1
  O  O94  1  0.81569300  0.84100500  0.78150600  1
  O  O95  1  0.26141600  0.91870300  0.51101700  1
  O  O96  1  0.31569300  0.15899500  0.71849400  1
  O  O97  1  0.66355400  0.03086700  0.72802400  1
  O  O98  1  0.66423800  0.77220200  0.92421000  1
  O  O99  1  0.18430700  0.15899500  0.21849400  1
  O  O100  1  0.86478700  0.14853000  0.99505900  1
  O  O101  1  0.63521300  0.14853000  0.49505900  1
  O  O102  1  0.33644600  0.96913300  0.27197600  1
  O  O103  1  0.33576200  0.22779800  0.07579000  1
  O  O104  1  0.83644600  0.03086700  0.22802400  1
  O  O105  1  0.16355400  0.96913300  0.77197600  1
  O  O106  1  0.16423800  0.22779800  0.57579000  1
  O  O107  1  0.76141600  0.08129700  0.98898300  1
  O  O108  1  0.13521300  0.85147000  0.00494100  1
  O  O109  1  0.23858400  0.91870300  0.01101700  1
  O  O110  1  0.73858400  0.08129700  0.48898300  1
  O  O111  1  0.36478700  0.85147000  0.50494100  1
  O  O112  1  0.83576200  0.77220200  0.42421000  1
  O  O113  1  0.68430700  0.84100500  0.28150600  1
