# generated using pymatgen
data_V2(OF)3
_symmetry_space_group_name_H-M   'P 1'
_cell_length_a   5.15366175
_cell_length_b   5.15366175
_cell_length_c   9.07996231
_cell_angle_alpha   77.48489942
_cell_angle_beta   77.48489942
_cell_angle_gamma   62.37561888
_symmetry_Int_Tables_number   1
_chemical_formula_structural   V2(OF)3
_chemical_formula_sum   'V4 O6 F6'
_cell_volume   206.70576075
_cell_formula_units_Z   2
loop_
 _symmetry_equiv_pos_site_id
 _symmetry_equiv_pos_as_xyz
  1  'x, y, z'
loop_
 _atom_site_type_symbol
 _atom_site_label
 _atom_site_symmetry_multiplicity
 _atom_site_fract_x
 _atom_site_fract_y
 _atom_site_fract_z
 _atom_site_occupancy
  V  V0  1  0.99942200  0.25037100  0.62688000  1
  V  V1  1  0.74962900  0.00057800  0.37312000  1
  V  V2  1  0.45063600  0.75696600  0.13707800  1
  V  V3  1  0.24303400  0.54936400  0.86292200  1
  O  O4  1  0.94509800  0.05490200  0.50000000  1
  O  O5  1  0.45543800  0.54456200  0.00000000  1
  O  O6  1  0.57178000  0.93646000  0.24491500  1
  O  O7  1  0.06354000  0.42822000  0.75508500  1
  O  O8  1  0.13583400  0.79290200  0.24664300  1
  O  O9  1  0.20709800  0.86416600  0.75335700  1
  F  F10  1  0.71264700  0.38297400  0.24418200  1
  F  F11  1  0.61702600  0.28735300  0.75581800  1
  F  F12  1  0.77771900  0.63074800  0.50430000  1
  F  F13  1  0.89621700  0.69436900  0.99634900  1
  F  F14  1  0.36925200  0.22228100  0.49570000  1
  F  F15  1  0.30563100  0.10378300  0.00365100  1
