# generated using pymatgen
data_Mn3(OF2)2
_symmetry_space_group_name_H-M   'P 1'
_cell_length_a   4.79115400
_cell_length_b   7.98794736
_cell_length_c   5.73564320
_cell_angle_alpha   92.53417498
_cell_angle_beta   90.00009581
_cell_angle_gamma   89.99978741
_symmetry_Int_Tables_number   1
_chemical_formula_structural   Mn3(OF2)2
_chemical_formula_sum   'Mn6 O4 F8'
_cell_volume   219.29691168
_cell_formula_units_Z   2
loop_
 _symmetry_equiv_pos_site_id
 _symmetry_equiv_pos_as_xyz
  1  'x, y, z'
loop_
 _atom_site_type_symbol
 _atom_site_label
 _atom_site_symmetry_multiplicity
 _atom_site_fract_x
 _atom_site_fract_y
 _atom_site_fract_z
 _atom_site_occupancy
  Mn  Mn0  1  0.46111600  0.99017200  0.49746200  1
  Mn  Mn1  1  0.49994500  0.66665500  0.16668000  1
  Mn  Mn2  1  0.53887300  0.34315500  0.83588200  1
  Mn  Mn3  1  0.99998400  0.66668400  0.66662700  1
  Mn  Mn4  1  0.96114900  0.34314700  0.33587700  1
  Mn  Mn5  1  0.03887000  0.99018200  0.99745000  1
  O  O6  1  0.81396700  0.44932700  0.62927100  1
  O  O7  1  0.68604400  0.44932700  0.12927100  1
  O  O8  1  0.31396900  0.88400800  0.20406900  1
  O  O9  1  0.18604500  0.88400800  0.70406500  1
  F  F10  1  0.78919800  0.76403100  0.96952300  1
  F  F11  1  0.80264800  0.09167800  0.29347400  1
  F  F12  1  0.69735900  0.09167800  0.79347200  1
  F  F13  1  0.71081200  0.76403100  0.46952300  1
  F  F14  1  0.28920200  0.56930400  0.86381400  1
  F  F15  1  0.30265100  0.24165500  0.53986400  1
  F  F16  1  0.21080900  0.56930400  0.36381400  1
  F  F17  1  0.19736000  0.24165500  0.03986400  1
