# generated using pymatgen
data_CaZn2(PO5)2
_symmetry_space_group_name_H-M   'P 1'
_cell_length_a   9.56812857
_cell_length_b   9.56812857
_cell_length_c   6.72563640
_cell_angle_alpha   73.29364796
_cell_angle_beta   73.29364796
_cell_angle_gamma   46.81752523
_symmetry_Int_Tables_number   1
_chemical_formula_structural   CaZn2(PO5)2
_chemical_formula_sum   'Ca2 Zn4 P4 O20'
_cell_volume   426.37734448
_cell_formula_units_Z   2
loop_
 _symmetry_equiv_pos_site_id
 _symmetry_equiv_pos_as_xyz
  1  'x, y, z'
loop_
 _atom_site_type_symbol
 _atom_site_label
 _atom_site_symmetry_multiplicity
 _atom_site_fract_x
 _atom_site_fract_y
 _atom_site_fract_z
 _atom_site_occupancy
  Ca  Ca0  1  0.38394500  0.61605500  0.25000000  1
  Ca  Ca1  1  0.61605500  0.38394500  0.75000000  1
  Zn  Zn2  1  0.20831100  0.22103000  0.52888800  1
  Zn  Zn3  1  0.77897000  0.79168900  0.97111200  1
  Zn  Zn4  1  0.79168900  0.77897000  0.47111200  1
  Zn  Zn5  1  0.22103000  0.20831100  0.02888800  1
  P  P6  1  0.82990200  0.46684600  0.32674900  1
  P  P7  1  0.53315400  0.17009800  0.17325100  1
  P  P8  1  0.17009800  0.53315400  0.67325100  1
  P  P9  1  0.46684600  0.82990200  0.82674900  1
  O  O10  1  0.64064500  0.50245300  0.38942400  1
  O  O11  1  0.49754700  0.35935500  0.11057600  1
  O  O12  1  0.35935500  0.49754700  0.61057600  1
  O  O13  1  0.50245300  0.64064500  0.88942400  1
  O  O14  1  0.78070400  0.66858300  0.26858400  1
  O  O15  1  0.33141700  0.21929600  0.23141600  1
  O  O16  1  0.21929600  0.33141700  0.73141600  1
  O  O17  1  0.66858300  0.78070400  0.76858400  1
  O  O18  1  0.05049000  0.64507700  0.86258100  1
  O  O19  1  0.35492300  0.94951000  0.63741900  1
  O  O20  1  0.94951000  0.35492300  0.13741900  1
  O  O21  1  0.64507700  0.05049000  0.36258100  1
  O  O22  1  0.03737200  0.91814100  0.04650700  1
  O  O23  1  0.08185900  0.96262800  0.45349300  1
  O  O24  1  0.96262800  0.08185900  0.95349300  1
  O  O25  1  0.91814100  0.03737200  0.54650700  1
  O  O26  1  0.93402900  0.35983200  0.52687000  1
  O  O27  1  0.64016800  0.06597100  0.97313000  1
  O  O28  1  0.06597100  0.64016800  0.47313000  1
  O  O29  1  0.35983200  0.93402900  0.02687000  1
