# generated using pymatgen
data_Ca5(PO4)3
_symmetry_space_group_name_H-M   'P 1'
_cell_length_a   9.54723967
_cell_length_b   9.54723967
_cell_length_c   6.88948900
_cell_angle_alpha   90.00000000
_cell_angle_beta   90.00000000
_cell_angle_gamma   119.99999774
_symmetry_Int_Tables_number   1
_chemical_formula_structural   Ca5(PO4)3
_chemical_formula_sum   'Ca10 P6 O24'
_cell_volume   543.84269970
_cell_formula_units_Z   2
loop_
 _symmetry_equiv_pos_site_id
 _symmetry_equiv_pos_as_xyz
  1  'x, y, z'
loop_
 _atom_site_type_symbol
 _atom_site_label
 _atom_site_symmetry_multiplicity
 _atom_site_fract_x
 _atom_site_fract_y
 _atom_site_fract_z
 _atom_site_occupancy
  Ca  Ca0  1  0.66666700  0.33333300  0.50089200  1
  Ca  Ca1  1  0.33333300  0.66666700  0.00089200  1
  Ca  Ca2  1  0.33333300  0.66666700  0.49910800  1
  Ca  Ca3  1  0.66666700  0.33333300  0.99910800  1
  Ca  Ca4  1  0.74910800  0.75287300  0.25000000  1
  Ca  Ca5  1  0.00376400  0.25089200  0.25000000  1
  Ca  Ca6  1  0.24712700  0.99623600  0.25000000  1
  Ca  Ca7  1  0.25089200  0.24712700  0.75000000  1
  Ca  Ca8  1  0.99623600  0.74910800  0.75000000  1
  Ca  Ca9  1  0.75287300  0.00376400  0.75000000  1
  P  P10  1  0.97020400  0.60104500  0.25000000  1
  P  P11  1  0.63084100  0.02979600  0.25000000  1
  P  P12  1  0.39895500  0.36915900  0.25000000  1
  P  P13  1  0.02979600  0.39895500  0.75000000  1
  P  P14  1  0.36915900  0.97020400  0.75000000  1
  P  P15  1  0.60104500  0.63084100  0.75000000  1
  O  O16  1  0.15595000  0.67136100  0.25000000  1
  O  O17  1  0.51541100  0.84405000  0.25000000  1
  O  O18  1  0.32863900  0.48458900  0.25000000  1
  O  O19  1  0.84405000  0.32863900  0.75000000  1
  O  O20  1  0.48458900  0.15595000  0.75000000  1
  O  O21  1  0.67136100  0.51541100  0.75000000  1
  O  O22  1  0.87800400  0.41193700  0.25000000  1
  O  O23  1  0.53393300  0.12199600  0.25000000  1
  O  O24  1  0.58806300  0.46606700  0.25000000  1
  O  O25  1  0.12199600  0.58806300  0.75000000  1
  O  O26  1  0.46606700  0.87800400  0.75000000  1
  O  O27  1  0.41193700  0.53393300  0.75000000  1
  O  O28  1  0.91428100  0.65715000  0.43088200  1
  O  O29  1  0.74286900  0.08571900  0.43088200  1
  O  O30  1  0.34285000  0.25713100  0.43088200  1
  O  O31  1  0.08571900  0.34285000  0.93088200  1
  O  O32  1  0.25713100  0.91428100  0.93088200  1
  O  O33  1  0.65715000  0.74286900  0.93088200  1
  O  O34  1  0.08571900  0.34285000  0.56911800  1
  O  O35  1  0.25713100  0.91428100  0.56911800  1
  O  O36  1  0.65715000  0.74286900  0.56911800  1
  O  O37  1  0.91428100  0.65715000  0.06911800  1
  O  O38  1  0.74286900  0.08571900  0.06911800  1
  O  O39  1  0.34285000  0.25713100  0.06911800  1
