# generated using pymatgen
data_WOF4
_symmetry_space_group_name_H-M   'P 1'
_cell_length_a   8.79526820
_cell_length_b   8.79526820
_cell_length_c   8.79526820
_cell_angle_alpha   98.15433182
_cell_angle_beta   98.15433182
_cell_angle_gamma   135.75148637
_symmetry_Int_Tables_number   1
_chemical_formula_structural   WOF4
_chemical_formula_sum   'W4 O4 F16'
_cell_volume   439.78950634
_cell_formula_units_Z   4
loop_
 _symmetry_equiv_pos_site_id
 _symmetry_equiv_pos_as_xyz
  1  'x, y, z'
loop_
 _atom_site_type_symbol
 _atom_site_label
 _atom_site_symmetry_multiplicity
 _atom_site_fract_x
 _atom_site_fract_y
 _atom_site_fract_z
 _atom_site_occupancy
  W  W0  1  0.93547700  0.75557300  0.72077300  1
  W  W1  1  0.78529500  0.06452300  0.82009600  1
  W  W2  1  0.24442700  0.96519900  0.17990400  1
  W  W3  1  0.03480100  0.21470500  0.27922700  1
  O  O4  1  0.08808400  0.85866400  0.94970700  1
  O  O5  1  0.14133600  0.09104300  0.22942000  1
  O  O6  1  0.86162300  0.91191600  0.77058000  1
  O  O7  1  0.90895700  0.13837700  0.05029300  1
  F  F8  1  0.65284000  0.48254900  0.73261500  1
  F  F9  1  0.21778600  0.02610500  0.70628000  1
  F  F10  1  0.71161600  0.21636900  0.87312200  1
  F  F11  1  0.78363100  0.65675300  0.49524700  1
  F  F12  1  0.00727000  0.60197100  0.67019500  1
  F  F13  1  0.39802900  0.06822400  0.40529900  1
  F  F14  1  0.48849400  0.78221400  0.80831900  1
  F  F15  1  0.07977500  0.34716000  0.82970900  1
  F  F16  1  0.51745100  0.25006600  0.17029100  1
  F  F17  1  0.97389500  0.68017500  0.19168100  1
  F  F18  1  0.66292500  0.99273000  0.59470100  1
  F  F19  1  0.93177600  0.33707500  0.32980500  1
  F  F20  1  0.16150600  0.28838400  0.50475300  1
  F  F21  1  0.34324700  0.83849400  0.12687800  1
  F  F22  1  0.31982500  0.51150600  0.29372000  1
  F  F23  1  0.74993400  0.92022500  0.26738500  1
