# generated using pymatgen
data_BrO3
_symmetry_space_group_name_H-M   'P 1'
_cell_length_a   7.49442244
_cell_length_b   7.49442244
_cell_length_c   3.57303100
_cell_angle_alpha   90.00000000
_cell_angle_beta   90.00000000
_cell_angle_gamma   124.28753873
_symmetry_Int_Tables_number   1
_chemical_formula_structural   BrO3
_chemical_formula_sum   'Br2 O6'
_cell_volume   165.80944530
_cell_formula_units_Z   2
loop_
 _symmetry_equiv_pos_site_id
 _symmetry_equiv_pos_as_xyz
  1  'x, y, z'
loop_
 _atom_site_type_symbol
 _atom_site_label
 _atom_site_symmetry_multiplicity
 _atom_site_fract_x
 _atom_site_fract_y
 _atom_site_fract_z
 _atom_site_occupancy
  Br  Br0  1  0.52420800  0.47579200  0.50000000  1
  Br  Br1  1  0.02420800  0.97579200  0.00000000  1
  O  O2  1  0.08180300  0.91819700  0.50000000  1
  O  O3  1  0.58180300  0.41819700  0.00000000  1
  O  O4  1  0.23046900  0.63198100  0.89276300  1
  O  O5  1  0.36801900  0.76953100  0.10723700  1
  O  O6  1  0.73046900  0.13198100  0.60723700  1
  O  O7  1  0.86801900  0.26953100  0.39276300  1
