# generated using pymatgen
data_Fe4O3F5
_symmetry_space_group_name_H-M   'P 1'
_cell_length_a   4.82253900
_cell_length_b   6.20052101
_cell_length_c   9.63412363
_cell_angle_alpha   89.64999111
_cell_angle_beta   87.54427985
_cell_angle_gamma   89.79415866
_symmetry_Int_Tables_number   1
_chemical_formula_structural   Fe4O3F5
_chemical_formula_sum   'Fe8 O6 F10'
_cell_volume   287.81048109
_cell_formula_units_Z   2
loop_
 _symmetry_equiv_pos_site_id
 _symmetry_equiv_pos_as_xyz
  1  'x, y, z'
loop_
 _atom_site_type_symbol
 _atom_site_label
 _atom_site_symmetry_multiplicity
 _atom_site_fract_x
 _atom_site_fract_y
 _atom_site_fract_z
 _atom_site_occupancy
  Fe  Fe0  1  0.01591900  0.00601500  0.98259600  1
  Fe  Fe1  1  0.95078900  0.48825100  0.01161800  1
  Fe  Fe2  1  0.02889200  0.00174600  0.48686700  1
  Fe  Fe3  1  0.98983800  0.49855200  0.50615300  1
  Fe  Fe4  1  0.48010600  0.26148300  0.25753300  1
  Fe  Fe5  1  0.47743400  0.74070400  0.25488200  1
  Fe  Fe6  1  0.53682600  0.25178500  0.76397100  1
  Fe  Fe7  1  0.50535100  0.75024100  0.74686500  1
  O  O8  1  0.80802400  0.26063000  0.90393500  1
  O  O9  1  0.68085500  0.50205900  0.16012600  1
  O  O10  1  0.69195200  0.50265700  0.65266900  1
  O  O11  1  0.32460000  0.00035600  0.33527000  1
  O  O12  1  0.28375300  0.50120300  0.35645100  1
  O  O13  1  0.33674100  0.99626900  0.83221500  1
  F  F14  1  0.79687800  0.25839500  0.40263200  1
  F  F15  1  0.79780500  0.74269500  0.40442200  1
  F  F16  1  0.80011900  0.73478700  0.89762300  1
  F  F17  1  0.70292900  0.99490900  0.15043100  1
  F  F18  1  0.71360900  0.99953800  0.64416200  1
  F  F19  1  0.29706900  0.50455500  0.85288700  1
  F  F20  1  0.19651400  0.74116600  0.60241300  1
  F  F21  1  0.18655200  0.73667000  0.09224400  1
  F  F22  1  0.19667100  0.26077100  0.60230700  1
  F  F23  1  0.20077200  0.26456500  0.09973100  1
