# generated using pymatgen
data_V3Cr3(TeO8)2
_symmetry_space_group_name_H-M   'P 1'
_cell_length_a   5.90731712
_cell_length_b   5.90731712
_cell_length_c   9.43102559
_cell_angle_alpha   89.09570836
_cell_angle_beta   89.09570836
_cell_angle_gamma   60.15278620
_symmetry_Int_Tables_number   1
_chemical_formula_structural   V3Cr3(TeO8)2
_chemical_formula_sum   'V3 Cr3 Te2 O16'
_cell_volume   285.40689384
_cell_formula_units_Z   1
loop_
 _symmetry_equiv_pos_site_id
 _symmetry_equiv_pos_as_xyz
  1  'x, y, z'
loop_
 _atom_site_type_symbol
 _atom_site_label
 _atom_site_symmetry_multiplicity
 _atom_site_fract_x
 _atom_site_fract_y
 _atom_site_fract_z
 _atom_site_occupancy
  V  V0  1  0.82712500  0.82712500  0.77588200  1
  V  V1  1  0.65047000  0.17979000  0.27894500  1
  V  V2  1  0.17979000  0.65047000  0.27894500  1
  Cr  Cr3  1  0.83117400  0.34282700  0.78880800  1
  Cr  Cr4  1  0.34282700  0.83117400  0.78880800  1
  Cr  Cr5  1  0.17031200  0.17031200  0.29254000  1
  Te  Te6  1  0.66385100  0.66385100  0.50852800  1
  Te  Te7  1  0.33225400  0.33225400  0.00452400  1
  O  O8  1  0.82721700  0.33918400  0.40116900  1
  O  O9  1  0.52193300  0.52193300  0.66440600  1
  O  O10  1  0.67563200  0.67563200  0.89274700  1
  O  O11  1  0.99714300  0.99714300  0.70338100  1
  O  O12  1  0.99933700  0.99933700  0.20911500  1
  O  O13  1  0.33918400  0.82721700  0.40116900  1
  O  O14  1  0.96097600  0.52396000  0.65570700  1
  O  O15  1  0.52396000  0.96097600  0.65570700  1
  O  O16  1  0.16684400  0.16684400  0.90204700  1
  O  O17  1  0.82784000  0.82784000  0.39707800  1
  O  O18  1  0.48099800  0.04347800  0.16172200  1
  O  O19  1  0.04347800  0.48099800  0.16172200  1
  O  O20  1  0.33769100  0.33769100  0.39768700  1
  O  O21  1  0.66039400  0.16886000  0.89856000  1
  O  O22  1  0.48109800  0.48109800  0.15191700  1
  O  O23  1  0.16886000  0.66039400  0.89856000  1
