# generated using pymatgen
data_VO2F
_symmetry_space_group_name_H-M   'P 1'
_cell_length_a   5.21394405
_cell_length_b   5.21394405
_cell_length_c   5.22700785
_cell_angle_alpha   62.42320468
_cell_angle_beta   62.42320468
_cell_angle_gamma   57.94290995
_symmetry_Int_Tables_number   1
_chemical_formula_structural   VO2F
_chemical_formula_sum   'V2 O4 F2'
_cell_volume   102.18812315
_cell_formula_units_Z   2
loop_
 _symmetry_equiv_pos_site_id
 _symmetry_equiv_pos_as_xyz
  1  'x, y, z'
loop_
 _atom_site_type_symbol
 _atom_site_label
 _atom_site_symmetry_multiplicity
 _atom_site_fract_x
 _atom_site_fract_y
 _atom_site_fract_z
 _atom_site_occupancy
  V  V0  1  0.76656400  0.23766800  0.80950000  1
  V  V1  1  0.23766800  0.76656400  0.30950000  1
  O  O2  1  0.86280400  0.54113300  0.61318600  1
  O  O3  1  0.04388300  0.96284600  0.60295800  1
  O  O4  1  0.54113300  0.86280400  0.11318600  1
  O  O5  1  0.96284600  0.04388300  0.10295800  1
  F  F6  1  0.45347400  0.37405900  0.61070800  1
  F  F7  1  0.37405900  0.45347400  0.11070800  1
