# generated using pymatgen
data_Mg11Mn2O13
_symmetry_space_group_name_H-M   'P 1'
_cell_length_a   5.26696711
_cell_length_b   19.97259062
_cell_length_c   5.26696711
_cell_angle_alpha   97.57678959
_cell_angle_beta   70.46645065
_cell_angle_gamma   92.52680621
_symmetry_Int_Tables_number   1
_chemical_formula_structural   Mg11Mn2O13
_chemical_formula_sum   'Mg22 Mn4 O26'
_cell_volume   517.61108533
_cell_formula_units_Z   2
loop_
 _symmetry_equiv_pos_site_id
 _symmetry_equiv_pos_as_xyz
  1  'x, y, z'
loop_
 _atom_site_type_symbol
 _atom_site_label
 _atom_site_symmetry_multiplicity
 _atom_site_fract_x
 _atom_site_fract_y
 _atom_site_fract_z
 _atom_site_occupancy
  Mg  Mg0  1  0.50000000  0.30769200  0.65384600  1
  Mg  Mg1  1  0.00000000  0.30769200  0.15384600  1
  Mg  Mg2  1  0.50000000  0.15603900  0.57801900  1
  Mg  Mg3  1  0.00000000  0.15603900  0.07801900  1
  Mg  Mg4  1  0.50000000  0.45934600  0.72967300  1
  Mg  Mg5  1  0.00000000  0.45934600  0.22967300  1
  Mg  Mg6  1  0.50000000  0.77063500  0.88531800  1
  Mg  Mg7  1  0.00000000  0.77063500  0.38531800  1
  Mg  Mg8  1  0.50000000  0.84475000  0.42237500  1
  Mg  Mg9  1  0.00000000  0.84475000  0.92237500  1
  Mg  Mg10  1  0.50000000  0.92174400  0.96087100  1
  Mg  Mg11  1  0.00000000  0.92174400  0.46087100  1
  Mg  Mg12  1  0.50000000  0.69364100  0.34682100  1
  Mg  Mg13  1  0.00000000  0.69364100  0.84682100  1
  Mg  Mg14  1  0.50000000  0.23150800  0.11575400  1
  Mg  Mg15  1  0.00000000  0.23150800  0.61575400  1
  Mg  Mg16  1  0.50000000  0.38387700  0.19193800  1
  Mg  Mg17  1  0.00000000  0.38387700  0.69193800  1
  Mg  Mg18  1  0.50000000  0.07915600  0.03957800  1
  Mg  Mg19  1  0.00000000  0.07915600  0.53957800  1
  Mg  Mg20  1  0.50000000  0.53622900  0.26811400  1
  Mg  Mg21  1  0.00000000  0.53622900  0.76811400  1
  Mn  Mn22  1  0.00000000  0.61521800  0.30760900  1
  Mn  Mn23  1  0.50000000  0.00016600  0.50008300  1
  Mn  Mn24  1  0.50000000  0.61521800  0.80760900  1
  Mn  Mn25  1  0.00000000  0.00016600  0.00008300  1
  O  O26  1  0.75000000  0.30769200  0.90384600  1
  O  O27  1  0.25000000  0.30769200  0.40384600  1
  O  O28  1  0.25000000  0.08222800  0.79111400  1
  O  O29  1  0.75000000  0.08222800  0.29111400  1
  O  O30  1  0.25000000  0.53315700  0.01657800  1
  O  O31  1  0.75000000  0.53315700  0.51657800  1
  O  O32  1  0.25000000  0.38348200  0.94174000  1
  O  O33  1  0.75000000  0.38348200  0.44174000  1
  O  O34  1  0.25000000  0.23190300  0.86595200  1
  O  O35  1  0.75000000  0.23190300  0.36595200  1
  O  O36  1  0.25000000  0.69716900  0.09858400  1
  O  O37  1  0.75000000  0.69716900  0.59858400  1
  O  O38  1  0.75000000  0.91821600  0.20910900  1
  O  O39  1  0.25000000  0.91821600  0.70910900  1
  O  O40  1  0.25000000  0.84650100  0.17325100  1
  O  O41  1  0.75000000  0.84650100  0.67325100  1
  O  O42  1  0.75000000  0.76888300  0.13444200  1
  O  O43  1  0.25000000  0.76888300  0.63444200  1
  O  O44  1  0.75000000  0.46039300  0.98019700  1
  O  O45  1  0.25000000  0.46039300  0.48019700  1
  O  O46  1  0.75000000  0.15499200  0.82749500  1
  O  O47  1  0.25000000  0.15499200  0.32749500  1
  O  O48  1  0.75000000  0.61502500  0.05751300  1
  O  O49  1  0.25000000  0.61502500  0.55751300  1
  O  O50  1  0.75000000  0.00036000  0.75017900  1
  O  O51  1  0.25000000  0.00036000  0.25017900  1
