# generated using pymatgen
data_Mg(FeO2)2
_symmetry_space_group_name_H-M   'P 1'
_cell_length_a   6.04034841
_cell_length_b   6.04034841
_cell_length_c   6.04034912
_cell_angle_alpha   59.99469709
_cell_angle_beta   59.99469709
_cell_angle_gamma   59.99469437
_symmetry_Int_Tables_number   1
_chemical_formula_structural   Mg(FeO2)2
_chemical_formula_sum   'Mg2 Fe4 O8'
_cell_volume   155.81841894
_cell_formula_units_Z   2
loop_
 _symmetry_equiv_pos_site_id
 _symmetry_equiv_pos_as_xyz
  1  'x, y, z'
loop_
 _atom_site_type_symbol
 _atom_site_label
 _atom_site_symmetry_multiplicity
 _atom_site_fract_x
 _atom_site_fract_y
 _atom_site_fract_z
 _atom_site_occupancy
  Mg  Mg0  1  0.00346500  0.00346500  0.00346500  1
  Mg  Mg1  1  0.62611200  0.62611200  0.62611200  1
  Fe  Fe2  1  0.24593300  0.24593300  0.24593300  1
  Fe  Fe3  1  0.62711000  0.62711000  0.11612700  1
  Fe  Fe4  1  0.11612700  0.62711000  0.62711000  1
  Fe  Fe5  1  0.62711000  0.11612700  0.62711000  1
  O  O6  1  0.37947700  0.85334300  0.37947700  1
  O  O7  1  0.85334300  0.37947700  0.37947700  1
  O  O8  1  0.37947700  0.37947700  0.85334300  1
  O  O9  1  0.38019500  0.38019500  0.38019500  1
  O  O10  1  0.86700600  0.86700600  0.86700600  1
  O  O11  1  0.86941300  0.86941300  0.40582000  1
  O  O12  1  0.40582000  0.86941300  0.86941300  1
  O  O13  1  0.86941300  0.40582000  0.86941300  1
