# generated using pymatgen
data_Ba2CaI6
_symmetry_space_group_name_H-M   'P 1'
_cell_length_a   9.21973899
_cell_length_b   9.21973899
_cell_length_c   10.20515559
_cell_angle_alpha   88.64684546
_cell_angle_beta   88.64684546
_cell_angle_gamma   119.26140957
_symmetry_Int_Tables_number   1
_chemical_formula_structural   Ba2CaI6
_chemical_formula_sum   'Ba4 Ca2 I12'
_cell_volume   755.95790016
_cell_formula_units_Z   2
loop_
 _symmetry_equiv_pos_site_id
 _symmetry_equiv_pos_as_xyz
  1  'x, y, z'
loop_
 _atom_site_type_symbol
 _atom_site_label
 _atom_site_symmetry_multiplicity
 _atom_site_fract_x
 _atom_site_fract_y
 _atom_site_fract_z
 _atom_site_occupancy
  Ba  Ba0  1  0.39339300  0.72020000  0.51277000  1
  Ba  Ba1  1  0.27980000  0.60660700  0.98723000  1
  Ba  Ba2  1  0.72020000  0.39339300  0.01277000  1
  Ba  Ba3  1  0.60660700  0.27980000  0.48723000  1
  Ca  Ca4  1  0.04798600  0.95201400  0.75000000  1
  Ca  Ca5  1  0.95201400  0.04798600  0.25000000  1
  I  I6  1  0.65635300  0.69736200  0.84274200  1
  I  I7  1  0.43783600  0.01001600  0.78557000  1
  I  I8  1  0.18312900  0.94692200  0.45065500  1
  I  I9  1  0.05307800  0.81687100  0.04934500  1
  I  I10  1  0.98998400  0.56216400  0.71443000  1
  I  I11  1  0.30263800  0.34364700  0.65725800  1
  I  I12  1  0.69736200  0.65635300  0.34274200  1
  I  I13  1  0.01001600  0.43783600  0.28557000  1
  I  I14  1  0.94692200  0.18312900  0.95065500  1
  I  I15  1  0.81687100  0.05307800  0.54934500  1
  I  I16  1  0.56216400  0.98998400  0.21443000  1
  I  I17  1  0.34364700  0.30263800  0.15725800  1
