# generated using pymatgen
data_FeCo3O8
_symmetry_space_group_name_H-M   'P 1'
_cell_length_a   5.80224410
_cell_length_b   5.80224410
_cell_length_c   5.80224380
_cell_angle_alpha   59.78991065
_cell_angle_beta   59.78991065
_cell_angle_gamma   59.78991818
_symmetry_Int_Tables_number   1
_chemical_formula_structural   FeCo3O8
_chemical_formula_sum   'Fe1 Co3 O8'
_cell_volume   137.46643375
_cell_formula_units_Z   1
loop_
 _symmetry_equiv_pos_site_id
 _symmetry_equiv_pos_as_xyz
  1  'x, y, z'
loop_
 _atom_site_type_symbol
 _atom_site_label
 _atom_site_symmetry_multiplicity
 _atom_site_fract_x
 _atom_site_fract_y
 _atom_site_fract_z
 _atom_site_occupancy
  Fe  Fe0  1  0.00000000  0.00000000  0.00000000  1
  Co  Co1  1  0.50000000  0.00000000  0.50000000  1
  Co  Co2  1  0.50000000  0.50000000  0.00000000  1
  Co  Co3  1  0.00000000  0.50000000  0.50000000  1
  O  O4  1  0.28089400  0.76123700  0.76123700  1
  O  O5  1  0.76123700  0.76123700  0.28089400  1
  O  O6  1  0.76123700  0.28089400  0.76123700  1
  O  O7  1  0.26632700  0.26632700  0.26632700  1
  O  O8  1  0.73367300  0.73367300  0.73367300  1
  O  O9  1  0.23876300  0.71910600  0.23876300  1
  O  O10  1  0.23876300  0.23876300  0.71910600  1
  O  O11  1  0.71910600  0.23876300  0.23876300  1
