# generated using pymatgen
data_BaO2
_symmetry_space_group_name_H-M   'P 1'
_cell_length_a   7.89362200
_cell_length_b   7.88823800
_cell_length_c   8.22729495
_cell_angle_alpha   60.20801183
_cell_angle_beta   90.00000000
_cell_angle_gamma   90.00000000
_symmetry_Int_Tables_number   1
_chemical_formula_structural   BaO2
_chemical_formula_sum   'Ba8 O16'
_cell_volume   444.58062118
_cell_formula_units_Z   8
loop_
 _symmetry_equiv_pos_site_id
 _symmetry_equiv_pos_as_xyz
  1  'x, y, z'
loop_
 _atom_site_type_symbol
 _atom_site_label
 _atom_site_symmetry_multiplicity
 _atom_site_fract_x
 _atom_site_fract_y
 _atom_site_fract_z
 _atom_site_occupancy
  Ba  Ba0  1  0.14692300  0.48938600  0.68927100  1
  Ba  Ba1  1  0.35307700  0.48938600  0.18927100  1
  Ba  Ba2  1  0.85307700  0.51061400  0.31072900  1
  Ba  Ba3  1  0.64692300  0.51061400  0.81072900  1
  Ba  Ba4  1  0.01217500  0.95739600  0.76977000  1
  Ba  Ba5  1  0.48782500  0.95739600  0.26977000  1
  Ba  Ba6  1  0.98782500  0.04260400  0.23023000  1
  Ba  Ba7  1  0.51217500  0.04260400  0.73023000  1
  O  O8  1  0.89158200  0.77363900  0.59373600  1
  O  O9  1  0.60841800  0.77363900  0.09373600  1
  O  O10  1  0.10841800  0.22636100  0.40626400  1
  O  O11  1  0.39158200  0.22636100  0.90626400  1
  O  O12  1  0.81321100  0.27890400  0.68926100  1
  O  O13  1  0.68678900  0.27890400  0.18926100  1
  O  O14  1  0.18678900  0.72109600  0.31073900  1
  O  O15  1  0.31321100  0.72109600  0.81073900  1
  O  O16  1  0.89188300  0.22575400  0.87553700  1
  O  O17  1  0.60811700  0.22575400  0.37553700  1
  O  O18  1  0.10811700  0.77424600  0.12446300  1
  O  O19  1  0.39188300  0.77424600  0.62446300  1
  O  O20  1  0.72018700  0.75097800  0.95671600  1
  O  O21  1  0.77981300  0.75097800  0.45671600  1
  O  O22  1  0.27981300  0.24902200  0.04328400  1
  O  O23  1  0.22018700  0.24902200  0.54328400  1
