# generated using pymatgen
data_La(BiO2)2
_symmetry_space_group_name_H-M   'P 1'
_cell_length_a   9.57634060
_cell_length_b   9.57634060
_cell_length_c   9.57634143
_cell_angle_alpha   24.29778447
_cell_angle_beta   24.29778447
_cell_angle_gamma   24.29778134
_symmetry_Int_Tables_number   1
_chemical_formula_structural   La(BiO2)2
_chemical_formula_sum   'La1 Bi2 O4'
_cell_volume   130.70175403
_cell_formula_units_Z   1
loop_
 _symmetry_equiv_pos_site_id
 _symmetry_equiv_pos_as_xyz
  1  'x, y, z'
loop_
 _atom_site_type_symbol
 _atom_site_label
 _atom_site_symmetry_multiplicity
 _atom_site_fract_x
 _atom_site_fract_y
 _atom_site_fract_z
 _atom_site_occupancy
  La  La0  1  0.00000000  0.00000000  0.00000000  1
  Bi  Bi1  1  0.22273100  0.22273100  0.22273100  1
  Bi  Bi2  1  0.77726900  0.77726900  0.77726900  1
  O  O3  1  0.29996100  0.29996100  0.29996100  1
  O  O4  1  0.09569800  0.09569800  0.09569800  1
  O  O5  1  0.70003900  0.70003900  0.70003900  1
  O  O6  1  0.90430200  0.90430200  0.90430200  1
