# generated using pymatgen
data_DyBO3
_symmetry_space_group_name_H-M   'P 1'
_cell_length_a   3.95612473
_cell_length_b   3.95612473
_cell_length_c   8.67106700
_cell_angle_alpha   90.00000000
_cell_angle_beta   90.00000000
_cell_angle_gamma   117.35275219
_symmetry_Int_Tables_number   1
_chemical_formula_structural   DyBO3
_chemical_formula_sum   'Dy2 B2 O6'
_cell_volume   120.53706475
_cell_formula_units_Z   2
loop_
 _symmetry_equiv_pos_site_id
 _symmetry_equiv_pos_as_xyz
  1  'x, y, z'
loop_
 _atom_site_type_symbol
 _atom_site_label
 _atom_site_symmetry_multiplicity
 _atom_site_fract_x
 _atom_site_fract_y
 _atom_site_fract_z
 _atom_site_occupancy
  Dy  Dy0  1  0.05246200  0.05246200  0.00000000  1
  Dy  Dy1  1  0.05246200  0.05246200  0.50000000  1
  B  B2  1  0.50186900  0.75845500  0.25000000  1
  B  B3  1  0.75845500  0.50186900  0.75000000  1
  O  O4  1  0.33356800  0.67486200  0.10357300  1
  O  O5  1  0.33356800  0.67486200  0.39642700  1
  O  O6  1  0.89241100  0.95757400  0.25000000  1
  O  O7  1  0.67486200  0.33356800  0.60357300  1
  O  O8  1  0.67486200  0.33356800  0.89642700  1
  O  O9  1  0.95757400  0.89241100  0.75000000  1
