# generated using pymatgen
data_BaI2O
_symmetry_space_group_name_H-M   'P 1'
_cell_length_a   4.64434600
_cell_length_b   9.81036800
_cell_length_c   12.27275500
_cell_angle_alpha   90.00000000
_cell_angle_beta   90.00000000
_cell_angle_gamma   90.00000000
_symmetry_Int_Tables_number   1
_chemical_formula_structural   BaI2O
_chemical_formula_sum   'Ba4 I8 O4'
_cell_volume   559.18038662
_cell_formula_units_Z   4
loop_
 _symmetry_equiv_pos_site_id
 _symmetry_equiv_pos_as_xyz
  1  'x, y, z'
loop_
 _atom_site_type_symbol
 _atom_site_label
 _atom_site_symmetry_multiplicity
 _atom_site_fract_x
 _atom_site_fract_y
 _atom_site_fract_z
 _atom_site_occupancy
  Ba  Ba0  1  0.25000000  0.22933500  0.87711700  1
  Ba  Ba1  1  0.25000000  0.72933500  0.62288300  1
  Ba  Ba2  1  0.75000000  0.77066500  0.12288300  1
  Ba  Ba3  1  0.75000000  0.27066500  0.37711700  1
  I  I4  1  0.75000000  0.13302000  0.09838200  1
  I  I5  1  0.75000000  0.63302000  0.40161800  1
  I  I6  1  0.25000000  0.86698000  0.90161800  1
  I  I7  1  0.25000000  0.36698000  0.59838200  1
  I  I8  1  0.75000000  0.04892600  0.65667000  1
  I  I9  1  0.75000000  0.54892600  0.84333000  1
  I  I10  1  0.25000000  0.95107400  0.34333000  1
  I  I11  1  0.25000000  0.45107400  0.15667000  1
  O  O12  1  0.75000000  0.34746400  0.84966300  1
  O  O13  1  0.75000000  0.84746400  0.65033700  1
  O  O14  1  0.25000000  0.65253600  0.15033700  1
  O  O15  1  0.25000000  0.15253600  0.34966300  1
