# generated using pymatgen
data_Mn3SnO8
_symmetry_space_group_name_H-M   'P 1'
_cell_length_a   5.82641663
_cell_length_b   5.82641663
_cell_length_c   9.43078600
_cell_angle_alpha   90.00000000
_cell_angle_beta   90.00000000
_cell_angle_gamma   120.00000719
_symmetry_Int_Tables_number   1
_chemical_formula_structural   Mn3SnO8
_chemical_formula_sum   'Mn6 Sn2 O16'
_cell_volume   277.25638976
_cell_formula_units_Z   2
loop_
 _symmetry_equiv_pos_site_id
 _symmetry_equiv_pos_as_xyz
  1  'x, y, z'
loop_
 _atom_site_type_symbol
 _atom_site_label
 _atom_site_symmetry_multiplicity
 _atom_site_fract_x
 _atom_site_fract_y
 _atom_site_fract_z
 _atom_site_occupancy
  Mn  Mn0  1  0.16770600  0.83229400  0.21340900  1
  Mn  Mn1  1  0.16770600  0.33541300  0.21340900  1
  Mn  Mn2  1  0.66458700  0.83229400  0.21340900  1
  Mn  Mn3  1  0.33541300  0.16770600  0.71340900  1
  Mn  Mn4  1  0.83229400  0.66458700  0.71340900  1
  Mn  Mn5  1  0.83229400  0.16770600  0.71340900  1
  Sn  Sn6  1  0.33333300  0.66666700  0.49337000  1
  Sn  Sn7  1  0.66666700  0.33333300  0.99337000  1
  O  O8  1  0.15869600  0.84130400  0.60439300  1
  O  O9  1  0.03436400  0.51718200  0.32955000  1
  O  O10  1  0.33333300  0.66666700  0.10881800  1
  O  O11  1  0.00000000  0.00000000  0.31361200  1
  O  O12  1  0.00000000  0.00000000  0.81361200  1
  O  O13  1  0.15869600  0.31739200  0.60439300  1
  O  O14  1  0.48281800  0.96563600  0.32955000  1
  O  O15  1  0.48281800  0.51718200  0.32955000  1
  O  O16  1  0.31739200  0.15869600  0.10439300  1
  O  O17  1  0.68260800  0.84130400  0.60439300  1
  O  O18  1  0.51718200  0.48281800  0.82955000  1
  O  O19  1  0.51718200  0.03436400  0.82955000  1
  O  O20  1  0.66666700  0.33333300  0.60881800  1
  O  O21  1  0.84130400  0.68260800  0.10439300  1
  O  O22  1  0.96563600  0.48281800  0.82955000  1
  O  O23  1  0.84130400  0.15869600  0.10439300  1
