# generated using pymatgen
data_BaCd(ClO)4
_symmetry_space_group_name_H-M   'P 1'
_cell_length_a   7.17162400
_cell_length_b   8.76112117
_cell_length_c   8.80672390
_cell_angle_alpha   104.02975832
_cell_angle_beta   102.80289921
_cell_angle_gamma   100.71976937
_symmetry_Int_Tables_number   1
_chemical_formula_structural   BaCd(ClO)4
_chemical_formula_sum   'Ba2 Cd2 Cl8 O8'
_cell_volume   506.40113065
_cell_formula_units_Z   2
loop_
 _symmetry_equiv_pos_site_id
 _symmetry_equiv_pos_as_xyz
  1  'x, y, z'
loop_
 _atom_site_type_symbol
 _atom_site_label
 _atom_site_symmetry_multiplicity
 _atom_site_fract_x
 _atom_site_fract_y
 _atom_site_fract_z
 _atom_site_occupancy
  Ba  Ba0  1  0.75905100  0.23929000  0.23879200  1
  Ba  Ba1  1  0.24094900  0.76071000  0.76120800  1
  Cd  Cd2  1  0.25485400  0.42788400  0.07666000  1
  Cd  Cd3  1  0.74514600  0.57211600  0.92334000  1
  Cl  Cl4  1  0.85919200  0.30013300  0.93558500  1
  Cl  Cl5  1  0.14080800  0.69986700  0.06441500  1
  Cl  Cl6  1  0.64964500  0.55284100  0.19848300  1
  Cl  Cl7  1  0.35035500  0.44715900  0.80151700  1
  Cl  Cl8  1  0.18484400  0.44778900  0.36246700  1
  Cl  Cl9  1  0.81515600  0.55221100  0.63753300  1
  Cl  Cl10  1  0.31805400  0.13097300  0.03573600  1
  Cl  Cl11  1  0.68194600  0.86902700  0.96426400  1
  O  O12  1  0.92496200  0.13388700  0.58189100  1
  O  O13  1  0.07503800  0.86611300  0.41810900  1
  O  O14  1  0.08492700  0.96234300  0.33740100  1
  O  O15  1  0.91507300  0.03765700  0.66259900  1
  O  O16  1  0.48064900  0.20689400  0.49523900  1
  O  O17  1  0.51935100  0.79310600  0.50476100  1
  O  O18  1  0.53789900  0.85303600  0.39453800  1
  O  O19  1  0.46210100  0.14696400  0.60546200  1
