# generated using pymatgen
data_VCrP2(HO5)2
_symmetry_space_group_name_H-M   'P 1'
_cell_length_a   6.74659284
_cell_length_b   7.38678268
_cell_length_c   8.00051970
_cell_angle_alpha   93.43874601
_cell_angle_beta   88.51962930
_cell_angle_gamma   116.93375111
_symmetry_Int_Tables_number   1
_chemical_formula_structural   VCrP2(HO5)2
_chemical_formula_sum   'V2 Cr2 P4 H4 O20'
_cell_volume   354.82258833
_cell_formula_units_Z   2
loop_
 _symmetry_equiv_pos_site_id
 _symmetry_equiv_pos_as_xyz
  1  'x, y, z'
loop_
 _atom_site_type_symbol
 _atom_site_label
 _atom_site_symmetry_multiplicity
 _atom_site_fract_x
 _atom_site_fract_y
 _atom_site_fract_z
 _atom_site_occupancy
  V  V0  1  0.50007100  0.49969500  0.50008600  1
  V  V1  1  0.99992200  0.50027600  0.00001700  1
  Cr  Cr2  1  0.99991900  0.00022100  0.00008100  1
  Cr  Cr3  1  0.50006900  0.99973000  0.49986600  1
  P  P4  1  0.50819800  0.21894200  0.16958600  1
  P  P5  1  0.00826500  0.21896200  0.66971600  1
  P  P6  1  0.49175200  0.78101400  0.83031600  1
  P  P7  1  0.99174800  0.78108900  0.33039000  1
  H  H8  1  0.17816000  0.33618000  0.16265400  1
  H  H9  1  0.67841700  0.33541000  0.66240900  1
  H  H10  1  0.82190900  0.66471500  0.83760900  1
  H  H11  1  0.32179300  0.66373200  0.33740100  1
  O  O12  1  0.44982900  0.71368800  0.41499200  1
  O  O13  1  0.94973000  0.71493100  0.91545300  1
  O  O14  1  0.55058700  0.28526300  0.58460000  1
  O  O15  1  0.05023400  0.28624300  0.08498000  1
  O  O16  1  0.43508500  0.36427100  0.28231800  1
  O  O17  1  0.93512100  0.36445200  0.78229000  1
  O  O18  1  0.56485800  0.63554700  0.71774400  1
  O  O19  1  0.06482900  0.63567100  0.21764200  1
  O  O20  1  0.30170300  0.63831400  0.94770400  1
  O  O21  1  0.80168300  0.63828000  0.44768200  1
  O  O22  1  0.69801200  0.36183000  0.05217700  1
  O  O23  1  0.19829800  0.36159000  0.55234200  1
  O  O24  1  0.31145700  0.07720300  0.06192000  1
  O  O25  1  0.81156900  0.07708300  0.56196400  1
  O  O26  1  0.68835100  0.92285000  0.93804000  1
  O  O27  1  0.18846700  0.92277900  0.43808100  1
  O  O28  1  0.60195200  0.11502000  0.27835200  1
  O  O29  1  0.10195900  0.11516000  0.77864800  1
  O  O30  1  0.39806800  0.88486500  0.72135600  1
  O  O31  1  0.89798300  0.88499400  0.22158300  1
