# generated using pymatgen
data_Zr2O
_symmetry_space_group_name_H-M   'P 1'
_cell_length_a   5.68273040
_cell_length_b   5.68273040
_cell_length_c   10.52538900
_cell_angle_alpha   90.00000000
_cell_angle_beta   90.00000000
_cell_angle_gamma   120.00000461
_symmetry_Int_Tables_number   1
_chemical_formula_structural   Zr2O
_chemical_formula_sum   'Zr12 O6'
_cell_volume   294.36276383
_cell_formula_units_Z   6
loop_
 _symmetry_equiv_pos_site_id
 _symmetry_equiv_pos_as_xyz
  1  'x, y, z'
loop_
 _atom_site_type_symbol
 _atom_site_label
 _atom_site_symmetry_multiplicity
 _atom_site_fract_x
 _atom_site_fract_y
 _atom_site_fract_z
 _atom_site_occupancy
  Zr  Zr0  1  0.33385700  0.32523100  0.87119900  1
  Zr  Zr1  1  0.33310400  0.33354500  0.37378500  1
  Zr  Zr2  1  0.33310400  0.99955900  0.62621500  1
  Zr  Zr3  1  0.33385700  0.00862500  0.12880100  1
  Zr  Zr4  1  0.66645500  0.99955900  0.37378500  1
  Zr  Zr5  1  0.67476900  0.00862500  0.87119900  1
  Zr  Zr6  1  0.66645500  0.66689600  0.62621500  1
  Zr  Zr7  1  0.67476900  0.66614300  0.12880100  1
  Zr  Zr8  1  0.00044100  0.33354500  0.62621500  1
  Zr  Zr9  1  0.99137500  0.32523100  0.12880100  1
  Zr  Zr10  1  0.99137500  0.66614300  0.87119900  1
  Zr  Zr11  1  0.00044100  0.66689600  0.37378500  1
  O  O12  1  0.66666700  0.33333300  0.74280100  1
  O  O13  1  0.66666700  0.33333300  0.25719900  1
  O  O14  1  0.66666700  0.33333300  0.00000000  1
  O  O15  1  0.33333300  0.66666700  0.50000000  1
  O  O16  1  0.00000000  0.00000000  0.50000000  1
  O  O17  1  0.00000000  0.00000000  0.00000000  1
