# generated using pymatgen
data_Ba2Nb8O11
_symmetry_space_group_name_H-M   'P 1'
_cell_length_a   9.28345010
_cell_length_b   9.28345010
_cell_length_c   9.28345010
_cell_angle_alpha   142.26550538
_cell_angle_beta   142.26550538
_cell_angle_gamma   54.42906357
_symmetry_Int_Tables_number   1
_chemical_formula_structural   Ba2Nb8O11
_chemical_formula_sum   'Ba2 Nb8 O11'
_cell_volume   297.61425896
_cell_formula_units_Z   1
loop_
 _symmetry_equiv_pos_site_id
 _symmetry_equiv_pos_as_xyz
  1  'x, y, z'
loop_
 _atom_site_type_symbol
 _atom_site_label
 _atom_site_symmetry_multiplicity
 _atom_site_fract_x
 _atom_site_fract_y
 _atom_site_fract_z
 _atom_site_occupancy
  Ba  Ba0  1  0.50000000  0.00000000  0.50000000  1
  Ba  Ba1  1  0.00000000  0.50000000  0.50000000  1
  Nb  Nb2  1  0.00000000  0.50000000  0.00000000  1
  Nb  Nb3  1  0.00000000  0.00000000  0.50000000  1
  Nb  Nb4  1  0.50000000  0.50000000  0.50000000  1
  Nb  Nb5  1  0.12686500  0.12686500  0.00000000  1
  Nb  Nb6  1  0.62665200  0.62665200  0.00000000  1
  Nb  Nb7  1  0.50000000  0.00000000  0.00000000  1
  Nb  Nb8  1  0.87313500  0.87313500  0.00000000  1
  Nb  Nb9  1  0.37334800  0.37334800  0.00000000  1
  O  O10  1  0.50000000  0.50000000  0.00000000  1
  O  O11  1  0.87165800  0.37002700  0.00000000  1
  O  O12  1  0.87165800  0.87165800  0.50163100  1
  O  O13  1  0.25000000  0.75000000  0.50000000  1
  O  O14  1  0.37002700  0.37002700  0.49836900  1
  O  O15  1  0.62997300  0.12834200  0.00000000  1
  O  O16  1  0.37002700  0.87165800  0.00000000  1
  O  O17  1  0.75000000  0.25000000  0.50000000  1
  O  O18  1  0.12834200  0.12834200  0.49836900  1
  O  O19  1  0.62997300  0.62997300  0.50163100  1
  O  O20  1  0.12834200  0.62997300  0.00000000  1
