# generated using pymatgen
data_C3N4
_symmetry_space_group_name_H-M   'P 1'
_cell_length_a   5.63527146
_cell_length_b   5.63527146
_cell_length_c   5.63527146
_cell_angle_alpha   156.47186740
_cell_angle_beta   116.75696854
_cell_angle_gamma   68.46489512
_symmetry_Int_Tables_number   1
_chemical_formula_structural   C3N4
_chemical_formula_sum   'C3 N4'
_cell_volume   63.26285408
_cell_formula_units_Z   1
loop_
 _symmetry_equiv_pos_site_id
 _symmetry_equiv_pos_as_xyz
  1  'x, y, z'
loop_
 _atom_site_type_symbol
 _atom_site_label
 _atom_site_symmetry_multiplicity
 _atom_site_fract_x
 _atom_site_fract_y
 _atom_site_fract_z
 _atom_site_occupancy
  C  C0  1  0.72153400  0.00000000  0.72153400  1
  C  C1  1  0.23327100  0.13092800  0.10234300  1
  C  C2  1  0.97141600  0.86907200  0.10234300  1
  N  N3  1  0.96890700  0.00000000  0.96890700  1
  N  N4  1  0.97820700  0.31057000  0.66763700  1
  N  N5  1  0.35706700  0.68943000  0.66763700  1
  N  N6  1  0.60923900  0.50000000  0.10923900  1
