# generated using pymatgen
data_V4P2O13
_symmetry_space_group_name_H-M   'P 1'
_cell_length_a   4.96968800
_cell_length_b   5.00282193
_cell_length_c   8.78753019
_cell_angle_alpha   88.62449818
_cell_angle_beta   100.01261531
_cell_angle_gamma   99.39381611
_symmetry_Int_Tables_number   1
_chemical_formula_structural   V4P2O13
_chemical_formula_sum   'V4 P2 O13'
_cell_volume   212.26471169
_cell_formula_units_Z   1
loop_
 _symmetry_equiv_pos_site_id
 _symmetry_equiv_pos_as_xyz
  1  'x, y, z'
loop_
 _atom_site_type_symbol
 _atom_site_label
 _atom_site_symmetry_multiplicity
 _atom_site_fract_x
 _atom_site_fract_y
 _atom_site_fract_z
 _atom_site_occupancy
  V  V0  1  0.74945900  0.04403600  0.31409000  1
  V  V1  1  0.92558400  0.82318400  0.64258600  1
  V  V2  1  0.43096000  0.53844800  0.06015000  1
  V  V3  1  0.58519700  0.25373900  0.70351600  1
  P  P4  1  0.98697600  0.98965900  0.99813900  1
  P  P5  1  0.24628000  0.56777500  0.41327900  1
  O  O6  1  0.01090900  0.73408000  0.43546700  1
  O  O7  1  0.79686400  0.85247600  0.11395300  1
  O  O8  1  0.92906400  0.50521200  0.72323000  1
  O  O9  1  0.71469000  0.07530700  0.53259400  1
  O  O10  1  0.59463500  0.28243900  0.21223000  1
  O  O11  1  0.80427900  0.98115800  0.83012600  1
  O  O12  1  0.41247600  0.71979700  0.29127100  1
  O  O13  1  0.45209600  0.55799100  0.56805600  1
  O  O14  1  0.52956500  0.43533700  0.90056300  1
  O  O15  1  0.26692800  0.04319100  0.68834800  1
  O  O16  1  0.08138500  0.28789400  0.04365300  1
  O  O17  1  0.11836500  0.28074700  0.35887900  1
  O  O18  1  0.22381000  0.83531000  0.99068100  1
