# generated using pymatgen
data_AlCrO4
_symmetry_space_group_name_H-M   'P 1'
_cell_length_a   4.46675061
_cell_length_b   4.46675061
_cell_length_c   2.90342900
_cell_angle_alpha   90.00000000
_cell_angle_beta   90.00000000
_cell_angle_gamma   91.36063161
_symmetry_Int_Tables_number   1
_chemical_formula_structural   AlCrO4
_chemical_formula_sum   'Al1 Cr1 O4'
_cell_volume   57.91247838
_cell_formula_units_Z   1
loop_
 _symmetry_equiv_pos_site_id
 _symmetry_equiv_pos_as_xyz
  1  'x, y, z'
loop_
 _atom_site_type_symbol
 _atom_site_label
 _atom_site_symmetry_multiplicity
 _atom_site_fract_x
 _atom_site_fract_y
 _atom_site_fract_z
 _atom_site_occupancy
  Al  Al0  1  0.00000000  0.00000000  0.00000000  1
  Cr  Cr1  1  0.50000000  0.50000000  0.50000000  1
  O  O2  1  0.30245600  0.69754400  0.00000000  1
  O  O3  1  0.80263200  0.80263200  0.50000000  1
  O  O4  1  0.69754400  0.30245600  0.00000000  1
  O  O5  1  0.19736800  0.19736800  0.50000000  1
