# generated using pymatgen
data_Ca5Mn8O13
_symmetry_space_group_name_H-M   'P 1'
_cell_length_a   3.29077596
_cell_length_b   3.29077596
_cell_length_c   34.55198259
_cell_angle_alpha   92.72949356
_cell_angle_beta   90.00000000
_cell_angle_gamma   120.00000000
_symmetry_Int_Tables_number   1
_chemical_formula_structural   Ca5Mn8O13
_chemical_formula_sum   'Ca5 Mn8 O13'
_cell_volume   323.55094228
_cell_formula_units_Z   1
loop_
 _symmetry_equiv_pos_site_id
 _symmetry_equiv_pos_as_xyz
  1  'x, y, z'
loop_
 _atom_site_type_symbol
 _atom_site_label
 _atom_site_symmetry_multiplicity
 _atom_site_fract_x
 _atom_site_fract_y
 _atom_site_fract_z
 _atom_site_occupancy
  Ca  Ca0  1  0.46102500  0.92205200  0.38307700  1
  Ca  Ca1  1  0.53729700  0.07459200  0.61188900  1
  Ca  Ca2  1  0.92179000  0.84358000  0.76537000  1
  Ca  Ca3  1  0.31001600  0.62003100  0.93004800  1
  Ca  Ca4  1  0.61587200  0.23174400  0.84761600  1
  Mn  Mn5  1  0.00242500  0.00485000  0.00727500  1
  Mn  Mn6  1  0.69364800  0.38729600  0.08094400  1
  Mn  Mn7  1  0.38501200  0.77002400  0.15503600  1
  Mn  Mn8  1  0.07652200  0.15304400  0.22956400  1
  Mn  Mn9  1  0.76814100  0.53628300  0.30442400  1
  Mn  Mn10  1  0.15375000  0.30749900  0.46124900  1
  Mn  Mn11  1  0.84495800  0.68991500  0.53487400  1
  Mn  Mn12  1  0.22955600  0.45911100  0.68866700  1
  O  O13  1  0.34798000  0.69596100  0.04394100  1
  O  O14  1  0.03926200  0.07852400  0.11778600  1
  O  O15  1  0.73070900  0.46141900  0.19212800  1
  O  O16  1  0.42229300  0.84458600  0.26687900  1
  O  O17  1  0.11393200  0.22786500  0.34179800  1
  O  O18  1  0.80804900  0.61609900  0.42414800  1
  O  O19  1  0.19055700  0.38111400  0.57167100  1
  O  O20  1  0.49941900  0.99883800  0.49825600  1
  O  O21  1  0.88415200  0.76830400  0.65245600  1
  O  O22  1  0.57505600  0.15011200  0.72516800  1
  O  O23  1  0.26884700  0.53769400  0.80654100  1
  O  O24  1  0.96291000  0.92582000  0.88873000  1
  O  O25  1  0.65682200  0.31364400  0.97046600  1
