data_image0
_chemical_formula_structural       Cu3K3P2
_chemical_formula_sum              "Cu3 K3 P2"
_cell_length_a       5.70174
_cell_length_b       5.70174
_cell_length_c       7.40219
_cell_angle_alpha    90
_cell_angle_beta     112.652
_cell_angle_gamma    120

_space_group_name_H-M_alt    "P 1"
_space_group_IT_number       1

loop_
  _space_group_symop_operation_xyz
  'x, y, z'

loop_
  _atom_site_type_symbol
  _atom_site_label
  _atom_site_symmetry_multiplicity
  _atom_site_fract_x
  _atom_site_fract_y
  _atom_site_fract_z
  _atom_site_occupancy
  Cu  Cu1       1.0  0.50000  0.00000  0.00000  1.0000
  Cu  Cu2       1.0  0.50000  0.50000  0.00000  1.0000
  Cu  Cu3       1.0  0.00000  0.50000  0.00000  1.0000
  K   K1        1.0  0.18500  0.09240  0.27700  1.0000
  K   K2        1.0  0.00000  0.50000  0.50000  1.0000
  K   K3        1.0  0.81500  0.90800  0.72300  1.0000
  P   P1        1.0  0.48800  0.74400  0.23100  1.0000
  P   P2        1.0  0.51200  0.25600  0.76900  1.0000
