# generated using pymatgen
data_BaYbCo4O7
_symmetry_space_group_name_H-M   'P 1'
_cell_length_a   6.33513800
_cell_length_b   6.36269014
_cell_length_c   10.26863194
_cell_angle_alpha   90.01117969
_cell_angle_beta   90.31897577
_cell_angle_gamma   118.90563626
_symmetry_Int_Tables_number   1
_chemical_formula_structural   BaYbCo4O7
_chemical_formula_sum   'Ba2 Yb2 Co8 O14'
_cell_volume   362.33919713
_cell_formula_units_Z   2
loop_
 _symmetry_equiv_pos_site_id
 _symmetry_equiv_pos_as_xyz
  1  'x, y, z'
loop_
 _atom_site_type_symbol
 _atom_site_label
 _atom_site_symmetry_multiplicity
 _atom_site_fract_x
 _atom_site_fract_y
 _atom_site_fract_z
 _atom_site_occupancy
  Ba  Ba0  1  0.66515400  0.35647300  0.50004600  1
  Ba  Ba1  1  0.35324200  0.67279200  0.99918600  1
  Yb  Yb2  1  0.66576600  0.33497100  0.86885100  1
  Yb  Yb3  1  0.33048200  0.66565300  0.36741200  1
  Co  Co4  1  0.18498800  0.33637600  0.68097100  1
  Co  Co5  1  0.33720700  0.18286100  0.18319300  1
  Co  Co6  1  0.84094300  0.66289200  0.18321400  1
  Co  Co7  1  0.00922000  0.00270200  0.94259500  1
  Co  Co8  1  0.16268300  0.81029300  0.68591900  1
  Co  Co9  1  0.66533600  0.83975100  0.68178400  1
  Co  Co10  1  0.81269400  0.16044400  0.18342400  1
  Co  Co11  1  0.99234100  0.00858100  0.44362800  1
  O  O12  1  0.10351600  0.78950100  0.50006700  1
  O  O13  1  0.47112600  0.98202300  0.74866900  1
  O  O14  1  0.31724200  0.22511800  0.99239500  1
  O  O15  1  0.49003400  0.98364000  0.22272100  1
  O  O16  1  0.20720700  0.31738200  0.48975200  1
  O  O17  1  0.52014700  0.50817100  0.72594900  1
  O  O18  1  0.00838100  0.99890300  0.75058800  1
  O  O19  1  0.00085600  0.49220100  0.73627800  1
  O  O20  1  0.00446800  0.47545000  0.22773100  1
  O  O21  1  0.79587900  0.11758600  0.99758800  1
  O  O22  1  0.52513700  0.49946000  0.25457400  1
  O  O23  1  0.67646300  0.88660300  0.49196900  1
  O  O24  1  0.99633100  0.00354900  0.25115300  1
  O  O25  1  0.86315800  0.68662700  0.99174900  1
