# generated using pymatgen
data_CrPO4
_symmetry_space_group_name_H-M   'P 1'
_cell_length_a   9.28793353
_cell_length_b   5.57257075
_cell_length_c   6.46282245
_cell_angle_alpha   102.49993690
_cell_angle_beta   107.12880402
_cell_angle_gamma   80.65505467
_symmetry_Int_Tables_number   1
_chemical_formula_structural   CrPO4
_chemical_formula_sum   'Cr4 P4 O16'
_cell_volume   310.33780681
_cell_formula_units_Z   4
loop_
 _symmetry_equiv_pos_site_id
 _symmetry_equiv_pos_as_xyz
  1  'x, y, z'
loop_
 _atom_site_type_symbol
 _atom_site_label
 _atom_site_symmetry_multiplicity
 _atom_site_fract_x
 _atom_site_fract_y
 _atom_site_fract_z
 _atom_site_occupancy
  Cr  Cr0  1  0.19653800  0.69903200  0.91293700  1
  Cr  Cr1  1  0.43323900  0.20582600  0.16462400  1
  Cr  Cr2  1  0.56683300  0.79402700  0.83537200  1
  Cr  Cr3  1  0.80329300  0.30097300  0.08695900  1
  P  P4  1  0.09571800  0.16132700  0.85158200  1
  P  P5  1  0.47186900  0.34316900  0.71360200  1
  P  P6  1  0.52809600  0.65684900  0.28639900  1
  P  P7  1  0.90428200  0.83870200  0.14844300  1
  O  O8  1  0.14928700  0.35914600  0.76818300  1
  O  O9  1  0.08162300  0.90646500  0.69598600  1
  O  O10  1  0.04485300  0.73986500  0.07082500  1
  O  O11  1  0.23608200  0.06887300  0.05043000  1
  O  O12  1  0.45676200  0.14816700  0.84796800  1
  O  O13  1  0.43780400  0.23214900  0.47382400  1
  O  O14  1  0.37757700  0.60043700  0.75978800  1
  O  O15  1  0.36284400  0.57000700  0.18301400  1
  O  O16  1  0.63716900  0.43000400  0.81697500  1
  O  O17  1  0.62246000  0.39958200  0.24024000  1
  O  O18  1  0.56219700  0.76789100  0.52618600  1
  O  O19  1  0.54327600  0.85179500  0.15204600  1
  O  O20  1  0.76393200  0.93114800  0.94958700  1
  O  O21  1  0.95519400  0.26017600  0.92923800  1
  O  O22  1  0.91835600  0.09356300  0.30395300  1
  O  O23  1  0.85071400  0.64082600  0.23183800  1
