# generated using pymatgen
data_Tm2Sb2O7
_symmetry_space_group_name_H-M   'P 1'
_cell_length_a   7.53235600
_cell_length_b   7.53235600
_cell_length_c   7.53235600
_cell_angle_alpha   119.94901473
_cell_angle_beta   118.83791107
_cell_angle_gamma   91.05644752
_symmetry_Int_Tables_number   1
_chemical_formula_structural   Tm2Sb2O7
_chemical_formula_sum   'Tm4 Sb4 O14'
_cell_volume   304.86747358
_cell_formula_units_Z   2
loop_
 _symmetry_equiv_pos_site_id
 _symmetry_equiv_pos_as_xyz
  1  'x, y, z'
loop_
 _atom_site_type_symbol
 _atom_site_label
 _atom_site_symmetry_multiplicity
 _atom_site_fract_x
 _atom_site_fract_y
 _atom_site_fract_z
 _atom_site_occupancy
  Tm  Tm0  1  0.74182800  0.00000000  0.74182800  1
  Tm  Tm1  1  0.73851700  0.54132200  0.77983900  1
  Tm  Tm2  1  0.24182800  0.50000000  0.74182800  1
  Tm  Tm3  1  0.23851700  0.45867800  0.19719500  1
  Sb  Sb4  1  0.26480800  0.00000000  0.26480800  1
  Sb  Sb5  1  0.73330100  0.99316500  0.22646500  1
  Sb  Sb6  1  0.76480800  0.50000000  0.26480800  1
  Sb  Sb7  1  0.23330100  0.00683500  0.74013600  1
  O  O8  1  0.10267500  0.08541600  0.93377000  1
  O  O9  1  0.34835400  0.33109500  0.93377000  1
  O  O10  1  0.36465600  0.37050700  0.49889300  1
  O  O11  1  0.60582500  0.04652900  0.42244900  1
  O  O12  1  0.98312100  0.00251900  0.48564100  1
  O  O13  1  0.87592000  0.31662400  0.42244900  1
  O  O14  1  0.62838600  0.63423700  0.49889300  1
  O  O15  1  0.86465600  0.36576300  0.99414900  1
  O  O16  1  0.10582500  0.68337600  0.55929500  1
  O  O17  1  0.48312100  0.99748100  0.98060200  1
  O  O18  1  0.37592000  0.95347100  0.55929500  1
  O  O19  1  0.12838600  0.62949300  0.99414900  1
  O  O20  1  0.60267500  0.66890500  0.01725900  1
  O  O21  1  0.84835400  0.91458400  0.01725900  1
