# generated using pymatgen
data_BeO2
_symmetry_space_group_name_H-M   'P 1'
_cell_length_a   3.68032448
_cell_length_b   8.01705723
_cell_length_c   5.46167298
_cell_angle_alpha   89.99108867
_cell_angle_beta   90.15288158
_cell_angle_gamma   109.26086492
_symmetry_Int_Tables_number   1
_chemical_formula_structural   BeO2
_chemical_formula_sum   'Be4 O8'
_cell_volume   152.12804770
_cell_formula_units_Z   4
loop_
 _symmetry_equiv_pos_site_id
 _symmetry_equiv_pos_as_xyz
  1  'x, y, z'
loop_
 _atom_site_type_symbol
 _atom_site_label
 _atom_site_symmetry_multiplicity
 _atom_site_fract_x
 _atom_site_fract_y
 _atom_site_fract_z
 _atom_site_occupancy
  Be  Be0  1  0.76644300  0.55852400  0.11172100  1
  Be  Be1  1  0.73397600  0.44146200  0.61162900  1
  Be  Be2  1  0.22065700  0.92967700  0.88938800  1
  Be  Be3  1  0.27904400  0.07045400  0.38948100  1
  O  O4  1  0.67968900  0.51665100  0.37274200  1
  O  O5  1  0.82058200  0.48357800  0.87295400  1
  O  O6  1  0.22039700  0.96794800  0.62272100  1
  O  O7  1  0.27847800  0.03201900  0.12273100  1
  O  O8  1  0.74006100  0.75680000  0.99550100  1
  O  O9  1  0.76090000  0.24309900  0.49597100  1
  O  O10  1  0.39600100  0.76944900  0.00728400  1
  O  O11  1  0.10377200  0.23034000  0.50787600  1
