# generated using pymatgen
data_NdMnO3
_symmetry_space_group_name_H-M   'P 1'
_cell_length_a   14.39294300
_cell_length_b   14.07822700
_cell_length_c   19.90936595
_cell_angle_alpha   87.88079187
_cell_angle_beta   90.00000000
_cell_angle_gamma   90.00000000
_symmetry_Int_Tables_number   1
_chemical_formula_structural   NdMnO3
_chemical_formula_sum   'Nd4 Mn4 O12'
_cell_volume   4031.41829528
_cell_formula_units_Z   4
loop_
 _symmetry_equiv_pos_site_id
 _symmetry_equiv_pos_as_xyz
  1  'x, y, z'
loop_
 _atom_site_type_symbol
 _atom_site_label
 _atom_site_symmetry_multiplicity
 _atom_site_fract_x
 _atom_site_fract_y
 _atom_site_fract_z
 _atom_site_occupancy
  Nd  Nd0  1  0.51795700  0.44451700  0.74659200  1
  Nd  Nd1  1  0.48204300  0.55548300  0.25340800  1
  Nd  Nd2  1  0.01795700  0.05548300  0.25340800  1
  Nd  Nd3  1  0.98204300  0.94451700  0.74659200  1
  Mn  Mn4  1  0.00000000  0.50000000  0.50000000  1
  Mn  Mn5  1  0.50000000  0.00000000  0.00000000  1
  Mn  Mn6  1  0.50000000  0.00000000  0.50000000  1
  Mn  Mn7  1  0.00000000  0.50000000  0.00000000  1
  O  O8  1  0.03893300  0.17386300  0.21024300  1
  O  O9  1  0.72511000  0.29928800  0.04413400  1
  O  O10  1  0.46106700  0.67386300  0.21024300  1
  O  O11  1  0.35684800  0.25421300  0.51709000  1
  O  O12  1  0.96106700  0.82613700  0.78975700  1
  O  O13  1  0.14315200  0.75421300  0.51709000  1
  O  O14  1  0.77489000  0.79928800  0.04413400  1
  O  O15  1  0.27489000  0.70071200  0.95586600  1
  O  O16  1  0.64315200  0.74578700  0.48291000  1
  O  O17  1  0.53893300  0.32613700  0.78975700  1
  O  O18  1  0.22511000  0.20071200  0.95586600  1
  O  O19  1  0.85684800  0.24578700  0.48291000  1
