# generated using pymatgen
data_Cd5(NO8)2
_symmetry_space_group_name_H-M   'P 1'
_cell_length_a   10.07733973
_cell_length_b   10.07733973
_cell_length_c   5.70863245
_cell_angle_alpha   81.37703759
_cell_angle_beta   81.37703759
_cell_angle_gamma   42.22209671
_symmetry_Int_Tables_number   1
_chemical_formula_structural   Cd5(NO8)2
_chemical_formula_sum   'Cd5 N2 O16'
_cell_volume   384.51605308
_cell_formula_units_Z   1
loop_
 _symmetry_equiv_pos_site_id
 _symmetry_equiv_pos_as_xyz
  1  'x, y, z'
loop_
 _atom_site_type_symbol
 _atom_site_label
 _atom_site_symmetry_multiplicity
 _atom_site_fract_x
 _atom_site_fract_y
 _atom_site_fract_z
 _atom_site_occupancy
  Cd  Cd0  1  0.00000000  0.00000000  0.00000000  1
  Cd  Cd1  1  0.75217700  0.24782300  0.50000000  1
  Cd  Cd2  1  0.24782300  0.75217700  0.50000000  1
  Cd  Cd3  1  0.38480500  0.38480500  0.02091100  1
  Cd  Cd4  1  0.61519500  0.61519500  0.97908900  1
  N  N5  1  0.75458300  0.75458300  0.75335600  1
  N  N6  1  0.24541700  0.24541700  0.24664400  1
  O  O7  1  0.58701400  0.58701400  0.55402400  1
  O  O8  1  0.41298600  0.41298600  0.44597600  1
  O  O9  1  0.67859800  0.23411200  0.88098000  1
  O  O10  1  0.23411200  0.67859800  0.88098000  1
  O  O11  1  0.32140200  0.76588800  0.11902000  1
  O  O12  1  0.76588800  0.32140200  0.11902000  1
  O  O13  1  0.05196700  0.05196700  0.62894700  1
  O  O14  1  0.94803300  0.94803300  0.37105300  1
  O  O15  1  0.87023400  0.56816600  0.80323600  1
  O  O16  1  0.56816600  0.87023400  0.80323600  1
  O  O17  1  0.12976600  0.43183400  0.19676400  1
  O  O18  1  0.43183400  0.12976600  0.19676400  1
  O  O19  1  0.81851400  0.81851400  0.66445400  1
  O  O20  1  0.18148600  0.18148600  0.33554600  1
  O  O21  1  0.35549900  0.35549900  0.60943200  1
  O  O22  1  0.64450100  0.64450100  0.39056800  1
