# generated using pymatgen
data_VF4
_symmetry_space_group_name_H-M   'P 1'
_cell_length_a   4.91415088
_cell_length_b   4.91415088
_cell_length_c   3.08340800
_cell_angle_alpha   90.00000000
_cell_angle_beta   90.00000000
_cell_angle_gamma   107.09653694
_symmetry_Int_Tables_number   1
_chemical_formula_structural   VF4
_chemical_formula_sum   'V1 F4'
_cell_volume   71.17047995
_cell_formula_units_Z   1
loop_
 _symmetry_equiv_pos_site_id
 _symmetry_equiv_pos_as_xyz
  1  'x, y, z'
loop_
 _atom_site_type_symbol
 _atom_site_label
 _atom_site_symmetry_multiplicity
 _atom_site_fract_x
 _atom_site_fract_y
 _atom_site_fract_z
 _atom_site_occupancy
  V  V0  1  0.00000000  0.00000000  0.00000000  1
  F  F1  1  0.77604600  0.22395400  0.00000000  1
  F  F2  1  0.21304100  0.21304100  0.50000000  1
  F  F3  1  0.78695900  0.78695900  0.50000000  1
  F  F4  1  0.22395400  0.77604600  0.00000000  1
