# generated using pymatgen
data_BaAl2O6
_symmetry_space_group_name_H-M   'P 1'
_cell_length_a   10.75154242
_cell_length_b   5.63167746
_cell_length_c   10.40996317
_cell_angle_alpha   78.04489386
_cell_angle_beta   30.81307682
_cell_angle_gamma   71.00103971
_symmetry_Int_Tables_number   1
_chemical_formula_structural   BaAl2O6
_chemical_formula_sum   'Ba2 Al4 O12'
_cell_volume   301.84826393
_cell_formula_units_Z   2
loop_
 _symmetry_equiv_pos_site_id
 _symmetry_equiv_pos_as_xyz
  1  'x, y, z'
loop_
 _atom_site_type_symbol
 _atom_site_label
 _atom_site_symmetry_multiplicity
 _atom_site_fract_x
 _atom_site_fract_y
 _atom_site_fract_z
 _atom_site_occupancy
  Ba  Ba0  1  0.26161700  0.23637300  0.23718200  1
  Ba  Ba1  1  0.01497700  0.98652100  0.98316800  1
  Al  Al2  1  0.90176600  0.86390000  0.75914200  1
  Al  Al3  1  0.47319100  0.76081400  0.86352600  1
  Al  Al4  1  0.49009700  0.77525700  0.34640700  1
  Al  Al5  1  0.39075800  0.34548700  0.77151700  1
  O  O6  1  0.16527900  0.90825800  0.59844000  1
  O  O7  1  0.33054200  0.59956800  0.90174400  1
  O  O8  1  0.65033300  0.92122800  0.08317500  1
  O  O9  1  0.34030800  0.08503400  0.92426700  1
  O  O10  1  0.82213100  0.07132100  0.66989000  1
  O  O11  1  0.43323900  0.66849400  0.07158100  1
  O  O12  1  0.58567000  0.81129800  0.41956900  1
  O  O13  1  0.19198100  0.41713400  0.79974600  1
  O  O14  1  0.98982900  0.57825300  0.61661800  1
  O  O15  1  0.81450800  0.62063800  0.57929100  1
  O  O16  1  0.63083500  0.43433400  0.26338000  1
  O  O17  1  0.67652500  0.25164400  0.43208400  1
