# generated using pymatgen
data_V(SiO3)2
_symmetry_space_group_name_H-M   'P 1'
_cell_length_a   7.05969947
_cell_length_b   7.29878887
_cell_length_c   14.08119905
_cell_angle_alpha   95.94921669
_cell_angle_beta   86.56600439
_cell_angle_gamma   76.64137978
_symmetry_Int_Tables_number   1
_chemical_formula_structural   V(SiO3)2
_chemical_formula_sum   'V6 Si12 O36'
_cell_volume   699.49137395
_cell_formula_units_Z   6
loop_
 _symmetry_equiv_pos_site_id
 _symmetry_equiv_pos_as_xyz
  1  'x, y, z'
loop_
 _atom_site_type_symbol
 _atom_site_label
 _atom_site_symmetry_multiplicity
 _atom_site_fract_x
 _atom_site_fract_y
 _atom_site_fract_z
 _atom_site_occupancy
  V  V0  1  0.75002500  0.49999400  0.24992300  1
  V  V1  1  0.07389100  0.22704700  0.86789200  1
  V  V2  1  0.42614600  0.77289800  0.63214100  1
  V  V3  1  0.24999400  0.50005100  0.75004600  1
  V  V4  1  0.57382700  0.22714900  0.36782500  1
  V  V5  1  0.92621000  0.77297200  0.13207000  1
  Si  Si6  1  0.55965000  0.16157300  0.13509500  1
  Si  Si7  1  0.05957100  0.16154100  0.63521700  1
  Si  Si8  1  0.94029800  0.83851000  0.36478100  1
  Si  Si9  1  0.44038300  0.83840600  0.86493700  1
  Si  Si10  1  0.10576500  0.15545300  0.14212600  1
  Si  Si11  1  0.60566800  0.15538600  0.64220800  1
  Si  Si12  1  0.39422800  0.84461500  0.35780300  1
  Si  Si13  1  0.89426500  0.84459800  0.85790200  1
  Si  Si14  1  0.80286400  0.37352900  0.03024600  1
  Si  Si15  1  0.30286100  0.37341600  0.53026100  1
  Si  Si16  1  0.69716100  0.62653700  0.46972000  1
  Si  Si17  1  0.19718600  0.62640900  0.96977100  1
  O  O18  1  0.42789300  0.04745200  0.33552800  1
  O  O19  1  0.92787300  0.04748700  0.83559800  1
  O  O20  1  0.07215200  0.95255400  0.16444500  1
  O  O21  1  0.57208000  0.95251600  0.66447200  1
  O  O22  1  0.80123600  0.05294200  0.37672200  1
  O  O23  1  0.30135100  0.05288000  0.87693100  1
  O  O24  1  0.69864800  0.94712700  0.12305700  1
  O  O25  1  0.19870100  0.94710700  0.62328400  1
  O  O26  1  0.33455200  0.15595400  0.13150400  1
  O  O27  1  0.83453800  0.15545800  0.63175100  1
  O  O28  1  0.16536300  0.84439800  0.36829600  1
  O  O29  1  0.66549100  0.84403600  0.86850600  1
  O  O30  1  0.60078800  0.28372700  0.23624600  1
  O  O31  1  0.10070200  0.28365200  0.73634900  1
  O  O32  1  0.89923400  0.71646000  0.26362100  1
  O  O33  1  0.39923800  0.71628000  0.76374500  1
  O  O34  1  0.61860300  0.27689900  0.04811600  1
  O  O35  1  0.11856000  0.27680300  0.54819200  1
  O  O36  1  0.88143400  0.72323800  0.45180700  1
  O  O37  1  0.38146100  0.72307200  0.95191700  1
  O  O38  1  0.01194200  0.21456900  0.03991400  1
  O  O39  1  0.51191900  0.21453600  0.53993500  1
  O  O40  1  0.48804700  0.78542900  0.46004700  1
  O  O41  1  0.98810800  0.78536900  0.96012900  1
  O  O42  1  0.98174200  0.32193700  0.22488200  1
  O  O43  1  0.48170400  0.32191500  0.72489600  1
  O  O44  1  0.51826300  0.67809800  0.27510400  1
  O  O45  1  0.01829600  0.67811400  0.77513900  1
  O  O46  1  0.72611700  0.44378700  0.38756400  1
  O  O47  1  0.22608100  0.44375300  0.88759500  1
  O  O48  1  0.77392700  0.55625800  0.11239400  1
  O  O49  1  0.27392000  0.55625600  0.61238400  1
  O  O50  1  0.15175200  0.59044000  0.07988600  1
  O  O51  1  0.65176000  0.59053100  0.57984500  1
  O  O52  1  0.34823900  0.40939700  0.42011700  1
  O  O53  1  0.84829300  0.40948400  0.92011700  1
