# generated using pymatgen
data_Ho2TiO5
_symmetry_space_group_name_H-M   'P 1'
_cell_length_a   6.41906868
_cell_length_b   6.41906868
_cell_length_c   7.53864561
_cell_angle_alpha   68.57982457
_cell_angle_beta   68.57982457
_cell_angle_gamma   48.53733038
_symmetry_Int_Tables_number   1
_chemical_formula_structural   Ho2TiO5
_chemical_formula_sum   'Ho4 Ti2 O10'
_cell_volume   213.28370542
_cell_formula_units_Z   2
loop_
 _symmetry_equiv_pos_site_id
 _symmetry_equiv_pos_as_xyz
  1  'x, y, z'
loop_
 _atom_site_type_symbol
 _atom_site_label
 _atom_site_symmetry_multiplicity
 _atom_site_fract_x
 _atom_site_fract_y
 _atom_site_fract_z
 _atom_site_occupancy
  Ho  Ho0  1  0.64835300  0.62894100  0.74754200  1
  Ho  Ho1  1  0.62894100  0.64835300  0.24754200  1
  Ho  Ho2  1  0.37105900  0.35164700  0.75245800  1
  Ho  Ho3  1  0.35164700  0.37105900  0.25245800  1
  Ti  Ti4  1  0.00000000  0.00000000  0.50000000  1
  Ti  Ti5  1  0.00000000  0.00000000  0.00000000  1
  O  O6  1  0.97465100  0.68733800  0.63958700  1
  O  O7  1  0.68733800  0.97465100  0.13958700  1
  O  O8  1  0.38940200  0.75300800  0.54397100  1
  O  O9  1  0.83244200  0.16755800  0.75000000  1
  O  O10  1  0.24699200  0.61059800  0.95602900  1
  O  O11  1  0.75300800  0.38940200  0.04397100  1
  O  O12  1  0.16755800  0.83244200  0.25000000  1
  O  O13  1  0.61059800  0.24699200  0.45602900  1
  O  O14  1  0.31266200  0.02534900  0.86041300  1
  O  O15  1  0.02534900  0.31266200  0.36041300  1
