# generated using pymatgen
data_MnOF
_symmetry_space_group_name_H-M   'P 1'
_cell_length_a   5.10936796
_cell_length_b   4.74571400
_cell_length_c   5.84978169
_cell_angle_alpha   90.00078862
_cell_angle_beta   93.12557489
_cell_angle_gamma   89.99865661
_symmetry_Int_Tables_number   1
_chemical_formula_structural   MnOF
_chemical_formula_sum   'Mn4 O4 F4'
_cell_volume   141.63215961
_cell_formula_units_Z   4
loop_
 _symmetry_equiv_pos_site_id
 _symmetry_equiv_pos_as_xyz
  1  'x, y, z'
loop_
 _atom_site_type_symbol
 _atom_site_label
 _atom_site_symmetry_multiplicity
 _atom_site_fract_x
 _atom_site_fract_y
 _atom_site_fract_z
 _atom_site_occupancy
  Mn  Mn0  1  0.22727600  0.47721000  0.66030400  1
  Mn  Mn1  1  0.22727100  0.02279400  0.16031700  1
  Mn  Mn2  1  0.77272800  0.97720700  0.83968500  1
  Mn  Mn3  1  0.77272400  0.52279000  0.33969600  1
  O  O4  1  0.07504300  0.21207100  0.89721800  1
  O  O5  1  0.07504200  0.28793300  0.39721500  1
  O  O6  1  0.92495900  0.71206700  0.60278400  1
  O  O7  1  0.92495700  0.78792800  0.10278200  1
  F  F8  1  0.43406300  0.75323400  0.86844100  1
  F  F9  1  0.43405500  0.74677200  0.36843700  1
  F  F10  1  0.56594600  0.25322700  0.63156300  1
  F  F11  1  0.56593700  0.24676500  0.13155800  1
