# generated using pymatgen
data_Y2HfO5
_symmetry_space_group_name_H-M   'P 1'
_cell_length_a   6.51959067
_cell_length_b   6.51959067
_cell_length_c   7.69685315
_cell_angle_alpha   69.18329175
_cell_angle_beta   69.18329175
_cell_angle_gamma   50.16352092
_symmetry_Int_Tables_number   1
_chemical_formula_structural   Y2HfO5
_chemical_formula_sum   'Y4 Hf2 O10'
_cell_volume   231.06804135
_cell_formula_units_Z   2
loop_
 _symmetry_equiv_pos_site_id
 _symmetry_equiv_pos_as_xyz
  1  'x, y, z'
loop_
 _atom_site_type_symbol
 _atom_site_label
 _atom_site_symmetry_multiplicity
 _atom_site_fract_x
 _atom_site_fract_y
 _atom_site_fract_z
 _atom_site_occupancy
  Y  Y0  1  0.36521000  0.35664800  0.74846300  1
  Y  Y1  1  0.35664800  0.36521100  0.24846300  1
  Y  Y2  1  0.64335200  0.63479000  0.75153700  1
  Y  Y3  1  0.63478900  0.64335200  0.25153700  1
  Hf  Hf4  1  0.00000000  0.00000000  0.50000000  1
  Hf  Hf5  1  0.00000000  0.00000000  0.00000000  1
  O  O6  1  0.25096700  0.60066700  0.95583900  1
  O  O7  1  0.60066700  0.25096700  0.45583900  1
  O  O8  1  0.97701100  0.67538600  0.64522600  1
  O  O9  1  0.32461400  0.02298900  0.85477400  1
  O  O10  1  0.67538600  0.97701100  0.14522600  1
  O  O11  1  0.02298900  0.32461400  0.35477400  1
  O  O12  1  0.39933300  0.74903300  0.54416100  1
  O  O13  1  0.82446600  0.17553400  0.75000000  1
  O  O14  1  0.74903300  0.39933300  0.04416100  1
  O  O15  1  0.17553400  0.82446600  0.25000000  1
