# generated using pymatgen
data_VCrO3
_symmetry_space_group_name_H-M   'P 1'
_cell_length_a   5.10928522
_cell_length_b   5.50969104
_cell_length_c   9.10312116
_cell_angle_alpha   85.19557322
_cell_angle_beta   73.53788623
_cell_angle_gamma   117.58434168
_symmetry_Int_Tables_number   1
_chemical_formula_structural   VCrO3
_chemical_formula_sum   'V4 Cr4 O12'
_cell_volume   210.73718555
_cell_formula_units_Z   4
loop_
 _symmetry_equiv_pos_site_id
 _symmetry_equiv_pos_as_xyz
  1  'x, y, z'
loop_
 _atom_site_type_symbol
 _atom_site_label
 _atom_site_symmetry_multiplicity
 _atom_site_fract_x
 _atom_site_fract_y
 _atom_site_fract_z
 _atom_site_occupancy
  V  V0  1  0.15100800  0.87622900  0.57196200  1
  V  V1  1  0.14817600  0.37017300  0.07664500  1
  V  V2  1  0.34924100  0.37695200  0.67624900  1
  V  V3  1  0.85188100  0.12936400  0.42486900  1
  Cr  Cr4  1  0.34920400  0.87136800  0.17292000  1
  Cr  Cr5  1  0.65063900  0.62863700  0.32484200  1
  Cr  Cr6  1  0.65082500  0.12620800  0.82639200  1
  Cr  Cr7  1  0.84923900  0.62363400  0.92555300  1
  O  O8  1  0.05239200  0.52650100  0.72498100  1
  O  O9  1  0.05304000  0.02327400  0.22323600  1
  O  O10  1  0.44626200  0.87422800  0.37285100  1
  O  O11  1  0.55357200  0.62507400  0.12558800  1
  O  O12  1  0.25116000  0.77573400  0.97324200  1
  O  O13  1  0.25065700  0.28044200  0.47206000  1
  O  O14  1  0.74896800  0.72208000  0.52616900  1
  O  O15  1  0.74840500  0.22166600  0.02613500  1
  O  O16  1  0.44943200  0.37469200  0.87689900  1
  O  O17  1  0.55292800  0.12644000  0.62619700  1
  O  O18  1  0.94727400  0.97215600  0.77605000  1
  O  O19  1  0.94569500  0.47514900  0.27716100  1
