# generated using pymatgen
data_Mn7O7F
_symmetry_space_group_name_H-M   'P 1'
_cell_length_a   3.53626224
_cell_length_b   3.53626224
_cell_length_c   19.56948500
_cell_angle_alpha   90.00000000
_cell_angle_beta   90.00000000
_cell_angle_gamma   120.00000443
_symmetry_Int_Tables_number   1
_chemical_formula_structural   Mn7O7F
_chemical_formula_sum   'Mn7 O7 F1'
_cell_volume   211.93317071
_cell_formula_units_Z   1
loop_
 _symmetry_equiv_pos_site_id
 _symmetry_equiv_pos_as_xyz
  1  'x, y, z'
loop_
 _atom_site_type_symbol
 _atom_site_label
 _atom_site_symmetry_multiplicity
 _atom_site_fract_x
 _atom_site_fract_y
 _atom_site_fract_z
 _atom_site_occupancy
  Mn  Mn0  1  0.33333300  0.66666700  0.07963100  1
  Mn  Mn1  1  0.33333300  0.66666700  0.35069600  1
  Mn  Mn2  1  0.33333300  0.66666700  0.61742100  1
  Mn  Mn3  1  0.33333300  0.66666700  0.87186900  1
  Mn  Mn4  1  0.66666700  0.33333300  0.21629700  1
  Mn  Mn5  1  0.66666700  0.33333300  0.48392800  1
  Mn  Mn6  1  0.66666700  0.33333300  0.74254100  1
  O  O7  1  0.33333300  0.66666700  0.24311600  1
  O  O8  1  0.33333300  0.66666700  0.50866300  1
  O  O9  1  0.33333300  0.66666700  0.74027500  1
  O  O10  1  0.66666700  0.33333300  0.10918300  1
  O  O11  1  0.66666700  0.33333300  0.37596900  1
  O  O12  1  0.66666700  0.33333300  0.64017100  1
  O  O13  1  0.66666700  0.33333300  0.84295100  1
  F  F14  1  0.33333300  0.66666700  0.97524100  1
