# generated using pymatgen
data_Y2GeO5
_symmetry_space_group_name_H-M   'P 1'
_cell_length_a   6.42681019
_cell_length_b   6.42681019
_cell_length_c   7.35059491
_cell_angle_alpha   68.82056764
_cell_angle_beta   68.82056764
_cell_angle_gamma   47.76626132
_symmetry_Int_Tables_number   1
_chemical_formula_structural   Y2GeO5
_chemical_formula_sum   'Y4 Ge2 O10'
_cell_volume   206.50228900
_cell_formula_units_Z   2
loop_
 _symmetry_equiv_pos_site_id
 _symmetry_equiv_pos_as_xyz
  1  'x, y, z'
loop_
 _atom_site_type_symbol
 _atom_site_label
 _atom_site_symmetry_multiplicity
 _atom_site_fract_x
 _atom_site_fract_y
 _atom_site_fract_z
 _atom_site_occupancy
  Y  Y0  1  0.37773100  0.32741100  0.78556900  1
  Y  Y1  1  0.32741100  0.37773100  0.28556900  1
  Y  Y2  1  0.67258900  0.62226900  0.71443100  1
  Y  Y3  1  0.62226900  0.67258900  0.21443100  1
  Ge  Ge4  1  0.00000000  0.00000000  0.50000000  1
  Ge  Ge5  1  0.00000000  0.00000000  0.00000000  1
  O  O6  1  0.21837800  0.62264100  0.97461300  1
  O  O7  1  0.62264100  0.21837800  0.47461300  1
  O  O8  1  0.00562600  0.66936000  0.62692500  1
  O  O9  1  0.33064000  0.99437400  0.87307500  1
  O  O10  1  0.66936000  0.00562600  0.12692500  1
  O  O11  1  0.99437400  0.33064000  0.37307500  1
  O  O12  1  0.37735900  0.78162200  0.52538700  1
  O  O13  1  0.84386200  0.15613800  0.75000000  1
  O  O14  1  0.78162200  0.37735900  0.02538700  1
  O  O15  1  0.15613800  0.84386200  0.25000000  1
