# generated using pymatgen
data_HfO3F4
_symmetry_space_group_name_H-M   'P 1'
_cell_length_a   12.12141000
_cell_length_b   6.59959400
_cell_length_c   8.37952638
_cell_angle_alpha   62.99093948
_cell_angle_beta   90.00000000
_cell_angle_gamma   90.00000000
_symmetry_Int_Tables_number   1
_chemical_formula_structural   HfO3F4
_chemical_formula_sum   'Hf4 O12 F16'
_cell_volume   597.22188963
_cell_formula_units_Z   4
loop_
 _symmetry_equiv_pos_site_id
 _symmetry_equiv_pos_as_xyz
  1  'x, y, z'
loop_
 _atom_site_type_symbol
 _atom_site_label
 _atom_site_symmetry_multiplicity
 _atom_site_fract_x
 _atom_site_fract_y
 _atom_site_fract_z
 _atom_site_occupancy
  Hf  Hf0  1  0.54757500  0.75026700  0.49628000  1
  Hf  Hf1  1  0.04757500  0.24973300  0.00372000  1
  Hf  Hf2  1  0.45242500  0.24973300  0.50372000  1
  Hf  Hf3  1  0.95242500  0.75026700  0.99628000  1
  O  O4  1  0.69718700  0.97728900  0.90147700  1
  O  O5  1  0.19718700  0.02271100  0.59852300  1
  O  O6  1  0.30281300  0.02271100  0.09852300  1
  O  O7  1  0.80281300  0.97728900  0.40147700  1
  O  O8  1  0.74904500  0.15615700  0.30906000  1
  O  O9  1  0.24904500  0.84384300  0.19094000  1
  O  O10  1  0.25095500  0.84384300  0.69094000  1
  O  O11  1  0.75095500  0.15615700  0.80906000  1
  O  O12  1  0.74790600  0.78595800  0.49566300  1
  O  O13  1  0.24790600  0.21404200  0.00433700  1
  O  O14  1  0.25209400  0.21404200  0.50433700  1
  O  O15  1  0.75209400  0.78595800  0.99566300  1
  F  F16  1  0.58548500  0.02903400  0.55234800  1
  F  F17  1  0.08548500  0.97096600  0.94765200  1
  F  F18  1  0.41451500  0.97096600  0.44765200  1
  F  F19  1  0.91451500  0.02903400  0.05234800  1
  F  F20  1  0.59061500  0.44896900  0.47342200  1
  F  F21  1  0.09061500  0.55103100  0.02657800  1
  F  F22  1  0.40938500  0.55103100  0.52657800  1
  F  F23  1  0.90938500  0.44896900  0.97342200  1
  F  F24  1  0.58765300  0.89641500  0.24589200  1
  F  F25  1  0.08765300  0.10358500  0.25410800  1
  F  F26  1  0.41234700  0.10358500  0.75410800  1
  F  F27  1  0.91234700  0.89641500  0.74589200  1
  F  F28  1  0.59411400  0.57361700  0.74099500  1
  F  F29  1  0.09411400  0.42638300  0.75900500  1
  F  F30  1  0.40588600  0.42638300  0.25900500  1
  F  F31  1  0.90588600  0.57361700  0.24099500  1
