# generated using pymatgen
data_Fe3(OF2)2
_symmetry_space_group_name_H-M   'P 1'
_cell_length_a   5.72603773
_cell_length_b   5.72603773
_cell_length_c   7.66296301
_cell_angle_alpha   70.13144382
_cell_angle_beta   70.13144382
_cell_angle_gamma   70.36928703
_symmetry_Int_Tables_number   1
_chemical_formula_structural   Fe3(OF2)2
_chemical_formula_sum   'Fe6 O4 F8'
_cell_volume   215.21531513
_cell_formula_units_Z   2
loop_
 _symmetry_equiv_pos_site_id
 _symmetry_equiv_pos_as_xyz
  1  'x, y, z'
loop_
 _atom_site_type_symbol
 _atom_site_label
 _atom_site_symmetry_multiplicity
 _atom_site_fract_x
 _atom_site_fract_y
 _atom_site_fract_z
 _atom_site_occupancy
  Fe  Fe0  1  0.67030900  0.64215200  0.84078600  1
  Fe  Fe1  1  0.31400200  0.35313600  0.66451500  1
  Fe  Fe2  1  0.64686400  0.68599800  0.33548500  1
  Fe  Fe3  1  0.35784800  0.32969100  0.15921400  1
  Fe  Fe4  1  0.01959200  0.98040800  0.50000000  1
  Fe  Fe5  1  0.01341800  0.98658200  0.00000000  1
  O  O6  1  0.35043700  0.99087800  0.33157000  1
  O  O7  1  0.00912200  0.64956300  0.66843000  1
  O  O8  1  0.71337700  0.28662300  0.00000000  1
  O  O9  1  0.30731200  0.69268800  0.00000000  1
  F  F10  1  0.62989000  0.04050900  0.66265500  1
  F  F11  1  0.95949100  0.37011000  0.33734500  1
  F  F12  1  0.90910200  0.90728500  0.29619200  1
  F  F13  1  0.23224200  0.22356300  0.97282100  1
  F  F14  1  0.56631600  0.56847200  0.64022000  1
  F  F15  1  0.77643700  0.76775800  0.02717900  1
  F  F16  1  0.43152800  0.43368400  0.35978000  1
  F  F17  1  0.09271500  0.09089800  0.70380800  1
