# generated using pymatgen
data_Fe8H10O17
_symmetry_space_group_name_H-M   'P 1'
_cell_length_a   10.59668099
_cell_length_b   6.08728220
_cell_length_c   10.55408590
_cell_angle_alpha   90.04081027
_cell_angle_beta   87.51448563
_cell_angle_gamma   89.21403944
_symmetry_Int_Tables_number   1
_chemical_formula_structural   Fe8H10O17
_chemical_formula_sum   'Fe16 H20 O34'
_cell_volume   680.08612935
_cell_formula_units_Z   2
loop_
 _symmetry_equiv_pos_site_id
 _symmetry_equiv_pos_as_xyz
  1  'x, y, z'
loop_
 _atom_site_type_symbol
 _atom_site_label
 _atom_site_symmetry_multiplicity
 _atom_site_fract_x
 _atom_site_fract_y
 _atom_site_fract_z
 _atom_site_occupancy
  Fe  Fe0  1  0.34036800  0.01345600  0.10644300  1
  Fe  Fe1  1  0.14913200  0.00829900  0.61092800  1
  Fe  Fe2  1  0.85140700  0.25705500  0.56988500  1
  Fe  Fe3  1  0.67758300  0.28534000  0.09559900  1
  Fe  Fe4  1  0.65904300  0.00653400  0.78359000  1
  Fe  Fe5  1  0.87295500  0.00987200  0.27296700  1
  Fe  Fe6  1  0.17203100  0.25646800  0.31514500  1
  Fe  Fe7  1  0.35161500  0.25849200  0.80902100  1
  Fe  Fe8  1  0.33644900  0.50543900  0.10656400  1
  Fe  Fe9  1  0.15610500  0.50867000  0.61945300  1
  Fe  Fe10  1  0.85224100  0.75754000  0.58359000  1
  Fe  Fe11  1  0.84495000  0.73318100  0.96455000  1
  Fe  Fe12  1  0.65925500  0.51145600  0.79505800  1
  Fe  Fe13  1  0.84661100  0.51755500  0.27218600  1
  Fe  Fe14  1  0.16488600  0.76668500  0.32187600  1
  Fe  Fe15  1  0.35242300  0.75937200  0.81450900  1
  H  H16  1  0.36819200  0.00566400  0.37202600  1
  H  H17  1  0.42620400  0.99746400  0.62416200  1
  H  H18  1  0.86486000  0.23793500  0.82247500  1
  H  H19  1  0.66521100  0.98406000  0.51141800  1
  H  H20  1  0.65606900  0.84363000  0.21138800  1
  H  H21  1  0.60483600  0.02260800  0.30961200  1
  H  H22  1  0.61203300  0.94670800  0.00655900  1
  H  H23  1  0.48456600  0.26516600  0.99232500  1
  H  H24  1  0.08854800  0.27155500  0.81720700  1
  H  H25  1  0.36326300  0.52542600  0.36575400  1
  H  H26  1  0.01449900  0.50660300  0.42214100  1
  H  H27  1  0.42789600  0.50729200  0.62339100  1
  H  H28  1  0.66220200  0.52010100  0.51610600  1
  H  H29  1  0.14314000  0.78895400  0.06737400  1
  H  H30  1  0.53109000  0.70683900  0.07606900  1
  H  H31  1  0.08958400  0.79765800  0.81954500  1
  H  H32  1  0.06685100  0.47237300  0.97706900  1
  H  H33  1  0.93889200  0.35535900  0.02801100  1
  H  H34  1  0.98857500  0.02688800  0.99745900  1
  H  H35  1  0.59602100  0.46929700  0.29132800  1
  O  O36  1  0.31190100  0.00522500  0.30196100  1
  O  O37  1  0.05534200  0.01611400  0.29944000  1
  O  O38  1  0.34709800  0.00746300  0.67387600  1
  O  O39  1  0.33364600  0.01216900  0.92912300  1
  O  O40  1  0.79565200  0.25312900  0.76481500  1
  O  O41  1  0.53960300  0.26087100  0.79508100  1
  O  O42  1  0.85255300  0.26377100  0.13863400  1
  O  O43  1  0.82136900  0.25883600  0.38883200  1
  O  O44  1  0.70623600  0.00909800  0.59038000  1
  O  O45  1  0.96660100  0.00662000  0.59583200  1
  O  O46  1  0.65616900  0.00399200  0.23147500  1
  O  O47  1  0.68690100  0.02766300  0.97747900  1
  O  O48  1  0.22858500  0.25894700  0.12720800  1
  O  O49  1  0.47736300  0.26467200  0.08611100  1
  O  O50  1  0.15504900  0.26131600  0.74928800  1
  O  O51  1  0.19130800  0.26381200  0.50067600  1
  O  O52  1  0.30489900  0.51372400  0.29783000  1
  O  O53  1  0.04215600  0.50995100  0.32731500  1
  O  O54  1  0.35062500  0.50971400  0.67579700  1
  O  O55  1  0.32799100  0.50667700  0.92765700  1
  O  O56  1  0.79296800  0.75374400  0.78355500  1
  O  O57  1  0.53879400  0.76367900  0.79076400  1
  O  O58  1  0.86960400  0.75726200  0.14565300  1
  O  O59  1  0.82334000  0.76788700  0.39474400  1
  O  O60  1  0.70837500  0.51063500  0.59340600  1
  O  O61  1  0.96868900  0.50578300  0.57470000  1
  O  O62  1  0.69857600  0.52053800  0.97677600  1
  O  O63  1  0.21124100  0.76352200  0.12614100  1
  O  O64  1  0.45017300  0.75047500  0.11789000  1
  O  O65  1  0.15576400  0.76153200  0.75129100  1
  O  O66  1  0.19098900  0.75113900  0.50150800  1
  O  O67  1  0.98261200  0.43342500  0.95084000  1
  O  O68  1  0.98709200  0.91581000  0.93080500  1
  O  O69  1  0.65694300  0.51777700  0.22605100  1
