# generated using pymatgen
data_Cs2HgC2SI4O
_symmetry_space_group_name_H-M   'P 1'
_cell_length_a   8.48119307
_cell_length_b   12.00765383
_cell_length_c   9.99345168
_cell_angle_alpha   80.44230434
_cell_angle_beta   76.12388225
_cell_angle_gamma   74.51327071
_symmetry_Int_Tables_number   1
_chemical_formula_structural   Cs2HgC2SI4O
_chemical_formula_sum   'Cs4 Hg2 C4 S2 I8 O2'
_cell_volume   946.47559148
_cell_formula_units_Z   2
loop_
 _symmetry_equiv_pos_site_id
 _symmetry_equiv_pos_as_xyz
  1  'x, y, z'
loop_
 _atom_site_type_symbol
 _atom_site_label
 _atom_site_symmetry_multiplicity
 _atom_site_fract_x
 _atom_site_fract_y
 _atom_site_fract_z
 _atom_site_occupancy
  Cs  Cs0  1  0.17378100  0.92010400  0.69708600  1
  Cs  Cs1  1  0.82620500  0.07990100  0.30291600  1
  Cs  Cs2  1  0.70697700  0.61823400  0.26021300  1
  Cs  Cs3  1  0.29299600  0.38176800  0.73980400  1
  Hg  Hg4  1  0.62705100  0.76901300  0.82108000  1
  Hg  Hg5  1  0.37294900  0.23099000  0.17891900  1
  C  C6  1  0.70974400  0.23666800  0.91872600  1
  C  C7  1  0.29028100  0.76332100  0.08126200  1
  C  C8  1  0.57245600  0.23954100  0.99871800  1
  C  C9  1  0.42754700  0.76045900  0.00129700  1
  S  S10  1  0.91329600  0.23359000  0.85694600  1
  S  S11  1  0.08670800  0.76640700  0.14305000  1
  I  I12  1  0.96195200  0.66519700  0.85125400  1
  I  I13  1  0.03805000  0.33481000  0.14874200  1
  I  I14  1  0.07158100  0.72616500  0.41304600  1
  I  I15  1  0.92841700  0.27383200  0.58695400  1
  I  I16  1  0.61821200  0.99753900  0.68805100  1
  I  I17  1  0.38178200  0.00246600  0.31194000  1
  I  I18  1  0.54238600  0.62858300  0.64660900  1
  I  I19  1  0.45761600  0.37141300  0.35339800  1
  O  O20  1  0.01280600  0.11282900  0.88409100  1
  O  O21  1  0.98720700  0.88717100  0.11589700  1
