# generated using pymatgen
data_La4FeO8
_symmetry_space_group_name_H-M   'P 1'
_cell_length_a   7.55284797
_cell_length_b   12.99396690
_cell_length_c   7.55285565
_cell_angle_alpha   90.00046481
_cell_angle_beta   89.72397913
_cell_angle_gamma   89.99921722
_symmetry_Int_Tables_number   1
_chemical_formula_structural   La4FeO8
_chemical_formula_sum   'La16 Fe4 O32'
_cell_volume   741.23965309
_cell_formula_units_Z   4
loop_
 _symmetry_equiv_pos_site_id
 _symmetry_equiv_pos_as_xyz
  1  'x, y, z'
loop_
 _atom_site_type_symbol
 _atom_site_label
 _atom_site_symmetry_multiplicity
 _atom_site_fract_x
 _atom_site_fract_y
 _atom_site_fract_z
 _atom_site_occupancy
  La  La0  1  0.25003100  0.13624700  0.24993500  1
  La  La1  1  0.75003800  0.13624600  0.74993900  1
  La  La2  1  0.49993400  0.63624300  0.00005600  1
  La  La3  1  0.99993500  0.63624500  0.50004100  1
  La  La4  1  0.49995700  0.36375300  0.00004500  1
  La  La5  1  0.99995600  0.36375300  0.50005000  1
  La  La6  1  0.75006200  0.86375500  0.74993800  1
  La  La7  1  0.25005700  0.86376000  0.24993700  1
  La  La8  1  0.25007200  0.13758200  0.74991500  1
  La  La9  1  0.75006500  0.13758500  0.24993900  1
  La  La10  1  0.50003000  0.63758200  0.49994600  1
  La  La11  1  0.00003400  0.63758400  0.99994400  1
  La  La12  1  0.49993200  0.36241900  0.50007700  1
  La  La13  1  0.99992700  0.36241400  0.00009600  1
  La  La14  1  0.74994500  0.86241800  0.25005500  1
  La  La15  1  0.24993600  0.86241100  0.75005400  1
  Fe  Fe16  1  0.00004100  0.00000800  0.49996000  1
  Fe  Fe17  1  0.24997400  0.49999500  0.25003400  1
  Fe  Fe18  1  0.50004100  0.00000900  0.99995800  1
  Fe  Fe19  1  0.74997000  0.50001000  0.75003500  1
  O  O20  1  0.99994500  0.18739300  0.00009500  1
  O  O21  1  0.49995100  0.18739100  0.50008400  1
  O  O22  1  0.24993800  0.68738800  0.75006100  1
  O  O23  1  0.74995000  0.68739100  0.25006200  1
  O  O24  1  0.75007100  0.31261100  0.24994300  1
  O  O25  1  0.25005300  0.31260800  0.74993100  1
  O  O26  1  0.00003800  0.81260900  0.99994000  1
  O  O27  1  0.50003800  0.81260700  0.49995000  1
  O  O28  1  0.50004600  0.17467800  0.99995100  1
  O  O29  1  0.00005000  0.17467800  0.49995200  1
  O  O30  1  0.75004500  0.67468200  0.74996100  1
  O  O31  1  0.25005300  0.67467800  0.24996200  1
  O  O32  1  0.24994800  0.32532000  0.25004700  1
  O  O33  1  0.74994800  0.32531400  0.75004500  1
  O  O34  1  0.49995200  0.82531400  0.00005100  1
  O  O35  1  0.99995500  0.82532100  0.50005000  1
  O  O36  1  0.25790000  0.00003000  0.00275700  1
  O  O37  1  0.75790200  0.00003000  0.50275400  1
  O  O38  1  0.50773200  0.50002500  0.75276900  1
  O  O39  1  0.00773500  0.50002600  0.25277500  1
  O  O40  1  0.49725000  0.00002800  0.24209300  1
  O  O41  1  0.99725400  0.00003300  0.74209600  1
  O  O42  1  0.74722700  0.50003100  0.99227300  1
  O  O43  1  0.24723400  0.50002700  0.49227200  1
  O  O44  1  0.25275300  0.49997000  0.00789500  1
  O  O45  1  0.75274800  0.49997100  0.50789200  1
  O  O46  1  0.50276900  0.99996600  0.75771000  1
  O  O47  1  0.00277000  0.99997300  0.25771900  1
  O  O48  1  0.49211400  0.49996800  0.24725200  1
  O  O49  1  0.99211500  0.49997700  0.74724800  1
  O  O50  1  0.74228800  0.99996700  0.99722800  1
  O  O51  1  0.24228300  0.99997100  0.49722800  1
