# generated using pymatgen
data_La3Ti2N3O4
_symmetry_space_group_name_H-M   'P 1'
_cell_length_a   10.75219623
_cell_length_b   10.75219623
_cell_length_c   10.75219623
_cell_angle_alpha   158.80460827
_cell_angle_beta   158.80460827
_cell_angle_gamma   30.15087535
_symmetry_Int_Tables_number   1
_chemical_formula_structural   La3Ti2N3O4
_chemical_formula_sum   'La3 Ti2 N3 O4'
_cell_volume   162.39063877
_cell_formula_units_Z   1
loop_
 _symmetry_equiv_pos_site_id
 _symmetry_equiv_pos_as_xyz
  1  'x, y, z'
loop_
 _atom_site_type_symbol
 _atom_site_label
 _atom_site_symmetry_multiplicity
 _atom_site_fract_x
 _atom_site_fract_y
 _atom_site_fract_z
 _atom_site_occupancy
  La  La0  1  0.00000000  0.00000000  0.00000000  1
  La  La1  1  0.18207200  0.18207200  0.00000000  1
  La  La2  1  0.81792800  0.81792800  0.00000000  1
  Ti  Ti3  1  0.40680200  0.40680200  0.00000000  1
  Ti  Ti4  1  0.59319800  0.59319800  0.00000000  1
  N  N5  1  0.50000000  0.50000000  0.00000000  1
  N  N6  1  0.09995800  0.59995800  0.50000000  1
  N  N7  1  0.40004200  0.90004200  0.50000000  1
  O  O8  1  0.29491100  0.29491100  0.00000000  1
  O  O9  1  0.70508900  0.70508900  0.00000000  1
  O  O10  1  0.60480000  0.10480000  0.50000000  1
  O  O11  1  0.89520000  0.39520000  0.50000000  1
