# generated using pymatgen
data_MgFeO3
_symmetry_space_group_name_H-M   'P 1'
_cell_length_a   5.50643010
_cell_length_b   5.50643010
_cell_length_c   5.50642991
_cell_angle_alpha   55.14471712
_cell_angle_beta   55.14471712
_cell_angle_gamma   55.14472315
_symmetry_Int_Tables_number   1
_chemical_formula_structural   MgFeO3
_chemical_formula_sum   'Mg2 Fe2 O6'
_cell_volume   104.72919564
_cell_formula_units_Z   2
loop_
 _symmetry_equiv_pos_site_id
 _symmetry_equiv_pos_as_xyz
  1  'x, y, z'
loop_
 _atom_site_type_symbol
 _atom_site_label
 _atom_site_symmetry_multiplicity
 _atom_site_fract_x
 _atom_site_fract_y
 _atom_site_fract_z
 _atom_site_occupancy
  Mg  Mg0  1  0.14149200  0.14149200  0.14149200  1
  Mg  Mg1  1  0.85850800  0.85850800  0.85850800  1
  Fe  Fe2  1  0.34759000  0.34759000  0.34759000  1
  Fe  Fe3  1  0.65241000  0.65241000  0.65241000  1
  O  O4  1  0.05838200  0.72419300  0.45834000  1
  O  O5  1  0.54166000  0.94161800  0.27580700  1
  O  O6  1  0.27580700  0.54166000  0.94161800  1
  O  O7  1  0.72419300  0.45834000  0.05838200  1
  O  O8  1  0.45834000  0.05838200  0.72419300  1
  O  O9  1  0.94161800  0.27580700  0.54166000  1
