data_image0
_chemical_formula_structural       MnN3Th2
_chemical_formula_sum              "Mn1 N3 Th2"
_cell_length_a       3.52184
_cell_length_b       3.84388
_cell_length_c       6.84734
_cell_angle_alpha    106.301
_cell_angle_beta     104.902
_cell_angle_gamma    90

_space_group_name_H-M_alt    "P 1"
_space_group_IT_number       1

loop_
  _space_group_symop_operation_xyz
  'x, y, z'

loop_
  _atom_site_type_symbol
  _atom_site_label
  _atom_site_symmetry_multiplicity
  _atom_site_fract_x
  _atom_site_fract_y
  _atom_site_fract_z
  _atom_site_occupancy
  Mn  Mn1       1.0  0.00000  0.00000  0.00000  1.0000
  N   N1        1.0  0.00000  0.50000  0.00000  1.0000
  N   N2        1.0  0.16200  0.16200  0.32400  1.0000
  N   N3        1.0  0.83800  0.83800  0.67600  1.0000
  Th  Th1       1.0  0.64400  0.64400  0.28900  1.0000
  Th  Th2       1.0  0.35600  0.35600  0.71100  1.0000
