# generated using pymatgen
data_CoN4Cl2O3
_symmetry_space_group_name_H-M   'P 1'
_cell_length_a   6.52752900
_cell_length_b   7.28524211
_cell_length_c   8.73424434
_cell_angle_alpha   81.88321058
_cell_angle_beta   83.90378921
_cell_angle_gamma   73.35046574
_symmetry_Int_Tables_number   1
_chemical_formula_structural   CoN4Cl2O3
_chemical_formula_sum   'Co2 N8 Cl4 O6'
_cell_volume   393.00615050
_cell_formula_units_Z   2
loop_
 _symmetry_equiv_pos_site_id
 _symmetry_equiv_pos_as_xyz
  1  'x, y, z'
loop_
 _atom_site_type_symbol
 _atom_site_label
 _atom_site_symmetry_multiplicity
 _atom_site_fract_x
 _atom_site_fract_y
 _atom_site_fract_z
 _atom_site_occupancy
  Co  Co0  1  0.95476300  0.99145800  0.85384600  1
  Co  Co1  1  0.04523700  0.00854200  0.14615400  1
  N  N2  1  0.70570800  0.12224800  0.80665600  1
  N  N3  1  0.29429200  0.87775200  0.19334400  1
  N  N4  1  0.16981700  0.02216500  0.68561500  1
  N  N5  1  0.83018300  0.97783500  0.31438500  1
  N  N6  1  0.21125400  0.17544200  0.60427300  1
  N  N7  1  0.78874600  0.82455800  0.39572700  1
  N  N8  1  0.90572900  0.78571200  0.74076200  1
  N  N9  1  0.09427100  0.21428800  0.25923800  1
  Cl  Cl10  1  0.67848500  0.18903500  0.38373700  1
  Cl  Cl11  1  0.32151500  0.81096500  0.61626300  1
  Cl  Cl12  1  0.55467800  0.31125600  0.88836300  1
  Cl  Cl13  1  0.44532200  0.68874400  0.11163700  1
  O  O14  1  0.02052000  0.15791900  0.97166900  1
  O  O15  1  0.97948000  0.84208100  0.02833100  1
  O  O16  1  0.10613300  0.33471800  0.64001700  1
  O  O17  1  0.89386700  0.66528200  0.35998300  1
  O  O18  1  0.15585500  0.34520800  0.20745800  1
  O  O19  1  0.84414500  0.65479200  0.79254200  1
