# generated using pymatgen
data_HoCuO2
_symmetry_space_group_name_H-M   'P 1'
_cell_length_a   6.07645520
_cell_length_b   6.07645520
_cell_length_c   6.07645454
_cell_angle_alpha   33.80122090
_cell_angle_beta   33.80122090
_cell_angle_gamma   33.80122481
_symmetry_Int_Tables_number   1
_chemical_formula_structural   HoCuO2
_chemical_formula_sum   'Ho1 Cu1 O2'
_cell_volume   61.87390334
_cell_formula_units_Z   1
loop_
 _symmetry_equiv_pos_site_id
 _symmetry_equiv_pos_as_xyz
  1  'x, y, z'
loop_
 _atom_site_type_symbol
 _atom_site_label
 _atom_site_symmetry_multiplicity
 _atom_site_fract_x
 _atom_site_fract_y
 _atom_site_fract_z
 _atom_site_occupancy
  Ho  Ho0  1  0.50000000  0.50000000  0.50000000  1
  Cu  Cu1  1  0.00000000  0.00000000  0.00000000  1
  O  O2  1  0.10668900  0.10668900  0.10668900  1
  O  O3  1  0.89331100  0.89331100  0.89331100  1
