# generated using pymatgen
data_Cr2Cu3(OF)12
_symmetry_space_group_name_H-M   'P 1'
_cell_length_a   7.51405300
_cell_length_b   7.69421619
_cell_length_c   7.75278521
_cell_angle_alpha   99.36227146
_cell_angle_beta   98.82858850
_cell_angle_gamma   96.43771472
_symmetry_Int_Tables_number   1
_chemical_formula_structural   Cr2Cu3(OF)12
_chemical_formula_sum   'Cr2 Cu3 O12 F12'
_cell_volume   432.67333328
_cell_formula_units_Z   1
loop_
 _symmetry_equiv_pos_site_id
 _symmetry_equiv_pos_as_xyz
  1  'x, y, z'
loop_
 _atom_site_type_symbol
 _atom_site_label
 _atom_site_symmetry_multiplicity
 _atom_site_fract_x
 _atom_site_fract_y
 _atom_site_fract_z
 _atom_site_occupancy
  Cr  Cr0  1  0.00000000  0.00000000  0.50000000  1
  Cr  Cr1  1  0.50000000  0.50000000  0.00000000  1
  Cu  Cu2  1  0.00000000  0.00000000  0.00000000  1
  Cu  Cu3  1  0.00000000  0.50000000  0.50000000  1
  Cu  Cu4  1  0.50000000  0.00000000  0.50000000  1
  O  O5  1  0.16071300  0.83658100  0.93520500  1
  O  O6  1  0.83928700  0.16341900  0.06479500  1
  O  O7  1  0.24866700  0.99571800  0.96852600  1
  O  O8  1  0.75133300  0.00428200  0.03147400  1
  O  O9  1  0.09281400  0.49817200  0.28207300  1
  O  O10  1  0.90718600  0.50182800  0.71792700  1
  O  O11  1  0.21032700  0.45019200  0.39816200  1
  O  O12  1  0.78967300  0.54980800  0.60183800  1
  O  O13  1  0.49264100  0.14125500  0.32072800  1
  O  O14  1  0.50735900  0.85874500  0.67927200  1
  O  O15  1  0.45401200  0.75907900  0.52454200  1
  O  O16  1  0.54598800  0.24092100  0.47545800  1
  F  F17  1  0.08634300  0.96023500  0.28166100  1
  F  F18  1  0.91365700  0.03976500  0.71833900  1
  F  F19  1  0.08643900  0.79263300  0.56042300  1
  F  F20  1  0.91356100  0.20736700  0.43957700  1
  F  F21  1  0.22432900  0.12626600  0.60039200  1
  F  F22  1  0.77567100  0.87373400  0.39960800  1
  F  F23  1  0.44252900  0.71467600  0.08845700  1
  F  F24  1  0.55747100  0.28532400  0.91154300  1
  F  F25  1  0.27500100  0.39289500  0.00214000  1
  F  F26  1  0.72499900  0.60710500  0.99786000  1
  F  F27  1  0.42380400  0.53279000  0.77563000  1
  F  F28  1  0.57619600  0.46721000  0.22437000  1
