# generated using pymatgen
data_N2
_symmetry_space_group_name_H-M   'P 1'
_cell_length_a   4.37532827
_cell_length_b   4.37532827
_cell_length_c   4.37532827
_cell_angle_alpha   151.32068696
_cell_angle_beta   134.48620878
_cell_angle_gamma   54.68599791
_symmetry_Int_Tables_number   1
_chemical_formula_structural   N2
_chemical_formula_sum   N2
_cell_volume   28.51163751
_cell_formula_units_Z   1
loop_
 _symmetry_equiv_pos_site_id
 _symmetry_equiv_pos_as_xyz
  1  'x, y, z'
loop_
 _atom_site_type_symbol
 _atom_site_label
 _atom_site_symmetry_multiplicity
 _atom_site_fract_x
 _atom_site_fract_y
 _atom_site_fract_z
 _atom_site_occupancy
  N  N0  1  0.60582100  0.25000000  0.35582100  1
  N  N1  1  0.39417900  0.75000000  0.64417900  1
