# generated using pymatgen
data_ZrMnO3
_symmetry_space_group_name_H-M   'P 1'
_cell_length_a   5.47207556
_cell_length_b   5.81228011
_cell_length_c   5.47201375
_cell_angle_alpha   118.07576706
_cell_angle_beta   119.99845207
_cell_angle_gamma   61.92016266
_symmetry_Int_Tables_number   1
_chemical_formula_structural   ZrMnO3
_chemical_formula_sum   'Zr2 Mn2 O6'
_cell_volume   126.52058401
_cell_formula_units_Z   2
loop_
 _symmetry_equiv_pos_site_id
 _symmetry_equiv_pos_as_xyz
  1  'x, y, z'
loop_
 _atom_site_type_symbol
 _atom_site_label
 _atom_site_symmetry_multiplicity
 _atom_site_fract_x
 _atom_site_fract_y
 _atom_site_fract_z
 _atom_site_occupancy
  Zr  Zr0  1  0.79618600  0.61139200  0.20374200  1
  Zr  Zr1  1  0.29609000  0.11171000  0.70385700  1
  Mn  Mn2  1  0.51218900  0.46354000  0.48783500  1
  Mn  Mn3  1  0.01236500  0.96261300  0.98743500  1
  O  O4  1  0.18620600  0.30874800  0.41515500  1
  O  O5  1  0.92036800  0.30874700  0.81391600  1
  O  O6  1  0.42031100  0.80856000  0.91497900  1
  O  O7  1  0.58498400  0.30855400  0.07965500  1
  O  O8  1  0.08474700  0.80879500  0.31393400  1
  O  O9  1  0.68595300  0.80854500  0.57949300  1
