# generated using pymatgen
data_GdYO2
_symmetry_space_group_name_H-M   'P 1'
_cell_length_a   3.62955763
_cell_length_b   3.62955763
_cell_length_c   13.12093500
_cell_angle_alpha   90.00000000
_cell_angle_beta   90.00000000
_cell_angle_gamma   119.99999317
_symmetry_Int_Tables_number   1
_chemical_formula_structural   GdYO2
_chemical_formula_sum   'Gd2 Y2 O4'
_cell_volume   149.69346372
_cell_formula_units_Z   2
loop_
 _symmetry_equiv_pos_site_id
 _symmetry_equiv_pos_as_xyz
  1  'x, y, z'
loop_
 _atom_site_type_symbol
 _atom_site_label
 _atom_site_symmetry_multiplicity
 _atom_site_fract_x
 _atom_site_fract_y
 _atom_site_fract_z
 _atom_site_occupancy
  Gd  Gd0  1  0.33333300  0.66666700  0.25000000  1
  Gd  Gd1  1  0.66666700  0.33333300  0.75000000  1
  Y  Y2  1  0.00000000  0.00000000  0.00000000  1
  Y  Y3  1  0.00000000  0.00000000  0.50000000  1
  O  O4  1  0.33333300  0.66666700  0.08000600  1
  O  O5  1  0.33333300  0.66666700  0.41999400  1
  O  O6  1  0.66666700  0.33333300  0.91999400  1
  O  O7  1  0.66666700  0.33333300  0.58000600  1
