# generated using pymatgen
data_KPtBr3NO
_symmetry_space_group_name_H-M   'P 1'
_cell_length_a   8.55002200
_cell_length_b   14.68818700
_cell_length_c   19.68650100
_cell_angle_alpha   90.00000000
_cell_angle_beta   90.00000000
_cell_angle_gamma   90.00000000
_symmetry_Int_Tables_number   1
_chemical_formula_structural   KPtBr3NO
_chemical_formula_sum   'K12 Pt12 Br36 N12 O12'
_cell_volume   2472.31588044
_cell_formula_units_Z   12
loop_
 _symmetry_equiv_pos_site_id
 _symmetry_equiv_pos_as_xyz
  1  'x, y, z'
loop_
 _atom_site_type_symbol
 _atom_site_label
 _atom_site_symmetry_multiplicity
 _atom_site_fract_x
 _atom_site_fract_y
 _atom_site_fract_z
 _atom_site_occupancy
  K  K0  1  0.75000000  0.00000000  0.59992200  1
  K  K1  1  0.25000000  0.50000000  0.90007800  1
  K  K2  1  0.25000000  0.00000000  0.40007800  1
  K  K3  1  0.75000000  0.50000000  0.09992200  1
  K  K4  1  0.52011300  0.32617900  0.52623100  1
  K  K5  1  0.02011300  0.17382100  0.97376900  1
  K  K6  1  0.47988700  0.82617900  0.97376900  1
  K  K7  1  0.97988700  0.67382100  0.52623100  1
  K  K8  1  0.47988700  0.67382100  0.47376900  1
  K  K9  1  0.97988700  0.82617900  0.02623100  1
  K  K10  1  0.52011300  0.17382100  0.02623100  1
  K  K11  1  0.02011300  0.32617900  0.47376900  1
  Pt  Pt12  1  0.75000000  0.00000000  0.83745100  1
  Pt  Pt13  1  0.25000000  0.50000000  0.66254900  1
  Pt  Pt14  1  0.25000000  0.00000000  0.16254900  1
  Pt  Pt15  1  0.75000000  0.50000000  0.33745100  1
  Pt  Pt16  1  0.73869300  0.30563300  0.83523300  1
  Pt  Pt17  1  0.23869300  0.19436700  0.66476700  1
  Pt  Pt18  1  0.26130700  0.80563300  0.66476700  1
  Pt  Pt19  1  0.76130700  0.69436700  0.83523300  1
  Pt  Pt20  1  0.26130700  0.69436700  0.16476700  1
  Pt  Pt21  1  0.76130700  0.80563300  0.33523300  1
  Pt  Pt22  1  0.73869300  0.19436700  0.33523300  1
  Pt  Pt23  1  0.23869300  0.30563300  0.16476700  1
  Br  Br24  1  0.75000000  0.00000000  0.96825000  1
  Br  Br25  1  0.25000000  0.50000000  0.53175000  1
  Br  Br26  1  0.25000000  0.00000000  0.03175000  1
  Br  Br27  1  0.75000000  0.50000000  0.46825000  1
  Br  Br28  1  0.76672800  0.36806300  0.96508700  1
  Br  Br29  1  0.26672800  0.13193700  0.53491300  1
  Br  Br30  1  0.23327200  0.86806300  0.53491300  1
  Br  Br31  1  0.73327200  0.63193700  0.96508700  1
  Br  Br32  1  0.23327200  0.63193700  0.03491300  1
  Br  Br33  1  0.73327200  0.86806300  0.46508700  1
  Br  Br34  1  0.76672800  0.13193700  0.46508700  1
  Br  Br35  1  0.26672800  0.36806300  0.03491300  1
  Br  Br36  1  0.46050100  0.99531100  0.84504200  1
  Br  Br37  1  0.96050100  0.50468900  0.65495800  1
  Br  Br38  1  0.53949900  0.49531100  0.65495800  1
  Br  Br39  1  0.03949900  0.00468900  0.84504200  1
  Br  Br40  1  0.53949900  0.00468900  0.15495800  1
  Br  Br41  1  0.03949900  0.49531100  0.34504200  1
  Br  Br42  1  0.46050100  0.50468900  0.34504200  1
  Br  Br43  1  0.96050100  0.99531100  0.15495800  1
  Br  Br44  1  0.44282500  0.31250500  0.84131300  1
  Br  Br45  1  0.94282500  0.18749500  0.65868700  1
  Br  Br46  1  0.55717500  0.81250500  0.65868700  1
  Br  Br47  1  0.05717500  0.68749500  0.84131300  1
  Br  Br48  1  0.55717500  0.68749500  0.15868700  1
  Br  Br49  1  0.05717500  0.81250500  0.34131300  1
  Br  Br50  1  0.44282500  0.18749500  0.34131300  1
  Br  Br51  1  0.94282500  0.31250500  0.15868700  1
  Br  Br52  1  0.03820500  0.29900600  0.83131100  1
  Br  Br53  1  0.53820500  0.20099400  0.66868900  1
  Br  Br54  1  0.96179500  0.79900600  0.66868900  1
  Br  Br55  1  0.46179500  0.70099400  0.83131100  1
  Br  Br56  1  0.96179500  0.70099400  0.16868900  1
  Br  Br57  1  0.46179500  0.79900600  0.33131100  1
  Br  Br58  1  0.03820500  0.20099400  0.33131100  1
  Br  Br59  1  0.53820500  0.29900600  0.16868900  1
  N  N60  1  0.75000000  0.00000000  0.74870200  1
  N  N61  1  0.25000000  0.50000000  0.75129800  1
  N  N62  1  0.25000000  0.00000000  0.25129800  1
  N  N63  1  0.75000000  0.50000000  0.24870200  1
  N  N64  1  0.74103700  0.35066200  0.75492700  1
  N  N65  1  0.24103700  0.14933800  0.74507300  1
  N  N66  1  0.25896300  0.85066200  0.74507300  1
  N  N67  1  0.75896300  0.64933800  0.75492700  1
  N  N68  1  0.25896300  0.64933800  0.24507300  1
  N  N69  1  0.75896300  0.85066200  0.25492700  1
  N  N70  1  0.74103700  0.14933800  0.25492700  1
  N  N71  1  0.24103700  0.35066200  0.24507300  1
  O  O72  1  0.50000000  0.00000000  0.50000000  1
  O  O73  1  0.00000000  0.50000000  0.00000000  1
  O  O74  1  0.50000000  0.50000000  0.00000000  1
  O  O75  1  0.00000000  0.00000000  0.50000000  1
  O  O76  1  0.73893500  0.20428300  0.89473200  1
  O  O77  1  0.23893500  0.29571700  0.60526800  1
  O  O78  1  0.26106500  0.70428300  0.60526800  1
  O  O79  1  0.76106500  0.79571700  0.89473200  1
  O  O80  1  0.26106500  0.79571700  0.10526800  1
  O  O81  1  0.76106500  0.70428300  0.39473200  1
  O  O82  1  0.73893500  0.29571700  0.39473200  1
  O  O83  1  0.23893500  0.20428300  0.10526800  1
