# generated using pymatgen
data_V5O12
_symmetry_space_group_name_H-M   'P 1'
_cell_length_a   7.76506603
_cell_length_b   7.76508673
_cell_length_c   10.14981754
_cell_angle_alpha   112.31181080
_cell_angle_beta   112.31197144
_cell_angle_gamma   70.26699812
_symmetry_Int_Tables_number   1
_chemical_formula_structural   V5O12
_chemical_formula_sum   'V10 O24'
_cell_volume   510.22567974
_cell_formula_units_Z   2
loop_
 _symmetry_equiv_pos_site_id
 _symmetry_equiv_pos_as_xyz
  1  'x, y, z'
loop_
 _atom_site_type_symbol
 _atom_site_label
 _atom_site_symmetry_multiplicity
 _atom_site_fract_x
 _atom_site_fract_y
 _atom_site_fract_z
 _atom_site_occupancy
  V  V0  1  0.70539000  0.54461500  0.62500200  1
  V  V1  1  0.45979700  0.28233500  0.08342300  1
  V  V2  1  0.96766200  0.79020700  0.16658100  1
  V  V3  1  0.54535900  0.72054000  0.33256800  1
  V  V4  1  0.52946800  0.70462900  0.91744000  1
  V  V5  1  0.20552900  0.04446700  0.12499700  1
  V  V6  1  0.95976800  0.78236100  0.58339900  1
  V  V7  1  0.46764200  0.29022200  0.66659700  1
  V  V8  1  0.04539700  0.22054900  0.83253400  1
  V  V9  1  0.02944800  0.20461600  0.41746100  1
  O  O10  1  0.86985700  0.70456600  0.68254500  1
  O  O11  1  0.36987400  0.20455600  0.18255300  1
  O  O12  1  0.04543800  0.88011800  0.06743700  1
  O  O13  1  0.54544700  0.38013800  0.56745900  1
  O  O14  1  0.15021100  0.62295200  0.55505100  1
  O  O15  1  0.65027200  0.12296400  0.05510300  1
  O  O16  1  0.12704100  0.59974100  0.19491200  1
  O  O17  1  0.62704400  0.09977400  0.69494000  1
  O  O18  1  0.51569400  0.68498500  0.47678200  1
  O  O19  1  0.01573900  0.18491600  0.97670600  1
  O  O20  1  0.56502300  0.73429800  0.77322900  1
  O  O21  1  0.06507600  0.23426900  0.27328100  1
  O  O22  1  0.77912200  0.76927700  0.40385200  1
  O  O23  1  0.27922300  0.26928000  0.90387600  1
  O  O24  1  0.98070500  0.97079100  0.34612100  1
  O  O25  1  0.48073800  0.47086400  0.84615200  1
  O  O26  1  0.52894500  0.51070900  0.17812900  1
  O  O27  1  0.02896200  0.01067700  0.67802800  1
  O  O28  1  0.73930000  0.72104400  0.07187900  1
  O  O29  1  0.23931800  0.22104600  0.57196000  1
  O  O30  1  0.38057400  0.91294300  0.28034600  1
  O  O31  1  0.88062800  0.41293600  0.78032500  1
  O  O32  1  0.33706500  0.86941100  0.96966300  1
  O  O33  1  0.83706100  0.36938800  0.46967000  1
