# generated using pymatgen
data_Na2FeO3
_symmetry_space_group_name_H-M   'P 1'
_cell_length_a   5.55700601
_cell_length_b   6.13466597
_cell_length_c   11.14643300
_cell_angle_alpha   90.00189661
_cell_angle_beta   90.00002053
_cell_angle_gamma   116.93787587
_symmetry_Int_Tables_number   1
_chemical_formula_structural   Na2FeO3
_chemical_formula_sum   'Na8 Fe4 O12'
_cell_volume   338.75693227
_cell_formula_units_Z   4
loop_
 _symmetry_equiv_pos_site_id
 _symmetry_equiv_pos_as_xyz
  1  'x, y, z'
loop_
 _atom_site_type_symbol
 _atom_site_label
 _atom_site_symmetry_multiplicity
 _atom_site_fract_x
 _atom_site_fract_y
 _atom_site_fract_z
 _atom_site_occupancy
  Na  Na0  1  0.03672400  0.07308300  0.14274400  1
  Na  Na1  1  0.46329500  0.92697300  0.64276500  1
  Na  Na2  1  0.53671900  0.07305900  0.35724700  1
  Na  Na3  1  0.96328300  0.92694200  0.85723000  1
  Na  Na4  1  0.12422700  0.24884600  0.58320100  1
  Na  Na5  1  0.37576200  0.75111200  0.08319500  1
  Na  Na6  1  0.87577300  0.75114300  0.41680100  1
  Na  Na7  1  0.62423300  0.24886800  0.91681100  1
  Fe  Fe8  1  0.25842600  0.51686800  0.84444300  1
  Fe  Fe9  1  0.75839100  0.51679400  0.65555400  1
  Fe  Fe10  1  0.24156400  0.48312600  0.34438900  1
  Fe  Fe11  1  0.74164400  0.48328800  0.15561900  1
  O  O12  1  0.05067000  0.60135500  0.25002200  1
  O  O13  1  0.55067300  0.60135200  0.25002200  1
  O  O14  1  0.44931900  0.39865700  0.74999000  1
  O  O15  1  0.94934500  0.39865300  0.74999000  1
  O  O16  1  0.07889200  0.15771600  0.35779400  1
  O  O17  1  0.42112000  0.84231700  0.85778500  1
  O  O18  1  0.57891100  0.15774200  0.14221100  1
  O  O19  1  0.92108800  0.84224000  0.64220600  1
  O  O20  1  0.34433000  0.68876200  0.46674600  1
  O  O21  1  0.15563500  0.31115100  0.96677000  1
  O  O22  1  0.65564700  0.31118100  0.53319100  1
  O  O23  1  0.84432900  0.68877100  0.03327300  1
