# generated using pymatgen
data_MgSiO3
_symmetry_space_group_name_H-M   'P 1'
_cell_length_a   5.12954340
_cell_length_b   15.17136500
_cell_length_c   6.41986247
_cell_angle_alpha   90.00000000
_cell_angle_beta   87.41962911
_cell_angle_gamma   90.00000000
_symmetry_Int_Tables_number   1
_chemical_formula_structural   MgSiO3
_chemical_formula_sum   'Mg8 Si8 O24'
_cell_volume   499.10108596
_cell_formula_units_Z   8
loop_
 _symmetry_equiv_pos_site_id
 _symmetry_equiv_pos_as_xyz
  1  'x, y, z'
loop_
 _atom_site_type_symbol
 _atom_site_label
 _atom_site_symmetry_multiplicity
 _atom_site_fract_x
 _atom_site_fract_y
 _atom_site_fract_z
 _atom_site_occupancy
  Mg  Mg0  1  0.35864700  0.33533600  0.89357500  1
  Mg  Mg1  1  0.58814200  0.88155200  0.33342200  1
  Mg  Mg2  1  0.14135300  0.83533600  0.10642500  1
  Mg  Mg3  1  0.64135300  0.66466400  0.10642500  1
  Mg  Mg4  1  0.41185800  0.11844800  0.66657800  1
  Mg  Mg5  1  0.08814200  0.61844800  0.33342200  1
  Mg  Mg6  1  0.91185800  0.38155200  0.66657800  1
  Mg  Mg7  1  0.85864700  0.16466400  0.89357500  1
  Si  Si8  1  0.29592200  0.40658000  0.37361100  1
  Si  Si9  1  0.66409400  0.86184600  0.89680000  1
  Si  Si10  1  0.33590600  0.13815400  0.10320000  1
  Si  Si11  1  0.20407800  0.90658000  0.62638900  1
  Si  Si12  1  0.70407800  0.59342000  0.62638900  1
  Si  Si13  1  0.79592200  0.09342000  0.37361100  1
  Si  Si14  1  0.16409400  0.63815400  0.89680000  1
  Si  Si15  1  0.83590600  0.36184600  0.10320000  1
  O  O16  1  0.25537500  0.50959700  0.38161700  1
  O  O17  1  0.47194700  0.61658100  0.81136600  1
  O  O18  1  0.81624100  0.14497200  0.59466000  1
  O  O19  1  0.52805300  0.38341900  0.18863400  1
  O  O20  1  0.97194700  0.88341900  0.81136600  1
  O  O21  1  0.00546200  0.34890100  0.31604100  1
  O  O22  1  0.45508500  0.91274400  0.04935500  1
  O  O23  1  0.02805300  0.11658100  0.18863400  1
  O  O24  1  0.99453800  0.65109900  0.68395900  1
  O  O25  1  0.26611400  0.70941100  0.07998500  1
  O  O26  1  0.75537500  0.99040300  0.38161700  1
  O  O27  1  0.49453800  0.84890100  0.68395900  1
  O  O28  1  0.74462500  0.49040300  0.61838300  1
  O  O29  1  0.95508500  0.58725600  0.04935500  1
  O  O30  1  0.68375900  0.64497200  0.40534000  1
  O  O31  1  0.50546200  0.15109900  0.31604100  1
  O  O32  1  0.31624100  0.35502800  0.59466000  1
  O  O33  1  0.23388600  0.20941100  0.92001500  1
  O  O34  1  0.54491500  0.08725600  0.95064500  1
  O  O35  1  0.24462500  0.00959700  0.61838300  1
  O  O36  1  0.73388600  0.29058900  0.92001500  1
  O  O37  1  0.18375900  0.85502800  0.40534000  1
  O  O38  1  0.04491500  0.41274400  0.95064500  1
  O  O39  1  0.76611400  0.79058900  0.07998500  1
