# generated using pymatgen
data_KVO2
_symmetry_space_group_name_H-M   'P 1'
_cell_length_a   3.08992400
_cell_length_b   6.90569867
_cell_length_c   5.47250492
_cell_angle_alpha   67.94490264
_cell_angle_beta   89.99564225
_cell_angle_gamma   77.06775658
_symmetry_Int_Tables_number   1
_chemical_formula_structural   KVO2
_chemical_formula_sum   'K2 V2 O4'
_cell_volume   105.02593717
_cell_formula_units_Z   2
loop_
 _symmetry_equiv_pos_site_id
 _symmetry_equiv_pos_as_xyz
  1  'x, y, z'
loop_
 _atom_site_type_symbol
 _atom_site_label
 _atom_site_symmetry_multiplicity
 _atom_site_fract_x
 _atom_site_fract_y
 _atom_site_fract_z
 _atom_site_occupancy
  K  K0  1  0.25000800  0.49999900  0.25000800  1
  K  K1  1  0.75000500  0.50000100  0.74999200  1
  V  V2  1  0.49999500  0.00000000  0.50000000  1
  V  V3  1  0.99999700  0.00000000  0.00000000  1
  O  O4  1  0.41323900  0.17352100  0.07974600  1
  O  O5  1  0.91321500  0.17354600  0.57974100  1
  O  O6  1  0.58674800  0.82647900  0.92025400  1
  O  O7  1  0.08677200  0.82645400  0.42025900  1
