# generated using pymatgen
data_Na2FeO4
_symmetry_space_group_name_H-M   'P 1'
_cell_length_a   7.15767300
_cell_length_b   7.57162600
_cell_length_c   7.64514600
_cell_angle_alpha   90.00000000
_cell_angle_beta   90.00000000
_cell_angle_gamma   90.00000000
_symmetry_Int_Tables_number   1
_chemical_formula_structural   Na2FeO4
_chemical_formula_sum   'Na8 Fe4 O16'
_cell_volume   414.33039223
_cell_formula_units_Z   4
loop_
 _symmetry_equiv_pos_site_id
 _symmetry_equiv_pos_as_xyz
  1  'x, y, z'
loop_
 _atom_site_type_symbol
 _atom_site_label
 _atom_site_symmetry_multiplicity
 _atom_site_fract_x
 _atom_site_fract_y
 _atom_site_fract_z
 _atom_site_occupancy
  Na  Na0  1  0.74137800  0.50000000  0.00000000  1
  Na  Na1  1  0.25862200  0.50000000  0.00000000  1
  Na  Na2  1  0.00000000  0.73707400  0.26668100  1
  Na  Na3  1  0.50000000  0.23707400  0.23331900  1
  Na  Na4  1  0.75862200  0.00000000  0.50000000  1
  Na  Na5  1  0.24137800  0.00000000  0.50000000  1
  Na  Na6  1  0.50000000  0.76292600  0.76668100  1
  Na  Na7  1  0.00000000  0.26292600  0.73331900  1
  Fe  Fe8  1  0.00000000  0.22134500  0.14806100  1
  Fe  Fe9  1  0.50000000  0.72134500  0.35193900  1
  Fe  Fe10  1  0.50000000  0.27865500  0.64806100  1
  Fe  Fe11  1  0.00000000  0.77865500  0.85193900  1
  O  O12  1  0.81125700  0.20331900  0.02295800  1
  O  O13  1  0.18874300  0.20331900  0.02295800  1
  O  O14  1  0.50000000  0.56837100  0.19373900  1
  O  O15  1  0.00000000  0.43102900  0.21466800  1
  O  O16  1  0.50000000  0.93102900  0.28533200  1
  O  O17  1  0.00000000  0.06837100  0.30626100  1
  O  O18  1  0.68874300  0.70331900  0.47704200  1
  O  O19  1  0.31125700  0.70331900  0.47704200  1
  O  O20  1  0.68874300  0.29668100  0.52295800  1
  O  O21  1  0.31125700  0.29668100  0.52295800  1
  O  O22  1  0.00000000  0.93162900  0.69373900  1
  O  O23  1  0.50000000  0.06897100  0.71466800  1
  O  O24  1  0.00000000  0.56897100  0.78533200  1
  O  O25  1  0.50000000  0.43162900  0.80626100  1
  O  O26  1  0.81125700  0.79668100  0.97704200  1
  O  O27  1  0.18874300  0.79668100  0.97704200  1
