data_image0
_chemical_formula_structural       Te4U2
_chemical_formula_sum              "Te4 U2"
_cell_length_a       4.17796
_cell_length_b       6.15467
_cell_length_c       7.88504
_cell_angle_alpha    112.972
_cell_angle_beta     105.363
_cell_angle_gamma    90

_space_group_name_H-M_alt    "P 1"
_space_group_IT_number       1

loop_
  _space_group_symop_operation_xyz
  'x, y, z'

loop_
  _atom_site_type_symbol
  _atom_site_label
  _atom_site_symmetry_multiplicity
  _atom_site_fract_x
  _atom_site_fract_y
  _atom_site_fract_z
  _atom_site_occupancy
  Te  Te1       1.0  0.50000  0.25000  0.00000  1.0000
  Te  Te2       1.0  0.50000  0.75000  0.00000  1.0000
  Te  Te3       1.0  0.20200  0.70200  0.40400  1.0000
  Te  Te4       1.0  0.79800  0.29800  0.59600  1.0000
  U   U1        1.0  0.13500  0.13500  0.26900  1.0000
  U   U2        1.0  0.86500  0.86500  0.73100  1.0000
