# generated using pymatgen
data_VSiO3
_symmetry_space_group_name_H-M   'P 1'
_cell_length_a   5.05467329
_cell_length_b   6.66557464
_cell_length_c   6.66556129
_cell_angle_alpha   93.46824516
_cell_angle_beta   82.32600292
_cell_angle_gamma   97.67415888
_symmetry_Int_Tables_number   1
_chemical_formula_structural   VSiO3
_chemical_formula_sum   'V4 Si4 O12'
_cell_volume   220.36515899
_cell_formula_units_Z   4
loop_
 _symmetry_equiv_pos_site_id
 _symmetry_equiv_pos_as_xyz
  1  'x, y, z'
loop_
 _atom_site_type_symbol
 _atom_site_label
 _atom_site_symmetry_multiplicity
 _atom_site_fract_x
 _atom_site_fract_y
 _atom_site_fract_z
 _atom_site_occupancy
  V  V0  1  0.25001700  0.90573700  0.90574500  1
  V  V1  1  0.24999600  0.27650300  0.27648600  1
  V  V2  1  0.74997400  0.09424600  0.09426200  1
  V  V3  1  0.75000200  0.72349800  0.72349300  1
  Si  Si4  1  0.71059200  0.20840600  0.61255200  1
  Si  Si5  1  0.21059800  0.38744700  0.79160200  1
  Si  Si6  1  0.78940800  0.61255300  0.20840500  1
  Si  Si7  1  0.28940400  0.79160200  0.38744800  1
  O  O8  1  0.64986500  0.03290900  0.78019000  1
  O  O9  1  0.14987300  0.21980700  0.96711000  1
  O  O10  1  0.85013600  0.78019100  0.03290800  1
  O  O11  1  0.35013100  0.96711000  0.21981100  1
  O  O12  1  0.91548600  0.40559000  0.70412400  1
  O  O13  1  0.41547700  0.29587300  0.59440800  1
  O  O14  1  0.58451700  0.70412600  0.40559100  1
  O  O15  1  0.08452100  0.59440900  0.29587000  1
  O  O16  1  0.85421500  0.14433300  0.39390800  1
  O  O17  1  0.35421200  0.60608300  0.85566800  1
  O  O18  1  0.64578000  0.39390900  0.14433500  1
  O  O19  1  0.14579400  0.85566700  0.60608400  1
