# generated using pymatgen
data_MnCSO7
_symmetry_space_group_name_H-M   'P 1'
_cell_length_a   6.22093400
_cell_length_b   5.14138900
_cell_length_c   8.71139767
_cell_angle_alpha   86.51477400
_cell_angle_beta   90.00000000
_cell_angle_gamma   90.00000000
_symmetry_Int_Tables_number   1
_chemical_formula_structural   MnCSO7
_chemical_formula_sum   'Mn2 C2 S2 O14'
_cell_volume   278.11212853
_cell_formula_units_Z   2
loop_
 _symmetry_equiv_pos_site_id
 _symmetry_equiv_pos_as_xyz
  1  'x, y, z'
loop_
 _atom_site_type_symbol
 _atom_site_label
 _atom_site_symmetry_multiplicity
 _atom_site_fract_x
 _atom_site_fract_y
 _atom_site_fract_z
 _atom_site_occupancy
  Mn  Mn0  1  0.25000000  0.21776000  0.66985900  1
  Mn  Mn1  1  0.75000000  0.78224000  0.33014100  1
  C  C2  1  0.25000000  0.26826200  0.94206700  1
  C  C3  1  0.75000000  0.73173800  0.05793300  1
  S  S4  1  0.75000000  0.28241800  0.57532500  1
  S  S5  1  0.25000000  0.71758200  0.42467500  1
  O  O6  1  0.75000000  0.70123900  0.91921700  1
  O  O7  1  0.25000000  0.04346300  0.87620100  1
  O  O8  1  0.25000000  0.46461100  0.83733800  1
  O  O9  1  0.93688100  0.21318300  0.67657000  1
  O  O10  1  0.56311900  0.21318300  0.67657000  1
  O  O11  1  0.25000000  0.86174300  0.56476800  1
  O  O12  1  0.75000000  0.56783500  0.53283200  1
  O  O13  1  0.25000000  0.43216500  0.46716800  1
  O  O14  1  0.75000000  0.13825700  0.43523200  1
  O  O15  1  0.43688100  0.78681700  0.32343000  1
  O  O16  1  0.06311900  0.78681700  0.32343000  1
  O  O17  1  0.75000000  0.53538900  0.16266200  1
  O  O18  1  0.75000000  0.95653700  0.12379900  1
  O  O19  1  0.25000000  0.29876100  0.08078300  1
