# generated using pymatgen
data_Fe7(Ni3O8)2
_symmetry_space_group_name_H-M   'P 1'
_cell_length_a   6.00498737
_cell_length_b   6.00498737
_cell_length_c   10.29724724
_cell_angle_alpha   73.45706830
_cell_angle_beta   73.45706830
_cell_angle_gamma   60.49016177
_symmetry_Int_Tables_number   1
_chemical_formula_structural   Fe7(Ni3O8)2
_chemical_formula_sum   'Fe7 Ni6 O16'
_cell_volume   305.08970593
_cell_formula_units_Z   1
loop_
 _symmetry_equiv_pos_site_id
 _symmetry_equiv_pos_as_xyz
  1  'x, y, z'
loop_
 _atom_site_type_symbol
 _atom_site_label
 _atom_site_symmetry_multiplicity
 _atom_site_fract_x
 _atom_site_fract_y
 _atom_site_fract_z
 _atom_site_occupancy
  Fe  Fe0  1  0.00000000  0.00000000  0.50000000  1
  Fe  Fe1  1  0.31261500  0.31261500  0.57347000  1
  Fe  Fe2  1  0.25158800  0.74037500  0.24832300  1
  Fe  Fe3  1  0.74037500  0.25158800  0.24832300  1
  Fe  Fe4  1  0.68738500  0.68738500  0.42653000  1
  Fe  Fe5  1  0.25962500  0.74841200  0.75167700  1
  Fe  Fe6  1  0.74841200  0.25962500  0.75167700  1
  Ni  Ni7  1  0.25133300  0.25133300  0.25234600  1
  Ni  Ni8  1  0.00000000  0.00000000  0.00000000  1
  Ni  Ni9  1  0.00000000  0.50000000  0.00000000  1
  Ni  Ni10  1  0.50000000  0.00000000  0.00000000  1
  Ni  Ni11  1  0.50000000  0.50000000  0.00000000  1
  Ni  Ni12  1  0.74866700  0.74866700  0.74765400  1
  O  O13  1  0.88430300  0.88430300  0.36221000  1
  O  O14  1  0.12270300  0.12270300  0.12594100  1
  O  O15  1  0.14026300  0.62290200  0.12219600  1
  O  O16  1  0.62290200  0.14026300  0.12219600  1
  O  O17  1  0.87870100  0.36126100  0.36568500  1
  O  O18  1  0.36126100  0.87870100  0.36568500  1
  O  O19  1  0.61823900  0.61823900  0.12546400  1
  O  O20  1  0.38043300  0.38043300  0.36875600  1
  O  O21  1  0.11569700  0.11569700  0.63779000  1
  O  O22  1  0.87729700  0.87729700  0.87405900  1
  O  O23  1  0.12129900  0.63873900  0.63431500  1
  O  O24  1  0.63873900  0.12129900  0.63431500  1
  O  O25  1  0.85973700  0.37709800  0.87780400  1
  O  O26  1  0.37709800  0.85973700  0.87780400  1
  O  O27  1  0.38176100  0.38176100  0.87453600  1
  O  O28  1  0.61956700  0.61956700  0.63124400  1
