# generated using pymatgen
data_YScO2
_symmetry_space_group_name_H-M   'P 1'
_cell_length_a   6.47201028
_cell_length_b   6.47201028
_cell_length_c   6.47201062
_cell_angle_alpha   32.17218437
_cell_angle_beta   32.17218437
_cell_angle_gamma   32.17218707
_symmetry_Int_Tables_number   1
_chemical_formula_structural   YScO2
_chemical_formula_sum   'Y1 Sc1 O2'
_cell_volume   68.30820439
_cell_formula_units_Z   1
loop_
 _symmetry_equiv_pos_site_id
 _symmetry_equiv_pos_as_xyz
  1  'x, y, z'
loop_
 _atom_site_type_symbol
 _atom_site_label
 _atom_site_symmetry_multiplicity
 _atom_site_fract_x
 _atom_site_fract_y
 _atom_site_fract_z
 _atom_site_occupancy
  Y  Y0  1  0.50000000  0.50000000  0.50000000  1
  Sc  Sc1  1  0.00000000  0.00000000  0.00000000  1
  O  O2  1  0.10997900  0.10997900  0.10997900  1
  O  O3  1  0.89002100  0.89002100  0.89002100  1
