# generated using pymatgen
data_Na3FeO4
_symmetry_space_group_name_H-M   'P 1'
_cell_length_a   7.48552900
_cell_length_b   5.98631100
_cell_length_c   5.45589300
_cell_angle_alpha   89.99852791
_cell_angle_beta   89.99991971
_cell_angle_gamma   89.99865453
_symmetry_Int_Tables_number   1
_chemical_formula_structural   Na3FeO4
_chemical_formula_sum   'Na6 Fe2 O8'
_cell_volume   244.48240944
_cell_formula_units_Z   2
loop_
 _symmetry_equiv_pos_site_id
 _symmetry_equiv_pos_as_xyz
  1  'x, y, z'
loop_
 _atom_site_type_symbol
 _atom_site_label
 _atom_site_symmetry_multiplicity
 _atom_site_fract_x
 _atom_site_fract_y
 _atom_site_fract_z
 _atom_site_occupancy
  Na  Na0  1  0.99999900  0.15556000  0.47852400  1
  Na  Na1  1  0.24373300  0.31752800  0.98515800  1
  Na  Na2  1  0.25627200  0.68246300  0.48514900  1
  Na  Na3  1  0.49999900  0.84444000  0.97853400  1
  Na  Na4  1  0.74372900  0.68246400  0.48514800  1
  Na  Na5  1  0.75626700  0.31752900  0.98515800  1
  Fe  Fe6  1  0.99999900  0.81316300  0.99660800  1
  Fe  Fe7  1  0.50000100  0.18684100  0.49661000  1
  O  O8  1  0.00000100  0.09120600  0.90751600  1
  O  O9  1  0.99999600  0.80327600  0.31197800  1
  O  O10  1  0.20828400  0.69846000  0.90988700  1
  O  O11  1  0.29172000  0.30154000  0.40989000  1
  O  O12  1  0.50000400  0.19672200  0.81199600  1
  O  O13  1  0.49999800  0.90880500  0.40752500  1
  O  O14  1  0.70828700  0.30154700  0.40989300  1
  O  O15  1  0.79171000  0.69845700  0.90989000  1
