# generated using pymatgen
data_Zr3N2O3
_symmetry_space_group_name_H-M   'P 1'
_cell_length_a   5.77735648
_cell_length_b   5.77735648
_cell_length_c   10.89214300
_cell_angle_alpha   90.00000000
_cell_angle_beta   90.00000000
_cell_angle_gamma   139.38498308
_symmetry_Int_Tables_number   1
_chemical_formula_structural   Zr3N2O3
_chemical_formula_sum   'Zr6 N4 O6'
_cell_volume   236.66540150
_cell_formula_units_Z   2
loop_
 _symmetry_equiv_pos_site_id
 _symmetry_equiv_pos_as_xyz
  1  'x, y, z'
loop_
 _atom_site_type_symbol
 _atom_site_label
 _atom_site_symmetry_multiplicity
 _atom_site_fract_x
 _atom_site_fract_y
 _atom_site_fract_z
 _atom_site_occupancy
  Zr  Zr0  1  0.13612700  0.86387300  0.93981400  1
  Zr  Zr1  1  0.13553900  0.86446100  0.55380600  1
  Zr  Zr2  1  0.18622100  0.81377900  0.24889800  1
  Zr  Zr3  1  0.81377900  0.18622100  0.74889800  1
  Zr  Zr4  1  0.86446100  0.13553900  0.05380600  1
  Zr  Zr5  1  0.86387300  0.13612700  0.43981400  1
  N  N6  1  0.04699900  0.95300100  0.38519700  1
  N  N7  1  0.70532700  0.29467300  0.57562500  1
  N  N8  1  0.29467300  0.70532700  0.07562500  1
  N  N9  1  0.95300100  0.04699900  0.88519700  1
  O  O10  1  0.04484100  0.95515900  0.11702200  1
  O  O11  1  0.69275600  0.30724400  0.91967100  1
  O  O12  1  0.75645600  0.24354400  0.25996700  1
  O  O13  1  0.24354400  0.75645600  0.75996700  1
  O  O14  1  0.30724400  0.69275600  0.41967100  1
  O  O15  1  0.95515900  0.04484100  0.61702200  1
