# generated using pymatgen
data_Ca(H8O5)2
_symmetry_space_group_name_H-M   'P 1'
_cell_length_a   6.15433000
_cell_length_b   6.23708179
_cell_length_c   12.04696750
_cell_angle_alpha   80.98256817
_cell_angle_beta   88.00672009
_cell_angle_gamma   88.96084253
_symmetry_Int_Tables_number   1
_chemical_formula_structural   Ca(H8O5)2
_chemical_formula_sum   'Ca2 H32 O20'
_cell_volume   456.39429683
_cell_formula_units_Z   2
loop_
 _symmetry_equiv_pos_site_id
 _symmetry_equiv_pos_as_xyz
  1  'x, y, z'
loop_
 _atom_site_type_symbol
 _atom_site_label
 _atom_site_symmetry_multiplicity
 _atom_site_fract_x
 _atom_site_fract_y
 _atom_site_fract_z
 _atom_site_occupancy
  Ca  Ca0  1  0.01199900  0.02396900  0.54401900  1
  Ca  Ca1  1  0.98422000  0.02230400  0.00565900  1
  H  H2  1  0.70156900  0.63918000  0.36936800  1
  H  H3  1  0.94285200  0.74787100  0.35267400  1
  H  H4  1  0.08004300  0.34307700  0.34697300  1
  H  H5  1  0.30711300  0.36640400  0.41022200  1
  H  H6  1  0.25509400  0.94797100  0.35003300  1
  H  H7  1  0.31844300  0.70392700  0.40996800  1
  H  H8  1  0.72651200  0.10155000  0.33601500  1
  H  H9  1  0.64124500  0.27392300  0.41359100  1
  H  H10  1  0.04479300  0.72216500  0.85360100  1
  H  H11  1  0.29630600  0.66152900  0.89221400  1
  H  H12  1  0.70336400  0.41113600  0.90631000  1
  H  H13  1  0.87617800  0.37061100  0.80884800  1
  H  H14  1  0.72244300  0.95311200  0.79500000  1
  H  H15  1  0.64793400  0.74627400  0.88756300  1
  H  H16  1  0.37767100  0.08997100  0.85573400  1
  H  H17  1  0.36013000  0.32542000  0.89261200  1
  H  H18  1  0.18414500  0.27626800  0.72466100  1
  H  H19  1  0.28316400  0.38790200  0.60734900  1
  H  H20  1  0.72689300  0.61397000  0.58505800  1
  H  H21  1  0.97100100  0.54780500  0.61807500  1
  H  H22  1  0.62162600  0.26260200  0.62359400  1
  H  H23  1  0.55869900  0.01601300  0.64012800  1
  H  H24  1  0.28735400  0.81056000  0.71776100  1
  H  H25  1  0.39220100  0.71984500  0.60648600  1
  H  H26  1  0.70245700  0.34202400  0.10948500  1
  H  H27  1  0.94266900  0.39057000  0.13073200  1
  H  H28  1  0.09124600  0.67170600  0.18829800  1
  H  H29  1  0.25811300  0.59369700  0.09382200  1
  H  H30  1  0.35485400  0.24801500  0.09718300  1
  H  H31  1  0.42550000  0.00176800  0.11329300  1
  H  H32  1  0.71181700  0.80540700  0.18792400  1
  H  H33  1  0.60032300  0.70914200  0.08851700  1
  O  O34  1  0.49273900  0.50949400  0.43843400  1
  O  O35  1  0.48527900  0.51915800  0.93607200  1
  O  O36  1  0.50044900  0.49853300  0.56328100  1
  O  O37  1  0.47841200  0.49228200  0.06163800  1
  O  O38  1  0.81278200  0.71203700  0.31299700  1
  O  O39  1  0.18841700  0.26165500  0.39404500  1
  O  O40  1  0.19545300  0.81779900  0.39639600  1
  O  O41  1  0.72959600  0.13775000  0.41185900  1
  O  O42  1  0.19259500  0.77838900  0.85156800  1
  O  O43  1  0.85047000  0.34136700  0.89002300  1
  O  O44  1  0.75383700  0.86848800  0.86898600  1
  O  O45  1  0.27668000  0.21048300  0.85979500  1
  O  O46  1  0.14248000  0.31559700  0.64421000  1
  O  O47  1  0.87020200  0.67482900  0.60431200  1
  O  O48  1  0.68071600  0.11249900  0.65338400  1
  O  O49  1  0.33392800  0.85393600  0.63632300  1
  O  O50  1  0.84249100  0.26701000  0.13490700  1
  O  O51  1  0.10297400  0.65267000  0.10926900  1
  O  O52  1  0.29317000  0.09744100  0.11253700  1
  O  O53  1  0.65992500  0.84808100  0.10954100  1
