# generated using pymatgen
data_BaIO5
_symmetry_space_group_name_H-M   'P 1'
_cell_length_a   4.93418602
_cell_length_b   8.08805784
_cell_length_c   7.93344788
_cell_angle_alpha   114.61303154
_cell_angle_beta   98.48846917
_cell_angle_gamma   88.97513068
_symmetry_Int_Tables_number   1
_chemical_formula_structural   BaIO5
_chemical_formula_sum   'Ba2 I2 O10'
_cell_volume   284.35347777
_cell_formula_units_Z   2
loop_
 _symmetry_equiv_pos_site_id
 _symmetry_equiv_pos_as_xyz
  1  'x, y, z'
loop_
 _atom_site_type_symbol
 _atom_site_label
 _atom_site_symmetry_multiplicity
 _atom_site_fract_x
 _atom_site_fract_y
 _atom_site_fract_z
 _atom_site_occupancy
  Ba  Ba0  1  0.77822100  0.89358900  0.64773800  1
  Ba  Ba1  1  0.22177900  0.10641100  0.35226200  1
  I  I2  1  0.80043200  0.43208100  0.72106100  1
  I  I3  1  0.19956800  0.56791900  0.27893900  1
  O  O4  1  0.78431400  0.83565300  0.14721900  1
  O  O5  1  0.21568600  0.16434700  0.85278100  1
  O  O6  1  0.60488100  0.83386500  0.25030200  1
  O  O7  1  0.39511900  0.16613500  0.74969800  1
  O  O8  1  0.76957300  0.17873600  0.52502400  1
  O  O9  1  0.23042700  0.82126400  0.47497600  1
  O  O10  1  0.78157100  0.17025200  0.05644100  1
  O  O11  1  0.21842900  0.82974800  0.94355900  1
  O  O12  1  0.43262200  0.79440000  0.86365100  1
  O  O13  1  0.56737800  0.20560000  0.13634900  1
