# generated using pymatgen
data_BH12C3N
_symmetry_space_group_name_H-M   'P 1'
_cell_length_a   6.05032619
_cell_length_b   6.05032619
_cell_length_c   6.05032690
_cell_angle_alpha   108.44712973
_cell_angle_beta   108.44712973
_cell_angle_gamma   108.44713411
_symmetry_Int_Tables_number   1
_chemical_formula_structural   BH12C3N
_chemical_formula_sum   'B1 H12 C3 N1'
_cell_volume   176.66499035
_cell_formula_units_Z   1
loop_
 _symmetry_equiv_pos_site_id
 _symmetry_equiv_pos_as_xyz
  1  'x, y, z'
loop_
 _atom_site_type_symbol
 _atom_site_label
 _atom_site_symmetry_multiplicity
 _atom_site_fract_x
 _atom_site_fract_y
 _atom_site_fract_z
 _atom_site_occupancy
  B  B0  1  0.90052200  0.90052200  0.90052200  1
  H  H1  1  0.30757200  0.55274100  0.30757200  1
  H  H2  1  0.30757200  0.30757200  0.55274100  1
  H  H3  1  0.55274100  0.30757200  0.30757200  1
  H  H4  1  0.41685700  0.84442200  0.59949000  1
  H  H5  1  0.59949000  0.41685700  0.84442200  1
  H  H6  1  0.84442200  0.59949000  0.41685700  1
  H  H7  1  0.59949000  0.84442200  0.41685700  1
  H  H8  1  0.41685700  0.59949000  0.84442200  1
  H  H9  1  0.84442200  0.41685700  0.59949000  1
  H  H10  1  0.02524600  0.02524600  0.81898700  1
  H  H11  1  0.81898700  0.02524600  0.02524600  1
  H  H12  1  0.02524600  0.81898700  0.02524600  1
  C  C13  1  0.47987600  0.72626300  0.47987600  1
  C  C14  1  0.47987600  0.47987600  0.72626300  1
  C  C15  1  0.72626300  0.47987600  0.47987600  1
  N  N16  1  0.64367800  0.64367800  0.64367800  1
