# generated using pymatgen
data_LiV4O5F7
_symmetry_space_group_name_H-M   'P 1'
_cell_length_a   5.18441564
_cell_length_b   5.36637793
_cell_length_c   8.98954666
_cell_angle_alpha   105.96045475
_cell_angle_beta   89.48326707
_cell_angle_gamma   118.66667225
_symmetry_Int_Tables_number   1
_chemical_formula_structural   LiV4O5F7
_chemical_formula_sum   'Li1 V4 O5 F7'
_cell_volume   208.73675146
_cell_formula_units_Z   1
loop_
 _symmetry_equiv_pos_site_id
 _symmetry_equiv_pos_as_xyz
  1  'x, y, z'
loop_
 _atom_site_type_symbol
 _atom_site_label
 _atom_site_symmetry_multiplicity
 _atom_site_fract_x
 _atom_site_fract_y
 _atom_site_fract_z
 _atom_site_occupancy
  Li  Li0  1  0.81443300  0.61851600  0.59308500  1
  V  V1  1  0.98103400  0.01655300  0.00653500  1
  V  V2  1  0.74889100  0.51876900  0.23763900  1
  V  V3  1  0.50397900  0.95953900  0.50317700  1
  V  V4  1  0.21185100  0.49252700  0.74069100  1
  O  O5  1  0.84194600  0.25088300  0.67251600  1
  O  O6  1  0.82923400  0.23160200  0.08251300  1
  O  O7  1  0.78540900  0.73172500  0.12200400  1
  O  O8  1  0.67571600  0.75095800  0.42666100  1
  O  O9  1  0.26549600  0.76052400  0.62787600  1
  F  F10  1  0.72594500  0.27659100  0.38508200  1
  F  F11  1  0.68334200  0.74459000  0.81519300  1
  F  F12  1  0.36164000  0.27718800  0.58010600  1
  F  F13  1  0.32340000  0.23817100  0.17509800  1
  F  F14  1  0.22836400  0.25686300  0.87639200  1
  F  F15  1  0.17407600  0.75138300  0.32831300  1
  F  F16  1  0.17819800  0.76272900  0.92408400  1
