# generated using pymatgen
data_BaV2P2(H4O7)2
_symmetry_space_group_name_H-M   'P 1'
_cell_length_a   7.09317480
_cell_length_b   14.01346200
_cell_length_c   9.69162410
_cell_angle_alpha   90.00000000
_cell_angle_beta   137.22860649
_cell_angle_gamma   90.00000000
_symmetry_Int_Tables_number   1
_chemical_formula_structural   BaV2P2(H4O7)2
_chemical_formula_sum   'Ba2 V4 P4 H16 O28'
_cell_volume   654.18462497
_cell_formula_units_Z   2
loop_
 _symmetry_equiv_pos_site_id
 _symmetry_equiv_pos_as_xyz
  1  'x, y, z'
loop_
 _atom_site_type_symbol
 _atom_site_label
 _atom_site_symmetry_multiplicity
 _atom_site_fract_x
 _atom_site_fract_y
 _atom_site_fract_z
 _atom_site_occupancy
  Ba  Ba0  1  0.42161800  0.71322300  0.42510700  1
  Ba  Ba1  1  0.42161800  0.28677700  0.92510700  1
  V  V2  1  0.01522700  0.55529300  0.62672700  1
  V  V3  1  0.01522700  0.44470700  0.12672700  1
  V  V4  1  0.54931500  0.99911400  0.82260700  1
  V  V5  1  0.54931500  0.00088600  0.32260700  1
  P  P6  1  0.49421200  0.50821900  0.64634700  1
  P  P7  1  0.49421200  0.49178100  0.14634700  1
  P  P8  1  0.99964700  0.96378200  0.32842600  1
  P  P9  1  0.99964700  0.03621800  0.82842600  1
  H  H10  1  0.80094100  0.70845400  0.40237600  1
  H  H11  1  0.80094100  0.29154600  0.90237600  1
  H  H12  1  0.85471900  0.81260600  0.31411300  1
  H  H13  1  0.85471900  0.18739400  0.81411300  1
  H  H14  1  0.60288200  0.69616400  0.15876900  1
  H  H15  1  0.60288200  0.30383600  0.65876900  1
  H  H16  1  0.54632400  0.70080200  0.85977200  1
  H  H17  1  0.54632400  0.29919800  0.35977200  1
  H  H18  1  0.83387800  0.64972000  0.00017600  1
  H  H19  1  0.83387800  0.35028000  0.50017600  1
  H  H20  1  0.17254700  0.60070200  0.96127600  1
  H  H21  1  0.17254700  0.39929800  0.46127600  1
  H  H22  1  0.20040600  0.85498300  0.70175200  1
  H  H23  1  0.20040600  0.14501700  0.20175200  1
  H  H24  1  0.32631200  0.91534100  0.90109600  1
  H  H25  1  0.32631200  0.08465900  0.40109600  1
  O  O26  1  0.96408300  0.68117700  0.61987900  1
  O  O27  1  0.96408300  0.31882300  0.11987900  1
  O  O28  1  0.67629800  0.55351900  0.63523500  1
  O  O29  1  0.67629800  0.44648100  0.13523500  1
  O  O30  1  0.65461300  0.55033000  0.33782200  1
  O  O31  1  0.65461300  0.44967000  0.83782200  1
  O  O32  1  0.30854700  0.57594800  0.96698400  1
  O  O33  1  0.30854700  0.42405200  0.46698400  1
  O  O34  1  0.28308700  0.57723600  0.59938000  1
  O  O35  1  0.28308700  0.42276400  0.09938000  1
  O  O36  1  0.08568800  0.43135800  0.67378700  1
  O  O37  1  0.08568800  0.56864200  0.17378700  1
  O  O38  1  0.29136700  0.00718900  0.50554500  1
  O  O39  1  0.29136700  0.99281100  0.00554500  1
  O  O40  1  0.80345600  0.97949800  0.81647100  1
  O  O41  1  0.80345600  0.02050200  0.31647100  1
  O  O42  1  0.89283500  0.96881700  0.12323000  1
  O  O43  1  0.89283500  0.03118300  0.62323000  1
  O  O44  1  0.36456600  0.88796600  0.82591400  1
  O  O45  1  0.36456600  0.11203400  0.32591400  1
  O  O46  1  0.66767300  0.74278200  0.26105100  1
  O  O47  1  0.66767300  0.25721800  0.76105100  1
  O  O48  1  0.73542500  0.71171800  0.92996700  1
  O  O49  1  0.73542500  0.28828200  0.42996700  1
  O  O50  1  0.03504300  0.85624500  0.39532000  1
  O  O51  1  0.03504300  0.14375500  0.89532000  1
  O  O52  1  0.48269000  0.10583400  0.84686800  1
  O  O53  1  0.48269000  0.89416600  0.34686800  1
