# generated using pymatgen
data_CaAsH5O6
_symmetry_space_group_name_H-M   'P 1'
_cell_length_a   9.18639750
_cell_length_b   9.18639750
_cell_length_c   6.15526437
_cell_angle_alpha   83.83849581
_cell_angle_beta   83.83849581
_cell_angle_gamma   140.31771365
_symmetry_Int_Tables_number   1
_chemical_formula_structural   CaAsH5O6
_chemical_formula_sum   'Ca2 As2 H10 O12'
_cell_volume   314.65884494
_cell_formula_units_Z   2
loop_
 _symmetry_equiv_pos_site_id
 _symmetry_equiv_pos_as_xyz
  1  'x, y, z'
loop_
 _atom_site_type_symbol
 _atom_site_label
 _atom_site_symmetry_multiplicity
 _atom_site_fract_x
 _atom_site_fract_y
 _atom_site_fract_z
 _atom_site_occupancy
  Ca  Ca0  1  0.45669600  0.11196900  0.87943800  1
  Ca  Ca1  1  0.11196900  0.45669600  0.37943800  1
  As  As2  1  0.87019000  0.51003500  0.08358700  1
  As  As3  1  0.51003500  0.87019000  0.58358700  1
  H  H4  1  0.26601600  0.09421900  0.36662300  1
  H  H5  1  0.20320800  0.17070000  0.70002300  1
  H  H6  1  0.35054200  0.49922100  0.71435700  1
  H  H7  1  0.89908900  0.04733600  0.23951200  1
  H  H8  1  0.17070000  0.20320800  0.20002300  1
  H  H9  1  0.49922100  0.35054200  0.21435700  1
  H  H10  1  0.00126600  0.63466000  0.69505200  1
  H  H11  1  0.09421900  0.26601600  0.86662300  1
  H  H12  1  0.63466000  0.00126600  0.19505200  1
  H  H13  1  0.04733600  0.89908900  0.73951200  1
  O  O14  1  0.33347200  0.18844500  0.20483800  1
  O  O15  1  0.21285500  0.06802600  0.69615200  1
  O  O16  1  0.70851500  0.22838700  0.09282500  1
  O  O17  1  0.69646900  0.15652700  0.58849000  1
  O  O18  1  0.06802600  0.21285500  0.19615200  1
  O  O19  1  0.74328800  0.53947500  0.25661100  1
  O  O20  1  0.86857500  0.58733300  0.79763000  1
  O  O21  1  0.18844500  0.33347200  0.70483800  1
  O  O22  1  0.22838700  0.70851500  0.59282500  1
  O  O23  1  0.58733300  0.86857500  0.29763000  1
  O  O24  1  0.15652700  0.69646900  0.08849000  1
  O  O25  1  0.53947500  0.74328800  0.75661100  1
