# generated using pymatgen
data_Nb2Ge2O7
_symmetry_space_group_name_H-M   'P 1'
_cell_length_a   13.52116340
_cell_length_b   13.52116340
_cell_length_c   5.87043400
_cell_angle_alpha   90.00000000
_cell_angle_beta   90.00000000
_cell_angle_gamma   163.24444798
_symmetry_Int_Tables_number   1
_chemical_formula_structural   Nb2Ge2O7
_chemical_formula_sum   'Nb4 Ge4 O14'
_cell_volume   309.40440228
_cell_formula_units_Z   2
loop_
 _symmetry_equiv_pos_site_id
 _symmetry_equiv_pos_as_xyz
  1  'x, y, z'
loop_
 _atom_site_type_symbol
 _atom_site_label
 _atom_site_symmetry_multiplicity
 _atom_site_fract_x
 _atom_site_fract_y
 _atom_site_fract_z
 _atom_site_occupancy
  Nb  Nb0  1  0.94273900  0.05726100  0.99719300  1
  Nb  Nb1  1  0.83892500  0.16107500  0.51623900  1
  Nb  Nb2  1  0.16107500  0.83892500  0.01623900  1
  Nb  Nb3  1  0.05726100  0.94273900  0.49719300  1
  Ge  Ge4  1  0.71365200  0.28634800  0.56260200  1
  Ge  Ge5  1  0.43642200  0.56357800  0.43267700  1
  Ge  Ge6  1  0.56357800  0.43642200  0.93267700  1
  Ge  Ge7  1  0.28634800  0.71365200  0.06260200  1
  O  O8  1  0.99201000  0.00799000  0.77845700  1
  O  O9  1  0.88567500  0.11432500  0.81968700  1
  O  O10  1  0.90780600  0.09219400  0.34114100  1
  O  O11  1  0.77715200  0.22284800  0.69803900  1
  O  O12  1  0.80164800  0.19835200  0.23937700  1
  O  O13  1  0.55684600  0.44315400  0.59187000  1
  O  O14  1  0.64799800  0.35200200  0.01229800  1
  O  O15  1  0.44315400  0.55684600  0.09187000  1
  O  O16  1  0.35200200  0.64799800  0.51229800  1
  O  O17  1  0.19835200  0.80164800  0.73937700  1
  O  O18  1  0.11432500  0.88567500  0.31968700  1
  O  O19  1  0.00799000  0.99201000  0.27845700  1
  O  O20  1  0.22284800  0.77715200  0.19803900  1
  O  O21  1  0.09219400  0.90780600  0.84114100  1
