# generated using pymatgen
data_CaMoO4
_symmetry_space_group_name_H-M   'P 1'
_cell_length_a   5.32580117
_cell_length_b   5.70841110
_cell_length_c   6.51625635
_cell_angle_alpha   120.93441473
_cell_angle_beta   82.38377301
_cell_angle_gamma   94.34979272
_symmetry_Int_Tables_number   1
_chemical_formula_structural   CaMoO4
_chemical_formula_sum   'Ca2 Mo2 O8'
_cell_volume   168.42093016
_cell_formula_units_Z   2
loop_
 _symmetry_equiv_pos_site_id
 _symmetry_equiv_pos_as_xyz
  1  'x, y, z'
loop_
 _atom_site_type_symbol
 _atom_site_label
 _atom_site_symmetry_multiplicity
 _atom_site_fract_x
 _atom_site_fract_y
 _atom_site_fract_z
 _atom_site_occupancy
  Ca  Ca0  1  0.25236000  0.13157600  0.71745600  1
  Ca  Ca1  1  0.74764000  0.86842400  0.28254400  1
  Mo  Mo2  1  0.72845900  0.58744000  0.66087400  1
  Mo  Mo3  1  0.27154100  0.41256000  0.33912600  1
  O  O4  1  0.37203300  0.54781000  0.07174400  1
  O  O5  1  0.49672100  0.73941000  0.52439100  1
  O  O6  1  0.00358800  0.28590300  0.52235500  1
  O  O7  1  0.62930400  0.94216600  0.97678500  1
  O  O8  1  0.37069600  0.05783400  0.02321500  1
  O  O9  1  0.99641200  0.71409800  0.47764500  1
  O  O10  1  0.50327900  0.26059000  0.47560900  1
  O  O11  1  0.62796700  0.45219000  0.92825600  1
