# generated using pymatgen
data_VOF3
_symmetry_space_group_name_H-M   'P 1'
_cell_length_a   5.31313000
_cell_length_b   5.49012000
_cell_length_c   5.59420968
_cell_angle_alpha   60.23317829
_cell_angle_beta   90.00000000
_cell_angle_gamma   90.00000000
_symmetry_Int_Tables_number   1
_chemical_formula_structural   VOF3
_chemical_formula_sum   'V2 O2 F6'
_cell_volume   141.65023756
_cell_formula_units_Z   2
loop_
 _symmetry_equiv_pos_site_id
 _symmetry_equiv_pos_as_xyz
  1  'x, y, z'
loop_
 _atom_site_type_symbol
 _atom_site_label
 _atom_site_symmetry_multiplicity
 _atom_site_fract_x
 _atom_site_fract_y
 _atom_site_fract_z
 _atom_site_occupancy
  V  V0  1  0.27189600  0.00759500  0.93783800  1
  V  V1  1  0.72810400  0.00759500  0.43783800  1
  O  O2  1  0.54227700  0.07221300  0.17722700  1
  O  O3  1  0.45772300  0.07221300  0.67722700  1
  F  F4  1  0.02427500  0.92295900  0.33754900  1
  F  F5  1  0.33537900  0.65259700  0.18195700  1
  F  F6  1  0.97572500  0.92295900  0.83754900  1
  F  F7  1  0.83069900  0.34463700  0.36543000  1
  F  F8  1  0.66462100  0.65259700  0.68195700  1
  F  F9  1  0.16930100  0.34463700  0.86543000  1
