# generated using pymatgen
data_Ba3Na(SiO4)2
_symmetry_space_group_name_H-M   'P 1'
_cell_length_a   5.83880193
_cell_length_b   5.83880193
_cell_length_c   15.01622800
_cell_angle_alpha   90.00000000
_cell_angle_beta   90.00000000
_cell_angle_gamma   119.79339536
_symmetry_Int_Tables_number   1
_chemical_formula_structural   Ba3Na(SiO4)2
_chemical_formula_sum   'Ba6 Na2 Si4 O16'
_cell_volume   444.26219959
_cell_formula_units_Z   2
loop_
 _symmetry_equiv_pos_site_id
 _symmetry_equiv_pos_as_xyz
  1  'x, y, z'
loop_
 _atom_site_type_symbol
 _atom_site_label
 _atom_site_symmetry_multiplicity
 _atom_site_fract_x
 _atom_site_fract_y
 _atom_site_fract_z
 _atom_site_occupancy
  Ba  Ba0  1  0.01412100  0.98587900  0.25000000  1
  Ba  Ba1  1  0.98587900  0.01412100  0.75000000  1
  Ba  Ba2  1  0.66507300  0.33492700  0.92306200  1
  Ba  Ba3  1  0.33492700  0.66507300  0.07693800  1
  Ba  Ba4  1  0.33492700  0.66507300  0.42306200  1
  Ba  Ba5  1  0.66507300  0.33492700  0.57693800  1
  Na  Na6  1  0.00000000  0.00000000  0.50000000  1
  Na  Na7  1  0.00000000  0.00000000  0.00000000  1
  Si  Si8  1  0.66824500  0.33175500  0.36070000  1
  Si  Si9  1  0.33175500  0.66824500  0.63930000  1
  Si  Si10  1  0.33175500  0.66824500  0.86070000  1
  Si  Si11  1  0.66824500  0.33175500  0.13930000  1
  O  O12  1  0.36341400  0.18028600  0.39791000  1
  O  O13  1  0.82217300  0.17782700  0.39527900  1
  O  O14  1  0.81971400  0.63658600  0.39791000  1
  O  O15  1  0.63658600  0.81971400  0.60209000  1
  O  O16  1  0.17782700  0.82217300  0.60472100  1
  O  O17  1  0.18028600  0.36341400  0.60209000  1
  O  O18  1  0.63658600  0.81971400  0.89791000  1
  O  O19  1  0.17782700  0.82217300  0.89527900  1
  O  O20  1  0.18028600  0.36341400  0.89791000  1
  O  O21  1  0.36341400  0.18028600  0.10209000  1
  O  O22  1  0.82217300  0.17782700  0.10472100  1
  O  O23  1  0.81971400  0.63658600  0.10209000  1
  O  O24  1  0.66393400  0.33606600  0.25000000  1
  O  O25  1  0.33606600  0.66393400  0.75000000  1
  O  O26  1  0.69397200  0.30602800  0.75000000  1
  O  O27  1  0.30602800  0.69397200  0.25000000  1
