# generated using pymatgen
data_Gd2SCl4
_symmetry_space_group_name_H-M   'P 1'
_cell_length_a   6.74167868
_cell_length_b   7.56686034
_cell_length_c   9.48756931
_cell_angle_alpha   80.56655586
_cell_angle_beta   110.80124218
_cell_angle_gamma   89.96822099
_symmetry_Int_Tables_number   1
_chemical_formula_structural   Gd2SCl4
_chemical_formula_sum   'Gd4 S2 Cl8'
_cell_volume   445.41941842
_cell_formula_units_Z   2
loop_
 _symmetry_equiv_pos_site_id
 _symmetry_equiv_pos_as_xyz
  1  'x, y, z'
loop_
 _atom_site_type_symbol
 _atom_site_label
 _atom_site_symmetry_multiplicity
 _atom_site_fract_x
 _atom_site_fract_y
 _atom_site_fract_z
 _atom_site_occupancy
  Gd  Gd0  1  0.61700200  0.31854700  0.72232400  1
  Gd  Gd1  1  0.89374000  0.18178600  0.27802300  1
  Gd  Gd2  1  0.10626000  0.81821400  0.72197700  1
  Gd  Gd3  1  0.38299800  0.68145300  0.27767600  1
  S  S4  1  0.85520100  0.24923300  0.00026000  1
  S  S5  1  0.14479900  0.75076700  0.99974000  1
  Cl  Cl6  1  0.71334700  0.65352700  0.60167000  1
  Cl  Cl7  1  0.28716000  0.49680200  0.73981300  1
  Cl  Cl8  1  0.45216500  0.99810000  0.73950800  1
  Cl  Cl9  1  0.11209800  0.84684900  0.39949500  1
  Cl  Cl10  1  0.54783500  0.00190000  0.26049200  1
  Cl  Cl11  1  0.71284000  0.50319800  0.26018700  1
  Cl  Cl12  1  0.88790200  0.15315100  0.60050500  1
  Cl  Cl13  1  0.28665300  0.34647300  0.39833000  1
