# generated using pymatgen
data_TaAsO4
_symmetry_space_group_name_H-M   'P 1'
_cell_length_a   5.57809000
_cell_length_b   5.12719900
_cell_length_c   5.71334507
_cell_angle_alpha   79.09899422
_cell_angle_beta   90.00000000
_cell_angle_gamma   90.00000000
_symmetry_Int_Tables_number   1
_chemical_formula_structural   TaAsO4
_chemical_formula_sum   'Ta2 As2 O8'
_cell_volume   160.45302360
_cell_formula_units_Z   2
loop_
 _symmetry_equiv_pos_site_id
 _symmetry_equiv_pos_as_xyz
  1  'x, y, z'
loop_
 _atom_site_type_symbol
 _atom_site_label
 _atom_site_symmetry_multiplicity
 _atom_site_fract_x
 _atom_site_fract_y
 _atom_site_fract_z
 _atom_site_occupancy
  Ta  Ta0  1  0.34105000  0.50363100  0.48709800  1
  Ta  Ta1  1  0.65895000  0.50363100  0.98709800  1
  As  As2  1  0.17856900  0.05083100  0.07513300  1
  As  As3  1  0.82143100  0.05083100  0.57513300  1
  O  O4  1  0.86781900  0.78878900  0.84379200  1
  O  O5  1  0.40074800  0.66144400  0.76320800  1
  O  O6  1  0.61605400  0.26953700  0.70815300  1
  O  O7  1  0.08832100  0.25390900  0.60766600  1
  O  O8  1  0.13218100  0.78878900  0.34379200  1
  O  O9  1  0.59925200  0.66144400  0.26320800  1
  O  O10  1  0.38394600  0.26953700  0.20815300  1
  O  O11  1  0.91167900  0.25390900  0.10766600  1
