# generated using pymatgen
data_NaTmO2
_symmetry_space_group_name_H-M   'P 1'
_cell_length_a   7.34730638
_cell_length_b   7.34730638
_cell_length_c   5.88088803
_cell_angle_alpha   75.88777535
_cell_angle_beta   75.88777535
_cell_angle_gamma   126.44580038
_symmetry_Int_Tables_number   1
_chemical_formula_structural   NaTmO2
_chemical_formula_sum   'Na4 Tm4 O8'
_cell_volume   214.74484817
_cell_formula_units_Z   4
loop_
 _symmetry_equiv_pos_site_id
 _symmetry_equiv_pos_as_xyz
  1  'x, y, z'
loop_
 _atom_site_type_symbol
 _atom_site_label
 _atom_site_symmetry_multiplicity
 _atom_site_fract_x
 _atom_site_fract_y
 _atom_site_fract_z
 _atom_site_occupancy
  Na  Na0  1  0.55582700  0.44417300  0.25000000  1
  Na  Na1  1  0.68056700  0.31943300  0.75000000  1
  Na  Na2  1  0.31943300  0.68056700  0.25000000  1
  Na  Na3  1  0.44417300  0.55582700  0.75000000  1
  Tm  Tm4  1  0.19304300  0.80695700  0.75000000  1
  Tm  Tm5  1  0.93313800  0.06686200  0.75000000  1
  Tm  Tm6  1  0.06686200  0.93313800  0.25000000  1
  Tm  Tm7  1  0.80695700  0.19304300  0.25000000  1
  O  O8  1  0.13901600  0.26611200  0.29401800  1
  O  O9  1  0.58340900  0.95949700  0.70768700  1
  O  O10  1  0.04050300  0.41659100  0.79231300  1
  O  O11  1  0.26611200  0.13901600  0.79401800  1
  O  O12  1  0.73388800  0.86098400  0.20598200  1
  O  O13  1  0.95949700  0.58340900  0.20768700  1
  O  O14  1  0.41659100  0.04050300  0.29231300  1
  O  O15  1  0.86098400  0.73388800  0.70598200  1
