# generated using pymatgen
data_Ni3OF5
_symmetry_space_group_name_H-M   'P 1'
_cell_length_a   3.09224300
_cell_length_b   4.69517900
_cell_length_c   14.08967327
_cell_angle_alpha   88.96556224
_cell_angle_beta   90.00000000
_cell_angle_gamma   90.00000000
_symmetry_Int_Tables_number   1
_chemical_formula_structural   Ni3OF5
_chemical_formula_sum   'Ni6 O2 F10'
_cell_volume   204.52947627
_cell_formula_units_Z   2
loop_
 _symmetry_equiv_pos_site_id
 _symmetry_equiv_pos_as_xyz
  1  'x, y, z'
loop_
 _atom_site_type_symbol
 _atom_site_label
 _atom_site_symmetry_multiplicity
 _atom_site_fract_x
 _atom_site_fract_y
 _atom_site_fract_z
 _atom_site_occupancy
  Ni  Ni0  1  0.00000000  0.00000000  0.00000000  1
  Ni  Ni1  1  0.00000000  0.00971300  0.33101500  1
  Ni  Ni2  1  0.00000000  0.99028700  0.66898500  1
  Ni  Ni3  1  0.50000000  0.48693200  0.17066900  1
  Ni  Ni4  1  0.50000000  0.50000000  0.50000000  1
  Ni  Ni5  1  0.50000000  0.51306800  0.82933100  1
  O  O6  1  0.00000000  0.69874000  0.76710200  1
  O  O7  1  0.00000000  0.30126000  0.23289800  1
  F  F8  1  0.50000000  0.80220500  0.26869400  1
  F  F9  1  0.50000000  0.80424700  0.59941100  1
  F  F10  1  0.50000000  0.80264200  0.93527200  1
  F  F11  1  0.00000000  0.69509600  0.10311700  1
  F  F12  1  0.00000000  0.69875000  0.43261000  1
  F  F13  1  0.00000000  0.30125000  0.56739000  1
  F  F14  1  0.00000000  0.30490400  0.89688300  1
  F  F15  1  0.50000000  0.19735800  0.06472800  1
  F  F16  1  0.50000000  0.19575300  0.40058900  1
  F  F17  1  0.50000000  0.19779500  0.73130600  1
