# generated using pymatgen
data_V2O3F
_symmetry_space_group_name_H-M   'P 1'
_cell_length_a   5.58429028
_cell_length_b   5.58429028
_cell_length_c   8.82273138
_cell_angle_alpha   87.38602764
_cell_angle_beta   87.38602764
_cell_angle_gamma   75.57468387
_symmetry_Int_Tables_number   1
_chemical_formula_structural   V2O3F
_chemical_formula_sum   'V8 O12 F4'
_cell_volume   266.01263053
_cell_formula_units_Z   4
loop_
 _symmetry_equiv_pos_site_id
 _symmetry_equiv_pos_as_xyz
  1  'x, y, z'
loop_
 _atom_site_type_symbol
 _atom_site_label
 _atom_site_symmetry_multiplicity
 _atom_site_fract_x
 _atom_site_fract_y
 _atom_site_fract_z
 _atom_site_occupancy
  V  V0  1  0.62916500  0.62098800  0.87475500  1
  V  V1  1  0.88373200  0.86667400  0.62489500  1
  V  V2  1  0.21202900  0.28719900  0.75077400  1
  V  V3  1  0.46546500  0.53453500  0.50000000  1
  V  V4  1  0.71280100  0.78797100  0.24922600  1
  V  V5  1  0.13332600  0.11626800  0.37510500  1
  V  V6  1  0.37901200  0.37083500  0.12524500  1
  V  V7  1  0.04625100  0.95374900  0.00000000  1
  O  O8  1  0.95013800  0.55200100  0.75081700  1
  O  O9  1  0.97186700  0.97137700  0.22079100  1
  O  O10  1  0.22421900  0.21705200  0.97169200  1
  O  O11  1  0.72252600  0.72216700  0.47120100  1
  O  O12  1  0.47505500  0.46688100  0.72139900  1
  O  O13  1  0.02862300  0.02813300  0.77920900  1
  O  O14  1  0.78294800  0.77578100  0.02830800  1
  O  O15  1  0.27783300  0.27747400  0.52879900  1
  O  O16  1  0.53311900  0.52494500  0.27860100  1
  O  O17  1  0.20313000  0.79687000  0.50000000  1
  O  O18  1  0.44799900  0.04986200  0.24918300  1
  O  O19  1  0.30875800  0.69124200  0.00000000  1
  F  F20  1  0.80326900  0.19673100  0.50000000  1
  F  F21  1  0.55163300  0.94780200  0.74882100  1
  F  F22  1  0.70490300  0.29509700  0.00000000  1
  F  F23  1  0.05219800  0.44836700  0.25117900  1
