# generated using pymatgen
data_Cr4OF11
_symmetry_space_group_name_H-M   'P 1'
_cell_length_a   5.10184700
_cell_length_b   7.30022652
_cell_length_c   5.37208209
_cell_angle_alpha   94.22211716
_cell_angle_beta   89.99997881
_cell_angle_gamma   89.99995449
_symmetry_Int_Tables_number   1
_chemical_formula_structural   Cr4OF11
_chemical_formula_sum   'Cr4 O1 F11'
_cell_volume   199.53826277
_cell_formula_units_Z   1
loop_
 _symmetry_equiv_pos_site_id
 _symmetry_equiv_pos_as_xyz
  1  'x, y, z'
loop_
 _atom_site_type_symbol
 _atom_site_label
 _atom_site_symmetry_multiplicity
 _atom_site_fract_x
 _atom_site_fract_y
 _atom_site_fract_z
 _atom_site_occupancy
  Cr  Cr0  1  0.99873200  0.49974000  0.99969200  1
  Cr  Cr1  1  0.99873200  0.00026300  0.00030300  1
  Cr  Cr2  1  0.50234200  0.51048100  0.49995700  1
  Cr  Cr3  1  0.50234200  0.98951800  0.50004300  1
  O  O4  1  0.62035500  0.74999800  0.49999900  1
  F  F5  1  0.87078200  0.75000200  0.00000100  1
  F  F6  1  0.39246200  0.25000200  0.49999900  1
  F  F7  1  0.12440200  0.25000300  0.00000000  1
  F  F8  1  0.80767200  0.05877400  0.30855700  1
  F  F9  1  0.80766900  0.44122500  0.69144200  1
  F  F10  1  0.69012000  0.44033800  0.19108500  1
  F  F11  1  0.69012700  0.05966000  0.80891900  1
  F  F12  1  0.30768100  0.93892000  0.19117700  1
  F  F13  1  0.30767400  0.56107700  0.80882000  1
  F  F14  1  0.18945600  0.56031900  0.30925300  1
  F  F15  1  0.18945500  0.93967900  0.69075100  1
