# generated using pymatgen
data_Cs2MnO4
_symmetry_space_group_name_H-M   'P 1'
_cell_length_a   6.37523854
_cell_length_b   8.67039575
_cell_length_c   6.63737635
_cell_angle_alpha   90.04295176
_cell_angle_beta   61.20076828
_cell_angle_gamma   90.06652955
_symmetry_Int_Tables_number   1
_chemical_formula_structural   Cs2MnO4
_chemical_formula_sum   'Cs4 Mn2 O8'
_cell_volume   321.50728974
_cell_formula_units_Z   2
loop_
 _symmetry_equiv_pos_site_id
 _symmetry_equiv_pos_as_xyz
  1  'x, y, z'
loop_
 _atom_site_type_symbol
 _atom_site_label
 _atom_site_symmetry_multiplicity
 _atom_site_fract_x
 _atom_site_fract_y
 _atom_site_fract_z
 _atom_site_occupancy
  Cs  Cs0  1  0.97087400  0.11556300  0.05434400  1
  Cs  Cs1  1  0.02537100  0.61654700  0.94879500  1
  Cs  Cs2  1  0.34809200  0.41294600  0.30282300  1
  Cs  Cs3  1  0.65507100  0.91491100  0.69240200  1
  Mn  Mn4  1  0.32839300  0.90108400  0.34425800  1
  Mn  Mn5  1  0.67201900  0.39871800  0.65576200  1
  O  O6  1  0.81497100  0.41134400  0.36838600  1
  O  O7  1  0.18299500  0.91292200  0.63184500  1
  O  O8  1  0.38998100  0.07401500  0.22034400  1
  O  O9  1  0.61472300  0.57459000  0.77011400  1
  O  O10  1  0.84138000  0.30578000  0.74402900  1
  O  O11  1  0.58819000  0.81126500  0.25891100  1
  O  O12  1  0.41531600  0.30393400  0.74404600  1
  O  O13  1  0.15262600  0.80758600  0.26394100  1
