data_image0
_chemical_formula_structural       Ag2BaGeS4
_chemical_formula_sum              "Ag2 Ba1 Ge1 S4"
_cell_length_a       6.35489
_cell_length_b       6.35489
_cell_length_c       6.35489
_cell_angle_alpha    99.6884
_cell_angle_beta     114.573
_cell_angle_gamma    114.573

_space_group_name_H-M_alt    "P 1"
_space_group_IT_number       1

loop_
  _space_group_symop_operation_xyz
  'x, y, z'

loop_
  _atom_site_type_symbol
  _atom_site_label
  _atom_site_symmetry_multiplicity
  _atom_site_fract_x
  _atom_site_fract_y
  _atom_site_fract_z
  _atom_site_occupancy
  Ag  Ag1       1.0  0.50000  0.75000  0.25000  1.0000
  Ag  Ag2       1.0  0.50000  0.25000  0.75000  1.0000
  Ba  Ba1       1.0  0.00000  0.00000  0.00000  1.0000
  Ge  Ge1       1.0  0.00000  0.50000  0.50000  1.0000
  S   S1        1.0  0.00000  0.53200  0.15400  1.0000
  S   S2        1.0  0.62200  0.46800  0.46800  1.0000
  S   S3        1.0  0.00000  0.15400  0.53200  1.0000
  S   S4        1.0  0.37800  0.84600  0.84600  1.0000
