# generated using pymatgen
data_LuTlO2
_symmetry_space_group_name_H-M   'P 1'
_cell_length_a   6.79684449
_cell_length_b   6.79684449
_cell_length_c   6.79684498
_cell_angle_alpha   29.02086279
_cell_angle_beta   29.02086279
_cell_angle_gamma   29.02086357
_symmetry_Int_Tables_number   1
_chemical_formula_structural   LuTlO2
_chemical_formula_sum   'Lu1 Tl1 O2'
_cell_volume   65.36434959
_cell_formula_units_Z   1
loop_
 _symmetry_equiv_pos_site_id
 _symmetry_equiv_pos_as_xyz
  1  'x, y, z'
loop_
 _atom_site_type_symbol
 _atom_site_label
 _atom_site_symmetry_multiplicity
 _atom_site_fract_x
 _atom_site_fract_y
 _atom_site_fract_z
 _atom_site_occupancy
  Lu  Lu0  1  0.50000000  0.50000000  0.50000000  1
  Tl  Tl1  1  0.00000000  0.00000000  0.00000000  1
  O  O2  1  0.22243700  0.22243700  0.22243700  1
  O  O3  1  0.77756300  0.77756300  0.77756300  1
