# generated using pymatgen
data_Ti3N2O3
_symmetry_space_group_name_H-M   'P 1'
_cell_length_a   5.31123348
_cell_length_b   5.31123348
_cell_length_c   10.05308400
_cell_angle_alpha   90.00000000
_cell_angle_beta   90.00000000
_cell_angle_gamma   138.33525474
_symmetry_Int_Tables_number   1
_chemical_formula_structural   Ti3N2O3
_chemical_formula_sum   'Ti6 N4 O6'
_cell_volume   188.52200149
_cell_formula_units_Z   2
loop_
 _symmetry_equiv_pos_site_id
 _symmetry_equiv_pos_as_xyz
  1  'x, y, z'
loop_
 _atom_site_type_symbol
 _atom_site_label
 _atom_site_symmetry_multiplicity
 _atom_site_fract_x
 _atom_site_fract_y
 _atom_site_fract_z
 _atom_site_occupancy
  Ti  Ti0  1  0.13498000  0.86502000  0.94251400  1
  Ti  Ti1  1  0.13460900  0.86539100  0.54945000  1
  Ti  Ti2  1  0.19501400  0.80498600  0.24630900  1
  Ti  Ti3  1  0.80498600  0.19501400  0.74630900  1
  Ti  Ti4  1  0.86539100  0.13460900  0.04945000  1
  Ti  Ti5  1  0.86502000  0.13498000  0.44251400  1
  N  N6  1  0.04577500  0.95422500  0.38212000  1
  N  N7  1  0.69673800  0.30326200  0.57632400  1
  N  N8  1  0.30326200  0.69673800  0.07632400  1
  N  N9  1  0.95422500  0.04577500  0.88212000  1
  O  O10  1  0.04510800  0.95489200  0.11962600  1
  O  O11  1  0.68635600  0.31364400  0.92262500  1
  O  O12  1  0.75404200  0.24595800  0.26103300  1
  O  O13  1  0.24595800  0.75404200  0.76103300  1
  O  O14  1  0.31364400  0.68635600  0.42262500  1
  O  O15  1  0.95489200  0.04510800  0.61962600  1
