# generated using pymatgen
data_BH9(CO)3
_symmetry_space_group_name_H-M   'P 1'
_cell_length_a   7.87266100
_cell_length_b   7.87266175
_cell_length_c   4.56223800
_cell_angle_alpha   90.00000000
_cell_angle_beta   90.00000000
_cell_angle_gamma   120.00000105
_symmetry_Int_Tables_number   1
_chemical_formula_structural   BH9(CO)3
_chemical_formula_sum   'B2 H18 C6 O6'
_cell_volume   244.87909298
_cell_formula_units_Z   2
loop_
 _symmetry_equiv_pos_site_id
 _symmetry_equiv_pos_as_xyz
  1  'x, y, z'
loop_
 _atom_site_type_symbol
 _atom_site_label
 _atom_site_symmetry_multiplicity
 _atom_site_fract_x
 _atom_site_fract_y
 _atom_site_fract_z
 _atom_site_occupancy
  B  B0  1  0.00000000  0.00000000  0.50000000  1
  B  B1  1  0.00000000  0.00000000  0.00000000  1
  H  H2  1  0.07175400  0.61789600  0.25000000  1
  H  H3  1  0.54614200  0.92824600  0.25000000  1
  H  H4  1  0.38210400  0.45385800  0.25000000  1
  H  H5  1  0.92824600  0.38210400  0.75000000  1
  H  H6  1  0.45385800  0.07175400  0.75000000  1
  H  H7  1  0.61789600  0.54614200  0.75000000  1
  H  H8  1  0.86430500  0.59128800  0.44570500  1
  H  H9  1  0.72698400  0.13569500  0.44570500  1
  H  H10  1  0.40871200  0.27301600  0.44570500  1
  H  H11  1  0.13569500  0.40871200  0.94570500  1
  H  H12  1  0.27301600  0.86430500  0.94570500  1
  H  H13  1  0.59128800  0.72698400  0.94570500  1
  H  H14  1  0.13569500  0.40871200  0.55429500  1
  H  H15  1  0.27301600  0.86430500  0.55429500  1
  H  H16  1  0.59128800  0.72698400  0.55429500  1
  H  H17  1  0.86430500  0.59128800  0.05429500  1
  H  H18  1  0.72698400  0.13569500  0.05429500  1
  H  H19  1  0.40871200  0.27301600  0.05429500  1
  C  C20  1  0.95441600  0.65568800  0.25000000  1
  C  C21  1  0.70127200  0.04558400  0.25000000  1
  C  C22  1  0.34431200  0.29872800  0.25000000  1
  C  C23  1  0.04558400  0.34431200  0.75000000  1
  C  C24  1  0.29872800  0.95441600  0.75000000  1
  C  C25  1  0.65568800  0.70127200  0.75000000  1
  O  O26  1  0.82178000  0.95764800  0.25000000  1
  O  O27  1  0.13586900  0.17822000  0.25000000  1
  O  O28  1  0.04235200  0.86413100  0.25000000  1
  O  O29  1  0.17822000  0.04235200  0.75000000  1
  O  O30  1  0.86413100  0.82178000  0.75000000  1
  O  O31  1  0.95764800  0.13586900  0.75000000  1
