# generated using pymatgen
data_Ca2Y2Si2CO16
_symmetry_space_group_name_H-M   'P 1'
_cell_length_a   6.89174200
_cell_length_b   12.82995200
_cell_length_c   14.97271900
_cell_angle_alpha   90.00000000
_cell_angle_beta   90.00000000
_cell_angle_gamma   90.00000000
_symmetry_Int_Tables_number   1
_chemical_formula_structural   Ca2Y2Si2CO16
_chemical_formula_sum   'Ca8 Y8 Si8 C4 O64'
_cell_volume   1323.89858021
_cell_formula_units_Z   4
loop_
 _symmetry_equiv_pos_site_id
 _symmetry_equiv_pos_as_xyz
  1  'x, y, z'
loop_
 _atom_site_type_symbol
 _atom_site_label
 _atom_site_symmetry_multiplicity
 _atom_site_fract_x
 _atom_site_fract_y
 _atom_site_fract_z
 _atom_site_occupancy
  Ca  Ca0  1  0.23065000  0.06424300  0.05798300  1
  Ca  Ca1  1  0.26935000  0.43575700  0.55798300  1
  Ca  Ca2  1  0.76935000  0.56424300  0.94201700  1
  Ca  Ca3  1  0.73065000  0.93575700  0.44201700  1
  Ca  Ca4  1  0.76935000  0.93575700  0.94201700  1
  Ca  Ca5  1  0.73065000  0.56424300  0.44201700  1
  Ca  Ca6  1  0.23065000  0.43575700  0.05798300  1
  Ca  Ca7  1  0.26935000  0.06424300  0.55798300  1
  Y  Y8  1  0.39634500  0.06877000  0.28937700  1
  Y  Y9  1  0.10365500  0.43123000  0.78937700  1
  Y  Y10  1  0.60365500  0.56877000  0.71062300  1
  Y  Y11  1  0.89634500  0.93123000  0.21062300  1
  Y  Y12  1  0.60365500  0.93123000  0.71062300  1
  Y  Y13  1  0.89634500  0.56877000  0.21062300  1
  Y  Y14  1  0.39634500  0.43123000  0.28937700  1
  Y  Y15  1  0.10365500  0.06877000  0.78937700  1
  Si  Si16  1  0.67503400  0.12746900  0.07459000  1
  Si  Si17  1  0.82496600  0.37253100  0.57459000  1
  Si  Si18  1  0.32496600  0.62746900  0.92541000  1
  Si  Si19  1  0.17503400  0.87253100  0.42541000  1
  Si  Si20  1  0.32496600  0.87253100  0.92541000  1
  Si  Si21  1  0.17503400  0.62746900  0.42541000  1
  Si  Si22  1  0.67503400  0.37253100  0.07459000  1
  Si  Si23  1  0.82496600  0.12746900  0.57459000  1
  C  C24  1  0.39717700  0.25000000  0.39586000  1
  C  C25  1  0.10282300  0.25000000  0.89586000  1
  C  C26  1  0.60282300  0.75000000  0.60414000  1
  C  C27  1  0.89717700  0.75000000  0.10414000  1
  O  O28  1  0.93202900  0.08612200  0.48089300  1
  O  O29  1  0.56797100  0.41387800  0.98089300  1
  O  O30  1  0.06797100  0.58612200  0.51910700  1
  O  O31  1  0.43202900  0.91387800  0.01910700  1
  O  O32  1  0.06797100  0.91387800  0.51910700  1
  O  O33  1  0.43202900  0.58612200  0.01910700  1
  O  O34  1  0.93202900  0.41387800  0.48089300  1
  O  O35  1  0.56797100  0.08612200  0.98089300  1
  O  O36  1  0.67708700  0.99691900  0.29879900  1
  O  O37  1  0.82291300  0.50308100  0.79879900  1
  O  O38  1  0.32291300  0.49691900  0.70120100  1
  O  O39  1  0.17708700  0.00308100  0.20120100  1
  O  O40  1  0.32291300  0.00308100  0.70120100  1
  O  O41  1  0.17708700  0.49691900  0.20120100  1
  O  O42  1  0.67708700  0.50308100  0.29879900  1
  O  O43  1  0.82291300  0.99691900  0.79879900  1
  O  O44  1  0.02436000  0.16254100  0.28904000  1
  O  O45  1  0.47564000  0.33745900  0.78904000  1
  O  O46  1  0.97564000  0.66254100  0.71096000  1
  O  O47  1  0.52436000  0.83745900  0.21096000  1
  O  O48  1  0.97564000  0.83745900  0.71096000  1
  O  O49  1  0.52436000  0.66254100  0.21096000  1
  O  O50  1  0.02436000  0.33745900  0.28904000  1
  O  O51  1  0.47564000  0.16254100  0.78904000  1
  O  O52  1  0.93027800  0.25000000  0.27783800  1
  O  O53  1  0.56972200  0.25000000  0.77783800  1
  O  O54  1  0.06972200  0.75000000  0.72216200  1
  O  O55  1  0.43027800  0.75000000  0.22216200  1
  O  O56  1  0.86237800  0.05192600  0.09126500  1
  O  O57  1  0.63762200  0.44807400  0.59126500  1
  O  O58  1  0.13762200  0.55192600  0.90873500  1
  O  O59  1  0.36237800  0.94807400  0.40873500  1
  O  O60  1  0.13762200  0.94807400  0.90873500  1
  O  O61  1  0.36237800  0.55192600  0.40873500  1
  O  O62  1  0.86237800  0.44807400  0.09126500  1
  O  O63  1  0.63762200  0.05192600  0.59126500  1
  O  O64  1  0.50921200  0.11618600  0.15177100  1
  O  O65  1  0.99078800  0.38381400  0.65177100  1
  O  O66  1  0.49078800  0.61618600  0.84822900  1
  O  O67  1  0.00921200  0.88381400  0.34822900  1
  O  O68  1  0.49078800  0.88381400  0.84822900  1
  O  O69  1  0.00921200  0.61618600  0.34822900  1
  O  O70  1  0.50921200  0.38381400  0.15177100  1
  O  O71  1  0.99078800  0.11618600  0.65177100  1
  O  O72  1  0.74243600  0.25000000  0.06035300  1
  O  O73  1  0.75756400  0.25000000  0.56035300  1
  O  O74  1  0.25756400  0.75000000  0.93964700  1
  O  O75  1  0.24243600  0.75000000  0.43964700  1
  O  O76  1  0.37220100  0.16100500  0.43297900  1
  O  O77  1  0.12779900  0.33899500  0.93297900  1
  O  O78  1  0.62779900  0.66100500  0.56702100  1
  O  O79  1  0.87220100  0.83899500  0.06702100  1
  O  O80  1  0.62779900  0.83899500  0.56702100  1
  O  O81  1  0.87220100  0.66100500  0.06702100  1
  O  O82  1  0.37220100  0.33899500  0.43297900  1
  O  O83  1  0.12779900  0.16100500  0.93297900  1
  O  O84  1  0.44731400  0.25000000  0.31076600  1
  O  O85  1  0.05268600  0.25000000  0.81076600  1
  O  O86  1  0.55268600  0.75000000  0.68923400  1
  O  O87  1  0.94731400  0.75000000  0.18923400  1
  O  O88  1  0.20725300  0.25000000  0.10539000  1
  O  O89  1  0.29274700  0.25000000  0.60539000  1
  O  O90  1  0.79274700  0.75000000  0.89461000  1
  O  O91  1  0.70725300  0.75000000  0.39461000  1
