# generated using pymatgen
data_V4(OF3)3
_symmetry_space_group_name_H-M   'P 1'
_cell_length_a   5.23140800
_cell_length_b   5.41658213
_cell_length_c   7.57439765
_cell_angle_alpha   92.52076252
_cell_angle_beta   90.00114222
_cell_angle_gamma   90.32683610
_symmetry_Int_Tables_number   1
_chemical_formula_structural   V4(OF3)3
_chemical_formula_sum   'V4 O3 F9'
_cell_volume   214.41960680
_cell_formula_units_Z   1
loop_
 _symmetry_equiv_pos_site_id
 _symmetry_equiv_pos_as_xyz
  1  'x, y, z'
loop_
 _atom_site_type_symbol
 _atom_site_label
 _atom_site_symmetry_multiplicity
 _atom_site_fract_x
 _atom_site_fract_y
 _atom_site_fract_z
 _atom_site_occupancy
  V  V0  1  0.51912500  0.52229900  0.50528100  1
  V  V1  1  0.47431300  0.53308100  0.00609300  1
  V  V2  1  0.00223800  0.99662100  0.49968600  1
  V  V3  1  0.96509200  0.02520800  0.99340900  1
  O  O4  1  0.29126700  0.77998900  0.03949900  1
  O  O5  1  0.70128700  0.77787200  0.53945100  1
  O  O6  1  0.72028600  0.21058400  0.95689400  1
  F  F7  1  0.10117200  0.99592700  0.75081800  1
  F  F8  1  0.20287000  0.69480400  0.45034400  1
  F  F9  1  0.21895600  0.28027700  0.05735300  1
  F  F10  1  0.30560400  0.21328000  0.45682400  1
  F  F11  1  0.40119500  0.48656100  0.75036800  1
  F  F12  1  0.59790300  0.49309200  0.24917600  1
  F  F13  1  0.79475900  0.70380900  0.94620200  1
  F  F14  1  0.79756400  0.29213900  0.55081000  1
  F  F15  1  0.90637100  0.99445700  0.24779100  1
