# generated using pymatgen
data_Eu2CoO4
_symmetry_space_group_name_H-M   'P 1'
_cell_length_a   6.61460883
_cell_length_b   6.61460883
_cell_length_c   6.61460883
_cell_angle_alpha   146.69455426
_cell_angle_beta   146.69455426
_cell_angle_gamma   47.81625836
_symmetry_Int_Tables_number   1
_chemical_formula_structural   Eu2CoO4
_chemical_formula_sum   'Eu2 Co1 O4'
_cell_volume   86.91079557
_cell_formula_units_Z   1
loop_
 _symmetry_equiv_pos_site_id
 _symmetry_equiv_pos_as_xyz
  1  'x, y, z'
loop_
 _atom_site_type_symbol
 _atom_site_label
 _atom_site_symmetry_multiplicity
 _atom_site_fract_x
 _atom_site_fract_y
 _atom_site_fract_z
 _atom_site_occupancy
  Eu  Eu0  1  0.35919600  0.35919600  0.00000000  1
  Eu  Eu1  1  0.64080400  0.64080400  0.00000000  1
  Co  Co2  1  0.00000000  0.00000000  0.00000000  1
  O  O3  1  0.16426000  0.16426000  0.00000000  1
  O  O4  1  0.50000000  0.00000000  0.50000000  1
  O  O5  1  0.00000000  0.50000000  0.50000000  1
  O  O6  1  0.83574000  0.83574000  0.00000000  1
