# generated using pymatgen
data_Fe6O5F7
_symmetry_space_group_name_H-M   'P 1'
_cell_length_a   4.79540090
_cell_length_b   4.79540090
_cell_length_c   9.25405900
_cell_angle_alpha   90.00000000
_cell_angle_beta   90.00000000
_cell_angle_gamma   94.97720928
_symmetry_Int_Tables_number   1
_chemical_formula_structural   Fe6O5F7
_chemical_formula_sum   'Fe6 O5 F7'
_cell_volume   212.00270922
_cell_formula_units_Z   1
loop_
 _symmetry_equiv_pos_site_id
 _symmetry_equiv_pos_as_xyz
  1  'x, y, z'
loop_
 _atom_site_type_symbol
 _atom_site_label
 _atom_site_symmetry_multiplicity
 _atom_site_fract_x
 _atom_site_fract_y
 _atom_site_fract_z
 _atom_site_occupancy
  Fe  Fe0  1  0.99401100  0.99401100  0.83184300  1
  Fe  Fe1  1  0.99401100  0.99401100  0.16815700  1
  Fe  Fe2  1  0.02366700  0.02366700  0.50000000  1
  Fe  Fe3  1  0.49806100  0.49806100  0.00000000  1
  Fe  Fe4  1  0.48889200  0.48889200  0.67512500  1
  Fe  Fe5  1  0.48889200  0.48889200  0.32487500  1
  O  O6  1  0.29383100  0.29383100  0.83669200  1
  O  O7  1  0.29383100  0.29383100  0.16330800  1
  O  O8  1  0.33026000  0.33026000  0.50000000  1
  O  O9  1  0.69701200  0.69701200  0.83343500  1
  O  O10  1  0.69701200  0.69701200  0.16656500  1
  F  F11  1  0.80394400  0.18631000  0.00000000  1
  F  F12  1  0.80051100  0.20040200  0.32758900  1
  F  F13  1  0.80051100  0.20040200  0.67241100  1
  F  F14  1  0.70844200  0.70844200  0.50000000  1
  F  F15  1  0.18631000  0.80394400  0.00000000  1
  F  F16  1  0.20040200  0.80051100  0.67241100  1
  F  F17  1  0.20040200  0.80051100  0.32758900  1
