# generated using pymatgen
data_Fe2CoAs2(H5O7)2
_symmetry_space_group_name_H-M   'P 1'
_cell_length_a   9.43797200
_cell_length_b   5.72597100
_cell_length_c   10.74176018
_cell_angle_alpha   89.79887315
_cell_angle_beta   90.00000000
_cell_angle_gamma   90.00000000
_symmetry_Int_Tables_number   1
_chemical_formula_structural   Fe2CoAs2(H5O7)2
_chemical_formula_sum   'Fe4 Co2 As4 H20 O28'
_cell_volume   580.49783604
_cell_formula_units_Z   2
loop_
 _symmetry_equiv_pos_site_id
 _symmetry_equiv_pos_as_xyz
  1  'x, y, z'
loop_
 _atom_site_type_symbol
 _atom_site_label
 _atom_site_symmetry_multiplicity
 _atom_site_fract_x
 _atom_site_fract_y
 _atom_site_fract_z
 _atom_site_occupancy
  Fe  Fe0  1  0.13841000  0.64513100  0.45382700  1
  Fe  Fe1  1  0.63841000  0.85486900  0.54617300  1
  Fe  Fe2  1  0.86159000  0.35486900  0.54617300  1
  Fe  Fe3  1  0.36159000  0.14513100  0.45382700  1
  Co  Co4  1  0.50000000  0.50000000  0.00000000  1
  Co  Co5  1  0.00000000  0.00000000  0.00000000  1
  As  As6  1  0.57312800  0.31993400  0.71575300  1
  As  As7  1  0.07312800  0.18006600  0.28424700  1
  As  As8  1  0.42687200  0.68006600  0.28424700  1
  As  As9  1  0.92687200  0.81993400  0.71575300  1
  H  H10  1  0.80367700  0.69017700  0.06420700  1
  H  H11  1  0.30367700  0.80982300  0.93579300  1
  H  H12  1  0.19632300  0.30982300  0.93579300  1
  H  H13  1  0.69632300  0.19017700  0.06420700  1
  H  H14  1  0.69435400  0.72895500  0.90198500  1
  H  H15  1  0.19435400  0.77104500  0.09801500  1
  H  H16  1  0.30564600  0.27104500  0.09801500  1
  H  H17  1  0.80564600  0.22895500  0.90198500  1
  H  H18  1  0.44363700  0.93527400  0.88505200  1
  H  H19  1  0.94363700  0.56472600  0.11494800  1
  H  H20  1  0.44904500  0.67183800  0.74946500  1
  H  H21  1  0.94904500  0.82816200  0.25053500  1
  H  H22  1  0.55095500  0.32816200  0.25053500  1
  H  H23  1  0.05095500  0.17183800  0.74946500  1
  H  H24  1  0.65776100  0.49236200  0.41252500  1
  H  H25  1  0.15776100  0.00763800  0.58747500  1
  H  H26  1  0.34223900  0.50763800  0.58747500  1
  H  H27  1  0.84223900  0.99236200  0.41252500  1
  H  H28  1  0.55636300  0.06472600  0.11494800  1
  H  H29  1  0.05636300  0.43527400  0.88505200  1
  O  O30  1  0.00195000  0.25570800  0.14747800  1
  O  O31  1  0.99805000  0.74429200  0.85252200  1
  O  O32  1  0.75271100  0.34291500  0.70473200  1
  O  O33  1  0.49805000  0.75570800  0.14747800  1
  O  O34  1  0.24728900  0.65708500  0.29526800  1
  O  O35  1  0.74728900  0.84291500  0.70473200  1
  O  O36  1  0.77756800  0.07304400  0.47052300  1
  O  O37  1  0.27756800  0.42695600  0.52947700  1
  O  O38  1  0.22243200  0.92695600  0.52947700  1
  O  O39  1  0.72243200  0.57304400  0.47052300  1
  O  O40  1  0.10305700  0.28019100  0.88387200  1
  O  O41  1  0.60305700  0.21980900  0.11612800  1
  O  O42  1  0.89694300  0.71980900  0.11612800  1
  O  O43  1  0.39694300  0.78019100  0.88387200  1
  O  O44  1  0.81225200  0.11226400  0.96832800  1
  O  O45  1  0.31225200  0.38773600  0.03167200  1
  O  O46  1  0.18774800  0.88773600  0.03167200  1
  O  O47  1  0.68774800  0.61226400  0.96832800  1
  O  O48  1  0.00572600  0.09998400  0.67056300  1
  O  O49  1  0.50572600  0.40001600  0.32943700  1
  O  O50  1  0.99427400  0.90001600  0.32943700  1
  O  O51  1  0.49427400  0.59998400  0.67056300  1
  O  O52  1  0.98525300  0.63424600  0.59610000  1
  O  O53  1  0.48525300  0.86575400  0.40390000  1
  O  O54  1  0.01474700  0.36575400  0.40390000  1
  O  O55  1  0.51474700  0.13424600  0.59610000  1
  O  O56  1  0.25271100  0.15708500  0.29526800  1
  O  O57  1  0.50195000  0.24429200  0.85252200  1
