# generated using pymatgen
data_Ba2Ho2Co4O11
_symmetry_space_group_name_H-M   'P 1'
_cell_length_a   7.63265200
_cell_length_b   7.84448600
_cell_length_c   7.84478300
_cell_angle_alpha   90.00000000
_cell_angle_beta   90.00000000
_cell_angle_gamma   90.00000000
_symmetry_Int_Tables_number   1
_chemical_formula_structural   Ba2Ho2Co4O11
_chemical_formula_sum   'Ba4 Ho4 Co8 O22'
_cell_volume   469.70035542
_cell_formula_units_Z   2
loop_
 _symmetry_equiv_pos_site_id
 _symmetry_equiv_pos_as_xyz
  1  'x, y, z'
loop_
 _atom_site_type_symbol
 _atom_site_label
 _atom_site_symmetry_multiplicity
 _atom_site_fract_x
 _atom_site_fract_y
 _atom_site_fract_z
 _atom_site_occupancy
  Ba  Ba0  1  0.00000000  0.76124600  0.00000000  1
  Ba  Ba1  1  0.00000000  0.23875400  0.00000000  1
  Ba  Ba2  1  0.00000000  0.23875400  0.50000000  1
  Ba  Ba3  1  0.00000000  0.76124600  0.50000000  1
  Ho  Ho4  1  0.50000000  0.73145800  0.50000000  1
  Ho  Ho5  1  0.50000000  0.26854200  0.00000000  1
  Ho  Ho6  1  0.50000000  0.26854200  0.50000000  1
  Ho  Ho7  1  0.50000000  0.73145800  0.00000000  1
  Co  Co8  1  0.74699700  0.50000000  0.75000000  1
  Co  Co9  1  0.25300300  0.50000000  0.25000000  1
  Co  Co10  1  0.25385200  0.50000000  0.75000000  1
  Co  Co11  1  0.74614800  0.50000000  0.25000000  1
  Co  Co12  1  0.70970000  0.00000000  0.75000000  1
  Co  Co13  1  0.72965800  0.00000000  0.25000000  1
  Co  Co14  1  0.27034200  0.00000000  0.75000000  1
  Co  Co15  1  0.29030000  0.00000000  0.25000000  1
  O  O16  1  0.70180400  0.76745300  0.75000000  1
  O  O17  1  0.70180400  0.23254700  0.75000000  1
  O  O18  1  0.29819600  0.23254700  0.25000000  1
  O  O19  1  0.29819600  0.76745300  0.25000000  1
  O  O20  1  0.31001200  0.76762100  0.75000000  1
  O  O21  1  0.31001200  0.23237900  0.75000000  1
  O  O22  1  0.68998800  0.23237900  0.25000000  1
  O  O23  1  0.68998800  0.76762100  0.25000000  1
  O  O24  1  0.28073000  0.50000000  0.99867600  1
  O  O25  1  0.28073000  0.50000000  0.50132400  1
  O  O26  1  0.71927000  0.50000000  0.49867600  1
  O  O27  1  0.71927000  0.50000000  0.00132400  1
  O  O28  1  0.31956800  0.00000000  0.00501300  1
  O  O29  1  0.31956800  0.00000000  0.49498700  1
  O  O30  1  0.68043200  0.00000000  0.50501300  1
  O  O31  1  0.68043200  0.00000000  0.99498700  1
  O  O32  1  0.98087200  0.00000000  0.25000000  1
  O  O33  1  0.01912800  0.00000000  0.75000000  1
  O  O34  1  0.01196500  0.50000000  0.25000000  1
  O  O35  1  0.50716800  0.50000000  0.75000000  1
  O  O36  1  0.49283200  0.50000000  0.25000000  1
  O  O37  1  0.98803500  0.50000000  0.75000000  1
