# generated using pymatgen
data_CrFe2O5
_symmetry_space_group_name_H-M   'P 1'
_cell_length_a   5.31965057
_cell_length_b   5.31965057
_cell_length_c   9.89348100
_cell_angle_alpha   90.00000000
_cell_angle_beta   90.00000000
_cell_angle_gamma   138.42718843
_symmetry_Int_Tables_number   1
_chemical_formula_structural   CrFe2O5
_chemical_formula_sum   'Cr2 Fe4 O10'
_cell_volume   185.78169494
_cell_formula_units_Z   2
loop_
 _symmetry_equiv_pos_site_id
 _symmetry_equiv_pos_as_xyz
  1  'x, y, z'
loop_
 _atom_site_type_symbol
 _atom_site_label
 _atom_site_symmetry_multiplicity
 _atom_site_fract_x
 _atom_site_fract_y
 _atom_site_fract_z
 _atom_site_occupancy
  Cr  Cr0  1  0.81592900  0.18407100  0.25000000  1
  Cr  Cr1  1  0.18407100  0.81592900  0.75000000  1
  Fe  Fe2  1  0.86077700  0.13922300  0.56244600  1
  Fe  Fe3  1  0.86077700  0.13922300  0.93755400  1
  Fe  Fe4  1  0.13922300  0.86077700  0.43755400  1
  Fe  Fe5  1  0.13922300  0.86077700  0.06244600  1
  O  O6  1  0.69453800  0.30546200  0.41722000  1
  O  O7  1  0.69453800  0.30546200  0.08278000  1
  O  O8  1  0.95060400  0.04939600  0.11817200  1
  O  O9  1  0.95060400  0.04939600  0.38182800  1
  O  O10  1  0.74877500  0.25122500  0.75000000  1
  O  O11  1  0.25122500  0.74877500  0.25000000  1
  O  O12  1  0.04939600  0.95060400  0.61817200  1
  O  O13  1  0.30546200  0.69453800  0.58278000  1
  O  O14  1  0.30546200  0.69453800  0.91722000  1
  O  O15  1  0.04939600  0.95060400  0.88182800  1
