# generated using pymatgen
data_Ca5Cr3O13
_symmetry_space_group_name_H-M   'P 1'
_cell_length_a   6.96198100
_cell_length_b   9.82716000
_cell_length_c   9.95544163
_cell_angle_alpha   61.09120082
_cell_angle_beta   90.00000000
_cell_angle_gamma   90.00000000
_symmetry_Int_Tables_number   1
_chemical_formula_structural   Ca5Cr3O13
_chemical_formula_sum   'Ca10 Cr6 O26'
_cell_volume   596.24276109
_cell_formula_units_Z   2
loop_
 _symmetry_equiv_pos_site_id
 _symmetry_equiv_pos_as_xyz
  1  'x, y, z'
loop_
 _atom_site_type_symbol
 _atom_site_label
 _atom_site_symmetry_multiplicity
 _atom_site_fract_x
 _atom_site_fract_y
 _atom_site_fract_z
 _atom_site_occupancy
  Ca  Ca0  1  0.50083400  0.32359900  0.32696900  1
  Ca  Ca1  1  0.00083400  0.67640100  0.67303100  1
  Ca  Ca2  1  0.49916600  0.67640100  0.67303100  1
  Ca  Ca3  1  0.99916600  0.32359900  0.32696900  1
  Ca  Ca4  1  0.75000000  0.99615300  0.22765700  1
  Ca  Ca5  1  0.75000000  0.21812900  0.80074900  1
  Ca  Ca6  1  0.75000000  0.78493000  0.98238000  1
  Ca  Ca7  1  0.25000000  0.00384700  0.77234300  1
  Ca  Ca8  1  0.25000000  0.78187100  0.19925100  1
  Ca  Ca9  1  0.25000000  0.21507000  0.01762000  1
  Cr  Cr10  1  0.75000000  0.62366600  0.40817400  1
  Cr  Cr11  1  0.75000000  0.41060200  0.96758400  1
  Cr  Cr12  1  0.75000000  0.97234000  0.62122000  1
  Cr  Cr13  1  0.25000000  0.37633400  0.59182600  1
  Cr  Cr14  1  0.25000000  0.58939800  0.03241600  1
  Cr  Cr15  1  0.25000000  0.02766000  0.37878000  1
  O  O16  1  0.75000000  0.49563100  0.34482200  1
  O  O17  1  0.75000000  0.33268900  0.16338000  1
  O  O18  1  0.75000000  0.16630600  0.49192200  1
  O  O19  1  0.25000000  0.50436900  0.65517800  1
  O  O20  1  0.25000000  0.66731100  0.83662000  1
  O  O21  1  0.25000000  0.83369400  0.50807800  1
  O  O22  1  0.75000000  0.53247600  0.60119300  1
  O  O23  1  0.75000000  0.61054900  0.85819200  1
  O  O24  1  0.75000000  0.86296000  0.52649300  1
  O  O25  1  0.25000000  0.46752400  0.39880700  1
  O  O26  1  0.25000000  0.38945100  0.14180800  1
  O  O27  1  0.25000000  0.13704000  0.47350700  1
  O  O28  1  0.55757000  0.73796400  0.34428600  1
  O  O29  1  0.55275500  0.34505100  0.91050600  1
  O  O30  1  0.55584700  0.91126100  0.74344600  1
  O  O31  1  0.05757000  0.26203600  0.65571400  1
  O  O32  1  0.05275500  0.65494900  0.08949400  1
  O  O33  1  0.05584700  0.08873900  0.25655400  1
  O  O34  1  0.44243000  0.26203600  0.65571400  1
  O  O35  1  0.44724500  0.65494900  0.08949400  1
  O  O36  1  0.44415300  0.08873900  0.25655400  1
  O  O37  1  0.94243000  0.73796400  0.34428600  1
  O  O38  1  0.94724500  0.34505100  0.91050600  1
  O  O39  1  0.94415300  0.91126100  0.74344600  1
  O  O40  1  0.75000000  0.99583500  0.00812500  1
  O  O41  1  0.25000000  0.00416500  0.99187500  1
