# generated using pymatgen
data_Zr2N2O
_symmetry_space_group_name_H-M   'P 1'
_cell_length_a   6.74049768
_cell_length_b   6.74049768
_cell_length_c   12.15906667
_cell_angle_alpha   63.33206898
_cell_angle_beta   63.33206898
_cell_angle_gamma   30.15173738
_symmetry_Int_Tables_number   1
_chemical_formula_structural   Zr2N2O
_chemical_formula_sum   'Zr8 N8 O4'
_cell_volume   245.68751983
_cell_formula_units_Z   4
loop_
 _symmetry_equiv_pos_site_id
 _symmetry_equiv_pos_as_xyz
  1  'x, y, z'
loop_
 _atom_site_type_symbol
 _atom_site_label
 _atom_site_symmetry_multiplicity
 _atom_site_fract_x
 _atom_site_fract_y
 _atom_site_fract_z
 _atom_site_occupancy
  Zr  Zr0  1  0.36859000  0.36859000  0.65049800  1
  Zr  Zr1  1  0.88101900  0.88101900  0.39284200  1
  Zr  Zr2  1  0.63125700  0.63125700  0.85020500  1
  Zr  Zr3  1  0.87660100  0.87660100  0.90031600  1
  Zr  Zr4  1  0.12494900  0.12494900  0.59657000  1
  Zr  Zr5  1  0.12329900  0.12329900  0.11209000  1
  Zr  Zr6  1  0.37743400  0.37743400  0.13799300  1
  Zr  Zr7  1  0.62332600  0.62332600  0.35608900  1
  N  N8  1  0.68465200  0.68465200  0.49116200  1
  N  N9  1  0.18263000  0.18263000  0.24453900  1
  N  N10  1  0.31786700  0.31786700  0.00354400  1
  N  N11  1  0.82209200  0.82209200  0.76102400  1
  N  N12  1  0.99467200  0.99467200  0.50014300  1
  N  N13  1  0.17492900  0.17492900  0.74049600  1
  N  N14  1  0.49720300  0.49720300  0.25316400  1
  N  N15  1  0.99676400  0.99676400  0.00434600  1
  O  O16  1  0.82469000  0.82469000  0.25418400  1
  O  O17  1  0.50010100  0.50010100  0.74775900  1
  O  O18  1  0.67461300  0.67461300  0.99901600  1
  O  O19  1  0.32254700  0.32254700  0.50402200  1
