# generated using pymatgen
data_NaH2SNO3
_symmetry_space_group_name_H-M   'P 1'
_cell_length_a   5.64464400
_cell_length_b   12.84267600
_cell_length_c   16.53340600
_cell_angle_alpha   90.00000000
_cell_angle_beta   90.00000000
_cell_angle_gamma   90.00000000
_symmetry_Int_Tables_number   1
_chemical_formula_structural   NaH2SNO3
_chemical_formula_sum   'Na12 H24 S12 N12 O36'
_cell_volume   1198.54519036
_cell_formula_units_Z   12
loop_
 _symmetry_equiv_pos_site_id
 _symmetry_equiv_pos_as_xyz
  1  'x, y, z'
loop_
 _atom_site_type_symbol
 _atom_site_label
 _atom_site_symmetry_multiplicity
 _atom_site_fract_x
 _atom_site_fract_y
 _atom_site_fract_z
 _atom_site_occupancy
  Na  Na0  1  0.93975100  0.55155900  0.73136600  1
  Na  Na1  1  0.56024900  0.44844100  0.23136600  1
  Na  Na2  1  0.43975100  0.94844100  0.26863400  1
  Na  Na3  1  0.06024900  0.05155900  0.76863400  1
  Na  Na4  1  0.93228200  0.78814900  0.22764800  1
  Na  Na5  1  0.56771800  0.21185100  0.72764800  1
  Na  Na6  1  0.43228200  0.71185100  0.77235200  1
  Na  Na7  1  0.06771800  0.28814900  0.27235200  1
  Na  Na8  1  0.00641900  0.78444700  0.62128900  1
  Na  Na9  1  0.49358100  0.21555300  0.12128900  1
  Na  Na10  1  0.50641900  0.71555300  0.37871100  1
  Na  Na11  1  0.99358100  0.28444800  0.87871100  1
  H  H12  1  0.16256100  0.99303000  0.48245200  1
  H  H13  1  0.33743900  0.00697000  0.98245200  1
  H  H14  1  0.66256100  0.50697000  0.51754800  1
  H  H15  1  0.83743900  0.49303000  0.01754800  1
  H  H16  1  0.00992100  0.04524300  0.40435100  1
  H  H17  1  0.49007900  0.95475700  0.90435100  1
  H  H18  1  0.50992100  0.45475700  0.59564900  1
  H  H19  1  0.99007900  0.54524300  0.09564900  1
  H  H20  1  0.40939600  0.26635900  0.50524200  1
  H  H21  1  0.09060400  0.73364100  0.00524200  1
  H  H22  1  0.90939600  0.23364100  0.49475800  1
  H  H23  1  0.59060400  0.76635900  0.99475800  1
  H  H24  1  0.51008700  0.35476900  0.44498100  1
  H  H25  1  0.98991300  0.64523100  0.94498100  1
  H  H26  1  0.01008700  0.14523100  0.55501900  1
  H  H27  1  0.48991300  0.85476900  0.05501900  1
  H  H28  1  0.99363600  0.11975500  0.03043400  1
  H  H29  1  0.50636400  0.88024500  0.53043400  1
  H  H30  1  0.49363600  0.38024500  0.96956600  1
  H  H31  1  0.00636400  0.61975500  0.46956600  1
  H  H32  1  0.89901600  0.99728800  0.02558800  1
  H  H33  1  0.60098400  0.00271200  0.52558800  1
  H  H34  1  0.39901600  0.50271200  0.97441200  1
  H  H35  1  0.10098400  0.49728800  0.47441200  1
  S  S36  1  0.98413500  0.87053000  0.41020000  1
  S  S37  1  0.51586500  0.12947000  0.91020000  1
  S  S38  1  0.48413500  0.62947000  0.58980000  1
  S  S39  1  0.01586500  0.37053000  0.08980000  1
  S  S40  1  0.59157600  0.17957100  0.31190000  1
  S  S41  1  0.90842400  0.82042900  0.81190000  1
  S  S42  1  0.09157600  0.32042900  0.68810000  1
  S  S43  1  0.40842400  0.67957100  0.18810000  1
  S  S44  1  0.98613100  0.04787800  0.15187400  1
  S  S45  1  0.51386900  0.95212200  0.65187400  1
  S  S46  1  0.48613100  0.45212200  0.84812600  1
  S  S47  1  0.01386900  0.54787800  0.34812600  1
  N  N48  1  0.00930500  0.98912900  0.44848300  1
  N  N49  1  0.49069500  0.01087100  0.94848300  1
  N  N50  1  0.50930500  0.51087100  0.55151700  1
  N  N51  1  0.99069500  0.48912900  0.05151700  1
  N  N52  1  0.36292800  0.30809400  0.45386800  1
  N  N53  1  0.13707200  0.69190600  0.95386800  1
  N  N54  1  0.86292800  0.19190600  0.54613200  1
  N  N55  1  0.63707200  0.80809400  0.04613200  1
  N  N56  1  0.02409000  0.04536300  0.05112200  1
  N  N57  1  0.47591000  0.95463700  0.55112200  1
  N  N58  1  0.52409000  0.45463700  0.94887800  1
  N  N59  1  0.97591000  0.54536300  0.44887800  1
  O  O60  1  0.76281700  0.87272800  0.36255500  1
  O  O61  1  0.73718300  0.12727200  0.86255500  1
  O  O62  1  0.26281700  0.62727200  0.63744500  1
  O  O63  1  0.23718300  0.37272800  0.13744500  1
  O  O64  1  0.18874900  0.84543700  0.35707300  1
  O  O65  1  0.31125100  0.15456300  0.85707300  1
  O  O66  1  0.68874900  0.65456300  0.64292700  1
  O  O67  1  0.81125100  0.34543700  0.14292700  1
  O  O68  1  0.97490500  0.80218800  0.48094600  1
  O  O69  1  0.52509500  0.19781200  0.98094600  1
  O  O70  1  0.47490500  0.69781200  0.51905400  1
  O  O71  1  0.02509500  0.30218800  0.01905400  1
  O  O72  1  0.47657300  0.27397100  0.27636500  1
  O  O73  1  0.02342700  0.72602900  0.77636500  1
  O  O74  1  0.97657300  0.22602900  0.72363500  1
  O  O75  1  0.52342700  0.77397100  0.22363500  1
  O  O76  1  0.42078700  0.10545800  0.34796000  1
  O  O77  1  0.07921300  0.89454200  0.84796000  1
  O  O78  1  0.92078700  0.39454200  0.65204000  1
  O  O79  1  0.57921300  0.60545800  0.15204000  1
  O  O80  1  0.79914500  0.20614300  0.36292800  1
  O  O81  1  0.70085500  0.79385700  0.86292800  1
  O  O82  1  0.29914500  0.29385700  0.63707200  1
  O  O83  1  0.20085500  0.70614300  0.13707200  1
  O  O84  1  0.72991600  0.05884100  0.16932400  1
  O  O85  1  0.77008400  0.94115900  0.66932400  1
  O  O86  1  0.22991600  0.44115900  0.83067600  1
  O  O87  1  0.27008400  0.55884100  0.33067600  1
  O  O88  1  0.12624200  0.13859000  0.17743100  1
  O  O89  1  0.37375800  0.86141000  0.67743100  1
  O  O90  1  0.62624200  0.36141000  0.82256900  1
  O  O91  1  0.87375800  0.63859000  0.32256900  1
  O  O92  1  0.08143300  0.94929700  0.18257600  1
  O  O93  1  0.41856700  0.05070300  0.68257600  1
  O  O94  1  0.58143300  0.55070300  0.81742400  1
  O  O95  1  0.91856700  0.44929700  0.31742400  1
