# generated using pymatgen
data_VOF
_symmetry_space_group_name_H-M   'P 1'
_cell_length_a   4.72628717
_cell_length_b   4.72628717
_cell_length_c   12.51029897
_cell_angle_alpha   89.96047843
_cell_angle_beta   89.96047843
_cell_angle_gamma   90.17075641
_symmetry_Int_Tables_number   1
_chemical_formula_structural   VOF
_chemical_formula_sum   'V8 O8 F8'
_cell_volume   279.45106245
_cell_formula_units_Z   8
loop_
 _symmetry_equiv_pos_site_id
 _symmetry_equiv_pos_as_xyz
  1  'x, y, z'
loop_
 _atom_site_type_symbol
 _atom_site_label
 _atom_site_symmetry_multiplicity
 _atom_site_fract_x
 _atom_site_fract_y
 _atom_site_fract_z
 _atom_site_occupancy
  V  V0  1  0.03158400  0.02711100  0.37507200  1
  V  V1  1  0.97288900  0.96841600  0.62492800  1
  V  V2  1  0.04716800  0.01290300  0.87494000  1
  V  V3  1  0.98709700  0.95283200  0.12506000  1
  V  V4  1  0.53121300  0.46878700  0.50000000  1
  V  V5  1  0.48131200  0.51868800  0.00000000  1
  V  V6  1  0.47661800  0.52424000  0.25061600  1
  V  V7  1  0.47576000  0.52338200  0.74938400  1
  O  O8  1  0.18878400  0.81134400  0.25174800  1
  O  O9  1  0.18865600  0.81121600  0.74825200  1
  O  O10  1  0.19652100  0.80347900  0.00000000  1
  O  O11  1  0.68480500  0.67838700  0.62457400  1
  O  O12  1  0.68442300  0.68302600  0.12540600  1
  O  O13  1  0.32161300  0.31519500  0.37542600  1
  O  O14  1  0.31697400  0.31557700  0.87459400  1
  O  O15  1  0.82019500  0.17980500  0.50000000  1
  F  F16  1  0.21008900  0.78991100  0.50000000  1
  F  F17  1  0.71186400  0.70652700  0.37509400  1
  F  F18  1  0.70239500  0.71886800  0.87483300  1
  F  F19  1  0.29347300  0.28813600  0.62490600  1
  F  F20  1  0.28113200  0.29760500  0.12516700  1
  F  F21  1  0.79526600  0.20228200  0.75087500  1
  F  F22  1  0.80262800  0.19737200  0.00000000  1
  F  F23  1  0.79771800  0.20473400  0.24912500  1
