# generated using pymatgen
data_Tb2WO6
_symmetry_space_group_name_H-M   'P 1'
_cell_length_a   5.42258700
_cell_length_b   5.65900100
_cell_length_c   8.26117312
_cell_angle_alpha   84.60872243
_cell_angle_beta   90.00000000
_cell_angle_gamma   90.00000000
_symmetry_Int_Tables_number   1
_chemical_formula_structural   Tb2WO6
_chemical_formula_sum   'Tb4 W2 O12'
_cell_volume   252.38443238
_cell_formula_units_Z   2
loop_
 _symmetry_equiv_pos_site_id
 _symmetry_equiv_pos_as_xyz
  1  'x, y, z'
loop_
 _atom_site_type_symbol
 _atom_site_label
 _atom_site_symmetry_multiplicity
 _atom_site_fract_x
 _atom_site_fract_y
 _atom_site_fract_z
 _atom_site_occupancy
  Tb  Tb0  1  0.46517900  0.01560200  0.36538800  1
  Tb  Tb1  1  0.96517900  0.98439800  0.63461200  1
  Tb  Tb2  1  0.02261000  0.51317200  0.36486500  1
  Tb  Tb3  1  0.52261000  0.48682800  0.63513500  1
  W  W4  1  0.06436800  0.26003000  0.97771800  1
  W  W5  1  0.56436800  0.73997000  0.02228200  1
  O  O6  1  0.15549700  0.21099500  0.19594800  1
  O  O7  1  0.20848300  0.99964800  0.90068400  1
  O  O8  1  0.74028000  0.24932100  0.47630000  1
  O  O9  1  0.24028000  0.75067900  0.52370000  1
  O  O10  1  0.70848300  0.00035200  0.09931600  1
  O  O11  1  0.65549700  0.78900500  0.80405200  1
  O  O12  1  0.32972900  0.70650000  0.18850900  1
  O  O13  1  0.30211300  0.48686400  0.90544100  1
  O  O14  1  0.74544600  0.74929400  0.47298400  1
  O  O15  1  0.80211300  0.51313600  0.09455900  1
  O  O16  1  0.24544600  0.25070600  0.52701600  1
  O  O17  1  0.82972900  0.29350000  0.81149100  1
