# generated using pymatgen
data_Lu2GeO5
_symmetry_space_group_name_H-M   'P 1'
_cell_length_a   6.25737403
_cell_length_b   6.25737403
_cell_length_c   7.36510447
_cell_angle_alpha   68.32078711
_cell_angle_beta   68.32078711
_cell_angle_gamma   48.70235024
_symmetry_Int_Tables_number   1
_chemical_formula_structural   Lu2GeO5
_chemical_formula_sum   'Lu4 Ge2 O10'
_cell_volume   198.04611089
_cell_formula_units_Z   2
loop_
 _symmetry_equiv_pos_site_id
 _symmetry_equiv_pos_as_xyz
  1  'x, y, z'
loop_
 _atom_site_type_symbol
 _atom_site_label
 _atom_site_symmetry_multiplicity
 _atom_site_fract_x
 _atom_site_fract_y
 _atom_site_fract_z
 _atom_site_occupancy
  Lu  Lu0  1  0.36771400  0.35284900  0.25639200  1
  Lu  Lu1  1  0.64715100  0.63228600  0.24360800  1
  Lu  Lu2  1  0.35284900  0.36771400  0.75639200  1
  Lu  Lu3  1  0.63228600  0.64715100  0.74360800  1
  Ge  Ge4  1  0.00000000  0.00000000  0.00000000  1
  Ge  Ge5  1  0.00000000  0.00000000  0.50000000  1
  O  O6  1  0.97589400  0.68842100  0.13774200  1
  O  O7  1  0.24166000  0.61190000  0.45943200  1
  O  O8  1  0.61190000  0.24166000  0.95943200  1
  O  O9  1  0.31157900  0.02410600  0.36225800  1
  O  O10  1  0.68842100  0.97589400  0.63774200  1
  O  O11  1  0.82984600  0.17015400  0.25000000  1
  O  O12  1  0.38810000  0.75834000  0.04056800  1
  O  O13  1  0.75834000  0.38810000  0.54056800  1
  O  O14  1  0.02410600  0.31157900  0.86225800  1
  O  O15  1  0.17015400  0.82984600  0.75000000  1
