# generated using pymatgen
data_Rb2SnO3
_symmetry_space_group_name_H-M   'P 1'
_cell_length_a   7.06682667
_cell_length_b   7.06682667
_cell_length_c   13.66465500
_cell_angle_alpha   90.00000000
_cell_angle_beta   90.00000000
_cell_angle_gamma   128.26545283
_symmetry_Int_Tables_number   1
_chemical_formula_structural   Rb2SnO3
_chemical_formula_sum   'Rb8 Sn4 O12'
_cell_volume   535.79683915
_cell_formula_units_Z   4
loop_
 _symmetry_equiv_pos_site_id
 _symmetry_equiv_pos_as_xyz
  1  'x, y, z'
loop_
 _atom_site_type_symbol
 _atom_site_label
 _atom_site_symmetry_multiplicity
 _atom_site_fract_x
 _atom_site_fract_y
 _atom_site_fract_z
 _atom_site_occupancy
  Rb  Rb0  1  0.94802900  0.05197100  0.13604500  1
  Rb  Rb1  1  0.87327200  0.12672800  0.57622600  1
  Rb  Rb2  1  0.62672800  0.37327200  0.07622600  1
  Rb  Rb3  1  0.44802900  0.55197100  0.36395500  1
  Rb  Rb4  1  0.05197100  0.94802900  0.86395500  1
  Rb  Rb5  1  0.37327200  0.62672800  0.92377400  1
  Rb  Rb6  1  0.55197100  0.44802900  0.63604500  1
  Rb  Rb7  1  0.12672800  0.87327200  0.42377400  1
  Sn  Sn8  1  0.75878200  0.24121800  0.33684000  1
  Sn  Sn9  1  0.74121800  0.25878200  0.83684000  1
  Sn  Sn10  1  0.25878200  0.74121800  0.16316000  1
  Sn  Sn11  1  0.24121800  0.75878200  0.66316000  1
  O  O12  1  0.46470000  0.03530000  0.25000000  1
  O  O13  1  0.03530000  0.46470000  0.75000000  1
  O  O14  1  0.91076300  0.08923700  0.35914600  1
  O  O15  1  0.65903200  0.34096800  0.44521700  1
  O  O16  1  0.34096800  0.65903200  0.55478300  1
  O  O17  1  0.15903200  0.84096800  0.05478300  1
  O  O18  1  0.84096800  0.15903200  0.94521700  1
  O  O19  1  0.58923700  0.41076300  0.85914600  1
  O  O20  1  0.41076300  0.58923700  0.14085400  1
  O  O21  1  0.08923700  0.91076300  0.64085400  1
  O  O22  1  0.96470000  0.53530000  0.25000000  1
  O  O23  1  0.53530000  0.96470000  0.75000000  1
