# generated using pymatgen
data_CuTeO4
_symmetry_space_group_name_H-M   'P 1'
_cell_length_a   3.00617800
_cell_length_b   5.35575400
_cell_length_c   5.63851330
_cell_angle_alpha   66.92685374
_cell_angle_beta   90.00000000
_cell_angle_gamma   90.00000000
_symmetry_Int_Tables_number   1
_chemical_formula_structural   CuTeO4
_chemical_formula_sum   'Cu1 Te1 O4'
_cell_volume   83.51995302
_cell_formula_units_Z   1
loop_
 _symmetry_equiv_pos_site_id
 _symmetry_equiv_pos_as_xyz
  1  'x, y, z'
loop_
 _atom_site_type_symbol
 _atom_site_label
 _atom_site_symmetry_multiplicity
 _atom_site_fract_x
 _atom_site_fract_y
 _atom_site_fract_z
 _atom_site_occupancy
  Cu  Cu0  1  0.00000000  0.00000000  0.00000000  1
  Te  Te1  1  0.50000000  0.50000000  0.50000000  1
  O  O2  1  0.00000000  0.59615100  0.68165500  1
  O  O3  1  0.50000000  0.86726400  0.23896400  1
  O  O4  1  0.00000000  0.40384900  0.31834500  1
  O  O5  1  0.50000000  0.13273600  0.76103600  1
