# generated using pymatgen
data_NdSmO2
_symmetry_space_group_name_H-M   'P 1'
_cell_length_a   6.20516088
_cell_length_b   6.20516088
_cell_length_c   6.20516098
_cell_angle_alpha   33.00881769
_cell_angle_beta   33.00881769
_cell_angle_gamma   33.00882310
_symmetry_Int_Tables_number   1
_chemical_formula_structural   NdSmO2
_chemical_formula_sum   'Nd1 Sm1 O2'
_cell_volume   63.10106020
_cell_formula_units_Z   1
loop_
 _symmetry_equiv_pos_site_id
 _symmetry_equiv_pos_as_xyz
  1  'x, y, z'
loop_
 _atom_site_type_symbol
 _atom_site_label
 _atom_site_symmetry_multiplicity
 _atom_site_fract_x
 _atom_site_fract_y
 _atom_site_fract_z
 _atom_site_occupancy
  Nd  Nd0  1  0.50000000  0.50000000  0.50000000  1
  Sm  Sm1  1  0.00000000  0.00000000  0.00000000  1
  O  O2  1  0.25673600  0.25673600  0.25673600  1
  O  O3  1  0.74326400  0.74326400  0.74326400  1
