# generated using pymatgen
data_Li5Mn2Cu3O10
_symmetry_space_group_name_H-M   'P 1'
_cell_length_a   5.05362581
_cell_length_b   10.68881252
_cell_length_c   7.57467815
_cell_angle_alpha   69.36704535
_cell_angle_beta   103.11968902
_cell_angle_gamma   86.87979897
_symmetry_Int_Tables_number   1
_chemical_formula_structural   Li5Mn2Cu3O10
_chemical_formula_sum   'Li10 Mn4 Cu6 O20'
_cell_volume   368.84564599
_cell_formula_units_Z   2
loop_
 _symmetry_equiv_pos_site_id
 _symmetry_equiv_pos_as_xyz
  1  'x, y, z'
loop_
 _atom_site_type_symbol
 _atom_site_label
 _atom_site_symmetry_multiplicity
 _atom_site_fract_x
 _atom_site_fract_y
 _atom_site_fract_z
 _atom_site_occupancy
  Li  Li0  1  0.25010900  0.24988500  0.25009300  1
  Li  Li1  1  0.75012100  0.74988400  0.75008300  1
  Li  Li2  1  0.76196500  0.44826000  0.94563600  1
  Li  Li3  1  0.26196500  0.94826400  0.44567300  1
  Li  Li4  1  0.73814800  0.05162800  0.55490600  1
  Li  Li5  1  0.23815700  0.55161100  0.05489100  1
  Li  Li6  1  0.25930300  0.14248100  0.64649700  1
  Li  Li7  1  0.75926900  0.64249200  0.14649200  1
  Li  Li8  1  0.24122400  0.35719700  0.85372500  1
  Li  Li9  1  0.74124500  0.85718800  0.35372400  1
  Mn  Mn10  1  0.26477600  0.83835000  0.85477200  1
  Mn  Mn11  1  0.23555400  0.66081400  0.64473800  1
  Mn  Mn12  1  0.76468700  0.33835000  0.35473800  1
  Mn  Mn13  1  0.73549800  0.16082700  0.14475500  1
  Cu  Cu14  1  0.25060500  0.74986900  0.25016300  1
  Cu  Cu15  1  0.75527100  0.94380300  0.95534200  1
  Cu  Cu16  1  0.74618800  0.55547000  0.54512700  1
  Cu  Cu17  1  0.75052700  0.24986300  0.75012800  1
  Cu  Cu18  1  0.25529100  0.44378400  0.45534700  1
  Cu  Cu19  1  0.24615900  0.05549700  0.04516800  1
  O  O20  1  0.04865900  0.01048100  0.82599600  1
  O  O21  1  0.54862800  0.51047000  0.32599600  1
  O  O22  1  0.44939100  0.48994600  0.67525100  1
  O  O23  1  0.94942000  0.98996400  0.17524200  1
  O  O24  1  0.00814600  0.33375900  0.59543200  1
  O  O25  1  0.50814100  0.83370800  0.09547300  1
  O  O26  1  0.49083900  0.16894900  0.90224700  1
  O  O27  1  0.99096500  0.66900700  0.40217400  1
  O  O28  1  0.96390000  0.16693900  0.37908400  1
  O  O29  1  0.46392700  0.66693400  0.87908400  1
  O  O30  1  0.53610500  0.33278700  0.12115800  1
  O  O31  1  0.03613800  0.83277600  0.62116400  1
  O  O32  1  0.95245700  0.26360400  0.98178200  1
  O  O33  1  0.45252400  0.76359100  0.48177600  1
  O  O34  1  0.54925800  0.23554400  0.51887300  1
  O  O35  1  0.04931400  0.73555500  0.01891000  1
  O  O36  1  0.00906000  0.43993000  0.22296200  1
  O  O37  1  0.50907500  0.93993100  0.72293900  1
  O  O38  1  0.48896200  0.06031400  0.27622800  1
  O  O39  1  0.98902600  0.56029700  0.77623100  1
