# generated using pymatgen
data_HgO2
_symmetry_space_group_name_H-M   'P 1'
_cell_length_a   3.52601280
_cell_length_b   3.52601280
_cell_length_c   4.30443567
_cell_angle_alpha   71.70052505
_cell_angle_beta   71.70052505
_cell_angle_gamma   91.46969283
_symmetry_Int_Tables_number   1
_chemical_formula_structural   HgO2
_chemical_formula_sum   'Hg1 O2'
_cell_volume   47.77977145
_cell_formula_units_Z   1
loop_
 _symmetry_equiv_pos_site_id
 _symmetry_equiv_pos_as_xyz
  1  'x, y, z'
loop_
 _atom_site_type_symbol
 _atom_site_label
 _atom_site_symmetry_multiplicity
 _atom_site_fract_x
 _atom_site_fract_y
 _atom_site_fract_z
 _atom_site_occupancy
  Hg  Hg0  1  0.00000000  0.00000000  0.00000000  1
  O  O1  1  0.47555900  0.47555900  0.68254900  1
  O  O2  1  0.52444100  0.52444100  0.31745100  1
