# generated using pymatgen
data_Zr2N2O
_symmetry_space_group_name_H-M   'P 1'
_cell_length_a   7.11388464
_cell_length_b   7.11388464
_cell_length_c   8.29917702
_cell_angle_alpha   79.80738573
_cell_angle_beta   79.80738573
_cell_angle_gamma   26.98091008
_symmetry_Int_Tables_number   1
_chemical_formula_structural   Zr2N2O
_chemical_formula_sum   'Zr6 N6 O3'
_cell_volume   187.36930260
_cell_formula_units_Z   3
loop_
 _symmetry_equiv_pos_site_id
 _symmetry_equiv_pos_as_xyz
  1  'x, y, z'
loop_
 _atom_site_type_symbol
 _atom_site_label
 _atom_site_symmetry_multiplicity
 _atom_site_fract_x
 _atom_site_fract_y
 _atom_site_fract_z
 _atom_site_occupancy
  Zr  Zr0  1  0.96981200  0.96981200  0.80740600  1
  Zr  Zr1  1  0.37094400  0.37094400  0.47399400  1
  Zr  Zr2  1  0.30397700  0.30397700  0.13161900  1
  Zr  Zr3  1  0.69602300  0.69602300  0.86838100  1
  Zr  Zr4  1  0.62905600  0.62905600  0.52600600  1
  Zr  Zr5  1  0.03018800  0.03018800  0.19259400  1
  N  N6  1  0.46574400  0.46574400  0.65660000  1
  N  N7  1  0.82794100  0.82794100  0.96605000  1
  N  N8  1  0.87344800  0.87344800  0.28719000  1
  N  N9  1  0.12655200  0.12655200  0.71281000  1
  N  N10  1  0.17205900  0.17205900  0.03395000  1
  N  N11  1  0.53425600  0.53425600  0.34340000  1
  O  O12  1  0.79082600  0.79082600  0.61922900  1
  O  O13  1  0.20917400  0.20917400  0.38077100  1
  O  O14  1  0.50000000  0.50000000  0.00000000  1
