# generated using pymatgen
data_MnSbO4
_symmetry_space_group_name_H-M   'P 1'
_cell_length_a   4.03074026
_cell_length_b   9.61769151
_cell_length_c   8.11981023
_cell_angle_alpha   90.00038105
_cell_angle_beta   90.00005593
_cell_angle_gamma   89.99999994
_symmetry_Int_Tables_number   1
_chemical_formula_structural   MnSbO4
_chemical_formula_sum   'Mn4 Sb4 O16'
_cell_volume   314.77594472
_cell_formula_units_Z   4
loop_
 _symmetry_equiv_pos_site_id
 _symmetry_equiv_pos_as_xyz
  1  'x, y, z'
loop_
 _atom_site_type_symbol
 _atom_site_label
 _atom_site_symmetry_multiplicity
 _atom_site_fract_x
 _atom_site_fract_y
 _atom_site_fract_z
 _atom_site_occupancy
  Mn  Mn0  1  0.00000000  0.99876900  0.50007000  1
  Mn  Mn1  1  0.50000100  0.49877200  0.24992900  1
  Mn  Mn2  1  0.49999800  0.49877000  0.74991700  1
  Mn  Mn3  1  0.00000100  0.99876700  0.00008400  1
  Sb  Sb4  1  0.00000000  0.24913900  0.75000200  1
  Sb  Sb5  1  0.50000000  0.74916300  0.49999300  1
  Sb  Sb6  1  0.00000000  0.24916300  0.25000800  1
  Sb  Sb7  1  0.50000000  0.74914300  0.00000000  1
  O  O8  1  0.99999900  0.45271500  0.75005900  1
  O  O9  1  0.50000000  0.95273300  0.49992500  1
  O  O10  1  0.00000000  0.45273500  0.25007100  1
  O  O11  1  0.50000100  0.95271700  0.99994700  1
  O  O12  1  0.00000000  0.04817900  0.75003400  1
  O  O13  1  0.50000000  0.54821000  0.49996000  1
  O  O14  1  0.00000000  0.04821100  0.25003800  1
  O  O15  1  0.50000000  0.54818500  0.99996300  1
  O  O16  1  0.50000000  0.29532700  0.74998300  1
  O  O17  1  0.00000000  0.79534500  0.50000600  1
  O  O18  1  0.50000000  0.29535400  0.24999000  1
  O  O19  1  0.00000000  0.79532200  0.00002400  1
  O  O20  1  0.00000000  0.20582800  0.49998400  1
  O  O21  1  0.50000000  0.70583800  0.25001600  1
  O  O22  1  0.00000000  0.20580400  0.99997500  1
  O  O23  1  0.50000000  0.70581100  0.75002500  1
