# generated using pymatgen
data_BaNb3NO7
_symmetry_space_group_name_H-M   'P 1'
_cell_length_a   10.77684159
_cell_length_b   10.77684159
_cell_length_c   9.11880234
_cell_angle_alpha   88.53951526
_cell_angle_beta   88.53951526
_cell_angle_gamma   20.71908437
_symmetry_Int_Tables_number   1
_chemical_formula_structural   BaNb3NO7
_chemical_formula_sum   'Ba2 Nb6 N2 O14'
_cell_volume   374.55544770
_cell_formula_units_Z   2
loop_
 _symmetry_equiv_pos_site_id
 _symmetry_equiv_pos_as_xyz
  1  'x, y, z'
loop_
 _atom_site_type_symbol
 _atom_site_label
 _atom_site_symmetry_multiplicity
 _atom_site_fract_x
 _atom_site_fract_y
 _atom_site_fract_z
 _atom_site_occupancy
  Ba  Ba0  1  0.98265200  0.98265200  0.74869700  1
  Ba  Ba1  1  0.01723800  0.01723800  0.24799400  1
  Nb  Nb2  1  0.62745300  0.62745300  0.92824500  1
  Nb  Nb3  1  0.24123800  0.24123800  0.75342000  1
  Nb  Nb4  1  0.63198700  0.63198700  0.55721100  1
  Nb  Nb5  1  0.36839000  0.36839000  0.43831200  1
  Nb  Nb6  1  0.75923700  0.75923700  0.23689700  1
  Nb  Nb7  1  0.36816700  0.36816700  0.05932200  1
  N  N8  1  0.58040400  0.58040400  0.74980900  1
  N  N9  1  0.84439800  0.84439800  0.09455300  1
  O  O10  1  0.43610300  0.43610300  0.92946100  1
  O  O11  1  0.15567700  0.15567700  0.90785700  1
  O  O12  1  0.29795800  0.29795800  0.90076100  1
  O  O13  1  0.71372200  0.71372200  0.75166900  1
  O  O14  1  0.29697300  0.29697300  0.59412500  1
  O  O15  1  0.15497900  0.15497900  0.59194700  1
  O  O16  1  0.43361700  0.43361700  0.56482600  1
  O  O17  1  0.56642300  0.56642300  0.42894000  1
  O  O18  1  0.84838400  0.84838400  0.41140900  1
  O  O19  1  0.70561400  0.70561400  0.40784200  1
  O  O20  1  0.28676500  0.28676500  0.25808000  1
  O  O21  1  0.42093000  0.42093000  0.25216700  1
  O  O22  1  0.70226000  0.70226000  0.09269600  1
  O  O23  1  0.56442200  0.56442200  0.07185500  1
