# generated using pymatgen
data_SrTaNO2
_symmetry_space_group_name_H-M   'P 1'
_cell_length_a   8.17919700
_cell_length_b   5.73044200
_cell_length_c   5.74053942
_cell_angle_alpha   89.17061770
_cell_angle_beta   90.00000000
_cell_angle_gamma   90.00000000
_symmetry_Int_Tables_number   1
_chemical_formula_structural   SrTaNO2
_chemical_formula_sum   'Sr4 Ta4 N4 O8'
_cell_volume   269.03327048
_cell_formula_units_Z   4
loop_
 _symmetry_equiv_pos_site_id
 _symmetry_equiv_pos_as_xyz
  1  'x, y, z'
loop_
 _atom_site_type_symbol
 _atom_site_label
 _atom_site_symmetry_multiplicity
 _atom_site_fract_x
 _atom_site_fract_y
 _atom_site_fract_z
 _atom_site_occupancy
  Sr  Sr0  1  0.00000000  0.99290400  0.99420200  1
  Sr  Sr1  1  0.00000000  0.49274000  0.48895700  1
  Sr  Sr2  1  0.50000000  0.51228000  0.49110900  1
  Sr  Sr3  1  0.50000000  0.01551000  0.99535300  1
  Ta  Ta4  1  0.24214000  0.49414500  0.98667600  1
  Ta  Ta5  1  0.75786000  0.49414500  0.98667600  1
  Ta  Ta6  1  0.25888200  0.00746600  0.50224200  1
  Ta  Ta7  1  0.74111800  0.00746600  0.50224200  1
  N  N8  1  0.50000000  0.00185400  0.46097400  1
  N  N9  1  0.26358500  0.27057800  0.73026100  1
  N  N10  1  0.73641500  0.27057800  0.73026100  1
  N  N11  1  0.00000000  0.51706200  0.96945000  1
  O  O12  1  0.50000000  0.49157300  0.05018100  1
  O  O13  1  0.77407900  0.22414700  0.22772800  1
  O  O14  1  0.22592100  0.22414700  0.22772800  1
  O  O15  1  0.23462000  0.72203300  0.28162900  1
  O  O16  1  0.76538000  0.72203300  0.28162900  1
  O  O17  1  0.00000000  0.98649200  0.53535100  1
  O  O18  1  0.27480800  0.77524900  0.77889200  1
  O  O19  1  0.72519200  0.77524900  0.77889200  1
