# generated using pymatgen
data_Fe3OF5
_symmetry_space_group_name_H-M   'P 1'
_cell_length_a   5.78886100
_cell_length_b   5.82870712
_cell_length_c   7.50616284
_cell_angle_alpha   73.00626164
_cell_angle_beta   72.57955996
_cell_angle_gamma   71.33211845
_symmetry_Int_Tables_number   1
_chemical_formula_structural   Fe3OF5
_chemical_formula_sum   'Fe6 O2 F10'
_cell_volume   223.46836690
_cell_formula_units_Z   2
loop_
 _symmetry_equiv_pos_site_id
 _symmetry_equiv_pos_as_xyz
  1  'x, y, z'
loop_
 _atom_site_type_symbol
 _atom_site_label
 _atom_site_symmetry_multiplicity
 _atom_site_fract_x
 _atom_site_fract_y
 _atom_site_fract_z
 _atom_site_occupancy
  Fe  Fe0  1  0.65125400  0.66507400  0.84641400  1
  Fe  Fe1  1  0.33817300  0.33981100  0.64933400  1
  Fe  Fe2  1  0.65034100  0.66306600  0.32796500  1
  Fe  Fe3  1  0.33866000  0.36392800  0.16960300  1
  Fe  Fe4  1  0.99679400  0.00274200  0.49543500  1
  Fe  Fe5  1  0.02091500  0.98041200  0.00582000  1
  O  O6  1  0.42264700  0.42249300  0.38122900  1
  O  O7  1  0.30735500  0.67961000  0.00810300  1
  F  F8  1  0.02982900  0.63196300  0.67532700  1
  F  F9  1  0.36193300  0.98766000  0.31642000  1
  F  F10  1  0.88517000  0.89436000  0.31128700  1
  F  F11  1  0.24844000  0.24469500  0.94821500  1
  F  F12  1  0.55904400  0.55040000  0.63748200  1
  F  F13  1  0.77245200  0.76890100  0.03643700  1
  F  F14  1  0.10906300  0.11831200  0.68806300  1
  F  F15  1  0.97740700  0.36895700  0.31795200  1
  F  F16  1  0.62816400  0.03959100  0.67266500  1
  F  F17  1  0.70236000  0.27802700  0.01224900  1
