# generated using pymatgen
data_Na2CoO3
_symmetry_space_group_name_H-M   'P 1'
_cell_length_a   5.18784934
_cell_length_b   5.18784934
_cell_length_c   5.64523931
_cell_angle_alpha   80.68699133
_cell_angle_beta   80.68699133
_cell_angle_gamma   119.83668880
_symmetry_Int_Tables_number   1
_chemical_formula_structural   Na2CoO3
_chemical_formula_sum   'Na4 Co2 O6'
_cell_volume   124.73730377
_cell_formula_units_Z   2
loop_
 _symmetry_equiv_pos_site_id
 _symmetry_equiv_pos_as_xyz
  1  'x, y, z'
loop_
 _atom_site_type_symbol
 _atom_site_label
 _atom_site_symmetry_multiplicity
 _atom_site_fract_x
 _atom_site_fract_y
 _atom_site_fract_z
 _atom_site_occupancy
  Na  Na0  1  0.84231100  0.15768900  0.50000000  1
  Na  Na1  1  0.15768900  0.84231100  0.50000000  1
  Na  Na2  1  0.50000000  0.50000000  0.50000000  1
  Na  Na3  1  0.00000000  0.00000000  0.00000000  1
  Co  Co4  1  0.32932500  0.67067500  0.00000000  1
  Co  Co5  1  0.67067500  0.32932500  0.00000000  1
  O  O6  1  0.68717600  0.68717600  0.80118100  1
  O  O7  1  0.93690000  0.55412100  0.19812600  1
  O  O8  1  0.55412100  0.93690000  0.19812600  1
  O  O9  1  0.06310000  0.44587900  0.80187400  1
  O  O10  1  0.44587900  0.06310000  0.80187400  1
  O  O11  1  0.31282400  0.31282400  0.19881900  1
