# generated using pymatgen
data_K4HfC8O21
_symmetry_space_group_name_H-M   'P 1'
_cell_length_a   10.89846236
_cell_length_b   12.18796781
_cell_length_c   15.90268433
_cell_angle_alpha   90.00000000
_cell_angle_beta   94.23542488
_cell_angle_gamma   90.00000000
_symmetry_Int_Tables_number   1
_chemical_formula_structural   K4HfC8O21
_chemical_formula_sum   'K16 Hf4 C32 O84'
_cell_volume   2106.58645169
_cell_formula_units_Z   4
loop_
 _symmetry_equiv_pos_site_id
 _symmetry_equiv_pos_as_xyz
  1  'x, y, z'
loop_
 _atom_site_type_symbol
 _atom_site_label
 _atom_site_symmetry_multiplicity
 _atom_site_fract_x
 _atom_site_fract_y
 _atom_site_fract_z
 _atom_site_occupancy
  K  K0  1  0.10484341  0.14711304  0.75985375  1
  K  K1  1  0.89515659  0.64711304  0.74014625  1
  K  K2  1  0.89515659  0.85288696  0.24014625  1
  K  K3  1  0.10484341  0.35288696  0.25985375  1
  K  K4  1  0.02023231  0.26148008  0.01402951  1
  K  K5  1  0.97976769  0.76148008  0.48597049  1
  K  K6  1  0.97976769  0.73851992  0.98597049  1
  K  K7  1  0.02023231  0.23851992  0.51402951  1
  K  K8  1  0.51970590  0.44345076  0.80219144  1
  K  K9  1  0.48029410  0.94345076  0.69780856  1
  K  K10  1  0.48029410  0.55654924  0.19780856  1
  K  K11  1  0.51970590  0.05654924  0.30219144  1
  K  K12  1  0.39551414  0.15149340  0.92169527  1
  K  K13  1  0.60448586  0.65149340  0.57830473  1
  K  K14  1  0.60448586  0.84850660  0.07830473  1
  K  K15  1  0.39551414  0.34850660  0.42169527  1
  Hf  Hf16  1  0.76056376  0.14987681  0.67419808  1
  Hf  Hf17  1  0.23943624  0.64987681  0.82580192  1
  Hf  Hf18  1  0.23943624  0.85012319  0.32580192  1
  Hf  Hf19  1  0.76056376  0.35012319  0.17419808  1
  C  C20  1  0.68633443  0.08452513  0.85357264  1
  C  C21  1  0.31366557  0.58452513  0.64642736  1
  C  C22  1  0.31366557  0.91547487  0.14642736  1
  C  C23  1  0.68633443  0.41547487  0.35357264  1
  C  C24  1  0.82569638  0.11096731  0.86444987  1
  C  C25  1  0.17430362  0.61096731  0.63555013  1
  C  C26  1  0.17430362  0.88903269  0.13555013  1
  C  C27  1  0.82569638  0.38903269  0.36444987  1
  C  C28  1  0.54028810  0.14297235  0.54188311  1
  C  C29  1  0.45971190  0.64297235  0.95811689  1
  C  C30  1  0.45971190  0.85702765  0.45811689  1
  C  C31  1  0.54028810  0.35702765  0.04188311  1
  C  C32  1  0.65328103  0.17648623  0.49135205  1
  C  C33  1  0.34671897  0.67648623  0.00864795  1
  C  C34  1  0.34671897  0.82351377  0.50864795  1
  C  C35  1  0.65328103  0.32351377  0.99135205  1
  C  C36  1  0.94259671  0.97372221  0.62088159  1
  C  C37  1  0.05740329  0.47372221  0.87911841  1
  C  C38  1  0.05740329  0.02627779  0.37911841  1
  C  C39  1  0.94259671  0.52627779  0.12088159  1
  C  C40  1  0.82443138  0.90923195  0.63845556  1
  C  C41  1  0.17556862  0.40923195  0.86154444  1
  C  C42  1  0.17556862  0.09076805  0.36154444  1
  C  C43  1  0.82443138  0.59076805  0.13845556  1
  C  C44  1  0.88255773  0.37728639  0.68176815  1
  C  C45  1  0.11744227  0.87728639  0.81823185  1
  C  C46  1  0.11744227  0.62271361  0.31823185  1
  C  C47  1  0.88255773  0.12271361  0.18176815  1
  C  C48  1  0.74480378  0.39905206  0.69180139  1
  C  C49  1  0.25519622  0.89905206  0.80819861  1
  C  C50  1  0.25519622  0.60094794  0.30819861  1
  C  C51  1  0.74480378  0.10094794  0.19180139  1
  O  O52  1  0.63821698  0.10133738  0.77878054  1
  O  O53  1  0.36178302  0.60133738  0.72121946  1
  O  O54  1  0.36178302  0.89866262  0.22121946  1
  O  O55  1  0.63821698  0.39866262  0.27878054  1
  O  O56  1  0.86638014  0.14941662  0.79600508  1
  O  O57  1  0.13361986  0.64941662  0.70399492  1
  O  O58  1  0.13361986  0.85058338  0.20399492  1
  O  O59  1  0.86638014  0.35058338  0.29600508  1
  O  O60  1  0.88758234  0.09727241  0.93222872  1
  O  O61  1  0.11241766  0.59727241  0.56777128  1
  O  O62  1  0.11241766  0.90272759  0.06777128  1
  O  O63  1  0.88758234  0.40272759  0.43222872  1
  O  O64  1  0.63242160  0.05181856  0.91606514  1
  O  O65  1  0.36757840  0.55181856  0.58393486  1
  O  O66  1  0.36757840  0.94818144  0.08393486  1
  O  O67  1  0.63242160  0.44818144  0.41606514  1
  O  O68  1  0.56861019  0.12640714  0.62050930  1
  O  O69  1  0.43138981  0.62640714  0.87949070  1
  O  O70  1  0.43138981  0.87359286  0.37949070  1
  O  O71  1  0.56861019  0.37359286  0.12050930  1
  O  O72  1  0.75371224  0.18230540  0.53962658  1
  O  O73  1  0.24628776  0.68230540  0.96037342  1
  O  O74  1  0.24628776  0.81769460  0.46037342  1
  O  O75  1  0.75371224  0.31769460  0.03962658  1
  O  O76  1  0.63996250  0.19485849  0.41474876  1
  O  O77  1  0.36003750  0.69485849  0.08525124  1
  O  O78  1  0.36003750  0.80514151  0.58525124  1
  O  O79  1  0.63996250  0.30514151  0.91474876  1
  O  O80  1  0.43630932  0.13593438  0.50344286  1
  O  O81  1  0.56369068  0.63593438  0.99655714  1
  O  O82  1  0.56369068  0.86406562  0.49655714  1
  O  O83  1  0.43630932  0.36406562  0.00344286  1
  O  O84  1  0.93279672  0.07808419  0.63667963  1
  O  O85  1  0.06720328  0.57808419  0.86332037  1
  O  O86  1  0.06720328  0.92191581  0.36332037  1
  O  O87  1  0.93279672  0.42191581  0.13667963  1
  O  O88  1  0.73889859  0.97145031  0.66480362  1
  O  O89  1  0.26110141  0.47145031  0.83519638  1
  O  O90  1  0.26110141  0.02854969  0.33519638  1
  O  O91  1  0.73889859  0.52854969  0.16480362  1
  O  O92  1  0.81714143  0.80807025  0.62820045  1
  O  O93  1  0.18285857  0.30807025  0.87179955  1
  O  O94  1  0.18285857  0.19192975  0.37179955  1
  O  O95  1  0.81714143  0.69192975  0.12820045  1
  O  O96  1  0.03405589  0.92853429  0.59535967  1
  O  O97  1  0.96594411  0.42853429  0.90464033  1
  O  O98  1  0.96594411  0.07146571  0.40464033  1
  O  O99  1  0.03405589  0.57146571  0.09535967  1
  O  O100  1  0.90486871  0.27540069  0.66520879  1
  O  O101  1  0.09513129  0.77540069  0.83479121  1
  O  O102  1  0.09513129  0.72459931  0.33479121  1
  O  O103  1  0.90486871  0.22459931  0.16520879  1
  O  O104  1  0.68008125  0.31038513  0.69585428  1
  O  O105  1  0.31991875  0.81038513  0.80414572  1
  O  O106  1  0.31991875  0.68961487  0.30414572  1
  O  O107  1  0.68008125  0.18961487  0.19585428  1
  O  O108  1  0.70396397  0.49414221  0.69730205  1
  O  O109  1  0.29603603  0.99414221  0.80269795  1
  O  O110  1  0.29603603  0.50585779  0.30269795  1
  O  O111  1  0.70396397  0.00585779  0.19730205  1
  O  O112  1  0.96034135  0.45067174  0.69037911  1
  O  O113  1  0.03965865  0.95067174  0.80962089  1
  O  O114  1  0.03965865  0.54932826  0.30962089  1
  O  O115  1  0.96034135  0.04932826  0.19037911  1
  O  O116  1  0.19077848  0.05515070  0.00083751  1
  O  O117  1  0.80922152  0.55515070  0.49916249  1
  O  O118  1  0.80922152  0.94484930  0.99916249  1
  O  O119  1  0.19077848  0.44484930  0.50083751  1
  O  O120  1  0.23632757  0.31088547  0.66250487  1
  O  O121  1  0.76367243  0.81088547  0.83749513  1
  O  O122  1  0.76367243  0.68911453  0.33749513  1
  O  O123  1  0.23632757  0.18911453  0.16250487  1
  O  O124  1  0.26345149  0.10430459  0.58718480  1
  O  O125  1  0.73654851  0.60430459  0.91281520  1
  O  O126  1  0.73654851  0.89569541  0.41281520  1
  O  O127  1  0.26345149  0.39569541  0.08718480  1
  O  O128  1  0.32912912  0.27613443  0.70395289  1
  O  O129  1  0.67087088  0.77613443  0.79604711  1
  O  O130  1  0.67087088  0.72386557  0.29604711  1
  O  O131  1  0.32912912  0.22386557  0.20395289  1
  O  O132  1  0.46116234  0.39274276  0.59859786  1
  O  O133  1  0.53883766  0.89274276  0.90140214  1
  O  O134  1  0.53883766  0.60725724  0.40140214  1
  O  O135  1  0.46116234  0.10725724  0.09859786  1
