# generated using pymatgen
data_MnO2
_symmetry_space_group_name_H-M   'P 1'
_cell_length_a   10.31409825
_cell_length_b   10.31409825
_cell_length_c   10.31409767
_cell_angle_alpha   16.30730449
_cell_angle_beta   16.30730449
_cell_angle_gamma   16.30730039
_symmetry_Int_Tables_number   1
_chemical_formula_structural   MnO2
_chemical_formula_sum   'Mn2 O4'
_cell_volume   75.42342302
_cell_formula_units_Z   2
loop_
 _symmetry_equiv_pos_site_id
 _symmetry_equiv_pos_as_xyz
  1  'x, y, z'
loop_
 _atom_site_type_symbol
 _atom_site_label
 _atom_site_symmetry_multiplicity
 _atom_site_fract_x
 _atom_site_fract_y
 _atom_site_fract_z
 _atom_site_occupancy
  Mn  Mn0  1  0.50000000  0.50000000  0.50000000  1
  Mn  Mn1  1  0.00000000  0.00000000  0.00000000  1
  O  O2  1  0.63519600  0.63519600  0.63519600  1
  O  O3  1  0.19812100  0.19812100  0.19812100  1
  O  O4  1  0.80187900  0.80187900  0.80187900  1
  O  O5  1  0.36480400  0.36480400  0.36480400  1
