# generated using pymatgen
data_V4O5F7
_symmetry_space_group_name_H-M   'P 1'
_cell_length_a   5.20223700
_cell_length_b   5.38830460
_cell_length_c   7.50826869
_cell_angle_alpha   92.09016171
_cell_angle_beta   90.25728084
_cell_angle_gamma   90.20531998
_symmetry_Int_Tables_number   1
_chemical_formula_structural   V4O5F7
_chemical_formula_sum   'V4 O5 F7'
_cell_volume   210.32243487
_cell_formula_units_Z   1
loop_
 _symmetry_equiv_pos_site_id
 _symmetry_equiv_pos_as_xyz
  1  'x, y, z'
loop_
 _atom_site_type_symbol
 _atom_site_label
 _atom_site_symmetry_multiplicity
 _atom_site_fract_x
 _atom_site_fract_y
 _atom_site_fract_z
 _atom_site_occupancy
  V  V0  1  0.52006400  0.51197000  0.49589700  1
  V  V1  1  0.53220100  0.52975800  0.98348400  1
  V  V2  1  0.97101900  0.01152200  0.49455300  1
  V  V3  1  0.03309600  0.02047900  0.99558800  1
  O  O4  1  0.28178200  0.20419600  0.96155600  1
  O  O5  1  0.57607100  0.49870100  0.76103000  1
  O  O6  1  0.72260200  0.20766900  0.45995100  1
  O  O7  1  0.70840900  0.78027900  0.04108600  1
  O  O8  1  0.77129500  0.70722000  0.46388900  1
  F  F9  1  0.09595200  0.98091700  0.24996000  1
  F  F10  1  0.22182300  0.28679500  0.54028000  1
  F  F11  1  0.20449900  0.69535600  0.95588100  1
  F  F12  1  0.26989500  0.78731200  0.54543200  1
  F  F13  1  0.40822300  0.49281100  0.24390500  1
  F  F14  1  0.78295000  0.28785600  0.05498500  1
  F  F15  1  0.90012000  0.99715900  0.75251900  1
