# generated using pymatgen
data_Y2HfO5
_symmetry_space_group_name_H-M   'P 1'
_cell_length_a   5.99640518
_cell_length_b   5.99640518
_cell_length_c   10.91027000
_cell_angle_alpha   90.00000000
_cell_angle_beta   90.00000000
_cell_angle_gamma   139.79590514
_symmetry_Int_Tables_number   1
_chemical_formula_structural   Y2HfO5
_chemical_formula_sum   'Y4 Hf2 O10'
_cell_volume   253.23395893
_cell_formula_units_Z   2
loop_
 _symmetry_equiv_pos_site_id
 _symmetry_equiv_pos_as_xyz
  1  'x, y, z'
loop_
 _atom_site_type_symbol
 _atom_site_label
 _atom_site_symmetry_multiplicity
 _atom_site_fract_x
 _atom_site_fract_y
 _atom_site_fract_z
 _atom_site_occupancy
  Y  Y0  1  0.86077900  0.13922100  0.56615300  1
  Y  Y1  1  0.86077900  0.13922100  0.93384700  1
  Y  Y2  1  0.13922100  0.86077900  0.06615300  1
  Y  Y3  1  0.13922100  0.86077900  0.43384700  1
  Hf  Hf4  1  0.82243000  0.17757000  0.25000000  1
  Hf  Hf5  1  0.17757000  0.82243000  0.75000000  1
  O  O6  1  0.95079400  0.04920600  0.11958000  1
  O  O7  1  0.70845900  0.29154100  0.41148400  1
  O  O8  1  0.95079400  0.04920600  0.38042000  1
  O  O9  1  0.70845900  0.29154100  0.08851600  1
  O  O10  1  0.73393200  0.26606800  0.75000000  1
  O  O11  1  0.04920600  0.95079400  0.61958000  1
  O  O12  1  0.26606800  0.73393200  0.25000000  1
  O  O13  1  0.29154100  0.70845900  0.58851600  1
  O  O14  1  0.04920600  0.95079400  0.88042000  1
  O  O15  1  0.29154100  0.70845900  0.91148400  1
