# generated using pymatgen
data_K5Se3
_symmetry_space_group_name_H-M   'P 1'
_cell_length_a   9.72678653
_cell_length_b   9.72678653
_cell_length_c   9.72678653
_cell_angle_alpha   95.81201276
_cell_angle_beta   95.81201276
_cell_angle_gamma   142.88920187
_symmetry_Int_Tables_number   1
_chemical_formula_structural   K5Se3
_chemical_formula_sum   'K10 Se6'
_cell_volume   526.37989754
_cell_formula_units_Z   2
loop_
 _symmetry_equiv_pos_site_id
 _symmetry_equiv_pos_as_xyz
  1  'x, y, z'
loop_
 _atom_site_type_symbol
 _atom_site_label
 _atom_site_symmetry_multiplicity
 _atom_site_fract_x
 _atom_site_fract_y
 _atom_site_fract_z
 _atom_site_occupancy
  K  K0  1  0.08946700  0.21555400  0.30502100  1
  K  K1  1  0.27494800  0.40861400  0.68356200  1
  K  K2  1  0.78444600  0.08946700  0.87391300  1
  K  K3  1  0.40861400  0.72505200  0.13366700  1
  K  K4  1  0.75000000  0.25000000  0.50000000  1
  K  K5  1  0.25000000  0.75000000  0.50000000  1
  K  K6  1  0.59138600  0.27494800  0.86633300  1
  K  K7  1  0.21555400  0.91053300  0.12608700  1
  K  K8  1  0.72505200  0.59138600  0.31643800  1
  K  K9  1  0.91053300  0.78444600  0.69497900  1
  Se  Se10  1  0.65600000  0.84715800  0.50315800  1
  Se  Se11  1  0.84715800  0.34400000  0.19115900  1
  Se  Se12  1  0.15284200  0.65600000  0.80884100  1
  Se  Se13  1  0.34400000  0.15284200  0.49684200  1
  Se  Se14  1  0.70266800  0.70266800  0.00000000  1
  Se  Se15  1  0.29733200  0.29733200  0.00000000  1
