# generated using pymatgen
data_MgCoO3
_symmetry_space_group_name_H-M   'P 1'
_cell_length_a   6.38267842
_cell_length_b   6.38267842
_cell_length_c   4.96192624
_cell_angle_alpha   86.81401285
_cell_angle_beta   86.81401285
_cell_angle_gamma   83.42588970
_symmetry_Int_Tables_number   1
_chemical_formula_structural   MgCoO3
_chemical_formula_sum   'Mg4 Co4 O12'
_cell_volume   200.25535230
_cell_formula_units_Z   4
loop_
 _symmetry_equiv_pos_site_id
 _symmetry_equiv_pos_as_xyz
  1  'x, y, z'
loop_
 _atom_site_type_symbol
 _atom_site_label
 _atom_site_symmetry_multiplicity
 _atom_site_fract_x
 _atom_site_fract_y
 _atom_site_fract_z
 _atom_site_occupancy
  Mg  Mg0  1  0.60636200  0.82640600  0.22403600  1
  Mg  Mg1  1  0.82640600  0.60636200  0.72403600  1
  Mg  Mg2  1  0.17359400  0.39363800  0.27596400  1
  Mg  Mg3  1  0.39363800  0.17359400  0.77596400  1
  Co  Co4  1  0.08228700  0.91771300  0.25000000  1
  Co  Co5  1  0.73354900  0.26645100  0.25000000  1
  Co  Co6  1  0.26645100  0.73354900  0.75000000  1
  Co  Co7  1  0.91771300  0.08228700  0.75000000  1
  O  O8  1  0.81300200  0.98016100  0.43013200  1
  O  O9  1  0.98016100  0.81300200  0.93013200  1
  O  O10  1  0.33701100  0.88473600  0.03952900  1
  O  O11  1  0.52855600  0.72779800  0.60771700  1
  O  O12  1  0.88473600  0.33701100  0.53952900  1
  O  O13  1  0.72779800  0.52855600  0.10771700  1
  O  O14  1  0.27220200  0.47144400  0.89228300  1
  O  O15  1  0.11526400  0.66298900  0.46047100  1
  O  O16  1  0.47144400  0.27220200  0.39228300  1
  O  O17  1  0.66298900  0.11526400  0.96047100  1
  O  O18  1  0.01983900  0.18699800  0.06986800  1
  O  O19  1  0.18699800  0.01983900  0.56986800  1
