# generated using pymatgen
data_BP2Pb2O9
_symmetry_space_group_name_H-M   'P 1'
_cell_length_a   8.31411800
_cell_length_b   5.64369000
_cell_length_c   16.77146328
_cell_angle_alpha   72.57747865
_cell_angle_beta   90.00000000
_cell_angle_gamma   90.00000000
_symmetry_Int_Tables_number   1
_chemical_formula_structural   BP2Pb2O9
_chemical_formula_sum   'B4 P8 Pb8 O36'
_cell_volume   750.85231381
_cell_formula_units_Z   4
loop_
 _symmetry_equiv_pos_site_id
 _symmetry_equiv_pos_as_xyz
  1  'x, y, z'
loop_
 _atom_site_type_symbol
 _atom_site_label
 _atom_site_symmetry_multiplicity
 _atom_site_fract_x
 _atom_site_fract_y
 _atom_site_fract_z
 _atom_site_occupancy
  B  B0  1  0.24772500  0.42478700  0.71510600  1
  B  B1  1  0.74772500  0.57521300  0.78489400  1
  B  B2  1  0.75227500  0.57521300  0.28489400  1
  B  B3  1  0.25227500  0.42478700  0.21510600  1
  P  P4  1  0.43668100  0.71402800  0.58327400  1
  P  P5  1  0.93668100  0.28597200  0.91672600  1
  P  P6  1  0.56331900  0.28597200  0.41672600  1
  P  P7  1  0.06331900  0.71402800  0.08327400  1
  P  P8  1  0.95467400  0.64348600  0.64522700  1
  P  P9  1  0.45467400  0.35651400  0.85477300  1
  P  P10  1  0.04532600  0.35651400  0.35477300  1
  P  P11  1  0.54532600  0.64348600  0.14522700  1
  Pb  Pb12  1  0.68785100  0.16716600  0.63327400  1
  Pb  Pb13  1  0.18785100  0.83283400  0.86672600  1
  Pb  Pb14  1  0.31214900  0.83283400  0.36672600  1
  Pb  Pb15  1  0.81214900  0.16716600  0.13327400  1
  Pb  Pb16  1  0.81808500  0.81139000  0.43922900  1
  Pb  Pb17  1  0.31808500  0.18861000  0.06077100  1
  Pb  Pb18  1  0.18191500  0.18861000  0.56077100  1
  Pb  Pb19  1  0.68191500  0.81139000  0.93922900  1
  O  O20  1  0.59514300  0.63678600  0.55156900  1
  O  O21  1  0.09514300  0.36321400  0.94843100  1
  O  O22  1  0.40485700  0.36321400  0.44843100  1
  O  O23  1  0.90485700  0.63678600  0.05156900  1
  O  O24  1  0.81639500  0.53218100  0.70855100  1
  O  O25  1  0.31639500  0.46781900  0.79144900  1
  O  O26  1  0.18360500  0.46781900  0.29144900  1
  O  O27  1  0.68360500  0.53218100  0.20855100  1
  O  O28  1  0.37626100  0.46362800  0.64998900  1
  O  O29  1  0.87626100  0.53637200  0.85001100  1
  O  O30  1  0.62373900  0.53637200  0.35001100  1
  O  O31  1  0.12373900  0.46362800  0.14998900  1
  O  O32  1  0.95154500  0.49575600  0.58212700  1
  O  O33  1  0.45154500  0.50424400  0.91787300  1
  O  O34  1  0.04845500  0.50424400  0.41787300  1
  O  O35  1  0.54845500  0.49575600  0.08212700  1
  O  O36  1  0.92623400  0.92330700  0.60427000  1
  O  O37  1  0.42623400  0.07669300  0.89573000  1
  O  O38  1  0.07376600  0.07669300  0.39573000  1
  O  O39  1  0.57376600  0.92330700  0.10427000  1
  O  O40  1  0.30445500  0.79772600  0.51585900  1
  O  O41  1  0.80445500  0.20227400  0.98414100  1
  O  O42  1  0.69554500  0.20227400  0.48414100  1
  O  O43  1  0.19554500  0.79772600  0.01585900  1
  O  O44  1  0.18462100  0.18305000  0.72385300  1
  O  O45  1  0.68462100  0.81695000  0.77614700  1
  O  O46  1  0.81537900  0.81695000  0.27614700  1
  O  O47  1  0.31537900  0.18305000  0.22385300  1
  O  O48  1  0.12095200  0.62418800  0.69087700  1
  O  O49  1  0.62095200  0.37581200  0.80912300  1
  O  O50  1  0.87904800  0.37581200  0.30912300  1
  O  O51  1  0.37904800  0.62418800  0.19087700  1
  O  O52  1  0.45176600  0.91954600  0.62668200  1
  O  O53  1  0.95176600  0.08045400  0.87331800  1
  O  O54  1  0.54823400  0.08045400  0.37331800  1
  O  O55  1  0.04823400  0.91954600  0.12668200  1
