# generated using pymatgen
data_Cs3YO3
_symmetry_space_group_name_H-M   'P 1'
_cell_length_a   7.63350338
_cell_length_b   7.63350338
_cell_length_c   7.68571444
_cell_angle_alpha   84.24016010
_cell_angle_beta   84.24016010
_cell_angle_gamma   116.53602303
_symmetry_Int_Tables_number   1
_chemical_formula_structural   Cs3YO3
_chemical_formula_sum   'Cs6 Y2 O6'
_cell_volume   393.30817673
_cell_formula_units_Z   2
loop_
 _symmetry_equiv_pos_site_id
 _symmetry_equiv_pos_as_xyz
  1  'x, y, z'
loop_
 _atom_site_type_symbol
 _atom_site_label
 _atom_site_symmetry_multiplicity
 _atom_site_fract_x
 _atom_site_fract_y
 _atom_site_fract_z
 _atom_site_occupancy
  Cs  Cs0  1  0.64266700  0.64266700  0.64920800  1
  Cs  Cs1  1  0.78873500  0.21126500  0.50000000  1
  Cs  Cs2  1  0.21126500  0.78873500  0.50000000  1
  Cs  Cs3  1  0.73792100  0.26207900  0.00000000  1
  Cs  Cs4  1  0.26207900  0.73792100  0.00000000  1
  Cs  Cs5  1  0.35733300  0.35733300  0.35079200  1
  Y  Y6  1  0.82595700  0.82595700  0.15011000  1
  Y  Y7  1  0.17404300  0.17404300  0.84989000  1
  O  O8  1  0.89897000  0.89897000  0.85699100  1
  O  O9  1  0.83193500  0.56246500  0.26431100  1
  O  O10  1  0.56246500  0.83193500  0.26431100  1
  O  O11  1  0.43753500  0.16806500  0.73568900  1
  O  O12  1  0.16806500  0.43753500  0.73568900  1
  O  O13  1  0.10103000  0.10103000  0.14300900  1
