# generated using pymatgen
data_MnP2O7
_symmetry_space_group_name_H-M   'P 1'
_cell_length_a   4.89677416
_cell_length_b   13.35215492
_cell_length_c   8.48209744
_cell_angle_alpha   71.45894799
_cell_angle_beta   89.97442134
_cell_angle_gamma   100.57179953
_symmetry_Int_Tables_number   1
_chemical_formula_structural   MnP2O7
_chemical_formula_sum   'Mn4 P8 O28'
_cell_volume   515.84153169
_cell_formula_units_Z   4
loop_
 _symmetry_equiv_pos_site_id
 _symmetry_equiv_pos_as_xyz
  1  'x, y, z'
loop_
 _atom_site_type_symbol
 _atom_site_label
 _atom_site_symmetry_multiplicity
 _atom_site_fract_x
 _atom_site_fract_y
 _atom_site_fract_z
 _atom_site_occupancy
  Mn  Mn0  1  0.50548400  0.01057400  0.49477200  1
  Mn  Mn1  1  0.25535000  0.51061800  0.74474500  1
  Mn  Mn2  1  0.00547900  0.01055900  0.99476100  1
  Mn  Mn3  1  0.75535900  0.51062600  0.24473600  1
  P  P4  1  0.81643200  0.63323300  0.85021600  1
  P  P5  1  0.31647100  0.63323300  0.35020400  1
  P  P6  1  0.94389300  0.88787600  0.72278800  1
  P  P7  1  0.44389800  0.88787200  0.22278600  1
  P  P8  1  0.06684600  0.13329000  0.26653000  1
  P  P9  1  0.56685300  0.13329900  0.76652700  1
  P  P10  1  0.19436600  0.38799300  0.13930500  1
  P  P11  1  0.69432900  0.38799900  0.63927800  1
  O  O12  1  0.87925800  0.76050600  0.78689500  1
  O  O13  1  0.37923500  0.76053400  0.28670000  1
  O  O14  1  0.13096200  0.26066000  0.20281600  1
  O  O15  1  0.63096400  0.26065900  0.70281500  1
  O  O16  1  0.66040400  0.91980400  0.68200700  1
  O  O17  1  0.16035900  0.91978200  0.18198300  1
  O  O18  1  0.50091300  0.60121400  0.84126200  1
  O  O19  1  0.00088200  0.60126900  0.34116000  1
  O  O20  1  0.91349300  0.60123500  0.02829400  1
  O  O21  1  0.41344200  0.60121200  0.52826100  1
  O  O22  1  0.07205900  0.91997200  0.86882600  1
  O  O23  1  0.57197200  0.92001200  0.36871300  1
  O  O24  1  0.14694000  0.92007200  0.56939600  1
  O  O25  1  0.64684000  0.92002200  0.06930300  1
  O  O26  1  0.86397900  0.10113900  0.41991800  1
  O  O27  1  0.36399400  0.10114200  0.91994700  1
  O  O28  1  0.98703500  0.60102700  0.72899800  1
  O  O29  1  0.48706800  0.60105100  0.22893900  1
  O  O30  1  0.02321100  0.42001100  0.26056800  1
  O  O31  1  0.52315400  0.42000200  0.76051000  1
  O  O32  1  0.09780800  0.42002700  0.96128000  1
  O  O33  1  0.59776100  0.42001900  0.46125200  1
  O  O34  1  0.93812900  0.10111400  0.12055700  1
  O  O35  1  0.43811800  0.10108400  0.62066000  1
  O  O36  1  0.34976800  0.10103800  0.30763900  1
  O  O37  1  0.84981100  0.10104100  0.80765600  1
  O  O38  1  0.50995200  0.42019200  0.14771100  1
  O  O39  1  0.00993200  0.42019500  0.64769100  1
