# generated using pymatgen
data_Mn2P2O7
_symmetry_space_group_name_H-M   'P 1'
_cell_length_a   4.60387104
_cell_length_b   10.44110500
_cell_length_c   5.47054533
_cell_angle_alpha   90.00048148
_cell_angle_beta   97.11690628
_cell_angle_gamma   89.99963274
_symmetry_Int_Tables_number   1
_chemical_formula_structural   Mn2P2O7
_chemical_formula_sum   'Mn4 P4 O14'
_cell_volume   260.94033917
_cell_formula_units_Z   2
loop_
 _symmetry_equiv_pos_site_id
 _symmetry_equiv_pos_as_xyz
  1  'x, y, z'
loop_
 _atom_site_type_symbol
 _atom_site_label
 _atom_site_symmetry_multiplicity
 _atom_site_fract_x
 _atom_site_fract_y
 _atom_site_fract_z
 _atom_site_occupancy
  Mn  Mn0  1  0.10102300  0.65410600  0.41020100  1
  Mn  Mn1  1  0.89915600  0.15435000  0.08971700  1
  Mn  Mn2  1  0.10052100  0.84559100  0.91036800  1
  Mn  Mn3  1  0.89944400  0.34553200  0.58964900  1
  P  P4  1  0.35893400  0.10942300  0.65060700  1
  P  P5  1  0.35898300  0.39061200  0.15057700  1
  P  P6  1  0.64105500  0.60944100  0.84939000  1
  P  P7  1  0.64103900  0.89060000  0.34941900  1
  O  O8  1  0.49999400  0.00004100  0.49999300  1
  O  O9  1  0.49997900  0.50003100  0.00001800  1
  O  O10  1  0.13067400  0.32281600  0.96602600  1
  O  O11  1  0.13066500  0.17723200  0.46597100  1
  O  O12  1  0.86932400  0.82280200  0.53398600  1
  O  O13  1  0.86931400  0.67722100  0.03404600  1
  O  O14  1  0.21404300  0.04323300  0.85619700  1
  O  O15  1  0.21406900  0.45680400  0.35619100  1
  O  O16  1  0.78593300  0.54321800  0.64381100  1
  O  O17  1  0.78591100  0.95682600  0.14381300  1
  O  O18  1  0.38691200  0.69664600  0.74663100  1
  O  O19  1  0.38687300  0.80341000  0.24662000  1
  O  O20  1  0.61305200  0.19665500  0.75337300  1
  O  O21  1  0.61310000  0.30341300  0.25339500  1
