# generated using pymatgen
data_Fe3(OF2)2
_symmetry_space_group_name_H-M   'P 1'
_cell_length_a   5.71705100
_cell_length_b   5.74684861
_cell_length_c   7.44762359
_cell_angle_alpha   72.03258188
_cell_angle_beta   71.61674323
_cell_angle_gamma   73.73218902
_symmetry_Int_Tables_number   1
_chemical_formula_structural   Fe3(OF2)2
_chemical_formula_sum   'Fe6 O4 F8'
_cell_volume   216.30207353
_cell_formula_units_Z   2
loop_
 _symmetry_equiv_pos_site_id
 _symmetry_equiv_pos_as_xyz
  1  'x, y, z'
loop_
 _atom_site_type_symbol
 _atom_site_label
 _atom_site_symmetry_multiplicity
 _atom_site_fract_x
 _atom_site_fract_y
 _atom_site_fract_z
 _atom_site_occupancy
  Fe  Fe0  1  0.67763900  0.69977400  0.84096900  1
  Fe  Fe1  1  0.36026300  0.30869100  0.67043800  1
  Fe  Fe2  1  0.64723400  0.65013800  0.31404900  1
  Fe  Fe3  1  0.32684100  0.33175200  0.16691400  1
  Fe  Fe4  1  0.98634800  0.99892900  0.50109200  1
  Fe  Fe5  1  0.00301300  0.01441400  0.00093900  1
  O  O6  1  0.22597500  0.22800800  0.95828000  1
  O  O7  1  0.77742900  0.77969800  0.03619400  1
  O  O8  1  0.42754500  0.43083300  0.38085100  1
  O  O9  1  0.63553000  0.02156900  0.67068200  1
  F  F10  1  0.03020500  0.61684400  0.67477900  1
  F  F11  1  0.36056500  0.95631500  0.34173300  1
  F  F12  1  0.89735600  0.89183100  0.29063800  1
  F  F13  1  0.57166200  0.56698300  0.63280500  1
  F  F14  1  0.10166800  0.09898100  0.70546900  1
  F  F15  1  0.95389400  0.37502000  0.33564700  1
  F  F16  1  0.31211500  0.70904800  0.99088800  1
  F  F17  1  0.70471600  0.32117000  0.98763200  1
