# generated using pymatgen
data_Na3NiO3
_symmetry_space_group_name_H-M   'P 1'
_cell_length_a   5.75677300
_cell_length_b   5.86593114
_cell_length_c   6.35030596
_cell_angle_alpha   115.34822996
_cell_angle_beta   89.16912286
_cell_angle_gamma   94.11512890
_symmetry_Int_Tables_number   1
_chemical_formula_structural   Na3NiO3
_chemical_formula_sum   'Na6 Ni2 O6'
_cell_volume   193.26551125
_cell_formula_units_Z   2
loop_
 _symmetry_equiv_pos_site_id
 _symmetry_equiv_pos_as_xyz
  1  'x, y, z'
loop_
 _atom_site_type_symbol
 _atom_site_label
 _atom_site_symmetry_multiplicity
 _atom_site_fract_x
 _atom_site_fract_y
 _atom_site_fract_z
 _atom_site_occupancy
  Na  Na0  1  0.93956500  0.76838800  0.55514200  1
  Na  Na1  1  0.85836400  0.76281100  0.01863300  1
  Na  Na2  1  0.56377200  0.26005800  0.25534000  1
  Na  Na3  1  0.43622800  0.73994200  0.74466000  1
  Na  Na4  1  0.14163600  0.23718900  0.98136700  1
  Na  Na5  1  0.06043500  0.23161200  0.44485800  1
  Ni  Ni6  1  0.62915500  0.18676300  0.68725800  1
  Ni  Ni7  1  0.37084500  0.81323700  0.31274200  1
  O  O8  1  0.75848800  0.09908600  0.90037000  1
  O  O9  1  0.74589900  0.46860900  0.65505800  1
  O  O10  1  0.69222900  0.92019300  0.37177600  1
  O  O11  1  0.30777100  0.07980700  0.62822400  1
  O  O12  1  0.25410100  0.53139100  0.34494200  1
  O  O13  1  0.24151200  0.90091400  0.09963000  1
