# generated using pymatgen
data_Na2FeO3
_symmetry_space_group_name_H-M   'P 1'
_cell_length_a   6.15028800
_cell_length_b   6.45320705
_cell_length_c   5.10026800
_cell_angle_alpha   90.00083688
_cell_angle_beta   90.00158946
_cell_angle_gamma   61.54103225
_symmetry_Int_Tables_number   1
_chemical_formula_structural   Na2FeO3
_chemical_formula_sum   'Na4 Fe2 O6'
_cell_volume   177.96364013
_cell_formula_units_Z   2
loop_
 _symmetry_equiv_pos_site_id
 _symmetry_equiv_pos_as_xyz
  1  'x, y, z'
loop_
 _atom_site_type_symbol
 _atom_site_label
 _atom_site_symmetry_multiplicity
 _atom_site_fract_x
 _atom_site_fract_y
 _atom_site_fract_z
 _atom_site_occupancy
  Na  Na0  1  0.83895200  0.66902000  0.51240200  1
  Na  Na1  1  0.49202600  0.66902100  0.01239900  1
  Na  Na2  1  0.50797400  0.33097900  0.51240200  1
  Na  Na3  1  0.16104600  0.33098100  0.01239900  1
  Fe  Fe4  1  0.82690000  0.00000000  0.04701900  1
  Fe  Fe5  1  0.17309400  0.00000000  0.54703600  1
  O  O6  1  0.84667000  0.71916900  0.99101300  1
  O  O7  1  0.43415400  0.71918100  0.49101300  1
  O  O8  1  0.56583900  0.28083100  0.99101300  1
  O  O9  1  0.15333500  0.28081900  0.49101300  1
  O  O10  1  0.88485000  0.00000000  0.40415400  1
  O  O11  1  0.11516000  0.00000000  0.90413800  1
