# generated using pymatgen
data_Ba2LaI7
_symmetry_space_group_name_H-M   'P 1'
_cell_length_a   10.34785320
_cell_length_b   10.34785320
_cell_length_c   11.73407310
_cell_angle_alpha   60.75588656
_cell_angle_beta   60.75588656
_cell_angle_gamma   53.36395573
_symmetry_Int_Tables_number   1
_chemical_formula_structural   Ba2LaI7
_chemical_formula_sum   'Ba4 La2 I14'
_cell_volume   844.19099002
_cell_formula_units_Z   2
loop_
 _symmetry_equiv_pos_site_id
 _symmetry_equiv_pos_as_xyz
  1  'x, y, z'
loop_
 _atom_site_type_symbol
 _atom_site_label
 _atom_site_symmetry_multiplicity
 _atom_site_fract_x
 _atom_site_fract_y
 _atom_site_fract_z
 _atom_site_occupancy
  Ba  Ba0  1  0.29543800  0.30706100  0.30665800  1
  Ba  Ba1  1  0.69293900  0.70456200  0.19334200  1
  Ba  Ba2  1  0.30706100  0.29543800  0.80665800  1
  Ba  Ba3  1  0.70456200  0.69293900  0.69334200  1
  La  La4  1  0.01339000  0.98661000  0.75000000  1
  La  La5  1  0.98661000  0.01339000  0.25000000  1
  I  I6  1  0.06858300  0.75549800  0.07895300  1
  I  I7  1  0.68080200  0.92575100  0.35248900  1
  I  I8  1  0.88218100  0.37699000  0.53813400  1
  I  I9  1  0.38080100  0.61919900  0.75000000  1
  I  I10  1  0.07424900  0.31919800  0.14751100  1
  I  I11  1  0.24450200  0.93141700  0.42104700  1
  I  I12  1  0.62301000  0.11781900  0.96186600  1
  I  I13  1  0.37699000  0.88218100  0.03813400  1
  I  I14  1  0.75549800  0.06858300  0.57895300  1
  I  I15  1  0.92575100  0.68080200  0.85248900  1
  I  I16  1  0.61919900  0.38080100  0.25000000  1
  I  I17  1  0.11781900  0.62301000  0.46186600  1
  I  I18  1  0.31919800  0.07424900  0.64751100  1
  I  I19  1  0.93141700  0.24450200  0.92104700  1
