# generated using pymatgen
data_Co2OF3
_symmetry_space_group_name_H-M   'P 1'
_cell_length_a   4.73604800
_cell_length_b   5.71663500
_cell_length_c   10.39074868
_cell_angle_alpha   83.39828502
_cell_angle_beta   90.00000000
_cell_angle_gamma   90.00000000
_symmetry_Int_Tables_number   1
_chemical_formula_structural   Co2OF3
_chemical_formula_sum   'Co8 O4 F12'
_cell_volume   279.45645452
_cell_formula_units_Z   4
loop_
 _symmetry_equiv_pos_site_id
 _symmetry_equiv_pos_as_xyz
  1  'x, y, z'
loop_
 _atom_site_type_symbol
 _atom_site_label
 _atom_site_symmetry_multiplicity
 _atom_site_fract_x
 _atom_site_fract_y
 _atom_site_fract_z
 _atom_site_occupancy
  Co  Co0  1  0.50000000  0.50000000  0.00000000  1
  Co  Co1  1  0.50000000  0.00000000  0.50000000  1
  Co  Co2  1  0.53123100  0.74109200  0.26890700  1
  Co  Co3  1  0.46876900  0.25890800  0.73109300  1
  Co  Co4  1  0.03123100  0.25890800  0.23109300  1
  Co  Co5  1  0.00000000  0.50000000  0.50000000  1
  Co  Co6  1  0.96876900  0.74109200  0.76890700  1
  Co  Co7  1  0.00000000  0.00000000  0.00000000  1
  O  O8  1  0.80019400  0.71889300  0.92470600  1
  O  O9  1  0.69980600  0.71889300  0.42470600  1
  O  O10  1  0.30019400  0.28110700  0.57529400  1
  O  O11  1  0.19980600  0.28110700  0.07529400  1
  F  F12  1  0.79965800  0.47821000  0.67925400  1
  F  F13  1  0.81473900  0.22426600  0.41194500  1
  F  F14  1  0.80094000  0.98451500  0.17587900  1
  F  F15  1  0.70034200  0.47821000  0.17925400  1
  F  F16  1  0.68526100  0.22426600  0.91194500  1
  F  F17  1  0.69906000  0.98451500  0.67587900  1
  F  F18  1  0.31473900  0.77573400  0.08805500  1
  F  F19  1  0.30094000  0.01548500  0.32412100  1
  F  F20  1  0.29965800  0.52179000  0.82074600  1
  F  F21  1  0.19906000  0.01548500  0.82412100  1
  F  F22  1  0.20034200  0.52179000  0.32074600  1
  F  F23  1  0.18526100  0.77573400  0.58805500  1
