# generated using pymatgen
data_Fe8H10O17
_symmetry_space_group_name_H-M   'P 1'
_cell_length_a   6.16817500
_cell_length_b   10.55339332
_cell_length_c   10.73562086
_cell_angle_alpha   89.87882441
_cell_angle_beta   89.84599596
_cell_angle_gamma   89.11731830
_symmetry_Int_Tables_number   1
_chemical_formula_structural   Fe8H10O17
_chemical_formula_sum   'Fe16 H20 O34'
_cell_volume   698.75018446
_cell_formula_units_Z   2
loop_
 _symmetry_equiv_pos_site_id
 _symmetry_equiv_pos_as_xyz
  1  'x, y, z'
loop_
 _atom_site_type_symbol
 _atom_site_label
 _atom_site_symmetry_multiplicity
 _atom_site_fract_x
 _atom_site_fract_y
 _atom_site_fract_z
 _atom_site_occupancy
  Fe  Fe0  1  0.00345300  0.89520600  0.65689600  1
  Fe  Fe1  1  0.00450200  0.38848300  0.85335200  1
  Fe  Fe2  1  0.25816700  0.41398200  0.14303600  1
  Fe  Fe3  1  0.28940100  0.90911600  0.30720800  1
  Fe  Fe4  1  0.00789800  0.22555700  0.32189600  1
  Fe  Fe5  1  0.00203900  0.71348300  0.11812900  1
  Fe  Fe6  1  0.25200700  0.69154700  0.83391500  1
  Fe  Fe7  1  0.25381700  0.19271800  0.65123800  1
  Fe  Fe8  1  0.48828100  0.89820000  0.66398400  1
  Fe  Fe9  1  0.50376900  0.39320500  0.84730900  1
  Fe  Fe10  1  0.75233200  0.41246500  0.13745100  1
  Fe  Fe11  1  0.74765100  0.02398300  0.17173700  1
  Fe  Fe12  1  0.51813600  0.21641200  0.32923300  1
  Fe  Fe13  1  0.50246700  0.71543300  0.13010600  1
  Fe  Fe14  1  0.74793300  0.68270100  0.83622000  1
  Fe  Fe15  1  0.75422500  0.19753200  0.63196400  1
  H  H16  1  0.98424200  0.62809700  0.63194300  1
  H  H17  1  0.99974100  0.40272700  0.60285600  1
  H  H18  1  0.26111600  0.33485700  0.46259800  1
  H  H19  1  0.95472000  0.49176500  0.32691200  1
  H  H20  1  0.01638200  0.69211300  0.38157200  1
  H  H21  1  0.85367800  0.79251900  0.31576900  1
  H  H22  1  0.94395300  0.00811300  0.39608700  1
  H  H23  1  0.27727300  0.78924600  0.49908500  1
  H  H24  1  0.28762700  0.17988900  0.90028500  1
  H  H25  1  0.51625000  0.63028100  0.63284300  1
  H  H26  1  0.51795200  0.40016600  0.58973400  1
  H  H27  1  0.51522400  0.50163600  0.32146700  1
  H  H28  1  0.74147000  0.92806300  0.86454000  1
  H  H29  1  0.69790500  0.94228600  0.47664300  1
  H  H30  1  0.72044900  0.18639000  0.90118800  1
  H  H31  1  0.39808300  0.13113300  0.09498500  1
  H  H32  1  0.41030000  0.98766600  0.04752900  1
  H  H33  1  0.00399500  0.03983100  0.94361200  1
  H  H34  1  0.10454200  0.95931000  0.05891700  1
  H  H35  1  0.57028100  0.76823200  0.39631500  1
  O  O36  1  0.99452000  0.69881500  0.68874200  1
  O  O37  1  0.99713200  0.71340100  0.93973600  1
  O  O38  1  0.00439400  0.33134000  0.65954800  1
  O  O39  1  0.00573100  0.07984400  0.64369800  1
  O  O40  1  0.26851500  0.22799100  0.20857700  1
  O  O41  1  0.25852900  0.24219800  0.45944600  1
  O  O42  1  0.25348600  0.86139400  0.13418500  1
  O  O43  1  0.25106400  0.60118200  0.15030000  1
  O  O44  1  0.00913200  0.41502400  0.28757400  1
  O  O45  1  0.00683800  0.38744200  0.03249200  1
  O  O46  1  0.00679000  0.76337500  0.32469000  1
  O  O47  1  0.01481200  0.02692800  0.31648300  1
  O  O48  1  0.24204900  0.88205900  0.77609200  1
  O  O49  1  0.24937300  0.87883900  0.51976000  1
  O  O50  1  0.25947600  0.24406000  0.83652300  1
  O  O51  1  0.24961200  0.50239500  0.81806800  1
  O  O52  1  0.50348800  0.69833000  0.69294000  1
  O  O53  1  0.50079400  0.71104500  0.94491700  1
  O  O54  1  0.50452600  0.33511900  0.65293500  1
  O  O55  1  0.50442600  0.08183600  0.64668200  1
  O  O56  1  0.76207300  0.21502900  0.20068400  1
  O  O57  1  0.76498800  0.22641700  0.45061500  1
  O  O58  1  0.74958400  0.84663200  0.14779800  1
  O  O59  1  0.75595100  0.59806500  0.15830000  1
  O  O60  1  0.51043500  0.41678900  0.28588300  1
  O  O61  1  0.50617200  0.38662700  0.02872200  1
  O  O62  1  0.52877800  0.02556700  0.31336100  1
  O  O63  1  0.74665600  0.88362100  0.78542300  1
  O  O64  1  0.73716400  0.87230500  0.53353800  1
  O  O65  1  0.75154500  0.24585600  0.83422800  1
  O  O66  1  0.75506200  0.50012400  0.81523700  1
  O  O67  1  0.49066400  0.06896700  0.04365100  1
  O  O68  1  0.00504600  0.03452500  0.03435500  1
  O  O69  1  0.45277000  0.74529000  0.33978400  1
