# generated using pymatgen
data_AgSnO3
_symmetry_space_group_name_H-M   'P 1'
_cell_length_a   6.60529985
_cell_length_b   6.60529985
_cell_length_c   3.28670300
_cell_angle_alpha   90.00000000
_cell_angle_beta   90.00000000
_cell_angle_gamma   110.18132218
_symmetry_Int_Tables_number   1
_chemical_formula_structural   AgSnO3
_chemical_formula_sum   'Ag2 Sn2 O6'
_cell_volume   134.59491336
_cell_formula_units_Z   2
loop_
 _symmetry_equiv_pos_site_id
 _symmetry_equiv_pos_as_xyz
  1  'x, y, z'
loop_
 _atom_site_type_symbol
 _atom_site_label
 _atom_site_symmetry_multiplicity
 _atom_site_fract_x
 _atom_site_fract_y
 _atom_site_fract_z
 _atom_site_occupancy
  Ag  Ag0  1  0.00000000  0.00000000  0.00000000  1
  Ag  Ag1  1  0.50000000  0.50000000  0.00000000  1
  Sn  Sn2  1  0.00000000  0.50000000  0.50000000  1
  Sn  Sn3  1  0.50000000  0.00000000  0.50000000  1
  O  O4  1  0.67253400  0.93254100  0.00000000  1
  O  O5  1  0.93254100  0.67253400  0.00000000  1
  O  O6  1  0.32656600  0.67343400  0.50000000  1
  O  O7  1  0.67343400  0.32656600  0.50000000  1
  O  O8  1  0.06745900  0.32746600  0.00000000  1
  O  O9  1  0.32746600  0.06745900  0.00000000  1
