# generated using pymatgen
data_Fe10OF19
_symmetry_space_group_name_H-M   'P 1'
_cell_length_a   4.96162600
_cell_length_b   5.80702033
_cell_length_c   13.30866867
_cell_angle_alpha   99.61127338
_cell_angle_beta   90.48595364
_cell_angle_gamma   90.60555658
_symmetry_Int_Tables_number   1
_chemical_formula_structural   Fe10OF19
_chemical_formula_sum   'Fe10 O1 F19'
_cell_volume   378.02888192
_cell_formula_units_Z   1
loop_
 _symmetry_equiv_pos_site_id
 _symmetry_equiv_pos_as_xyz
  1  'x, y, z'
loop_
 _atom_site_type_symbol
 _atom_site_label
 _atom_site_symmetry_multiplicity
 _atom_site_fract_x
 _atom_site_fract_y
 _atom_site_fract_z
 _atom_site_occupancy
  Fe  Fe0  1  0.51828400  0.51478000  0.00299600  1
  Fe  Fe1  1  0.49367400  0.09087600  0.39967200  1
  Fe  Fe2  1  0.50655700  0.30710000  0.20110000  1
  Fe  Fe3  1  0.50209900  0.90481300  0.59834900  1
  Fe  Fe4  1  0.50489200  0.70255900  0.80335900  1
  Fe  Fe5  1  0.00205400  0.59628800  0.40079700  1
  Fe  Fe6  1  0.00761900  0.20429700  0.80324400  1
  Fe  Fe7  1  0.98470900  0.80194500  0.18400500  1
  Fe  Fe8  1  0.99820900  0.40223900  0.59913400  1
  Fe  Fe9  1  0.98940100  0.98188100  0.00958200  1
  O  O10  1  0.78451700  0.73265500  0.05641700  1
  F  F11  1  0.79637100  0.53979000  0.25958400  1
  F  F12  1  0.80123000  0.93680300  0.85903300  1
  F  F13  1  0.79579800  0.13467700  0.65957000  1
  F  F14  1  0.79180300  0.33345400  0.46017700  1
  F  F15  1  0.70283200  0.23654700  0.05919200  1
  F  F16  1  0.70942100  0.83115000  0.45770900  1
  F  F17  1  0.70152000  0.63865000  0.65954900  1
  F  F18  1  0.70196100  0.42737700  0.85409300  1
  F  F19  1  0.70644600  0.04323300  0.26212100  1
  F  F20  1  0.29525700  0.36455600  0.34382300  1
  F  F21  1  0.29654100  0.96518500  0.74114700  1
  F  F22  1  0.29412600  0.56126700  0.14143800  1
  F  F23  1  0.29019600  0.75879100  0.93804500  1
  F  F24  1  0.29112200  0.16466700  0.54059600  1
  F  F25  1  0.21818300  0.07560200  0.14499700  1
  F  F26  1  0.20457900  0.25520000  0.94366900  1
  F  F27  1  0.21037800  0.66805800  0.54225000  1
  F  F28  1  0.19284400  0.85851500  0.33514100  1
  F  F29  1  0.20737700  0.46704700  0.73921300  1
