data_image0
_chemical_formula_structural       Rh4Sn4
_chemical_formula_sum              "Rh4 Sn4"
_cell_length_a       5.19289
_cell_length_b       5.19289
_cell_length_c       5.19289
_cell_angle_alpha    90
_cell_angle_beta     90
_cell_angle_gamma    90

_space_group_name_H-M_alt    "P 1"
_space_group_IT_number       1

loop_
  _space_group_symop_operation_xyz
  'x, y, z'

loop_
  _atom_site_type_symbol
  _atom_site_label
  _atom_site_symmetry_multiplicity
  _atom_site_fract_x
  _atom_site_fract_y
  _atom_site_fract_z
  _atom_site_occupancy
  Rh  Rh1       1.0  0.10500  0.10500  0.10500  1.0000
  Rh  Rh2       1.0  0.89500  0.60500  0.39500  1.0000
  Rh  Rh3       1.0  0.39500  0.89500  0.60500  1.0000
  Rh  Rh4       1.0  0.60500  0.39500  0.89500  1.0000
  Sn  Sn1       1.0  0.59000  0.91000  0.08990  1.0000
  Sn  Sn2       1.0  0.41000  0.41000  0.41000  1.0000
  Sn  Sn3       1.0  0.91000  0.08990  0.59000  1.0000
  Sn  Sn4       1.0  0.08990  0.59000  0.91000  1.0000
