# generated using pymatgen
data_MnFeH4NF6
_symmetry_space_group_name_H-M   'P 1'
_cell_length_a   10.81698900
_cell_length_b   7.98924400
_cell_length_c   13.09478800
_cell_angle_alpha   90.00000000
_cell_angle_beta   90.00000000
_cell_angle_gamma   90.00000000
_symmetry_Int_Tables_number   1
_chemical_formula_structural   MnFeH4NF6
_chemical_formula_sum   'Mn8 Fe8 H32 N8 F48'
_cell_volume   1131.64587574
_cell_formula_units_Z   8
loop_
 _symmetry_equiv_pos_site_id
 _symmetry_equiv_pos_as_xyz
  1  'x, y, z'
loop_
 _atom_site_type_symbol
 _atom_site_label
 _atom_site_symmetry_multiplicity
 _atom_site_fract_x
 _atom_site_fract_y
 _atom_site_fract_z
 _atom_site_occupancy
  Mn  Mn0  1  0.32183000  0.75021600  0.60317900  1
  Mn  Mn1  1  0.67817000  0.24978400  0.60317900  1
  Mn  Mn2  1  0.67817000  0.25021600  0.10317900  1
  Mn  Mn3  1  0.32183000  0.74978400  0.10317900  1
  Mn  Mn4  1  0.82102900  0.74578700  0.88710300  1
  Mn  Mn5  1  0.17897100  0.25421300  0.88710300  1
  Mn  Mn6  1  0.17897100  0.24578700  0.38710300  1
  Mn  Mn7  1  0.82102900  0.75421300  0.38710300  1
  Fe  Fe8  1  0.32445000  0.25002900  0.60420200  1
  Fe  Fe9  1  0.67555000  0.74997100  0.60420200  1
  Fe  Fe10  1  0.67555000  0.75002900  0.10420200  1
  Fe  Fe11  1  0.32445000  0.24997100  0.10420200  1
  Fe  Fe12  1  0.82244600  0.24889800  0.88575300  1
  Fe  Fe13  1  0.17755400  0.75110200  0.88575300  1
  Fe  Fe14  1  0.17755400  0.74889800  0.38575300  1
  Fe  Fe15  1  0.82244600  0.25110200  0.38575300  1
  H  H16  1  0.55872800  0.42885900  0.88671000  1
  H  H17  1  0.44127100  0.57114100  0.88671000  1
  H  H18  1  0.44127100  0.92885900  0.38671000  1
  H  H19  1  0.55872800  0.07114100  0.38671000  1
  H  H20  1  0.55022300  0.57824700  0.79514300  1
  H  H21  1  0.44977700  0.42175300  0.79514300  1
  H  H22  1  0.44977700  0.07824700  0.29514300  1
  H  H23  1  0.55022300  0.92175300  0.29514300  1
  H  H24  1  0.54257400  0.41083900  0.37601700  1
  H  H25  1  0.45742600  0.58916100  0.37601700  1
  H  H26  1  0.45742600  0.91083900  0.87601700  1
  H  H27  1  0.54257400  0.08916100  0.87601700  1
  H  H28  1  0.43400400  0.44405800  0.28482000  1
  H  H29  1  0.56599600  0.55594200  0.28482000  1
  H  H30  1  0.56599600  0.94405800  0.78482000  1
  H  H31  1  0.43400400  0.05594200  0.78482000  1
  H  H32  1  0.05845800  0.42818700  0.58571600  1
  H  H33  1  0.94154200  0.57181300  0.58571600  1
  H  H34  1  0.94154200  0.92818700  0.08571600  1
  H  H35  1  0.05845800  0.07181300  0.08571600  1
  H  H36  1  0.94816900  0.42224400  0.67591100  1
  H  H37  1  0.05183100  0.57775600  0.67591100  1
  H  H38  1  0.05183100  0.92224400  0.17591100  1
  H  H39  1  0.94816900  0.07775600  0.17591100  1
  H  H40  1  0.05382000  0.42263200  0.12200400  1
  H  H41  1  0.94618000  0.57736800  0.12200400  1
  H  H42  1  0.94618000  0.92263200  0.62200400  1
  H  H43  1  0.05382000  0.07736800  0.62200400  1
  H  H44  1  0.94297400  0.42877800  0.21348900  1
  H  H45  1  0.05702600  0.57122200  0.21348900  1
  H  H46  1  0.05702600  0.92877800  0.71348900  1
  H  H47  1  0.94297400  0.07122200  0.71348900  1
  N  N48  1  0.50000000  0.50000000  0.84170100  1
  N  N49  1  0.50000000  0.00000000  0.34170100  1
  N  N50  1  0.50000000  0.50000000  0.33017400  1
  N  N51  1  0.50000000  0.00000000  0.83017400  1
  N  N52  1  0.00000000  0.50000000  0.63014800  1
  N  N53  1  0.00000000  0.00000000  0.13014800  1
  N  N54  1  0.00000000  0.50000000  0.16791300  1
  N  N55  1  0.00000000  0.00000000  0.66791300  1
  F  F56  1  0.49325000  0.28349600  0.65564800  1
  F  F57  1  0.50675000  0.71650400  0.65564800  1
  F  F58  1  0.50675000  0.78349600  0.15564800  1
  F  F59  1  0.49325000  0.21650400  0.15564800  1
  F  F60  1  0.36052300  0.22772000  0.95915700  1
  F  F61  1  0.63947700  0.77228000  0.95915700  1
  F  F62  1  0.63947700  0.72772000  0.45915700  1
  F  F63  1  0.36052300  0.27228000  0.45915700  1
  F  F64  1  0.85876900  0.27259600  0.03077300  1
  F  F65  1  0.14123100  0.72740400  0.03077300  1
  F  F66  1  0.14123100  0.77259600  0.53077300  1
  F  F67  1  0.85876900  0.22740400  0.53077300  1
  F  F68  1  0.77102400  0.21030000  0.74444600  1
  F  F69  1  0.22897600  0.78970000  0.74444600  1
  F  F70  1  0.22897600  0.71030000  0.24444600  1
  F  F71  1  0.77102400  0.28970000  0.24444600  1
  F  F72  1  0.29094500  0.48844300  0.61799600  1
  F  F73  1  0.70905500  0.51155700  0.61799600  1
  F  F74  1  0.70905500  0.98844300  0.11799600  1
  F  F75  1  0.29094500  0.01155700  0.11799600  1
  F  F76  1  0.79255800  0.48638000  0.86756500  1
  F  F77  1  0.20744200  0.51362000  0.86756500  1
  F  F78  1  0.20744200  0.98638000  0.36756500  1
  F  F79  1  0.79255800  0.01362000  0.36756500  1
  F  F80  1  0.99251800  0.27886000  0.83795600  1
  F  F81  1  0.00748200  0.72114000  0.83795600  1
  F  F82  1  0.00748200  0.77886000  0.33795600  1
  F  F83  1  0.99251800  0.22114000  0.33795600  1
  F  F84  1  0.35483800  0.76710800  0.93563800  1
  F  F85  1  0.64516200  0.23289200  0.93563800  1
  F  F86  1  0.64516200  0.26710800  0.43563800  1
  F  F87  1  0.35483800  0.73289200  0.43563800  1
  F  F88  1  0.85166200  0.72158300  0.05415900  1
  F  F89  1  0.14833800  0.27841700  0.05415900  1
  F  F90  1  0.14833800  0.22158300  0.55415900  1
  F  F91  1  0.85166200  0.77841700  0.55415900  1
  F  F92  1  0.72972400  0.78364200  0.74515600  1
  F  F93  1  0.27027600  0.21635800  0.74515600  1
  F  F94  1  0.27027600  0.28364200  0.24515600  1
  F  F95  1  0.72972400  0.71635800  0.24515600  1
  F  F96  1  0.35421600  0.01096500  0.59638900  1
  F  F97  1  0.64578400  0.98903500  0.59638900  1
  F  F98  1  0.64578400  0.51096500  0.09638900  1
  F  F99  1  0.35421600  0.48903500  0.09638900  1
  F  F100  1  0.84955600  0.00874900  0.89560100  1
  F  F101  1  0.15044400  0.99125100  0.89560100  1
  F  F102  1  0.15044400  0.50874900  0.39560100  1
  F  F103  1  0.84955600  0.49125100  0.39560100  1
