# generated using pymatgen
data_V4CrCoO12
_symmetry_space_group_name_H-M   'P 1'
_cell_length_a   6.75527080
_cell_length_b   6.75527080
_cell_length_c   5.81198409
_cell_angle_alpha   75.27768360
_cell_angle_beta   75.27768360
_cell_angle_gamma   84.48882039
_symmetry_Int_Tables_number   1
_chemical_formula_structural   V4CrCoO12
_chemical_formula_sum   'V4 Cr1 Co1 O12'
_cell_volume   247.95270395
_cell_formula_units_Z   1
loop_
 _symmetry_equiv_pos_site_id
 _symmetry_equiv_pos_as_xyz
  1  'x, y, z'
loop_
 _atom_site_type_symbol
 _atom_site_label
 _atom_site_symmetry_multiplicity
 _atom_site_fract_x
 _atom_site_fract_y
 _atom_site_fract_z
 _atom_site_occupancy
  V  V0  1  0.79330600  0.60764900  0.01570700  1
  V  V1  1  0.61036600  0.79991100  0.50686400  1
  V  V2  1  0.39235100  0.20669400  0.98429300  1
  V  V3  1  0.20008900  0.38963400  0.49313600  1
  Cr  Cr4  1  0.91654400  0.08345600  0.00000000  1
  Co  Co5  1  0.08482100  0.91517900  0.50000000  1
  O  O6  1  0.96388700  0.80701400  0.90416600  1
  O  O7  1  0.91049300  0.36952900  0.03701500  1
  O  O8  1  0.81234000  0.97151900  0.36991700  1
  O  O9  1  0.63551100  0.64673800  0.80698400  1
  O  O10  1  0.63047100  0.08950700  0.96298500  1
  O  O11  1  0.63860600  0.62715900  0.30531100  1
  O  O12  1  0.35326200  0.36448900  0.19301600  1
  O  O13  1  0.37363300  0.90998600  0.53285600  1
  O  O14  1  0.37284100  0.36139400  0.69468900  1
  O  O15  1  0.19298600  0.03611300  0.09583400  1
  O  O16  1  0.09001400  0.62636700  0.46714400  1
  O  O17  1  0.02848100  0.18766000  0.63008300  1
