# generated using pymatgen
data_BaMo3O10
_symmetry_space_group_name_H-M   'P 1'
_cell_length_a   15.05268923
_cell_length_b   7.70257500
_cell_length_c   7.22572377
_cell_angle_alpha   90.00000000
_cell_angle_beta   101.03695945
_cell_angle_gamma   90.00000000
_symmetry_Int_Tables_number   1
_chemical_formula_structural   BaMo3O10
_chemical_formula_sum   'Ba4 Mo12 O40'
_cell_volume   822.28698001
_cell_formula_units_Z   4
loop_
 _symmetry_equiv_pos_site_id
 _symmetry_equiv_pos_as_xyz
  1  'x, y, z'
loop_
 _atom_site_type_symbol
 _atom_site_label
 _atom_site_symmetry_multiplicity
 _atom_site_fract_x
 _atom_site_fract_y
 _atom_site_fract_z
 _atom_site_occupancy
  Ba  Ba0  1  0.93372000  0.24892500  0.11596100  1
  Ba  Ba1  1  0.06628000  0.74892500  0.88403900  1
  Ba  Ba2  1  0.43141400  0.00464200  0.60485800  1
  Ba  Ba3  1  0.56858500  0.50464200  0.39514200  1
  Mo  Mo4  1  0.34924700  0.74788700  0.06311500  1
  Mo  Mo5  1  0.65075300  0.24788700  0.93688500  1
  Mo  Mo6  1  0.61701000  0.73689100  0.94093700  1
  Mo  Mo7  1  0.38299000  0.23689100  0.05906300  1
  Mo  Mo8  1  0.14728500  0.00917300  0.43465000  1
  Mo  Mo9  1  0.85271500  0.50917300  0.56535000  1
  Mo  Mo10  1  0.88379300  0.02082900  0.55483100  1
  Mo  Mo11  1  0.11620700  0.52082900  0.44516900  1
  Mo  Mo12  1  0.83474300  0.74824200  0.18433000  1
  Mo  Mo13  1  0.16525700  0.24824200  0.81567000  1
  Mo  Mo14  1  0.33358800  0.50449300  0.68769700  1
  Mo  Mo15  1  0.66641200  0.00449300  0.31230300  1
  O  O16  1  0.63075000  0.49449600  0.97446500  1
  O  O17  1  0.36925000  0.99449600  0.02553500  1
  O  O18  1  0.36203000  0.49952000  0.99645200  1
  O  O19  1  0.63797000  0.99952000  0.00354800  1
  O  O20  1  0.50824200  0.74902600  0.00130800  1
  O  O21  1  0.49175800  0.24902600  0.99869200  1
  O  O22  1  0.58849200  0.23143000  0.70355200  1
  O  O23  1  0.41150800  0.73143000  0.29644800  1
  O  O24  1  0.76308400  0.25316800  0.91292500  1
  O  O25  1  0.23691600  0.75316800  0.08707500  1
  O  O26  1  0.66664000  0.24050500  0.23164600  1
  O  O27  1  0.33336000  0.74050500  0.76835400  1
  O  O28  1  0.59183600  0.76391800  0.69472800  1
  O  O29  1  0.40816400  0.26391800  0.30527200  1
  O  O30  1  0.67949000  0.76308600  0.24643900  1
  O  O31  1  0.32051000  0.26308600  0.75356100  1
  O  O32  1  0.75927600  0.74147800  0.95593800  1
  O  O33  1  0.24072400  0.24147800  0.04406200  1
  O  O34  1  0.87015000  0.26164300  0.51845300  1
  O  O35  1  0.12985000  0.76164300  0.48154700  1
  O  O36  1  0.86611100  0.75477100  0.49901100  1
  O  O37  1  0.13388900  0.25477100  0.50098900  1
  O  O38  1  0.99193300  0.00929600  0.48916100  1
  O  O39  1  0.00806700  0.50929600  0.51083900  1
  O  O40  1  0.91303900  0.51411600  0.80049500  1
  O  O41  1  0.08696100  0.01411600  0.19950500  1
  O  O42  1  0.74003400  0.50534200  0.58714000  1
  O  O43  1  0.25996600  0.00534200  0.41286000  1
  O  O44  1  0.83590400  0.51447600  0.26720300  1
  O  O45  1  0.16409700  0.01447600  0.73279700  1
  O  O46  1  0.08848200  0.49440900  0.19944700  1
  O  O47  1  0.91151800  0.99440900  0.80055300  1
  O  O48  1  0.17880700  0.48913600  0.74745200  1
  O  O49  1  0.82119300  0.98913600  0.25254800  1
  O  O50  1  0.25789600  0.51375000  0.45869900  1
  O  O51  1  0.74210400  0.01375000  0.54130100  1
  O  O52  1  0.94043700  0.75928300  0.12267300  1
  O  O53  1  0.05956300  0.25928300  0.87732700  1
  O  O54  1  0.55913100  0.99507000  0.36718900  1
  O  O55  1  0.44086900  0.49507100  0.63281100  1
