# generated using pymatgen
data_MnCrO4
_symmetry_space_group_name_H-M   'P 1'
_cell_length_a   5.10768800
_cell_length_b   6.35603900
_cell_length_c   10.70406800
_cell_angle_alpha   90.00000000
_cell_angle_beta   90.00000000
_cell_angle_gamma   90.00000000
_symmetry_Int_Tables_number   1
_chemical_formula_structural   MnCrO4
_chemical_formula_sum   'Mn4 Cr4 O16'
_cell_volume   347.50397242
_cell_formula_units_Z   4
loop_
 _symmetry_equiv_pos_site_id
 _symmetry_equiv_pos_as_xyz
  1  'x, y, z'
loop_
 _atom_site_type_symbol
 _atom_site_label
 _atom_site_symmetry_multiplicity
 _atom_site_fract_x
 _atom_site_fract_y
 _atom_site_fract_z
 _atom_site_occupancy
  Mn  Mn0  1  0.96438100  0.25000000  0.72581100  1
  Mn  Mn1  1  0.53561900  0.25000000  0.22581100  1
  Mn  Mn2  1  0.46438100  0.75000000  0.77418900  1
  Mn  Mn3  1  0.03561900  0.75000000  0.27418900  1
  Cr  Cr4  1  0.41053200  0.25000000  0.90449200  1
  Cr  Cr5  1  0.08946800  0.25000000  0.40449200  1
  Cr  Cr6  1  0.91053200  0.75000000  0.59550800  1
  Cr  Cr7  1  0.58946800  0.75000000  0.09550800  1
  O  O8  1  0.27738900  0.04117200  0.82963900  1
  O  O9  1  0.22261100  0.04117200  0.32963900  1
  O  O10  1  0.16388200  0.25000000  0.55493300  1
  O  O11  1  0.73267700  0.25000000  0.88810200  1
  O  O12  1  0.76732300  0.25000000  0.38810200  1
  O  O13  1  0.33611800  0.25000000  0.05493300  1
  O  O14  1  0.27738900  0.45882800  0.82963900  1
  O  O15  1  0.22261100  0.45882800  0.32963900  1
  O  O16  1  0.72261100  0.54117200  0.17036100  1
  O  O17  1  0.77738900  0.54117200  0.67036100  1
  O  O18  1  0.83611800  0.75000000  0.44506700  1
  O  O19  1  0.66388200  0.75000000  0.94506700  1
  O  O20  1  0.23267700  0.75000000  0.61189800  1
  O  O21  1  0.26732300  0.75000000  0.11189800  1
  O  O22  1  0.77738900  0.95882800  0.67036100  1
  O  O23  1  0.72261100  0.95882800  0.17036100  1
