# generated using pymatgen
data_CrH20N2O6F5
_symmetry_space_group_name_H-M   'P 1'
_cell_length_a   9.17547091
_cell_length_b   9.17547091
_cell_length_c   12.12360973
_cell_angle_alpha   91.01347935
_cell_angle_beta   88.98652065
_cell_angle_gamma   137.36249299
_symmetry_Int_Tables_number   1
_chemical_formula_structural   CrH20N2O6F5
_chemical_formula_sum   'Cr2 H40 N4 O12 F10'
_cell_volume   691.23933256
_cell_formula_units_Z   2
loop_
 _symmetry_equiv_pos_site_id
 _symmetry_equiv_pos_as_xyz
  1  'x, y, z'
loop_
 _atom_site_type_symbol
 _atom_site_label
 _atom_site_symmetry_multiplicity
 _atom_site_fract_x
 _atom_site_fract_y
 _atom_site_fract_z
 _atom_site_occupancy
  Cr  Cr0  1  0.00000000  0.00000000  0.50000000  1
  Cr  Cr1  1  0.00000000  0.00000000  0.00000000  1
  H  H2  1  0.66639300  0.39582700  0.90819600  1
  H  H3  1  0.39582700  0.66639300  0.59180400  1
  H  H4  1  0.33360700  0.60417300  0.09180400  1
  H  H5  1  0.60417300  0.33360700  0.40819600  1
  H  H6  1  0.53401200  0.39607200  0.80285300  1
  H  H7  1  0.39607200  0.53401200  0.69714700  1
  H  H8  1  0.46598800  0.60392800  0.19714700  1
  H  H9  1  0.60392800  0.46598800  0.30285300  1
  H  H10  1  0.91185700  0.12518000  0.83331100  1
  H  H11  1  0.12518000  0.91185700  0.66668900  1
  H  H12  1  0.08814300  0.87482000  0.16668900  1
  H  H13  1  0.87482000  0.08814300  0.33331100  1
  H  H14  1  0.81952600  0.56754800  0.78987000  1
  H  H15  1  0.56754800  0.81952600  0.71013000  1
  H  H16  1  0.18047400  0.43245200  0.21013000  1
  H  H17  1  0.43245200  0.18047400  0.28987000  1
  H  H18  1  0.76991000  0.22380400  0.44229400  1
  H  H19  1  0.22380400  0.76991000  0.05770600  1
  H  H20  1  0.23009000  0.77619600  0.55770600  1
  H  H21  1  0.77619600  0.23009000  0.94229400  1
  H  H22  1  0.74460300  0.64977700  0.58935600  1
  H  H23  1  0.64977700  0.74460300  0.91064400  1
  H  H24  1  0.25539700  0.35022300  0.41064400  1
  H  H25  1  0.35022300  0.25539700  0.08935600  1
  H  H26  1  0.42498300  0.20609400  0.57972100  1
  H  H27  1  0.20609400  0.42498300  0.92027900  1
  H  H28  1  0.57501700  0.79390600  0.42027900  1
  H  H29  1  0.79390600  0.57501700  0.07972100  1
  H  H30  1  0.91336200  0.12497900  0.64081500  1
  H  H31  1  0.12497900  0.91336200  0.85918500  1
  H  H32  1  0.08663800  0.87502100  0.35918500  1
  H  H33  1  0.87502100  0.08663800  0.14081500  1
  H  H34  1  0.23681600  0.16132200  0.66770700  1
  H  H35  1  0.16132200  0.23681600  0.83229300  1
  H  H36  1  0.76318400  0.83867800  0.33229300  1
  H  H37  1  0.83867800  0.76318400  0.16770700  1
  H  H38  1  0.75243000  0.25473700  0.49446100  1
  H  H39  1  0.25473700  0.75243000  0.00553900  1
  H  H40  1  0.24757000  0.74526300  0.50553900  1
  H  H41  1  0.74526300  0.24757000  0.99446100  1
  N  N42  1  0.67407900  0.45232700  0.83347500  1
  N  N43  1  0.45232700  0.67407900  0.66652500  1
  N  N44  1  0.32592100  0.54767300  0.16652500  1
  N  N45  1  0.54767300  0.32592100  0.33347500  1
  O  O46  1  0.01268100  0.18280000  0.57598200  1
  O  O47  1  0.18280000  0.01268100  0.92401800  1
  O  O48  1  0.98731900  0.81720000  0.42401800  1
  O  O49  1  0.81720000  0.98731900  0.07598200  1
  O  O50  1  0.19984300  0.05379400  0.61152400  1
  O  O51  1  0.05379400  0.19984300  0.88847600  1
  O  O52  1  0.80015700  0.94620600  0.38847600  1
  O  O53  1  0.94620600  0.80015700  0.11152400  1
  O  O54  1  0.76467400  0.77056500  0.58420900  1
  O  O55  1  0.77056500  0.76467400  0.91579100  1
  O  O56  1  0.23532600  0.22943500  0.41579100  1
  O  O57  1  0.22943500  0.23532600  0.08420900  1
  F  F58  1  0.58569700  0.33331300  0.56722700  1
  F  F59  1  0.33331300  0.58569700  0.93277300  1
  F  F60  1  0.41430300  0.66668700  0.43277300  1
  F  F61  1  0.66668700  0.41430300  0.06722700  1
  F  F62  1  0.05348600  0.77852500  0.73847700  1
  F  F63  1  0.77852500  0.05348600  0.76152300  1
  F  F64  1  0.94651400  0.22147500  0.26152300  1
  F  F65  1  0.22147500  0.94651400  0.23847700  1
  F  F66  1  0.32925400  0.32925400  0.75000000  1
  F  F67  1  0.67074600  0.67074600  0.25000000  1
