# generated using pymatgen
data_V4CoNiO12
_symmetry_space_group_name_H-M   'P 1'
_cell_length_a   5.87399329
_cell_length_b   6.79818103
_cell_length_c   6.79765891
_cell_angle_alpha   95.84310929
_cell_angle_beta   74.68344176
_cell_angle_gamma   105.31524433
_symmetry_Int_Tables_number   1
_chemical_formula_structural   V4CoNiO12
_chemical_formula_sum   'V4 Co1 Ni1 O12'
_cell_volume   252.35856964
_cell_formula_units_Z   1
loop_
 _symmetry_equiv_pos_site_id
 _symmetry_equiv_pos_as_xyz
  1  'x, y, z'
loop_
 _atom_site_type_symbol
 _atom_site_label
 _atom_site_symmetry_multiplicity
 _atom_site_fract_x
 _atom_site_fract_y
 _atom_site_fract_z
 _atom_site_occupancy
  V  V0  1  0.75443600  0.20626300  0.61258400  1
  V  V1  1  0.74555100  0.61256500  0.20623100  1
  V  V2  1  0.25564400  0.38785300  0.79417200  1
  V  V3  1  0.24435400  0.79416300  0.38784900  1
  Co  Co4  1  0.75011200  0.08328300  0.08320700  1
  Ni  Ni5  1  0.24998100  0.91447600  0.91451300  1
  O  O6  1  0.63498300  0.03646700  0.80783500  1
  O  O7  1  0.86499300  0.80780900  0.03644400  1
  O  O8  1  0.77057600  0.08986500  0.38130500  1
  O  O9  1  0.72942500  0.38129600  0.08985200  1
  O  O10  1  0.14010000  0.19262700  0.96276800  1
  O  O11  1  0.35985500  0.96272000  0.19260600  1
  O  O12  1  0.55425800  0.37280900  0.64882600  1
  O  O13  1  0.94574600  0.64882200  0.37279600  1
  O  O14  1  0.05317300  0.35005600  0.62877500  1
  O  O15  1  0.44680700  0.62875400  0.35007700  1
  O  O16  1  0.27398300  0.61911500  0.91103800  1
  O  O17  1  0.22602300  0.91105700  0.61912300  1
