# generated using pymatgen
data_Rb3FeO3
_symmetry_space_group_name_H-M   'P 1'
_cell_length_a   7.01629300
_cell_length_b   7.71717100
_cell_length_c   11.17876446
_cell_angle_alpha   84.43949525
_cell_angle_beta   90.00000000
_cell_angle_gamma   90.00000000
_symmetry_Int_Tables_number   1
_chemical_formula_structural   Rb3FeO3
_chemical_formula_sum   'Rb12 Fe4 O12'
_cell_volume   602.43642072
_cell_formula_units_Z   4
loop_
 _symmetry_equiv_pos_site_id
 _symmetry_equiv_pos_as_xyz
  1  'x, y, z'
loop_
 _atom_site_type_symbol
 _atom_site_label
 _atom_site_symmetry_multiplicity
 _atom_site_fract_x
 _atom_site_fract_y
 _atom_site_fract_z
 _atom_site_occupancy
  Rb  Rb0  1  0.31853000  0.35672500  0.07362100  1
  Rb  Rb1  1  0.62830600  0.94863200  0.15258700  1
  Rb  Rb2  1  0.80910600  0.36416200  0.19465200  1
  Rb  Rb3  1  0.30910600  0.63583800  0.30534800  1
  Rb  Rb4  1  0.12830600  0.05136800  0.34741300  1
  Rb  Rb5  1  0.81853000  0.64327500  0.42637900  1
  Rb  Rb6  1  0.18147000  0.35672500  0.57362100  1
  Rb  Rb7  1  0.87169400  0.94863200  0.65258700  1
  Rb  Rb8  1  0.69089400  0.36416200  0.69465200  1
  Rb  Rb9  1  0.19089400  0.63583800  0.80534800  1
  Rb  Rb10  1  0.37169400  0.05136800  0.84741300  1
  Rb  Rb11  1  0.68147000  0.64327500  0.92637900  1
  Fe  Fe12  1  0.08147000  0.84613300  0.06366400  1
  Fe  Fe13  1  0.58147000  0.15386700  0.43633600  1
  Fe  Fe14  1  0.41853000  0.84613300  0.56366400  1
  Fe  Fe15  1  0.91853000  0.15386700  0.93633600  1
  O  O16  1  0.32877900  0.75855100  0.04016700  1
  O  O17  1  0.04889300  0.09659700  0.09324700  1
  O  O18  1  0.94435700  0.70368600  0.17862400  1
  O  O19  1  0.44435700  0.29631400  0.32137600  1
  O  O20  1  0.54889300  0.90340300  0.40675300  1
  O  O21  1  0.82877900  0.24144900  0.45983300  1
  O  O22  1  0.17122100  0.75855100  0.54016700  1
  O  O23  1  0.45110700  0.09659700  0.59324700  1
  O  O24  1  0.55564300  0.70368600  0.67862400  1
  O  O25  1  0.05564300  0.29631400  0.82137600  1
  O  O26  1  0.95110700  0.90340300  0.90675300  1
  O  O27  1  0.67122100  0.24144900  0.95983300  1
