# generated using pymatgen
data_Fe3P2H6O11
_symmetry_space_group_name_H-M   'P 1'
_cell_length_a   8.73408100
_cell_length_b   9.52546000
_cell_length_c   10.19749100
_cell_angle_alpha   90.00000000
_cell_angle_beta   90.00000000
_cell_angle_gamma   90.00000000
_symmetry_Int_Tables_number   1
_chemical_formula_structural   Fe3P2H6O11
_chemical_formula_sum   'Fe12 P8 H24 O44'
_cell_volume   848.39188075
_cell_formula_units_Z   4
loop_
 _symmetry_equiv_pos_site_id
 _symmetry_equiv_pos_as_xyz
  1  'x, y, z'
loop_
 _atom_site_type_symbol
 _atom_site_label
 _atom_site_symmetry_multiplicity
 _atom_site_fract_x
 _atom_site_fract_y
 _atom_site_fract_z
 _atom_site_occupancy
  Fe  Fe0  1  0.00000000  0.00000000  0.50000000  1
  Fe  Fe1  1  0.50000000  0.50000000  0.00000000  1
  Fe  Fe2  1  0.50000000  0.50000000  0.50000000  1
  Fe  Fe3  1  0.00000000  0.00000000  0.00000000  1
  Fe  Fe4  1  0.63549700  0.93255800  0.59523300  1
  Fe  Fe5  1  0.86450300  0.56744200  0.09523300  1
  Fe  Fe6  1  0.13549700  0.56744200  0.40476700  1
  Fe  Fe7  1  0.36450300  0.93255800  0.90476700  1
  Fe  Fe8  1  0.36450300  0.06744200  0.40476700  1
  Fe  Fe9  1  0.13549700  0.43255800  0.90476700  1
  Fe  Fe10  1  0.86450300  0.43255800  0.59523300  1
  Fe  Fe11  1  0.63549700  0.06744200  0.09523300  1
  P  P12  1  0.29160100  0.79544600  0.60990500  1
  P  P13  1  0.20839900  0.70455400  0.10990500  1
  P  P14  1  0.79160100  0.70455400  0.39009500  1
  P  P15  1  0.70839900  0.79544600  0.89009500  1
  P  P16  1  0.70839900  0.20455400  0.39009500  1
  P  P17  1  0.79160100  0.29544600  0.89009500  1
  P  P18  1  0.20839900  0.29544600  0.60990500  1
  P  P19  1  0.29160100  0.20455400  0.10990500  1
  H  H20  1  0.44139900  0.14142200  0.69353200  1
  H  H21  1  0.05860100  0.35857800  0.19353200  1
  H  H22  1  0.94139900  0.35857800  0.30646800  1
  H  H23  1  0.55860100  0.14142200  0.80646800  1
  H  H24  1  0.55860100  0.85857800  0.30646800  1
  H  H25  1  0.94139900  0.64142200  0.80646800  1
  H  H26  1  0.05860100  0.64142200  0.69353200  1
  H  H27  1  0.44139900  0.85857800  0.19353200  1
  H  H28  1  0.15688800  0.12916800  0.79782500  1
  H  H29  1  0.34311200  0.37083200  0.29782500  1
  H  H30  1  0.65688800  0.37083200  0.20217500  1
  H  H31  1  0.84311200  0.12916800  0.70217500  1
  H  H32  1  0.84311200  0.87083200  0.20217500  1
  H  H33  1  0.65688800  0.62916800  0.70217500  1
  H  H34  1  0.34311200  0.62916800  0.79782500  1
  H  H35  1  0.15688800  0.87083200  0.29782500  1
  H  H36  1  0.12955500  0.96563700  0.75202300  1
  H  H37  1  0.37044500  0.53436300  0.25202300  1
  H  H38  1  0.62955500  0.53436300  0.24797700  1
  H  H39  1  0.87044500  0.96563700  0.74797700  1
  H  H40  1  0.87044500  0.03436300  0.24797700  1
  H  H41  1  0.62955500  0.46563700  0.74797700  1
  H  H42  1  0.37044500  0.46563700  0.75202300  1
  H  H43  1  0.12955500  0.03436300  0.25202300  1
  O  O44  1  0.33393200  0.77594600  0.75693000  1
  O  O45  1  0.16606800  0.72405400  0.25693000  1
  O  O46  1  0.83393200  0.72405400  0.24307000  1
  O  O47  1  0.66606800  0.77594600  0.74307000  1
  O  O48  1  0.66606800  0.22405400  0.24307000  1
  O  O49  1  0.83393200  0.27594600  0.74307000  1
  O  O50  1  0.16606800  0.27594600  0.75693000  1
  O  O51  1  0.33393200  0.22405400  0.25693000  1
  O  O52  1  0.40862300  0.89537600  0.54290500  1
  O  O53  1  0.09137700  0.60462400  0.04290500  1
  O  O54  1  0.90862300  0.60462400  0.45709500  1
  O  O55  1  0.59137700  0.89537600  0.95709500  1
  O  O56  1  0.59137700  0.10462400  0.45709500  1
  O  O57  1  0.90862300  0.39537600  0.95709500  1
  O  O58  1  0.09137700  0.39537600  0.54290500  1
  O  O59  1  0.40862300  0.10462400  0.04290500  1
  O  O60  1  0.29385400  0.64946400  0.54147200  1
  O  O61  1  0.20614600  0.85053600  0.04147200  1
  O  O62  1  0.79385400  0.85053600  0.45852800  1
  O  O63  1  0.70614600  0.64946400  0.95852800  1
  O  O64  1  0.70614600  0.35053600  0.45852800  1
  O  O65  1  0.79385400  0.14946400  0.95852800  1
  O  O66  1  0.20614600  0.14946400  0.54147200  1
  O  O67  1  0.29385400  0.35053600  0.04147200  1
  O  O68  1  0.12705900  0.85715700  0.60465400  1
  O  O69  1  0.37294100  0.64284300  0.10465400  1
  O  O70  1  0.62705900  0.64284300  0.39534600  1
  O  O71  1  0.87294100  0.85715700  0.89534600  1
  O  O72  1  0.87294100  0.14284300  0.39534600  1
  O  O73  1  0.62705900  0.35715700  0.89534600  1
  O  O74  1  0.37294100  0.35715700  0.60465400  1
  O  O75  1  0.12705900  0.14284300  0.10465400  1
  O  O76  1  0.50000000  0.07725900  0.75000000  1
  O  O77  1  0.00000000  0.42274100  0.25000000  1
  O  O78  1  0.50000000  0.92274100  0.25000000  1
  O  O79  1  0.00000000  0.57725900  0.75000000  1
  O  O80  1  0.15223000  0.02496000  0.83010800  1
  O  O81  1  0.34777000  0.47504000  0.33010800  1
  O  O82  1  0.65223000  0.47504000  0.16989200  1
  O  O83  1  0.84777000  0.02496000  0.66989200  1
  O  O84  1  0.84777000  0.97504000  0.16989200  1
  O  O85  1  0.65223000  0.52496000  0.66989200  1
  O  O86  1  0.34777000  0.52496000  0.83010800  1
  O  O87  1  0.15223000  0.97504000  0.33010800  1
