# generated using pymatgen
data_Ba2SnO16
_symmetry_space_group_name_H-M   'P 1'
_cell_length_a   6.84436000
_cell_length_b   7.84015368
_cell_length_c   8.22532883
_cell_angle_alpha   112.54498882
_cell_angle_beta   111.14498328
_cell_angle_gamma   96.72160790
_symmetry_Int_Tables_number   1
_chemical_formula_structural   Ba2SnO16
_chemical_formula_sum   'Ba2 Sn1 O16'
_cell_volume   363.11122875
_cell_formula_units_Z   1
loop_
 _symmetry_equiv_pos_site_id
 _symmetry_equiv_pos_as_xyz
  1  'x, y, z'
loop_
 _atom_site_type_symbol
 _atom_site_label
 _atom_site_symmetry_multiplicity
 _atom_site_fract_x
 _atom_site_fract_y
 _atom_site_fract_z
 _atom_site_occupancy
  Ba  Ba0  1  0.63089800  0.03698100  0.30404800  1
  Ba  Ba1  1  0.36910200  0.96301900  0.69595200  1
  Sn  Sn2  1  0.00000000  0.00000000  0.00000000  1
  O  O3  1  0.79911300  0.89613300  0.67702300  1
  O  O4  1  0.20088700  0.10386700  0.32297700  1
  O  O5  1  0.12853000  0.28382700  0.84417600  1
  O  O6  1  0.87147000  0.71617300  0.15582400  1
  O  O7  1  0.27124500  0.98385200  0.98710400  1
  O  O8  1  0.72875500  0.01614800  0.01289600  1
  O  O9  1  0.64832700  0.23356400  0.68418100  1
  O  O10  1  0.35167300  0.76643600  0.31581900  1
  O  O11  1  0.73785700  0.43277200  0.56452300  1
  O  O12  1  0.26214300  0.56722800  0.43547700  1
  O  O13  1  0.89466200  0.87451300  0.55831600  1
  O  O14  1  0.10533800  0.12548700  0.44168400  1
  O  O15  1  0.32589000  0.58326100  0.30461200  1
  O  O16  1  0.67411000  0.41673900  0.69538800  1
  O  O17  1  0.17909400  0.45328600  0.87395400  1
  O  O18  1  0.82090600  0.54671400  0.12604600  1
