# generated using pymatgen
data_MnV5O12
_symmetry_space_group_name_H-M   'P 1'
_cell_length_a   6.89428838
_cell_length_b   6.89428838
_cell_length_c   5.88416772
_cell_angle_alpha   74.92028004
_cell_angle_beta   74.92028004
_cell_angle_gamma   84.38895151
_symmetry_Int_Tables_number   1
_chemical_formula_structural   MnV5O12
_chemical_formula_sum   'Mn1 V5 O12'
_cell_volume   260.61562675
_cell_formula_units_Z   1
loop_
 _symmetry_equiv_pos_site_id
 _symmetry_equiv_pos_as_xyz
  1  'x, y, z'
loop_
 _atom_site_type_symbol
 _atom_site_label
 _atom_site_symmetry_multiplicity
 _atom_site_fract_x
 _atom_site_fract_y
 _atom_site_fract_z
 _atom_site_occupancy
  Mn  Mn0  1  0.08813000  0.91187000  0.00000000  1
  V  V1  1  0.91431300  0.08568700  0.50000000  1
  V  V2  1  0.79115200  0.60959100  0.51798000  1
  V  V3  1  0.61187400  0.79329700  0.01163400  1
  V  V4  1  0.39040900  0.20884800  0.48202000  1
  V  V5  1  0.20670300  0.38812600  0.98836600  1
  O  O6  1  0.96105300  0.80231800  0.40365500  1
  O  O7  1  0.90177800  0.37813300  0.53650800  1
  O  O8  1  0.80668000  0.96002900  0.87990500  1
  O  O9  1  0.63787900  0.64901500  0.30415900  1
  O  O10  1  0.62186700  0.09822200  0.46349200  1
  O  O11  1  0.63819400  0.63192100  0.80941000  1
  O  O12  1  0.35098500  0.36212100  0.69584100  1
  O  O13  1  0.38607300  0.91282100  0.03713400  1
  O  O14  1  0.36807900  0.36180600  0.19059000  1
  O  O15  1  0.19768200  0.03894700  0.59634500  1
  O  O16  1  0.08717900  0.61392700  0.96286600  1
  O  O17  1  0.03997100  0.19332000  0.12009500  1
