# generated using pymatgen
data_V4CuNiO12
_symmetry_space_group_name_H-M   'P 1'
_cell_length_a   6.65601421
_cell_length_b   11.90002463
_cell_length_c   6.65587490
_cell_angle_alpha   104.04581451
_cell_angle_beta   95.97057450
_cell_angle_gamma   75.96166518
_symmetry_Int_Tables_number   1
_chemical_formula_structural   V4CuNiO12
_chemical_formula_sum   'V8 Cu2 Ni2 O24'
_cell_volume   495.58247576
_cell_formula_units_Z   2
loop_
 _symmetry_equiv_pos_site_id
 _symmetry_equiv_pos_as_xyz
  1  'x, y, z'
loop_
 _atom_site_type_symbol
 _atom_site_label
 _atom_site_symmetry_multiplicity
 _atom_site_fract_x
 _atom_site_fract_y
 _atom_site_fract_z
 _atom_site_occupancy
  V  V0  1  0.61272000  0.37919200  0.20359500  1
  V  V1  1  0.61262800  0.87927500  0.20349200  1
  V  V2  1  0.20352100  0.37068400  0.61266200  1
  V  V3  1  0.20357700  0.87080000  0.61276200  1
  V  V4  1  0.78855300  0.13319100  0.39095800  1
  V  V5  1  0.78817300  0.63320700  0.39053100  1
  V  V6  1  0.39104600  0.11678100  0.78857300  1
  V  V7  1  0.39054300  0.61679400  0.78817600  1
  Cu  Cu8  1  0.08429600  0.37451600  0.08392300  1
  Cu  Cu9  1  0.08378000  0.87559600  0.08435600  1
  Ni  Ni10  1  0.91955000  0.62504900  0.91953300  1
  Ni  Ni11  1  0.92010600  0.12504900  0.92004600  1
  O  O12  1  0.81324100  0.32165100  0.03320700  1
  O  O13  1  0.81346100  0.82172600  0.03331400  1
  O  O14  1  0.03337000  0.42828900  0.81354700  1
  O  O15  1  0.03326700  0.92837000  0.81329200  1
  O  O16  1  0.37565400  0.38343200  0.08149900  1
  O  O17  1  0.37557300  0.88383200  0.08141700  1
  O  O18  1  0.08136400  0.36610900  0.37561900  1
  O  O19  1  0.08146900  0.86654500  0.37569000  1
  O  O20  1  0.96535400  0.08630400  0.20620900  1
  O  O21  1  0.96472800  0.58643600  0.20560300  1
  O  O22  1  0.20629600  0.16367100  0.96538900  1
  O  O23  1  0.20567100  0.66352000  0.96476300  1
  O  O24  1  0.64320900  0.28039900  0.37354900  1
  O  O25  1  0.64285100  0.78046800  0.37326800  1
  O  O26  1  0.37329400  0.46951300  0.64283400  1
  O  O27  1  0.37360700  0.96956100  0.64320400  1
  O  O28  1  0.62780100  0.02532800  0.34535400  1
  O  O29  1  0.62769600  0.52530900  0.34519200  1
  O  O30  1  0.34537900  0.22463300  0.62781000  1
  O  O31  1  0.34513600  0.72468600  0.62772000  1
  O  O32  1  0.91158100  0.13940300  0.62519400  1
  O  O33  1  0.91135800  0.63924200  0.62486200  1
  O  O34  1  0.62526000  0.11065100  0.91152500  1
  O  O35  1  0.62488300  0.61078500  0.91132800  1
