data_image0
_chemical_formula_structural       B2Fe2
_chemical_formula_sum              "B2 Fe2"
_cell_length_a       2.89214
_cell_length_b       2.94554
_cell_length_c       4.03254
_cell_angle_alpha    90
_cell_angle_beta     68.9858
_cell_angle_gamma    90

_space_group_name_H-M_alt    "P 1"
_space_group_IT_number       1

loop_
  _space_group_symop_operation_xyz
  'x, y, z'

loop_
  _atom_site_type_symbol
  _atom_site_label
  _atom_site_symmetry_multiplicity
  _atom_site_fract_x
  _atom_site_fract_y
  _atom_site_fract_z
  _atom_site_occupancy
  B   B1        1.0  0.43100  0.75000  0.13900  1.0000
  B   B2        1.0  0.56900  0.25000  0.86100  1.0000
  Fe  Fe1       1.0  0.85700  0.25000  0.28600  1.0000
  Fe  Fe2       1.0  0.14300  0.75000  0.71400  1.0000
