# generated using pymatgen
data_NdZrO3
_symmetry_space_group_name_H-M   'P 1'
_cell_length_a   7.61752448
_cell_length_b   7.61752448
_cell_length_c   7.61752448
_cell_angle_alpha   120.44073972
_cell_angle_beta   120.44073972
_cell_angle_gamma   89.23829666
_symmetry_Int_Tables_number   1
_chemical_formula_structural   NdZrO3
_chemical_formula_sum   'Nd4 Zr4 O12'
_cell_volume   310.44317652
_cell_formula_units_Z   4
loop_
 _symmetry_equiv_pos_site_id
 _symmetry_equiv_pos_as_xyz
  1  'x, y, z'
loop_
 _atom_site_type_symbol
 _atom_site_label
 _atom_site_symmetry_multiplicity
 _atom_site_fract_x
 _atom_site_fract_y
 _atom_site_fract_z
 _atom_site_occupancy
  Nd  Nd0  1  0.62529300  0.86634800  0.75894500  1
  Nd  Nd1  1  0.13365200  0.37470700  0.24105500  1
  Nd  Nd2  1  0.13365200  0.89259800  0.75894500  1
  Nd  Nd3  1  0.10740200  0.86634800  0.24105500  1
  Zr  Zr4  1  0.62955900  0.37450400  0.74494500  1
  Zr  Zr5  1  0.11538600  0.37044100  0.74494500  1
  Zr  Zr6  1  0.62549600  0.37044100  0.25505500  1
  Zr  Zr7  1  0.62955900  0.88461400  0.25505500  1
  O  O8  1  0.97137700  0.47137700  0.94275400  1
  O  O9  1  0.29250800  0.70749200  0.00000000  1
  O  O10  1  0.28440700  0.28440700  0.00000000  1
  O  O11  1  0.00000000  0.00000000  0.00000000  1
  O  O12  1  0.71559300  0.71559300  0.00000000  1
  O  O13  1  0.70749200  0.70749200  0.41498400  1
  O  O14  1  0.52862300  0.47137700  0.50000000  1
  O  O15  1  0.70749200  0.29250800  0.00000000  1
  O  O16  1  0.52862300  0.02862300  0.05724600  1
  O  O17  1  0.25000000  0.75000000  0.50000000  1
  O  O18  1  0.97137700  0.02862300  0.50000000  1
  O  O19  1  0.29250800  0.29250800  0.58501600  1
