# generated using pymatgen
data_Li2FePCO7
_symmetry_space_group_name_H-M   'P 1'
_cell_length_a   8.20907850
_cell_length_b   9.30578175
_cell_length_c   8.27029391
_cell_angle_alpha   107.13990858
_cell_angle_beta   76.26565656
_cell_angle_gamma   74.84100078
_symmetry_Int_Tables_number   1
_chemical_formula_structural   Li2FePCO7
_chemical_formula_sum   'Li8 Fe4 P4 C4 O28'
_cell_volume   547.79836929
_cell_formula_units_Z   4
loop_
 _symmetry_equiv_pos_site_id
 _symmetry_equiv_pos_as_xyz
  1  'x, y, z'
loop_
 _atom_site_type_symbol
 _atom_site_label
 _atom_site_symmetry_multiplicity
 _atom_site_fract_x
 _atom_site_fract_y
 _atom_site_fract_z
 _atom_site_occupancy
  Li  Li0  1  0.68812000  0.10151600  0.58161800  1
  Li  Li1  1  0.18821300  0.10142500  0.08156400  1
  Li  Li2  1  0.81189600  0.89851700  0.91831600  1
  Li  Li3  1  0.31194100  0.89851600  0.41832200  1
  Li  Li4  1  0.74506600  0.27193600  0.28774600  1
  Li  Li5  1  0.24520400  0.27179000  0.78769100  1
  Li  Li6  1  0.75477800  0.72822400  0.21232800  1
  Li  Li7  1  0.25490400  0.72822900  0.71242600  1
  Fe  Fe8  1  0.30992400  0.33050900  0.43521600  1
  Fe  Fe9  1  0.69026300  0.66921500  0.56444700  1
  Fe  Fe10  1  0.81002700  0.33027900  0.93530100  1
  Fe  Fe11  1  0.18979700  0.66942200  0.06485700  1
  P  P12  1  0.54484900  0.41858900  0.69874000  1
  P  P13  1  0.04502500  0.41848700  0.19851000  1
  P  P14  1  0.95499800  0.58146900  0.80145600  1
  P  P15  1  0.45500500  0.58148200  0.30142300  1
  C  C16  1  0.02563400  0.04774100  0.74499900  1
  C  C17  1  0.52557900  0.04782000  0.24505000  1
  C  C18  1  0.47458500  0.95210900  0.75480200  1
  C  C19  1  0.97440700  0.95234300  0.25500200  1
  O  O20  1  0.87356500  0.07435900  0.86714200  1
  O  O21  1  0.37354900  0.07439000  0.36716200  1
  O  O22  1  0.62660500  0.92551800  0.63269000  1
  O  O23  1  0.12641700  0.92570500  0.13283300  1
  O  O24  1  0.86067100  0.09120600  0.35643000  1
  O  O25  1  0.36079200  0.09100800  0.85617700  1
  O  O26  1  0.63933700  0.90898700  0.14360800  1
  O  O27  1  0.13941100  0.90890400  0.64364200  1
  O  O28  1  0.04918100  0.17934400  0.73443700  1
  O  O29  1  0.54913800  0.17943200  0.23452100  1
  O  O30  1  0.45098400  0.82056400  0.76542100  1
  O  O31  1  0.95073800  0.82079500  0.26566500  1
  O  O32  1  0.45832000  0.30007500  0.60955400  1
  O  O33  1  0.95836400  0.30008400  0.10942000  1
  O  O34  1  0.04159800  0.69991500  0.89067600  1
  O  O35  1  0.54166800  0.69990600  0.39048700  1
  O  O36  1  0.67005700  0.31833500  0.77067800  1
  O  O37  1  0.17014400  0.31842500  0.27059700  1
  O  O38  1  0.82982400  0.68163000  0.72943300  1
  O  O39  1  0.32978600  0.68161600  0.22942800  1
  O  O40  1  0.10016600  0.42562000  0.65649900  1
  O  O41  1  0.60005100  0.42563100  0.15638400  1
  O  O42  1  0.39972200  0.57450300  0.84363100  1
  O  O43  1  0.89995300  0.57428100  0.34349800  1
  O  O44  1  0.65806100  0.46076200  0.55147100  1
  O  O45  1  0.15812600  0.46081800  0.05142500  1
  O  O46  1  0.84175700  0.53928600  0.94865000  1
  O  O47  1  0.34180000  0.53928300  0.44862700  1
