# generated using pymatgen
data_Ca2Cu2Si3(HO3)4
_symmetry_space_group_name_H-M   'P 1'
_cell_length_a   13.71079400
_cell_length_b   5.56936000
_cell_length_c   7.47678007
_cell_angle_alpha   82.85669131
_cell_angle_beta   90.00000000
_cell_angle_gamma   90.00000000
_symmetry_Int_Tables_number   1
_chemical_formula_structural   Ca2Cu2Si3(HO3)4
_chemical_formula_sum   'Ca4 Cu4 Si6 H8 O24'
_cell_volume   566.49810021
_cell_formula_units_Z   2
loop_
 _symmetry_equiv_pos_site_id
 _symmetry_equiv_pos_as_xyz
  1  'x, y, z'
loop_
 _atom_site_type_symbol
 _atom_site_label
 _atom_site_symmetry_multiplicity
 _atom_site_fract_x
 _atom_site_fract_y
 _atom_site_fract_z
 _atom_site_occupancy
  Ca  Ca0  1  0.38404400  0.94076900  0.80945100  1
  Ca  Ca1  1  0.88404400  0.05923100  0.19054900  1
  Ca  Ca2  1  0.61595600  0.05923100  0.19054900  1
  Ca  Ca3  1  0.11595600  0.94076900  0.80945100  1
  Cu  Cu4  1  0.25000000  0.77755300  0.44550900  1
  Cu  Cu5  1  0.75000000  0.22244700  0.55449100  1
  Cu  Cu6  1  0.25000000  0.27838700  0.47306900  1
  Cu  Cu7  1  0.75000000  0.72161300  0.52693100  1
  Si  Si8  1  0.41237300  0.48805700  0.22669700  1
  Si  Si9  1  0.91237300  0.51194300  0.77330300  1
  Si  Si10  1  0.58762700  0.51194300  0.77330300  1
  Si  Si11  1  0.08762700  0.48805700  0.22669700  1
  Si  Si12  1  0.25000000  0.44266100  0.92164400  1
  Si  Si13  1  0.75000000  0.55733900  0.07835600  1
  H  H14  1  0.43179300  0.88415500  0.23531200  1
  H  H15  1  0.93179300  0.11584500  0.76468800  1
  H  H16  1  0.56820700  0.11584500  0.76468800  1
  H  H17  1  0.06820700  0.88415500  0.23531200  1
  H  H18  1  0.40326400  0.08804800  0.41914800  1
  H  H19  1  0.90326400  0.91195200  0.58085200  1
  H  H20  1  0.59673600  0.91195200  0.58085200  1
  H  H21  1  0.09673600  0.08804800  0.41914800  1
  O  O22  1  0.25000000  0.20423700  0.81990200  1
  O  O23  1  0.75000000  0.79576300  0.18009800  1
  O  O24  1  0.34772100  0.43619100  0.05116800  1
  O  O25  1  0.84772100  0.56380900  0.94883200  1
  O  O26  1  0.65227900  0.56380900  0.94883200  1
  O  O27  1  0.15227900  0.43619100  0.05116800  1
  O  O28  1  0.34525000  0.53291900  0.40225300  1
  O  O29  1  0.84525000  0.46708100  0.59774700  1
  O  O30  1  0.65475000  0.46708100  0.59774700  1
  O  O31  1  0.15475000  0.53291900  0.40225300  1
  O  O32  1  0.25000000  0.70029000  0.79467000  1
  O  O33  1  0.75000000  0.29971000  0.20533000  1
  O  O34  1  0.46124400  0.76941300  0.16131500  1
  O  O35  1  0.96124400  0.23058700  0.83868500  1
  O  O36  1  0.53875600  0.23058700  0.83868500  1
  O  O37  1  0.03875600  0.76941300  0.16131500  1
  O  O38  1  0.51492400  0.73506900  0.72507400  1
  O  O39  1  0.01492400  0.26493100  0.27492600  1
  O  O40  1  0.48507600  0.26493100  0.27492600  1
  O  O41  1  0.98507600  0.73506900  0.72507400  1
  O  O42  1  0.34804100  0.02160700  0.49908500  1
  O  O43  1  0.84804100  0.97839300  0.50091500  1
  O  O44  1  0.65195900  0.97839300  0.50091500  1
  O  O45  1  0.15195900  0.02160700  0.49908500  1
