# generated using pymatgen
data_CrH12C6(NO4)3
_symmetry_space_group_name_H-M   'P 1'
_cell_length_a   8.75600411
_cell_length_b   8.72930876
_cell_length_c   8.69192014
_cell_angle_alpha   55.84949537
_cell_angle_beta   56.11720953
_cell_angle_gamma   56.21982553
_symmetry_Int_Tables_number   1
_chemical_formula_structural   CrH12C6(NO4)3
_chemical_formula_sum   'Cr1 H12 C6 N3 O12'
_cell_volume   426.91647877
_cell_formula_units_Z   1
loop_
 _symmetry_equiv_pos_site_id
 _symmetry_equiv_pos_as_xyz
  1  'x, y, z'
loop_
 _atom_site_type_symbol
 _atom_site_label
 _atom_site_symmetry_multiplicity
 _atom_site_fract_x
 _atom_site_fract_y
 _atom_site_fract_z
 _atom_site_occupancy
  Cr  Cr0  1  0.44934500  0.44801300  0.44839100  1
  H  H1  1  0.12389300  0.73055100  0.65613600  1
  H  H2  1  0.73326600  0.65719900  0.12167700  1
  H  H3  1  0.65585800  0.11975900  0.73670800  1
  H  H4  1  0.22218600  0.75544800  0.16223600  1
  H  H5  1  0.75017700  0.16269600  0.22642800  1
  H  H6  1  0.16344300  0.22539200  0.75013600  1
  H  H7  1  0.82608300  0.70199000  0.44429800  1
  H  H8  1  0.70534100  0.44471100  0.82155200  1
  H  H9  1  0.43988200  0.82424000  0.70727200  1
  H  H10  1  0.91429600  0.84141000  0.18060700  1
  H  H11  1  0.84169300  0.18195200  0.91176800  1
  H  H12  1  0.17927200  0.91321900  0.84084900  1
  C  C13  1  0.18900200  0.60111000  0.76865400  1
  C  C14  1  0.60331200  0.76892300  0.18521300  1
  C  C15  1  0.76583400  0.18697500  0.60602500  1
  C  C16  1  0.11823300  0.69043400  0.30479800  1
  C  C17  1  0.69085600  0.30461600  0.11757500  1
  C  C18  1  0.30419000  0.11758400  0.69108100  1
  N  N19  1  0.93964100  0.75363300  0.31210200  1
  N  N20  1  0.75533600  0.31188500  0.93730400  1
  N  N21  1  0.30927100  0.93849700  0.75600900  1
  O  O22  1  0.17288200  0.56336000  0.45342200  1
  O  O23  1  0.56685500  0.45376000  0.16968300  1
  O  O24  1  0.45382400  0.16944100  0.56733800  1
  O  O25  1  0.33081800  0.45168700  0.72275300  1
  O  O26  1  0.45339800  0.72252600  0.32690700  1
  O  O27  1  0.72020800  0.32958500  0.45468700  1
  O  O28  1  0.11962600  0.60692400  0.93809800  1
  O  O29  1  0.60868400  0.93863200  0.11415000  1
  O  O30  1  0.93373000  0.11884400  0.61192400  1
  O  O31  1  0.91939700  0.92054700  0.92547200  1
  O  O32  1  0.23801100  0.24188000  0.22705100  1
  O  O33  1  0.64828700  0.64870800  0.64782800  1
