# generated using pymatgen
data_V4OF11
_symmetry_space_group_name_H-M   'P 1'
_cell_length_a   5.24802800
_cell_length_b   5.45969392
_cell_length_c   17.43628388
_cell_angle_alpha   89.14711620
_cell_angle_beta   98.19216972
_cell_angle_gamma   118.40928682
_symmetry_Int_Tables_number   1
_chemical_formula_structural   V4OF11
_chemical_formula_sum   'V8 O2 F22'
_cell_volume   434.14178525
_cell_formula_units_Z   2
loop_
 _symmetry_equiv_pos_site_id
 _symmetry_equiv_pos_as_xyz
  1  'x, y, z'
loop_
 _atom_site_type_symbol
 _atom_site_label
 _atom_site_symmetry_multiplicity
 _atom_site_fract_x
 _atom_site_fract_y
 _atom_site_fract_z
 _atom_site_occupancy
  V  V0  1  0.50658100  0.73730500  0.24309700  1
  V  V1  1  0.49341900  0.26269500  0.75690300  1
  V  V2  1  0.25231600  0.12137500  0.37397200  1
  V  V3  1  0.25370500  0.61968300  0.87367500  1
  V  V4  1  0.00000000  0.50000000  0.50000000  1
  V  V5  1  0.00000000  0.00000000  0.00000000  1
  V  V6  1  0.74629500  0.38031700  0.12632500  1
  V  V7  1  0.74768400  0.87862500  0.62602800  1
  O  O8  1  0.57915300  0.58939300  0.17027600  1
  O  O9  1  0.42084700  0.41060700  0.82972400  1
  F  F10  1  0.07775400  0.53855000  0.21346300  1
  F  F11  1  0.51886100  0.05808900  0.18732600  1
  F  F12  1  0.52072600  0.55701400  0.68622400  1
  F  F13  1  0.47927400  0.44298600  0.31377600  1
  F  F14  1  0.07337200  0.33675200  0.41168200  1
  F  F15  1  0.07658800  0.03489700  0.71300100  1
  F  F16  1  0.07646900  0.83555400  0.91184500  1
  F  F17  1  0.92341200  0.96510300  0.28699900  1
  F  F18  1  0.92224600  0.46145000  0.78653700  1
  F  F19  1  0.92662800  0.66324800  0.58831800  1
  F  F20  1  0.02393300  0.81255500  0.43696700  1
  F  F21  1  0.48113900  0.94191100  0.81267400  1
  F  F22  1  0.57203100  0.28424000  0.46228300  1
  F  F23  1  0.57360000  0.09477300  0.66707900  1
  F  F24  1  0.57268800  0.78411500  0.96281200  1
  F  F25  1  0.92353100  0.16444600  0.08815500  1
  F  F26  1  0.42796900  0.71576000  0.53771700  1
  F  F27  1  0.42640000  0.90522700  0.33292100  1
  F  F28  1  0.02310100  0.31164800  0.93753000  1
  F  F29  1  0.97689900  0.68835200  0.06247000  1
  F  F30  1  0.97606700  0.18744500  0.56303300  1
  F  F31  1  0.42731200  0.21588500  0.03718800  1
