# generated using pymatgen
data_FeP2WO8
_symmetry_space_group_name_H-M   'P 1'
_cell_length_a   5.01556500
_cell_length_b   10.19600946
_cell_length_c   6.03758320
_cell_angle_alpha   90.01976742
_cell_angle_beta   90.01581085
_cell_angle_gamma   93.11973800
_symmetry_Int_Tables_number   1
_chemical_formula_structural   FeP2WO8
_chemical_formula_sum   'Fe2 P4 W2 O16'
_cell_volume   308.29683477
_cell_formula_units_Z   2
loop_
 _symmetry_equiv_pos_site_id
 _symmetry_equiv_pos_as_xyz
  1  'x, y, z'
loop_
 _atom_site_type_symbol
 _atom_site_label
 _atom_site_symmetry_multiplicity
 _atom_site_fract_x
 _atom_site_fract_y
 _atom_site_fract_z
 _atom_site_occupancy
  Fe  Fe0  1  0.05563800  0.72383000  0.74986500  1
  Fe  Fe1  1  0.94472600  0.27615700  0.25012100  1
  P  P2  1  0.40371700  0.08941300  0.24982000  1
  P  P3  1  0.59617400  0.91065100  0.75008100  1
  P  P4  1  0.88647200  0.40393100  0.75016300  1
  P  P5  1  0.11351000  0.59606400  0.24991100  1
  W  W6  1  0.44122800  0.21944300  0.75006100  1
  W  W7  1  0.55874500  0.78052800  0.24987400  1
  O  O8  1  0.68606900  0.05645300  0.75006000  1
  O  O9  1  0.31406500  0.94350700  0.24984100  1
  O  O10  1  0.70483500  0.11097600  0.24989200  1
  O  O11  1  0.29506700  0.88918400  0.75004000  1
  O  O12  1  0.17960600  0.37087100  0.75001800  1
  O  O13  1  0.82034800  0.62900600  0.25002800  1
  O  O14  1  0.14492200  0.44989700  0.25015400  1
  O  O15  1  0.85543100  0.55014800  0.75021000  1
  O  O16  1  0.27103100  0.16161800  0.04639500  1
  O  O17  1  0.27119900  0.16166000  0.45343000  1
  O  O18  1  0.72864100  0.83831000  0.54650900  1
  O  O19  1  0.72878300  0.83833400  0.95349200  1
  O  O20  1  0.72638200  0.33073600  0.94603200  1
  O  O21  1  0.72619600  0.33068900  0.55410200  1
  O  O22  1  0.27357100  0.66919600  0.05398700  1
  O  O23  1  0.27364300  0.66939800  0.44591300  1
