# generated using pymatgen
data_NaLi2FePCO7
_symmetry_space_group_name_H-M   'P 1'
_cell_length_a   5.11327288
_cell_length_b   11.16318849
_cell_length_c   10.63591111
_cell_angle_alpha   105.28185065
_cell_angle_beta   93.75045744
_cell_angle_gamma   85.50141189
_symmetry_Int_Tables_number   1
_chemical_formula_structural   NaLi2FePCO7
_chemical_formula_sum   'Na4 Li8 Fe4 P4 C4 O28'
_cell_volume   583.19950044
_cell_formula_units_Z   4
loop_
 _symmetry_equiv_pos_site_id
 _symmetry_equiv_pos_as_xyz
  1  'x, y, z'
loop_
 _atom_site_type_symbol
 _atom_site_label
 _atom_site_symmetry_multiplicity
 _atom_site_fract_x
 _atom_site_fract_y
 _atom_site_fract_z
 _atom_site_occupancy
  Na  Na0  1  0.26532600  0.37976700  0.11924300  1
  Na  Na1  1  0.26538500  0.87977900  0.61933000  1
  Na  Na2  1  0.73493000  0.62019000  0.88077500  1
  Na  Na3  1  0.73467400  0.12022600  0.38071100  1
  Li  Li4  1  0.77691400  0.14501600  0.05557100  1
  Li  Li5  1  0.77695000  0.64492200  0.55553700  1
  Li  Li6  1  0.22290400  0.85465300  0.94425700  1
  Li  Li7  1  0.22292100  0.35480000  0.44435200  1
  Li  Li8  1  0.26316900  0.15664400  0.87276700  1
  Li  Li9  1  0.26287600  0.65679300  0.37279100  1
  Li  Li10  1  0.73664000  0.84329500  0.12721500  1
  Li  Li11  1  0.73700400  0.34327100  0.62726000  1
  Fe  Fe12  1  0.78749600  0.05340600  0.71415300  1
  Fe  Fe13  1  0.21297700  0.44655300  0.78587900  1
  Fe  Fe14  1  0.78739700  0.55365700  0.21431200  1
  Fe  Fe15  1  0.21253000  0.94671900  0.28577000  1
  P  P16  1  0.72383700  0.32989800  0.91863800  1
  P  P17  1  0.72353600  0.82995600  0.41858900  1
  P  P18  1  0.27628400  0.67012200  0.08144500  1
  P  P19  1  0.27640200  0.17013500  0.58142100  1
  C  C20  1  0.68783600  0.40694900  0.36447300  1
  C  C21  1  0.68792300  0.90694900  0.86440700  1
  C  C22  1  0.31210100  0.59302300  0.63552700  1
  C  C23  1  0.31200900  0.09302200  0.13550900  1
  O  O24  1  0.38483100  0.16568700  0.06925100  1
  O  O25  1  0.38484700  0.66568000  0.56920800  1
  O  O26  1  0.61498700  0.83423800  0.93060000  1
  O  O27  1  0.61502800  0.33424600  0.43073000  1
  O  O28  1  0.93329900  0.41773100  0.34725200  1
  O  O29  1  0.93340300  0.91763700  0.84711600  1
  O  O30  1  0.06668000  0.58227600  0.65284400  1
  O  O31  1  0.06656100  0.08230700  0.15284800  1
  O  O32  1  0.51029700  0.47310600  0.31295200  1
  O  O33  1  0.51047800  0.97323700  0.81296200  1
  O  O34  1  0.48972300  0.52688800  0.68704100  1
  O  O35  1  0.48954300  0.02680500  0.18699200  1
  O  O36  1  0.84472400  0.19207800  0.89156900  1
  O  O37  1  0.84447000  0.69214300  0.39159200  1
  O  O38  1  0.15525800  0.80790700  0.10847600  1
  O  O39  1  0.15540800  0.30793300  0.60850500  1
  O  O40  1  0.79341600  0.38955100  0.06503200  1
  O  O41  1  0.79335700  0.88959300  0.56494900  1
  O  O42  1  0.20677800  0.61051700  0.93504200  1
  O  O43  1  0.20673900  0.11057100  0.43500800  1
  O  O44  1  0.41920400  0.32837900  0.89524100  1
  O  O45  1  0.41892200  0.82845200  0.39527300  1
  O  O46  1  0.58090000  0.67165800  0.10485200  1
  O  O47  1  0.58101600  0.17167300  0.60478600  1
  O  O48  1  0.16518200  0.60051900  0.17172600  1
  O  O49  1  0.16536500  0.10050500  0.67167900  1
  O  O50  1  0.83493200  0.39946500  0.82831500  1
  O  O51  1  0.83463200  0.89946900  0.32823100  1
