# generated using pymatgen
data_AsC3OF6
_symmetry_space_group_name_H-M   'P 1'
_cell_length_a   7.10547475
_cell_length_b   7.10547475
_cell_length_c   7.65681545
_cell_angle_alpha   76.36051856
_cell_angle_beta   76.36051856
_cell_angle_gamma   72.11465885
_symmetry_Int_Tables_number   1
_chemical_formula_structural   AsC3OF6
_chemical_formula_sum   'As2 C6 O2 F12'
_cell_volume   351.89471232
_cell_formula_units_Z   2
loop_
 _symmetry_equiv_pos_site_id
 _symmetry_equiv_pos_as_xyz
  1  'x, y, z'
loop_
 _atom_site_type_symbol
 _atom_site_label
 _atom_site_symmetry_multiplicity
 _atom_site_fract_x
 _atom_site_fract_y
 _atom_site_fract_z
 _atom_site_occupancy
  As  As0  1  0.00878000  0.00878000  0.98714200  1
  As  As1  1  0.50222500  0.50222500  0.49845700  1
  C  C2  1  0.21013900  0.21013900  0.42359200  1
  C  C3  1  0.34668200  0.15950700  0.27181300  1
  C  C4  1  0.15950700  0.34668200  0.27181300  1
  C  C5  1  0.86491100  0.86491100  0.50487600  1
  C  C6  1  0.53874200  0.70264600  0.91735200  1
  C  C7  1  0.70264600  0.53874200  0.91735200  1
  O  O8  1  0.28913900  0.28913900  0.11491200  1
  O  O9  1  0.81946300  0.81946300  0.65926600  1
  F  F10  1  0.13456700  0.82789600  0.84482600  1
  F  F11  1  0.82789600  0.13456700  0.84482600  1
  F  F12  1  0.85230100  0.85230100  0.11171500  1
  F  F13  1  0.89097300  0.18846800  0.13673700  1
  F  F14  1  0.18846800  0.89097300  0.13673700  1
  F  F15  1  0.16441000  0.16441000  0.85792000  1
  F  F16  1  0.48383200  0.48383200  0.74180600  1
  F  F17  1  0.76347100  0.46452200  0.46580200  1
  F  F18  1  0.46452200  0.76347100  0.46580200  1
  F  F19  1  0.51347000  0.51347000  0.25939100  1
  F  F20  1  0.23901900  0.53483800  0.53388100  1
  F  F21  1  0.53483800  0.23901900  0.53388100  1
