# generated using pymatgen
data_CoOF
_symmetry_space_group_name_H-M   'P 1'
_cell_length_a   2.94868400
_cell_length_b   4.64711200
_cell_length_c   18.50953315
_cell_angle_alpha   83.37765375
_cell_angle_beta   90.00000000
_cell_angle_gamma   90.00000000
_symmetry_Int_Tables_number   1
_chemical_formula_structural   CoOF
_chemical_formula_sum   'Co8 O8 F8'
_cell_volume   251.94135182
_cell_formula_units_Z   8
loop_
 _symmetry_equiv_pos_site_id
 _symmetry_equiv_pos_as_xyz
  1  'x, y, z'
loop_
 _atom_site_type_symbol
 _atom_site_label
 _atom_site_symmetry_multiplicity
 _atom_site_fract_x
 _atom_site_fract_y
 _atom_site_fract_z
 _atom_site_occupancy
  Co  Co0  1  0.00000000  0.95045200  0.99833100  1
  Co  Co1  1  0.00000000  0.98920000  0.24954000  1
  Co  Co2  1  0.00000000  0.00244700  0.50046900  1
  Co  Co3  1  0.00000000  0.02885900  0.75160400  1
  Co  Co4  1  0.50000000  0.48085400  0.12231300  1
  Co  Co5  1  0.50000000  0.49628100  0.37546300  1
  Co  Co6  1  0.50000000  0.51021500  0.62633800  1
  Co  Co7  1  0.50000000  0.55637900  0.87611900  1
  O  O8  1  0.50000000  0.79161200  0.95482300  1
  O  O9  1  0.00000000  0.66198000  0.07321900  1
  O  O10  1  0.00000000  0.69624400  0.57759300  1
  O  O11  1  0.00000000  0.74379700  0.82685900  1
  O  O12  1  0.00000000  0.68469200  0.32778100  1
  O  O13  1  0.00000000  0.28988800  0.17080700  1
  O  O14  1  0.00000000  0.30914300  0.42333300  1
  O  O15  1  0.00000000  0.32239300  0.67423400  1
  F  F16  1  0.50000000  0.79400000  0.20028200  1
  F  F17  1  0.50000000  0.80726600  0.45174600  1
  F  F18  1  0.50000000  0.83086300  0.70357400  1
  F  F19  1  0.00000000  0.29435000  0.92458200  1
  F  F20  1  0.50000000  0.14133200  0.04503500  1
  F  F21  1  0.50000000  0.18486900  0.29845400  1
  F  F22  1  0.50000000  0.19887900  0.54887800  1
  F  F23  1  0.50000000  0.23400300  0.79862300  1
