# generated using pymatgen
data_AgBrO4
_symmetry_space_group_name_H-M   'P 1'
_cell_length_a   7.50417182
_cell_length_b   7.50417182
_cell_length_c   7.50417182
_cell_angle_alpha   139.60777778
_cell_angle_beta   139.60777778
_cell_angle_gamma   58.44931904
_symmetry_Int_Tables_number   1
_chemical_formula_structural   AgBrO4
_chemical_formula_sum   'Ag2 Br2 O8'
_cell_volume   175.81974131
_cell_formula_units_Z   2
loop_
 _symmetry_equiv_pos_site_id
 _symmetry_equiv_pos_as_xyz
  1  'x, y, z'
loop_
 _atom_site_type_symbol
 _atom_site_label
 _atom_site_symmetry_multiplicity
 _atom_site_fract_x
 _atom_site_fract_y
 _atom_site_fract_z
 _atom_site_occupancy
  Ag  Ag0  1  0.00000000  0.00000000  0.00000000  1
  Ag  Ag1  1  0.75000000  0.25000000  0.50000000  1
  Br  Br2  1  0.50000000  0.50000000  0.00000000  1
  Br  Br3  1  0.25000000  0.75000000  0.50000000  1
  O  O4  1  0.66187100  0.29864500  0.10190800  1
  O  O5  1  0.55326300  0.69003700  0.60190800  1
  O  O6  1  0.30996300  0.91187100  0.86322600  1
  O  O7  1  0.70135500  0.80326300  0.36322600  1
  O  O8  1  0.44003700  0.33812900  0.63677400  1
  O  O9  1  0.04864500  0.44673700  0.13677400  1
  O  O10  1  0.08812900  0.95135500  0.39809200  1
  O  O11  1  0.19673700  0.55996300  0.89809200  1
