# generated using pymatgen
data_Li2Cr3FeO8
_symmetry_space_group_name_H-M   'P 1'
_cell_length_a   5.17209004
_cell_length_b   7.67448196
_cell_length_c   7.60514767
_cell_angle_alpha   81.69231832
_cell_angle_beta   70.57891614
_cell_angle_gamma   84.84790902
_symmetry_Int_Tables_number   1
_chemical_formula_structural   Li2Cr3FeO8
_chemical_formula_sum   'Li4 Cr6 Fe2 O16'
_cell_volume   281.42595127
_cell_formula_units_Z   2
loop_
 _symmetry_equiv_pos_site_id
 _symmetry_equiv_pos_as_xyz
  1  'x, y, z'
loop_
 _atom_site_type_symbol
 _atom_site_label
 _atom_site_symmetry_multiplicity
 _atom_site_fract_x
 _atom_site_fract_y
 _atom_site_fract_z
 _atom_site_occupancy
  Li  Li0  1  0.00147400  0.00172400  0.99480900  1
  Li  Li1  1  0.99618200  0.50547000  0.50014600  1
  Li  Li2  1  0.00398200  0.24374900  0.25012300  1
  Li  Li3  1  0.99754700  0.74806300  0.75614000  1
  Cr  Cr4  1  0.48468600  0.81462800  0.07679100  1
  Cr  Cr5  1  0.51513900  0.43558500  0.18679900  1
  Cr  Cr6  1  0.48470400  0.31439900  0.56302300  1
  Cr  Cr7  1  0.51659900  0.18610800  0.93510300  1
  Cr  Cr8  1  0.48385200  0.56396000  0.81449100  1
  Cr  Cr9  1  0.51526700  0.93573700  0.67251000  1
  Fe  Fe10  1  0.48806700  0.06053500  0.31399600  1
  Fe  Fe11  1  0.51159000  0.68933600  0.43681000  1
  O  O12  1  0.27928800  0.03509000  0.15184300  1
  O  O13  1  0.30643500  0.39540100  0.02820300  1
  O  O14  1  0.30235000  0.64279800  0.28732300  1
  O  O15  1  0.28263300  0.27676500  0.39578800  1
  O  O16  1  0.29512700  0.89558200  0.51892900  1
  O  O17  1  0.27819900  0.53680300  0.64384500  1
  O  O18  1  0.31233100  0.14478100  0.77303300  1
  O  O19  1  0.72110700  0.21309300  0.10629300  1
  O  O20  1  0.28778400  0.78583100  0.89415000  1
  O  O21  1  0.71713400  0.47369000  0.35417900  1
  O  O22  1  0.69900100  0.10746500  0.46242900  1
  O  O23  1  0.70439100  0.85430300  0.23133900  1
  O  O24  1  0.69344700  0.35440500  0.72173600  1
  O  O25  1  0.72145900  0.71522700  0.59814500  1
  O  O26  1  0.71240200  0.96441800  0.85531500  1
  O  O27  1  0.68782400  0.60505900  0.97670800  1
