# generated using pymatgen
data_Fe6O5F7
_symmetry_space_group_name_H-M   'P 1'
_cell_length_a   4.74348100
_cell_length_b   5.69132562
_cell_length_c   7.86055783
_cell_angle_alpha   85.17575070
_cell_angle_beta   89.35459447
_cell_angle_gamma   88.69259871
_symmetry_Int_Tables_number   1
_chemical_formula_structural   Fe6O5F7
_chemical_formula_sum   'Fe6 O5 F7'
_cell_volume   211.39294943
_cell_formula_units_Z   1
loop_
 _symmetry_equiv_pos_site_id
 _symmetry_equiv_pos_as_xyz
  1  'x, y, z'
loop_
 _atom_site_type_symbol
 _atom_site_label
 _atom_site_symmetry_multiplicity
 _atom_site_fract_x
 _atom_site_fract_y
 _atom_site_fract_z
 _atom_site_occupancy
  Fe  Fe0  1  0.56254000  0.82835500  0.65739800  1
  Fe  Fe1  1  0.51382800  0.51945600  0.01297700  1
  Fe  Fe2  1  0.48919700  0.16720700  0.33567200  1
  Fe  Fe3  1  0.96941300  0.33336100  0.68659200  1
  Fe  Fe4  1  0.99155200  0.66605200  0.32042000  1
  Fe  Fe5  1  0.97835800  0.98299800  0.98794200  1
  O  O6  1  0.80107100  0.04408000  0.75423000  1
  O  O7  1  0.80279400  0.69055100  0.10806400  1
  O  O8  1  0.69124300  0.53567500  0.77571200  1
  O  O9  1  0.69470800  0.87894400  0.42553700  1
  O  O10  1  0.30807400  0.45578100  0.23775500  1
  F  F11  1  0.80383700  0.36890300  0.43982600  1
  F  F12  1  0.69610300  0.20241100  0.10686400  1
  F  F13  1  0.29594300  0.13427400  0.56516600  1
  F  F14  1  0.30872700  0.79975600  0.88847900  1
  F  F15  1  0.20241300  0.96280900  0.23344500  1
  F  F16  1  0.18472500  0.62346000  0.56517500  1
  F  F17  1  0.20547400  0.30592600  0.89874500  1
