# generated using pymatgen
data_Mn3FeO8
_symmetry_space_group_name_H-M   'P 1'
_cell_length_a   5.91561541
_cell_length_b   5.91561541
_cell_length_c   5.91561599
_cell_angle_alpha   58.95354897
_cell_angle_beta   58.95354897
_cell_angle_gamma   58.95354723
_symmetry_Int_Tables_number   1
_chemical_formula_structural   Mn3FeO8
_chemical_formula_sum   'Mn3 Fe1 O8'
_cell_volume   142.88597451
_cell_formula_units_Z   1
loop_
 _symmetry_equiv_pos_site_id
 _symmetry_equiv_pos_as_xyz
  1  'x, y, z'
loop_
 _atom_site_type_symbol
 _atom_site_label
 _atom_site_symmetry_multiplicity
 _atom_site_fract_x
 _atom_site_fract_y
 _atom_site_fract_z
 _atom_site_occupancy
  Mn  Mn0  1  0.50000000  0.00000000  0.50000000  1
  Mn  Mn1  1  0.50000000  0.50000000  0.00000000  1
  Mn  Mn2  1  0.00000000  0.50000000  0.50000000  1
  Fe  Fe3  1  0.50000000  0.50000000  0.50000000  1
  O  O4  1  0.26602200  0.26602200  0.26602200  1
  O  O5  1  0.70614000  0.26058800  0.26058800  1
  O  O6  1  0.26058800  0.26058800  0.70614000  1
  O  O7  1  0.26058800  0.70614000  0.26058800  1
  O  O8  1  0.73941200  0.29386000  0.73941200  1
  O  O9  1  0.73941200  0.73941200  0.29386000  1
  O  O10  1  0.29386000  0.73941200  0.73941200  1
  O  O11  1  0.73397800  0.73397800  0.73397800  1
