# generated using pymatgen
data_Be(HO)2
_symmetry_space_group_name_H-M   'P 1'
_cell_length_a   8.04848905
_cell_length_b   5.24068100
_cell_length_c   11.92330476
_cell_angle_alpha   90.00000000
_cell_angle_beta   100.16050553
_cell_angle_gamma   90.00000000
_symmetry_Int_Tables_number   1
_chemical_formula_structural   Be(HO)2
_chemical_formula_sum   'Be12 H24 O24'
_cell_volume   495.03272205
_cell_formula_units_Z   12
loop_
 _symmetry_equiv_pos_site_id
 _symmetry_equiv_pos_as_xyz
  1  'x, y, z'
loop_
 _atom_site_type_symbol
 _atom_site_label
 _atom_site_symmetry_multiplicity
 _atom_site_fract_x
 _atom_site_fract_y
 _atom_site_fract_z
 _atom_site_occupancy
  Be  Be0  1  0.68069400  0.07127300  0.63311700  1
  Be  Be1  1  0.31930600  0.57127300  0.36688300  1
  Be  Be2  1  0.57107500  0.57266600  0.70418500  1
  Be  Be3  1  0.42892500  0.07266600  0.29581500  1
  Be  Be4  1  0.67672500  0.86671800  0.18522000  1
  Be  Be5  1  0.32327500  0.36671800  0.81478000  1
  Be  Be6  1  0.26670300  0.82558900  0.72021500  1
  Be  Be7  1  0.73329700  0.32558900  0.27978500  1
  Be  Be8  1  0.09087600  0.71933400  0.48828300  1
  Be  Be9  1  0.90912400  0.21933400  0.51171700  1
  Be  Be10  1  0.90654400  0.80573000  0.00693900  1
  Be  Be11  1  0.09345600  0.30573000  0.99306100  1
  H  H12  1  0.50527300  0.80691100  0.55075500  1
  H  H13  1  0.49472700  0.30691100  0.44924500  1
  H  H14  1  0.40133600  0.79769400  0.02078400  1
  H  H15  1  0.59866400  0.29769400  0.97921600  1
  H  H16  1  0.45149600  0.22392200  0.65135300  1
  H  H17  1  0.54850400  0.72392200  0.34864600  1
  H  H18  1  0.63325800  0.70080200  0.92086200  1
  H  H19  1  0.36674200  0.20080200  0.07913800  1
  H  H20  1  0.95141500  0.02472200  0.68210700  1
  H  H21  1  0.04858500  0.52472200  0.31789300  1
  H  H22  1  0.77385900  0.54443500  0.44489700  1
  H  H23  1  0.22614100  0.04443500  0.55510300  1
  H  H24  1  0.06110400  0.46632400  0.62880700  1
  H  H25  1  0.93889600  0.96632400  0.37119300  1
  H  H26  1  0.99052200  0.69752400  0.75242800  1
  H  H27  1  0.00947900  0.19752400  0.24757200  1
  H  H28  1  0.16063300  0.59487300  0.87907700  1
  H  H29  1  0.83936700  0.09487300  0.12092300  1
  H  H30  1  0.47991800  0.03090600  0.81679100  1
  H  H31  1  0.52008100  0.53090600  0.18320900  1
  H  H32  1  0.04877900  0.97024000  0.88856400  1
  H  H33  1  0.95122100  0.47024000  0.11143600  1
  H  H34  1  0.35152700  0.82032400  0.06821000  1
  H  H35  1  0.64847300  0.32032400  0.93179000  1
  O  O36  1  0.60020000  0.80115100  0.61475000  1
  O  O37  1  0.39980000  0.30115100  0.38525000  1
  O  O38  1  0.55608300  0.29619700  0.63403700  1
  O  O39  1  0.44391600  0.79619700  0.36596300  1
  O  O40  1  0.91632000  0.32053900  0.23443200  1
  O  O41  1  0.08368000  0.82053900  0.76556800  1
  O  O42  1  0.86520900  0.13931200  0.63664300  1
  O  O43  1  0.13479100  0.63931200  0.36335700  1
  O  O44  1  0.74454000  0.56930400  0.80206600  1
  O  O45  1  0.25546000  0.06930400  0.19793400  1
  O  O46  1  0.72544900  0.77242200  0.88632300  1
  O  O47  1  0.27455100  0.27242200  0.11367700  1
  O  O48  1  0.60573100  0.08967000  0.24369100  1
  O  O49  1  0.39426900  0.58967000  0.75630900  1
  O  O50  1  0.80373600  0.91633400  0.10263300  1
  O  O51  1  0.19626400  0.41633400  0.89736700  1
  O  O52  1  0.63556400  0.58256800  0.21303200  1
  O  O53  1  0.36443600  0.08256800  0.78696800  1
  O  O54  1  0.05501200  0.44534900  0.54729200  1
  O  O55  1  0.94498800  0.94534900  0.45270800  1
  O  O56  1  0.02131200  0.02277600  0.96370100  1
  O  O57  1  0.97868800  0.52277600  0.03629900  1
  O  O58  1  0.23749600  0.86639100  0.57868400  1
  O  O59  1  0.76250400  0.36639100  0.42131600  1
