# generated using pymatgen
data_CoPH3O5
_symmetry_space_group_name_H-M   'P 1'
_cell_length_a   9.64874959
_cell_length_b   9.64874959
_cell_length_c   9.64875004
_cell_angle_alpha   112.71662046
_cell_angle_beta   112.71662046
_cell_angle_gamma   112.71661657
_symmetry_Int_Tables_number   1
_chemical_formula_structural   CoPH3O5
_chemical_formula_sum   'Co6 P6 H18 O30'
_cell_volume   594.11049151
_cell_formula_units_Z   6
loop_
 _symmetry_equiv_pos_site_id
 _symmetry_equiv_pos_as_xyz
  1  'x, y, z'
loop_
 _atom_site_type_symbol
 _atom_site_label
 _atom_site_symmetry_multiplicity
 _atom_site_fract_x
 _atom_site_fract_y
 _atom_site_fract_z
 _atom_site_occupancy
  Co  Co0  1  0.07505900  0.79205100  0.54088700  1
  Co  Co1  1  0.54088700  0.07505900  0.79205100  1
  Co  Co2  1  0.79205100  0.54088700  0.07505900  1
  Co  Co3  1  0.92494100  0.20794900  0.45911300  1
  Co  Co4  1  0.45911300  0.92494100  0.20794900  1
  Co  Co5  1  0.20794900  0.45911300  0.92494100  1
  P  P6  1  0.31073200  0.67280100  0.75336100  1
  P  P7  1  0.75336100  0.31073200  0.67280100  1
  P  P8  1  0.67280100  0.75336100  0.31073200  1
  P  P9  1  0.68926800  0.32719900  0.24663900  1
  P  P10  1  0.24663900  0.68926800  0.32719900  1
  P  P11  1  0.32719900  0.24663900  0.68926800  1
  H  H12  1  0.52073100  0.61692100  0.82376000  1
  H  H13  1  0.82376000  0.52073100  0.61692100  1
  H  H14  1  0.61692100  0.82376000  0.52073100  1
  H  H15  1  0.47926900  0.38307900  0.17624000  1
  H  H16  1  0.17624000  0.47926900  0.38307900  1
  H  H17  1  0.38307900  0.17624000  0.47926900  1
  H  H18  1  0.13058500  0.04070900  0.83951500  1
  H  H19  1  0.83951500  0.13058500  0.04070900  1
  H  H20  1  0.04070900  0.83951500  0.13058500  1
  H  H21  1  0.86941500  0.95929100  0.16048500  1
  H  H22  1  0.16048500  0.86941500  0.95929100  1
  H  H23  1  0.95929100  0.16048500  0.86941500  1
  H  H24  1  0.91253400  0.85840800  0.67743100  1
  H  H25  1  0.67743100  0.91253400  0.85840800  1
  H  H26  1  0.85840800  0.67743100  0.91253400  1
  H  H27  1  0.08746600  0.14159200  0.32256900  1
  H  H28  1  0.32256900  0.08746600  0.14159200  1
  H  H29  1  0.14159200  0.32256900  0.08746600  1
  O  O30  1  0.14677300  0.47334100  0.55406400  1
  O  O31  1  0.55406400  0.14677300  0.47334100  1
  O  O32  1  0.47334100  0.55406400  0.14677300  1
  O  O33  1  0.85322700  0.52665900  0.44593600  1
  O  O34  1  0.44593600  0.85322700  0.52665900  1
  O  O35  1  0.52665900  0.44593600  0.85322700  1
  O  O36  1  0.30239200  0.68282800  0.91451300  1
  O  O37  1  0.91451300  0.30239200  0.68282800  1
  O  O38  1  0.68282800  0.91451300  0.30239200  1
  O  O39  1  0.69760800  0.31717200  0.08548700  1
  O  O40  1  0.08548700  0.69760800  0.31717200  1
  O  O41  1  0.31717200  0.08548700  0.69760800  1
  O  O42  1  0.32530700  0.83571900  0.75117100  1
  O  O43  1  0.75117100  0.32530700  0.83571900  1
  O  O44  1  0.83571900  0.75117100  0.32530700  1
  O  O45  1  0.67469300  0.16428100  0.24882900  1
  O  O46  1  0.24882900  0.67469300  0.16428100  1
  O  O47  1  0.16428100  0.24882900  0.67469300  1
  O  O48  1  0.51179400  0.71291200  0.81189100  1
  O  O49  1  0.81189100  0.51179400  0.71291200  1
  O  O50  1  0.71291200  0.81189100  0.51179400  1
  O  O51  1  0.48820600  0.28708800  0.18810900  1
  O  O52  1  0.18810900  0.48820600  0.28708800  1
  O  O53  1  0.28708800  0.18810900  0.48820600  1
  O  O54  1  0.04492100  0.89831900  0.75292600  1
  O  O55  1  0.75292600  0.04492100  0.89831900  1
  O  O56  1  0.89831900  0.75292600  0.04492100  1
  O  O57  1  0.95507900  0.10168100  0.24707400  1
  O  O58  1  0.24707400  0.95507900  0.10168100  1
  O  O59  1  0.10168100  0.24707400  0.95507900  1
