# generated using pymatgen
data_Rb3YO3
_symmetry_space_group_name_H-M   'P 1'
_cell_length_a   7.40060200
_cell_length_b   8.01242100
_cell_length_c   11.79655777
_cell_angle_alpha   86.08928637
_cell_angle_beta   90.00000000
_cell_angle_gamma   90.00000000
_symmetry_Int_Tables_number   1
_chemical_formula_structural   Rb3YO3
_chemical_formula_sum   'Rb12 Y4 O12'
_cell_volume   697.86865656
_cell_formula_units_Z   4
loop_
 _symmetry_equiv_pos_site_id
 _symmetry_equiv_pos_as_xyz
  1  'x, y, z'
loop_
 _atom_site_type_symbol
 _atom_site_label
 _atom_site_symmetry_multiplicity
 _atom_site_fract_x
 _atom_site_fract_y
 _atom_site_fract_z
 _atom_site_occupancy
  Rb  Rb0  1  0.33173000  0.35803500  0.07937900  1
  Rb  Rb1  1  0.62155000  0.93051700  0.15566500  1
  Rb  Rb2  1  0.80370800  0.37541400  0.19205400  1
  Rb  Rb3  1  0.30370800  0.62458600  0.30794600  1
  Rb  Rb4  1  0.12155000  0.06948300  0.34433500  1
  Rb  Rb5  1  0.83173000  0.64196500  0.42062100  1
  Rb  Rb6  1  0.16827000  0.35803500  0.57937900  1
  Rb  Rb7  1  0.87845000  0.93051700  0.65566500  1
  Rb  Rb8  1  0.69629200  0.37541400  0.69205400  1
  Rb  Rb9  1  0.19629200  0.62458600  0.80794600  1
  Rb  Rb10  1  0.37845000  0.06948300  0.84433500  1
  Rb  Rb11  1  0.66827000  0.64196500  0.92062100  1
  Y  Y12  1  0.08969700  0.83735600  0.06744900  1
  Y  Y13  1  0.58969700  0.16264400  0.43255100  1
  Y  Y14  1  0.41030300  0.83735600  0.56744900  1
  Y  Y15  1  0.91030300  0.16264400  0.93255100  1
  O  O16  1  0.35661800  0.74542300  0.04345300  1
  O  O17  1  0.04990300  0.10716500  0.09690300  1
  O  O18  1  0.94108300  0.68851700  0.19012900  1
  O  O19  1  0.44108300  0.31148300  0.30987100  1
  O  O20  1  0.54990300  0.89283500  0.40309700  1
  O  O21  1  0.85661800  0.25457700  0.45654700  1
  O  O22  1  0.14338200  0.74542300  0.54345300  1
  O  O23  1  0.45009700  0.10716500  0.59690300  1
  O  O24  1  0.55891700  0.68851700  0.69012900  1
  O  O25  1  0.05891700  0.31148300  0.80987100  1
  O  O26  1  0.95009700  0.89283500  0.90309700  1
  O  O27  1  0.64338200  0.25457700  0.95654700  1
