# generated using pymatgen
data_Mo8N6O31
_symmetry_space_group_name_H-M   'P 1'
_cell_length_a   11.98883300
_cell_length_b   9.95920900
_cell_length_c   15.71443304
_cell_angle_alpha   69.61291087
_cell_angle_beta   90.00000000
_cell_angle_gamma   90.00000000
_symmetry_Int_Tables_number   1
_chemical_formula_structural   Mo8N6O31
_chemical_formula_sum   'Mo16 N12 O62'
_cell_volume   1758.76221999
_cell_formula_units_Z   2
loop_
 _symmetry_equiv_pos_site_id
 _symmetry_equiv_pos_as_xyz
  1  'x, y, z'
loop_
 _atom_site_type_symbol
 _atom_site_label
 _atom_site_symmetry_multiplicity
 _atom_site_fract_x
 _atom_site_fract_y
 _atom_site_fract_z
 _atom_site_occupancy
  Mo  Mo0  1  0.46037700  0.87793300  0.42883800  1
  Mo  Mo1  1  0.96037700  0.12206700  0.07116200  1
  Mo  Mo2  1  0.53962300  0.12206700  0.57116200  1
  Mo  Mo3  1  0.03962300  0.87793300  0.92883800  1
  Mo  Mo4  1  0.74481200  0.91619300  0.46205500  1
  Mo  Mo5  1  0.24481200  0.08380700  0.03794500  1
  Mo  Mo6  1  0.25518800  0.08380700  0.53794500  1
  Mo  Mo7  1  0.75518800  0.91619300  0.96205500  1
  Mo  Mo8  1  0.62542000  0.57815500  0.54115200  1
  Mo  Mo9  1  0.12542000  0.42184500  0.95884800  1
  Mo  Mo10  1  0.37458000  0.42184500  0.45884800  1
  Mo  Mo11  1  0.87458000  0.57815500  0.04115200  1
  Mo  Mo12  1  0.41224600  0.77515200  0.65534500  1
  Mo  Mo13  1  0.91224600  0.22484800  0.84465500  1
  Mo  Mo14  1  0.58775400  0.22484800  0.34465500  1
  Mo  Mo15  1  0.08775400  0.77515200  0.15534500  1
  N  N16  1  0.00098000  0.77210400  0.69679300  1
  N  N17  1  0.50098000  0.22789600  0.80320700  1
  N  N18  1  0.99902000  0.22789600  0.30320700  1
  N  N19  1  0.49902000  0.77210400  0.19679300  1
  N  N20  1  0.09118100  0.72612400  0.46011700  1
  N  N21  1  0.59118100  0.27387600  0.03988300  1
  N  N22  1  0.90881900  0.27387600  0.53988300  1
  N  N23  1  0.40881900  0.72612400  0.96011700  1
  N  N24  1  0.70729600  0.82863400  0.79829500  1
  N  N25  1  0.20729600  0.17136600  0.70170500  1
  N  N26  1  0.29270400  0.17136600  0.20170500  1
  N  N27  1  0.79270400  0.82863400  0.29829500  1
  O  O28  1  0.48982000  0.73466300  0.55919600  1
  O  O29  1  0.98982000  0.26533700  0.94080400  1
  O  O30  1  0.51018000  0.26533700  0.44080400  1
  O  O31  1  0.01018000  0.73466300  0.05919600  1
  O  O32  1  0.63000300  0.03274500  0.48460900  1
  O  O33  1  0.13000300  0.96725500  0.01539100  1
  O  O34  1  0.36999700  0.96725500  0.51539100  1
  O  O35  1  0.86999700  0.03274500  0.98460900  1
  O  O36  1  0.59216100  0.79616100  0.41343500  1
  O  O37  1  0.09216100  0.20383900  0.08656500  1
  O  O38  1  0.40783900  0.20383900  0.58656500  1
  O  O39  1  0.90783900  0.79616100  0.91343500  1
  O  O40  1  0.35757600  0.80387300  0.38468600  1
  O  O41  1  0.85757600  0.19612700  0.11531400  1
  O  O42  1  0.64242400  0.19612700  0.61531400  1
  O  O43  1  0.14242400  0.80387300  0.88468600  1
  O  O44  1  0.72904000  0.74638200  0.55187500  1
  O  O45  1  0.22904000  0.25361800  0.94812500  1
  O  O46  1  0.27096000  0.25361800  0.44812500  1
  O  O47  1  0.77096000  0.74638200  0.05187500  1
  O  O48  1  0.86720200  0.98126200  0.48646600  1
  O  O49  1  0.36720200  0.01873800  0.01353400  1
  O  O50  1  0.13279800  0.01873800  0.51353400  1
  O  O51  1  0.63279800  0.98126200  0.98646600  1
  O  O52  1  0.82017700  0.79641600  0.37857300  1
  O  O53  1  0.32017700  0.20358400  0.12142700  1
  O  O54  1  0.17982300  0.20358400  0.62142700  1
  O  O55  1  0.67982300  0.79641600  0.87857300  1
  O  O56  1  0.63240300  0.48012300  0.65482400  1
  O  O57  1  0.13240300  0.51987700  0.84517600  1
  O  O58  1  0.36759700  0.51987700  0.34517600  1
  O  O59  1  0.86759700  0.48012300  0.15482400  1
  O  O60  1  0.73243100  0.51803900  0.49100300  1
  O  O61  1  0.23243100  0.48196100  0.00899700  1
  O  O62  1  0.26756900  0.48196100  0.50899700  1
  O  O63  1  0.76756900  0.51803900  0.99100300  1
  O  O64  1  0.50000000  0.50000000  0.50000000  1
  O  O65  1  0.00000000  0.50000000  0.00000000  1
  O  O66  1  0.46903000  0.63152200  0.76474200  1
  O  O67  1  0.96903000  0.36847800  0.73525800  1
  O  O68  1  0.53097000  0.36847800  0.23525800  1
  O  O69  1  0.03097000  0.63152200  0.26474200  1
  O  O70  1  0.51725200  0.94080200  0.65580700  1
  O  O71  1  0.01725200  0.05919800  0.84419300  1
  O  O72  1  0.48274800  0.05919800  0.34419300  1
  O  O73  1  0.98274800  0.94080200  0.15580700  1
  O  O74  1  0.27578600  0.97078500  0.67610500  1
  O  O75  1  0.77578600  0.02921500  0.82389500  1
  O  O76  1  0.72421400  0.02921500  0.32389500  1
  O  O77  1  0.22421400  0.97078500  0.17610500  1
  O  O78  1  0.27734300  0.71860500  0.65698900  1
  O  O79  1  0.77734300  0.28139500  0.84301100  1
  O  O80  1  0.72265700  0.28139500  0.34301100  1
  O  O81  1  0.22265700  0.71860500  0.15698900  1
  O  O82  1  0.76343200  0.94862800  0.76333300  1
  O  O83  1  0.26343200  0.05137200  0.73666700  1
  O  O84  1  0.23656800  0.05137200  0.23666700  1
  O  O85  1  0.73656800  0.94862800  0.26333300  1
  O  O86  1  0.92828500  0.48468400  0.67727700  1
  O  O87  1  0.42828500  0.51531600  0.82272300  1
  O  O88  1  0.07171500  0.51531600  0.32272300  1
  O  O89  1  0.57171500  0.48468400  0.17727700  1
