# generated using pymatgen
data_BaV13O18
_symmetry_space_group_name_H-M   'P 1'
_cell_length_a   7.90597082
_cell_length_b   8.01072385
_cell_length_c   8.12071435
_cell_angle_alpha   112.59034550
_cell_angle_beta   109.51473064
_cell_angle_gamma   110.92714466
_symmetry_Int_Tables_number   1
_chemical_formula_structural   BaV13O18
_chemical_formula_sum   'Ba1 V13 O18'
_cell_volume   371.44180516
_cell_formula_units_Z   1
loop_
 _symmetry_equiv_pos_site_id
 _symmetry_equiv_pos_as_xyz
  1  'x, y, z'
loop_
 _atom_site_type_symbol
 _atom_site_label
 _atom_site_symmetry_multiplicity
 _atom_site_fract_x
 _atom_site_fract_y
 _atom_site_fract_z
 _atom_site_occupancy
  Ba  Ba0  1  0.99985800  0.99576600  0.99652600  1
  V  V1  1  0.35410500  0.76806400  0.39822000  1
  V  V2  1  0.75804100  0.39405800  0.34139100  1
  V  V3  1  0.40262000  0.34400300  0.76570500  1
  V  V4  1  0.64746100  0.23102100  0.60352800  1
  V  V5  1  0.23247700  0.60035000  0.65380900  1
  V  V6  1  0.59818500  0.65776700  0.23585400  1
  V  V7  1  0.11548900  0.43147900  0.92017100  1
  V  V8  1  0.43443400  0.92694300  0.12317800  1
  V  V9  1  0.92759200  0.12703600  0.43093000  1
  V  V10  1  0.88569500  0.57059100  0.08115300  1
  V  V11  1  0.56718300  0.07586700  0.87740300  1
  V  V12  1  0.07771500  0.87885200  0.57193900  1
  V  V13  1  0.49924200  0.49848400  0.49914300  1
  O  O14  1  0.05916300  0.60751300  0.38622900  1
  O  O15  1  0.60319000  0.38521400  0.05946000  1
  O  O16  1  0.38307500  0.05110900  0.60968400  1
  O  O17  1  0.93327700  0.39029900  0.61354300  1
  O  O18  1  0.39546400  0.62115600  0.94598700  1
  O  O19  1  0.62229900  0.94956000  0.39172600  1
  O  O20  1  0.17493800  0.73605100  0.11434100  1
  O  O21  1  0.72290500  0.09950600  0.15441900  1
  O  O22  1  0.10105800  0.16200300  0.72026300  1
  O  O23  1  0.82970900  0.26340500  0.88600500  1
  O  O24  1  0.27585100  0.90314200  0.84164200  1
  O  O25  1  0.89796900  0.84144200  0.28701600  1
  O  O26  1  0.77779600  0.68185200  0.51137400  1
  O  O27  1  0.68339600  0.51564300  0.77954800  1
  O  O28  1  0.47978500  0.21190200  0.32703000  1
  O  O29  1  0.32263800  0.48037300  0.21252300  1
  O  O30  1  0.21996100  0.31523200  0.48451200  1
  O  O31  1  0.51743300  0.78432000  0.67575000  1
