# generated using pymatgen
data_Mn3Nb2Cr3O16
_symmetry_space_group_name_H-M   'P 1'
_cell_length_a   5.85869858
_cell_length_b   5.85869858
_cell_length_c   9.31109075
_cell_angle_alpha   89.60158811
_cell_angle_beta   89.60158811
_cell_angle_gamma   59.86924655
_symmetry_Int_Tables_number   1
_chemical_formula_structural   Mn3Nb2Cr3O16
_chemical_formula_sum   'Mn3 Nb2 Cr3 O16'
_cell_volume   276.40494072
_cell_formula_units_Z   1
loop_
 _symmetry_equiv_pos_site_id
 _symmetry_equiv_pos_as_xyz
  1  'x, y, z'
loop_
 _atom_site_type_symbol
 _atom_site_label
 _atom_site_symmetry_multiplicity
 _atom_site_fract_x
 _atom_site_fract_y
 _atom_site_fract_z
 _atom_site_occupancy
  Mn  Mn0  1  0.82960700  0.82960700  0.21260100  1
  Mn  Mn1  1  0.16770700  0.66198700  0.71482400  1
  Mn  Mn2  1  0.66198700  0.16770700  0.71482400  1
  Nb  Nb3  1  0.66554200  0.66554200  0.49847500  1
  Nb  Nb4  1  0.33148100  0.33148100  0.99854800  1
  Cr  Cr5  1  0.33985900  0.82796300  0.21707600  1
  Cr  Cr6  1  0.82796300  0.33985900  0.21707600  1
  Cr  Cr7  1  0.16832900  0.16832900  0.71493900  1
  O  O8  1  0.33139700  0.83268700  0.60010500  1
  O  O9  1  0.52117100  0.52117100  0.33813100  1
  O  O10  1  0.66877300  0.66877300  0.10759200  1
  O  O11  1  0.99989700  0.99989700  0.30192700  1
  O  O12  1  0.99621800  0.99621800  0.81017600  1
  O  O13  1  0.83268700  0.33139700  0.60010500  1
  O  O14  1  0.52498300  0.95912700  0.33231700  1
  O  O15  1  0.95912700  0.52498300  0.33231700  1
  O  O16  1  0.16643000  0.16643000  0.09890200  1
  O  O17  1  0.83405100  0.83405100  0.60115500  1
  O  O18  1  0.04201700  0.48502600  0.83260000  1
  O  O19  1  0.48502600  0.04201700  0.83260000  1
  O  O20  1  0.33703300  0.33703300  0.60912900  1
  O  O21  1  0.16586000  0.66475700  0.10062600  1
  O  O22  1  0.48059700  0.48059700  0.82969700  1
  O  O23  1  0.66475700  0.16586000  0.10062600  1
