# generated using pymatgen
data_BaNa2O2
_symmetry_space_group_name_H-M   'P 1'
_cell_length_a   6.97294700
_cell_length_b   6.67246900
_cell_length_c   8.42117641
_cell_angle_alpha   81.86310163
_cell_angle_beta   90.00000000
_cell_angle_gamma   90.00000000
_symmetry_Int_Tables_number   1
_chemical_formula_structural   BaNa2O2
_chemical_formula_sum   'Ba4 Na8 O8'
_cell_volume   387.86569485
_cell_formula_units_Z   4
loop_
 _symmetry_equiv_pos_site_id
 _symmetry_equiv_pos_as_xyz
  1  'x, y, z'
loop_
 _atom_site_type_symbol
 _atom_site_label
 _atom_site_symmetry_multiplicity
 _atom_site_fract_x
 _atom_site_fract_y
 _atom_site_fract_z
 _atom_site_occupancy
  Ba  Ba0  1  0.40840100  0.09208900  0.69675200  1
  Ba  Ba1  1  0.09159900  0.59208900  0.69675200  1
  Ba  Ba2  1  0.90840100  0.40791100  0.30324800  1
  Ba  Ba3  1  0.59159900  0.90791100  0.30324800  1
  Na  Na4  1  0.35847800  0.35251600  0.05164100  1
  Na  Na5  1  0.14152200  0.85251600  0.05164100  1
  Na  Na6  1  0.86723400  0.04161400  0.62101200  1
  Na  Na7  1  0.63276600  0.54161400  0.62101200  1
  Na  Na8  1  0.36723400  0.45838600  0.37898800  1
  Na  Na9  1  0.13276600  0.95838600  0.37898800  1
  Na  Na10  1  0.85847800  0.14748400  0.94835900  1
  Na  Na11  1  0.64152200  0.64748400  0.94835900  1
  O  O12  1  0.59470800  0.33336300  0.86315800  1
  O  O13  1  0.90529200  0.83336300  0.86315800  1
  O  O14  1  0.12088700  0.26616400  0.54360700  1
  O  O15  1  0.37911300  0.76616400  0.54360700  1
  O  O16  1  0.62088700  0.23383600  0.45639300  1
  O  O17  1  0.87911300  0.73383600  0.45639300  1
  O  O18  1  0.09470800  0.16663700  0.13684200  1
  O  O19  1  0.40529200  0.66663700  0.13684200  1
