# generated using pymatgen
data_K2DyPCO7
_symmetry_space_group_name_H-M   'P 1'
_cell_length_a   7.14589700
_cell_length_b   5.84144100
_cell_length_c   9.99244555
_cell_angle_alpha   88.06523485
_cell_angle_beta   90.00000000
_cell_angle_gamma   90.00000000
_symmetry_Int_Tables_number   1
_chemical_formula_structural   K2DyPCO7
_chemical_formula_sum   'K4 Dy2 P2 C2 O14'
_cell_volume   416.87022949
_cell_formula_units_Z   2
loop_
 _symmetry_equiv_pos_site_id
 _symmetry_equiv_pos_as_xyz
  1  'x, y, z'
loop_
 _atom_site_type_symbol
 _atom_site_label
 _atom_site_symmetry_multiplicity
 _atom_site_fract_x
 _atom_site_fract_y
 _atom_site_fract_z
 _atom_site_occupancy
  K  K0  1  0.48860300  0.24706500  0.77875300  1
  K  K1  1  0.01139700  0.24706500  0.77875300  1
  K  K2  1  0.51139700  0.75293500  0.22124700  1
  K  K3  1  0.98860300  0.75293500  0.22124700  1
  Dy  Dy4  1  0.75000000  0.78055100  0.63199400  1
  Dy  Dy5  1  0.25000000  0.21944900  0.36800600  1
  P  P6  1  0.25000000  0.71077300  0.56908000  1
  P  P7  1  0.75000000  0.28922700  0.43092000  1
  C  C8  1  0.75000000  0.72896900  0.90671200  1
  C  C9  1  0.25000000  0.27103100  0.09328800  1
  O  O10  1  0.25000000  0.30161100  0.96844200  1
  O  O11  1  0.75000000  0.93330600  0.84603400  1
  O  O12  1  0.75000000  0.55564600  0.82343900  1
  O  O13  1  0.07028300  0.77013400  0.64762300  1
  O  O14  1  0.42971700  0.77013400  0.64762300  1
  O  O15  1  0.75000000  0.15207200  0.56866700  1
  O  O16  1  0.25000000  0.44835300  0.54157500  1
  O  O17  1  0.75000000  0.55164700  0.45842500  1
  O  O18  1  0.25000000  0.84792800  0.43133300  1
  O  O19  1  0.57028300  0.22986600  0.35237700  1
  O  O20  1  0.92971700  0.22986600  0.35237700  1
  O  O21  1  0.25000000  0.44435400  0.17656100  1
  O  O22  1  0.25000000  0.06669400  0.15396600  1
  O  O23  1  0.75000000  0.69838900  0.03155800  1
