# generated using pymatgen
data_VGa2O5
_symmetry_space_group_name_H-M   'P 1'
_cell_length_a   5.05066525
_cell_length_b   10.02677997
_cell_length_c   6.98867962
_cell_angle_alpha   110.23511492
_cell_angle_beta   90.02866370
_cell_angle_gamma   89.97033421
_symmetry_Int_Tables_number   1
_chemical_formula_structural   VGa2O5
_chemical_formula_sum   'V4 Ga8 O20'
_cell_volume   332.07650027
_cell_formula_units_Z   4
loop_
 _symmetry_equiv_pos_site_id
 _symmetry_equiv_pos_as_xyz
  1  'x, y, z'
loop_
 _atom_site_type_symbol
 _atom_site_label
 _atom_site_symmetry_multiplicity
 _atom_site_fract_x
 _atom_site_fract_y
 _atom_site_fract_z
 _atom_site_occupancy
  V  V0  1  0.49981100  0.49990000  0.00032800  1
  V  V1  1  0.49968400  0.50022700  0.50024100  1
  V  V2  1  0.99995100  0.99987700  0.50031800  1
  V  V3  1  0.99976400  0.00017800  0.00024300  1
  Ga  Ga4  1  0.00316800  0.36377900  0.09207200  1
  Ga  Ga5  1  0.50315800  0.86374600  0.59214500  1
  Ga  Ga6  1  0.99706100  0.36408800  0.59254700  1
  Ga  Ga7  1  0.49707400  0.86400100  0.09242000  1
  Ga  Ga8  1  0.50300000  0.13612100  0.90841400  1
  Ga  Ga9  1  0.00301800  0.63606800  0.40829700  1
  Ga  Ga10  1  0.49721900  0.13647500  0.40856600  1
  Ga  Ga11  1  0.99719200  0.63643600  0.90864200  1
  O  O12  1  0.20145400  0.00028800  0.75080300  1
  O  O13  1  0.70139100  0.50027500  0.25104900  1
  O  O14  1  0.29752300  0.49992200  0.75015100  1
  O  O15  1  0.79758000  0.99993200  0.25034000  1
  O  O16  1  0.16589100  0.41170400  0.36591200  1
  O  O17  1  0.66582800  0.91164100  0.86580100  1
  O  O18  1  0.83392400  0.41143000  0.86669100  1
  O  O19  1  0.33354500  0.91125200  0.36672600  1
  O  O20  1  0.66581800  0.08852500  0.63454800  1
  O  O21  1  0.16561800  0.58856300  0.13462900  1
  O  O22  1  0.33472800  0.08808400  0.13451500  1
  O  O23  1  0.83466300  0.58792900  0.63437900  1
  O  O24  1  0.35087400  0.31867300  0.96583600  1
  O  O25  1  0.85097400  0.81875600  0.46590400  1
  O  O26  1  0.85024600  0.18148500  0.03600200  1
  O  O27  1  0.35012800  0.68148200  0.53622900  1
  O  O28  1  0.64883600  0.31916200  0.46635100  1
  O  O29  1  0.14884400  0.81912600  0.96637500  1
  O  O30  1  0.14856200  0.18097300  0.53359800  1
  O  O31  1  0.64867000  0.68107700  0.03368200  1
