# generated using pymatgen
data_Fe(AsO2)2
_symmetry_space_group_name_H-M   'P 1'
_cell_length_a   8.62906500
_cell_length_b   8.62906500
_cell_length_c   5.76231000
_cell_angle_alpha   90.00000000
_cell_angle_beta   90.00000000
_cell_angle_gamma   90.00000000
_symmetry_Int_Tables_number   1
_chemical_formula_structural   Fe(AsO2)2
_chemical_formula_sum   'Fe4 As8 O16'
_cell_volume   429.06599794
_cell_formula_units_Z   4
loop_
 _symmetry_equiv_pos_site_id
 _symmetry_equiv_pos_as_xyz
  1  'x, y, z'
loop_
 _atom_site_type_symbol
 _atom_site_label
 _atom_site_symmetry_multiplicity
 _atom_site_fract_x
 _atom_site_fract_y
 _atom_site_fract_z
 _atom_site_occupancy
  Fe  Fe0  1  0.50000000  0.00000000  0.25000000  1
  Fe  Fe1  1  0.50000000  0.00000000  0.75000000  1
  Fe  Fe2  1  0.00000000  0.50000000  0.25000000  1
  Fe  Fe3  1  0.00000000  0.50000000  0.75000000  1
  As  As4  1  0.81006500  0.17528900  0.50000000  1
  As  As5  1  0.17528900  0.18993500  0.00000000  1
  As  As6  1  0.67528900  0.31006500  0.00000000  1
  As  As7  1  0.31006500  0.32471100  0.50000000  1
  As  As8  1  0.68993500  0.67528900  0.50000000  1
  As  As9  1  0.32471100  0.68993500  0.00000000  1
  As  As10  1  0.82471100  0.81006500  0.00000000  1
  As  As11  1  0.18993500  0.82471100  0.50000000  1
  O  O12  1  0.64193100  0.10987200  0.00000000  1
  O  O13  1  0.60987200  0.14193100  0.50000000  1
  O  O14  1  0.31717200  0.18282800  0.25000000  1
  O  O15  1  0.31717200  0.18282800  0.75000000  1
  O  O16  1  0.81717200  0.31717200  0.25000000  1
  O  O17  1  0.81717200  0.31717200  0.75000000  1
  O  O18  1  0.10987200  0.35806900  0.50000000  1
  O  O19  1  0.14193100  0.39012800  0.00000000  1
  O  O20  1  0.85806900  0.60987200  0.00000000  1
  O  O21  1  0.89012800  0.64193100  0.50000000  1
  O  O22  1  0.18282800  0.68282800  0.25000000  1
  O  O23  1  0.18282800  0.68282800  0.75000000  1
  O  O24  1  0.68282800  0.81717200  0.25000000  1
  O  O25  1  0.68282800  0.81717200  0.75000000  1
  O  O26  1  0.39012800  0.85806900  0.50000000  1
  O  O27  1  0.35806900  0.89012800  0.00000000  1
