# generated using pymatgen
data_Co3OF5
_symmetry_space_group_name_H-M   'P 1'
_cell_length_a   4.69251800
_cell_length_b   5.69916637
_cell_length_c   7.84135238
_cell_angle_alpha   91.46677155
_cell_angle_beta   90.33302730
_cell_angle_gamma   90.36614592
_symmetry_Int_Tables_number   1
_chemical_formula_structural   Co3OF5
_chemical_formula_sum   'Co6 O2 F10'
_cell_volume   209.62800440
_cell_formula_units_Z   2
loop_
 _symmetry_equiv_pos_site_id
 _symmetry_equiv_pos_as_xyz
  1  'x, y, z'
loop_
 _atom_site_type_symbol
 _atom_site_label
 _atom_site_symmetry_multiplicity
 _atom_site_fract_x
 _atom_site_fract_y
 _atom_site_fract_z
 _atom_site_occupancy
  Co  Co0  1  0.49095500  0.51383400  0.00135600  1
  Co  Co1  1  0.46583700  0.82446300  0.32957500  1
  Co  Co2  1  0.50933600  0.16879900  0.67008400  1
  Co  Co3  1  0.01805300  0.67764500  0.65008200  1
  Co  Co4  1  0.01461800  0.34884500  0.33213500  1
  Co  Co5  1  0.01813500  0.97933500  0.01352800  1
  O  O6  1  0.20613200  0.63867300  0.42527200  1
  O  O7  1  0.29417200  0.79471000  0.11074800  1
  F  F8  1  0.19564500  0.97122900  0.77223000  1
  F  F9  1  0.19512900  0.28852800  0.09747000  1
  F  F10  1  0.30655500  0.46744200  0.76973500  1
  F  F11  1  0.29939100  0.13444600  0.43894900  1
  F  F12  1  0.68111000  0.86343200  0.55574300  1
  F  F13  1  0.69804800  0.52916500  0.22778400  1
  F  F14  1  0.70642300  0.19707400  0.90835000  1
  F  F15  1  0.78297300  0.02434200  0.23706800  1
  F  F16  1  0.80528300  0.70712700  0.89303900  1
  F  F17  1  0.81220400  0.37091500  0.56685300  1
