# generated using pymatgen
data_V3Sb(PO4)6
_symmetry_space_group_name_H-M   'P 1'
_cell_length_a   8.77827687
_cell_length_b   8.77827687
_cell_length_c   8.77827634
_cell_angle_alpha   58.48146507
_cell_angle_beta   58.48146507
_cell_angle_gamma   58.48147021
_symmetry_Int_Tables_number   1
_chemical_formula_structural   V3Sb(PO4)6
_chemical_formula_sum   'V3 Sb1 P6 O24'
_cell_volume   461.69640845
_cell_formula_units_Z   1
loop_
 _symmetry_equiv_pos_site_id
 _symmetry_equiv_pos_as_xyz
  1  'x, y, z'
loop_
 _atom_site_type_symbol
 _atom_site_label
 _atom_site_symmetry_multiplicity
 _atom_site_fract_x
 _atom_site_fract_y
 _atom_site_fract_z
 _atom_site_occupancy
  V  V0  1  0.14195300  0.14195300  0.14195300  1
  V  V1  1  0.35850600  0.35850600  0.35850600  1
  V  V2  1  0.64072300  0.64072300  0.64072300  1
  Sb  Sb3  1  0.85750200  0.85750200  0.85750200  1
  P  P4  1  0.03346800  0.46088200  0.75051800  1
  P  P5  1  0.46088200  0.75051800  0.03346800  1
  P  P6  1  0.75051800  0.03346800  0.46088200  1
  P  P7  1  0.25266300  0.96617900  0.53146900  1
  P  P8  1  0.53146900  0.25266300  0.96617900  1
  P  P9  1  0.96617900  0.53146900  0.25266300  1
  O  O10  1  0.14025600  0.50049500  0.28311200  1
  O  O11  1  0.28311200  0.14025600  0.50049500  1
  O  O12  1  0.06143900  0.28375000  0.92476200  1
  O  O13  1  0.50049500  0.28311200  0.14025600  1
  O  O14  1  0.21636000  0.43141400  0.57447700  1
  O  O15  1  0.02015400  0.63650300  0.76821000  1
  O  O16  1  0.28375000  0.92476200  0.06143900  1
  O  O17  1  0.43141400  0.57447700  0.21636000  1
  O  O18  1  0.57447700  0.21636000  0.43141400  1
  O  O19  1  0.21731300  0.99421100  0.36417900  1
  O  O20  1  0.07685500  0.94535200  0.71858800  1
  O  O21  1  0.36417900  0.21731300  0.99421100  1
  O  O22  1  0.63650300  0.76821000  0.02015400  1
  O  O23  1  0.92476200  0.06143900  0.28375000  1
  O  O24  1  0.76821000  0.02015400  0.63650300  1
  O  O25  1  0.42481300  0.78612100  0.55938600  1
  O  O26  1  0.55938600  0.42481300  0.78612100  1
  O  O27  1  0.71858800  0.07685500  0.94535200  1
  O  O28  1  0.99421100  0.36417900  0.21731300  1
  O  O29  1  0.78612100  0.55938600  0.42481300  1
  O  O30  1  0.49498300  0.72347500  0.85992600  1
  O  O31  1  0.94535200  0.71858800  0.07685500  1
  O  O32  1  0.72347500  0.85992600  0.49498300  1
  O  O33  1  0.85992600  0.49498300  0.72347500  1
