# generated using pymatgen
data_CaY2O4
_symmetry_space_group_name_H-M   'P 1'
_cell_length_a   5.78553526
_cell_length_b   5.78553526
_cell_length_c   10.99972300
_cell_angle_alpha   90.00000000
_cell_angle_beta   90.00000000
_cell_angle_gamma   146.54113175
_symmetry_Int_Tables_number   1
_chemical_formula_structural   CaY2O4
_chemical_formula_sum   'Ca2 Y4 O8'
_cell_volume   202.99574232
_cell_formula_units_Z   2
loop_
 _symmetry_equiv_pos_site_id
 _symmetry_equiv_pos_as_xyz
  1  'x, y, z'
loop_
 _atom_site_type_symbol
 _atom_site_label
 _atom_site_symmetry_multiplicity
 _atom_site_fract_x
 _atom_site_fract_y
 _atom_site_fract_z
 _atom_site_occupancy
  Ca  Ca0  1  0.88939800  0.11060200  0.25000000  1
  Ca  Ca1  1  0.11060200  0.88939800  0.75000000  1
  Y  Y2  1  0.63259700  0.36740300  0.42555900  1
  Y  Y3  1  0.36740300  0.63259700  0.57444100  1
  Y  Y4  1  0.63259700  0.36740300  0.07444100  1
  Y  Y5  1  0.36740300  0.63259700  0.92555900  1
  O  O6  1  0.00000000  0.00000000  0.00000000  1
  O  O7  1  0.00000000  0.00000000  0.50000000  1
  O  O8  1  0.73300400  0.26699600  0.61331200  1
  O  O9  1  0.53288100  0.46711900  0.25000000  1
  O  O10  1  0.46711900  0.53288100  0.75000000  1
  O  O11  1  0.26699600  0.73300400  0.38668800  1
  O  O12  1  0.73300400  0.26699600  0.88668800  1
  O  O13  1  0.26699600  0.73300400  0.11331200  1
