# generated using pymatgen
data_Fe3Co5O16
_symmetry_space_group_name_H-M   'P 1'
_cell_length_a   2.86798600
_cell_length_b   5.24069300
_cell_length_c   19.15952144
_cell_angle_alpha   84.92028709
_cell_angle_beta   90.00000000
_cell_angle_gamma   90.00000000
_symmetry_Int_Tables_number   1
_chemical_formula_structural   Fe3Co5O16
_chemical_formula_sum   'Fe3 Co5 O16'
_cell_volume   286.84107682
_cell_formula_units_Z   1
loop_
 _symmetry_equiv_pos_site_id
 _symmetry_equiv_pos_as_xyz
  1  'x, y, z'
loop_
 _atom_site_type_symbol
 _atom_site_label
 _atom_site_symmetry_multiplicity
 _atom_site_fract_x
 _atom_site_fract_y
 _atom_site_fract_z
 _atom_site_occupancy
  Fe  Fe0  1  0.00000000  0.14214900  0.12966100  1
  Fe  Fe1  1  0.50000000  0.00000000  0.00000000  1
  Fe  Fe2  1  0.00000000  0.85785100  0.87033900  1
  Co  Co3  1  0.00000000  0.62432500  0.62242500  1
  Co  Co4  1  0.50000000  0.50000000  0.50000000  1
  Co  Co5  1  0.00000000  0.37567500  0.37757500  1
  Co  Co6  1  0.50000000  0.26166400  0.25539300  1
  Co  Co7  1  0.50000000  0.73833600  0.74460700  1
  O  O8  1  0.00000000  0.87697500  0.68785300  1
  O  O9  1  0.50000000  0.49176800  0.67956200  1
  O  O10  1  0.00000000  0.37010100  0.55759200  1
  O  O11  1  0.50000000  0.75416900  0.56495600  1
  O  O12  1  0.00000000  0.62989900  0.44240800  1
  O  O13  1  0.50000000  0.24583100  0.43504400  1
  O  O14  1  0.00000000  0.12302500  0.31214700  1
  O  O15  1  0.50000000  0.50823200  0.32043800  1
  O  O16  1  0.00000000  0.40322500  0.20157200  1
  O  O17  1  0.50000000  0.00275600  0.18912600  1
  O  O18  1  0.00000000  0.85610500  0.05669100  1
  O  O19  1  0.50000000  0.27841300  0.07225800  1
  O  O20  1  0.00000000  0.14389500  0.94330900  1
  O  O21  1  0.50000000  0.72158700  0.92774200  1
  O  O22  1  0.00000000  0.59677500  0.79842800  1
  O  O23  1  0.50000000  0.99724400  0.81087400  1
