# generated using pymatgen
data_TaAsO4
_symmetry_space_group_name_H-M   'P 1'
_cell_length_a   7.56914925
_cell_length_b   7.56914925
_cell_length_c   5.67800100
_cell_angle_alpha   90.00000000
_cell_angle_beta   90.00000000
_cell_angle_gamma   149.82561377
_symmetry_Int_Tables_number   1
_chemical_formula_structural   TaAsO4
_chemical_formula_sum   'Ta2 As2 O8'
_cell_volume   163.50877184
_cell_formula_units_Z   2
loop_
 _symmetry_equiv_pos_site_id
 _symmetry_equiv_pos_as_xyz
  1  'x, y, z'
loop_
 _atom_site_type_symbol
 _atom_site_label
 _atom_site_symmetry_multiplicity
 _atom_site_fract_x
 _atom_site_fract_y
 _atom_site_fract_z
 _atom_site_occupancy
  Ta  Ta0  1  0.59099200  0.40900800  0.69923900  1
  Ta  Ta1  1  0.40900800  0.59099200  0.19923900  1
  As  As2  1  0.82107500  0.17892500  0.80900400  1
  As  As3  1  0.17892500  0.82107500  0.30900400  1
  O  O4  1  0.89225500  0.10774500  0.12325800  1
  O  O5  1  0.70363000  0.29637000  0.89707400  1
  O  O6  1  0.67329100  0.32670900  0.41026000  1
  O  O7  1  0.51742700  0.48257300  0.97636400  1
  O  O8  1  0.48257300  0.51742700  0.47636400  1
  O  O9  1  0.32670900  0.67329100  0.91026000  1
  O  O10  1  0.29637000  0.70363000  0.39707400  1
  O  O11  1  0.10774500  0.89225500  0.62325800  1
