# generated using pymatgen
data_Cr2PO5
_symmetry_space_group_name_H-M   'P 1'
_cell_length_a   5.07762631
_cell_length_b   6.40245583
_cell_length_c   6.43766603
_cell_angle_alpha   108.75107114
_cell_angle_beta   105.61304981
_cell_angle_gamma   99.45847595
_symmetry_Int_Tables_number   1
_chemical_formula_structural   Cr2PO5
_chemical_formula_sum   'Cr4 P2 O10'
_cell_volume   183.50139403
_cell_formula_units_Z   2
loop_
 _symmetry_equiv_pos_site_id
 _symmetry_equiv_pos_as_xyz
  1  'x, y, z'
loop_
 _atom_site_type_symbol
 _atom_site_label
 _atom_site_symmetry_multiplicity
 _atom_site_fract_x
 _atom_site_fract_y
 _atom_site_fract_z
 _atom_site_occupancy
  Cr  Cr0  1  0.37436900  0.23910600  0.94541100  1
  Cr  Cr1  1  0.62563100  0.76089200  0.05458800  1
  Cr  Cr2  1  0.16383100  0.62763100  0.25268300  1
  Cr  Cr3  1  0.83617100  0.37236900  0.74731700  1
  P  P4  1  0.16621100  0.18462000  0.38833900  1
  P  P5  1  0.83378800  0.81538000  0.61166100  1
  O  O6  1  0.08723800  0.74283400  0.55651100  1
  O  O7  1  0.91276100  0.25716700  0.44348800  1
  O  O8  1  0.22646900  0.55353100  0.95193000  1
  O  O9  1  0.77353200  0.44646800  0.04807000  1
  O  O10  1  0.06384600  0.92590900  0.21579500  1
  O  O11  1  0.93615200  0.07409200  0.78420500  1
  O  O12  1  0.40869500  0.20798200  0.61085600  1
  O  O13  1  0.59130500  0.79201800  0.38914500  1
  O  O14  1  0.28618400  0.33241400  0.26546200  1
  O  O15  1  0.71381800  0.66758600  0.73453800  1
