# generated using pymatgen
data_La4MnO8
_symmetry_space_group_name_H-M   'P 1'
_cell_length_a   6.90360561
_cell_length_b   11.61467643
_cell_length_c   10.81613001
_cell_angle_alpha   62.24980165
_cell_angle_beta   90.00354030
_cell_angle_gamma   76.51299470
_symmetry_Int_Tables_number   1
_chemical_formula_structural   La4MnO8
_chemical_formula_sum   'La16 Mn4 O32'
_cell_volume   740.38411111
_cell_formula_units_Z   4
loop_
 _symmetry_equiv_pos_site_id
 _symmetry_equiv_pos_as_xyz
  1  'x, y, z'
loop_
 _atom_site_type_symbol
 _atom_site_label
 _atom_site_symmetry_multiplicity
 _atom_site_fract_x
 _atom_site_fract_y
 _atom_site_fract_z
 _atom_site_occupancy
  La  La0  1  0.20241400  0.06737500  0.21629100  1
  La  La1  1  0.20240400  0.06738500  0.71630200  1
  La  La2  1  0.70240300  0.56738200  0.46630000  1
  La  La3  1  0.70240000  0.56738300  0.96629900  1
  La  La4  1  0.79759000  0.93261500  0.28369400  1
  La  La5  1  0.79759200  0.93261100  0.78370200  1
  La  La6  1  0.29759300  0.43260600  0.53370500  1
  La  La7  1  0.29760300  0.43260400  0.03370900  1
  La  La8  1  0.45027200  0.81674600  0.09158400  1
  La  La9  1  0.45028400  0.81674700  0.59158800  1
  La  La10  1  0.95029900  0.31678100  0.34157000  1
  La  La11  1  0.95030300  0.31677200  0.84157700  1
  La  La12  1  0.54968800  0.18322500  0.90841800  1
  La  La13  1  0.54970400  0.18323100  0.40842400  1
  La  La14  1  0.04971600  0.68325500  0.15841100  1
  La  La15  1  0.04972100  0.68325600  0.65839400  1
  Mn  Mn16  1  0.99996300  0.00001900  0.50002700  1
  Mn  Mn17  1  0.50004400  0.49993500  0.75006200  1
  Mn  Mn18  1  0.99998700  0.99998800  0.00001300  1
  Mn  Mn19  1  0.50005400  0.49996300  0.25003700  1
  O  O20  1  0.24362200  0.08110600  0.95935700  1
  O  O21  1  0.24362100  0.08110700  0.45935800  1
  O  O22  1  0.74367200  0.58109800  0.20937300  1
  O  O23  1  0.74367000  0.58109600  0.70937600  1
  O  O24  1  0.75633800  0.91896900  0.04059900  1
  O  O25  1  0.75634800  0.91891000  0.54063100  1
  O  O26  1  0.25637300  0.41889700  0.29063700  1
  O  O27  1  0.25637500  0.41889700  0.79063800  1
  O  O28  1  0.53363800  0.84452600  0.32781900  1
  O  O29  1  0.53363700  0.84452500  0.82782300  1
  O  O30  1  0.03364200  0.34453000  0.57781900  1
  O  O31  1  0.03364200  0.34452900  0.07782000  1
  O  O32  1  0.46634800  0.15547700  0.17217300  1
  O  O33  1  0.46634800  0.15547800  0.67217400  1
  O  O34  1  0.96635200  0.65548200  0.42217100  1
  O  O35  1  0.96635600  0.65548200  0.92217100  1
  O  O36  1  0.62477000  0.37528700  0.93165600  1
  O  O37  1  0.62477100  0.37528800  0.43165500  1
  O  O38  1  0.12475100  0.87529700  0.18163900  1
  O  O39  1  0.12474600  0.87529900  0.68164000  1
  O  O40  1  0.62461700  0.37537700  0.19314300  1
  O  O41  1  0.62461600  0.37537800  0.69314300  1
  O  O42  1  0.12459200  0.87539100  0.44314700  1
  O  O43  1  0.12459400  0.87538700  0.94314700  1
  O  O44  1  0.37540100  0.62461400  0.30684500  1
  O  O45  1  0.37540100  0.62461200  0.80684600  1
  O  O46  1  0.87537800  0.12462400  0.55685200  1
  O  O47  1  0.87538200  0.12462400  0.05685100  1
  O  O48  1  0.37525000  0.62470100  0.56835700  1
  O  O49  1  0.37526400  0.62471000  0.06834500  1
  O  O50  1  0.87522400  0.12471300  0.81833800  1
  O  O51  1  0.87522600  0.12471300  0.31833900  1
