# generated using pymatgen
data_Lu3AlO6
_symmetry_space_group_name_H-M   'P 1'
_cell_length_a   6.29869724
_cell_length_b   6.29869724
_cell_length_c   6.29869782
_cell_angle_alpha   92.01202641
_cell_angle_beta   92.01202641
_cell_angle_gamma   92.01203186
_symmetry_Int_Tables_number   1
_chemical_formula_structural   Lu3AlO6
_chemical_formula_sum   'Lu6 Al2 O12'
_cell_volume   249.41862330
_cell_formula_units_Z   2
loop_
 _symmetry_equiv_pos_site_id
 _symmetry_equiv_pos_as_xyz
  1  'x, y, z'
loop_
 _atom_site_type_symbol
 _atom_site_label
 _atom_site_symmetry_multiplicity
 _atom_site_fract_x
 _atom_site_fract_y
 _atom_site_fract_z
 _atom_site_occupancy
  Lu  Lu0  1  0.74639800  0.93045200  0.43753300  1
  Lu  Lu1  1  0.06954800  0.56246700  0.25360200  1
  Lu  Lu2  1  0.56246700  0.25360200  0.06954800  1
  Lu  Lu3  1  0.43753300  0.74639800  0.93045200  1
  Lu  Lu4  1  0.93045200  0.43753300  0.74639800  1
  Lu  Lu5  1  0.25360200  0.06954800  0.56246700  1
  Al  Al6  1  0.00000000  0.00000000  0.00000000  1
  Al  Al7  1  0.50000000  0.50000000  0.50000000  1
  O  O8  1  0.70372400  0.92983800  0.07616700  1
  O  O9  1  0.07016200  0.92383300  0.29627600  1
  O  O10  1  0.41460700  0.54194400  0.20490600  1
  O  O11  1  0.92383300  0.29627600  0.07016200  1
  O  O12  1  0.45805600  0.79509400  0.58539300  1
  O  O13  1  0.79509400  0.58539300  0.45805600  1
  O  O14  1  0.20490600  0.41460700  0.54194400  1
  O  O15  1  0.54194400  0.20490600  0.41460700  1
  O  O16  1  0.07616700  0.70372400  0.92983800  1
  O  O17  1  0.58539300  0.45805600  0.79509400  1
  O  O18  1  0.92983800  0.07616700  0.70372400  1
  O  O19  1  0.29627600  0.07016200  0.92383300  1
