# generated using pymatgen
data_NpCoS2(NO2)6
_symmetry_space_group_name_H-M   'P 1'
_cell_length_a   6.43139800
_cell_length_b   12.94857900
_cell_length_c   17.52274200
_cell_angle_alpha   90.00000000
_cell_angle_beta   90.00000000
_cell_angle_gamma   90.00000000
_symmetry_Int_Tables_number   1
_chemical_formula_structural   NpCoS2(NO2)6
_chemical_formula_sum   'Np4 Co4 S8 N24 O48'
_cell_volume   1459.24953507
_cell_formula_units_Z   4
loop_
 _symmetry_equiv_pos_site_id
 _symmetry_equiv_pos_as_xyz
  1  'x, y, z'
loop_
 _atom_site_type_symbol
 _atom_site_label
 _atom_site_symmetry_multiplicity
 _atom_site_fract_x
 _atom_site_fract_y
 _atom_site_fract_z
 _atom_site_occupancy
  Np  Np0  1  0.25000000  0.18317000  0.95078500  1
  Np  Np1  1  0.25000000  0.31683000  0.45078500  1
  Np  Np2  1  0.75000000  0.81683000  0.04921500  1
  Np  Np3  1  0.75000000  0.68317000  0.54921500  1
  Co  Co4  1  0.25000000  0.73145900  0.83089000  1
  Co  Co5  1  0.25000000  0.76854100  0.33089000  1
  Co  Co6  1  0.75000000  0.26854100  0.16911000  1
  Co  Co7  1  0.75000000  0.23145900  0.66911000  1
  S  S8  1  0.25000000  0.92454600  0.06522600  1
  S  S9  1  0.25000000  0.57545400  0.56522600  1
  S  S10  1  0.75000000  0.07545400  0.93477400  1
  S  S11  1  0.75000000  0.42454600  0.43477400  1
  S  S12  1  0.25000000  0.36273000  0.83916100  1
  S  S13  1  0.25000000  0.13727000  0.33916100  1
  S  S14  1  0.75000000  0.63727000  0.16083900  1
  S  S15  1  0.75000000  0.86273000  0.66083900  1
  N  N16  1  0.25000000  0.68709300  0.91308100  1
  N  N17  1  0.25000000  0.81290700  0.41308100  1
  N  N18  1  0.75000000  0.31290700  0.08691900  1
  N  N19  1  0.75000000  0.18709300  0.58691900  1
  N  N20  1  0.25000000  0.88582600  0.76023900  1
  N  N21  1  0.25000000  0.61417400  0.26023900  1
  N  N22  1  0.75000000  0.11417400  0.23976100  1
  N  N23  1  0.75000000  0.38582600  0.73976100  1
  N  N24  1  0.03932500  0.67233400  0.78509000  1
  N  N25  1  0.46067500  0.82766600  0.28509000  1
  N  N26  1  0.53932500  0.32766600  0.21491000  1
  N  N27  1  0.96067500  0.17233400  0.71491000  1
  N  N28  1  0.96067500  0.32766600  0.21491000  1
  N  N29  1  0.53932500  0.17233400  0.71491000  1
  N  N30  1  0.46067500  0.67233400  0.78509000  1
  N  N31  1  0.03932500  0.82766600  0.28509000  1
  N  N32  1  0.13295700  0.87424300  0.82344600  1
  N  N33  1  0.36704300  0.62575700  0.32344600  1
  N  N34  1  0.63295700  0.12575700  0.17655400  1
  N  N35  1  0.86704300  0.37424300  0.67655400  1
  N  N36  1  0.86704300  0.12575700  0.17655400  1
  N  N37  1  0.63295700  0.37424300  0.67655400  1
  N  N38  1  0.36704300  0.87424300  0.82344600  1
  N  N39  1  0.13295700  0.62575700  0.32344600  1
  O  O40  1  0.25000000  0.10292700  0.86891200  1
  O  O41  1  0.25000000  0.39707300  0.36891200  1
  O  O42  1  0.75000000  0.89707300  0.13108800  1
  O  O43  1  0.75000000  0.60292700  0.63108800  1
  O  O44  1  0.25000000  0.25792000  0.03578600  1
  O  O45  1  0.25000000  0.24208000  0.53578600  1
  O  O46  1  0.75000000  0.74208000  0.96421400  1
  O  O47  1  0.75000000  0.75792000  0.46421400  1
  O  O48  1  0.25000000  0.99599600  0.50796800  1
  O  O49  1  0.25000000  0.50400400  0.00796800  1
  O  O50  1  0.75000000  0.00400400  0.49203200  1
  O  O51  1  0.75000000  0.49599600  0.99203200  1
  O  O52  1  0.50000000  0.00000000  0.50000000  1
  O  O53  1  0.00000000  0.50000000  0.00000000  1
  O  O54  1  0.00000000  0.00000000  0.50000000  1
  O  O55  1  0.50000000  0.50000000  0.00000000  1
  O  O56  1  0.07130300  0.86335800  0.03085200  1
  O  O57  1  0.42869700  0.63664200  0.53085200  1
  O  O58  1  0.57130300  0.13664200  0.96914800  1
  O  O59  1  0.92869700  0.36335800  0.46914800  1
  O  O60  1  0.92869700  0.13664200  0.96914800  1
  O  O61  1  0.57130300  0.36335800  0.46914800  1
  O  O62  1  0.42869700  0.86335800  0.03085200  1
  O  O63  1  0.07130300  0.63664200  0.53085200  1
  O  O64  1  0.25000000  0.02795300  0.03130500  1
  O  O65  1  0.25000000  0.47204700  0.53130500  1
  O  O66  1  0.75000000  0.97204700  0.96869500  1
  O  O67  1  0.75000000  0.52795300  0.46869500  1
  O  O68  1  0.25000000  0.92221600  0.14702200  1
  O  O69  1  0.25000000  0.57778400  0.64702200  1
  O  O70  1  0.75000000  0.07778400  0.85297800  1
  O  O71  1  0.75000000  0.42221600  0.35297800  1
  O  O72  1  0.43172500  0.31060100  0.87979100  1
  O  O73  1  0.06827500  0.18939900  0.37979100  1
  O  O74  1  0.93172500  0.68939900  0.12020900  1
  O  O75  1  0.56827500  0.81060100  0.62020900  1
  O  O76  1  0.56827500  0.68939900  0.12020900  1
  O  O77  1  0.93172500  0.81060100  0.62020900  1
  O  O78  1  0.06827500  0.31060100  0.87979100  1
  O  O79  1  0.43172500  0.18939900  0.37979100  1
  O  O80  1  0.25000000  0.33831900  0.75764500  1
  O  O81  1  0.25000000  0.16168100  0.25764500  1
  O  O82  1  0.75000000  0.66168100  0.24235500  1
  O  O83  1  0.75000000  0.83831900  0.74235500  1
  O  O84  1  0.25000000  0.47443700  0.85006200  1
  O  O85  1  0.25000000  0.02556300  0.35006200  1
  O  O86  1  0.75000000  0.52556300  0.14993800  1
  O  O87  1  0.75000000  0.97443700  0.64993800  1
