# generated using pymatgen
data_Li2TiFe2O5
_symmetry_space_group_name_H-M   'P 1'
_cell_length_a   5.13843631
_cell_length_b   7.89531281
_cell_length_c   5.14288680
_cell_angle_alpha   70.94870284
_cell_angle_beta   109.63599340
_cell_angle_gamma   96.32818886
_symmetry_Int_Tables_number   1
_chemical_formula_structural   Li2TiFe2O5
_chemical_formula_sum   'Li4 Ti2 Fe4 O10'
_cell_volume   185.74765440
_cell_formula_units_Z   2
loop_
 _symmetry_equiv_pos_site_id
 _symmetry_equiv_pos_as_xyz
  1  'x, y, z'
loop_
 _atom_site_type_symbol
 _atom_site_label
 _atom_site_symmetry_multiplicity
 _atom_site_fract_x
 _atom_site_fract_y
 _atom_site_fract_z
 _atom_site_occupancy
  Li  Li0  1  0.49957600  0.19768200  0.90053900  1
  Li  Li1  1  0.49709700  0.00393700  0.49845400  1
  Li  Li2  1  0.00161100  0.19970400  0.40098100  1
  Li  Li3  1  0.00156700  0.59361300  0.20560400  1
  Ti  Ti4  1  0.49862200  0.38869200  0.30256500  1
  Ti  Ti5  1  0.99822300  0.01161200  0.99070900  1
  Fe  Fe6  1  0.50385900  0.60589200  0.69629800  1
  Fe  Fe7  1  0.99551100  0.39308100  0.80517900  1
  Fe  Fe8  1  0.99795600  0.79608400  0.60315500  1
  Fe  Fe9  1  0.50128500  0.80435900  0.10237400  1
  O  O10  1  0.75370800  0.81137400  0.84995000  1
  O  O11  1  0.25181400  0.59027700  0.96570600  1
  O  O12  1  0.74363900  0.19824900  0.64481300  1
  O  O13  1  0.74634600  0.58824400  0.43840000  1
  O  O14  1  0.24262900  0.81262500  0.33536300  1
  O  O15  1  0.23265600  0.00199900  0.76667100  1
  O  O16  1  0.27105400  0.40350400  0.53975400  1
  O  O17  1  0.77254300  0.99960900  0.23684000  1
  O  O18  1  0.73471700  0.39978600  0.06113700  1
  O  O19  1  0.25558800  0.19967700  0.15550800  1
