# generated using pymatgen
data_VGeO4
_symmetry_space_group_name_H-M   'P 1'
_cell_length_a   4.31709456
_cell_length_b   4.72726703
_cell_length_c   11.62875739
_cell_angle_alpha   90.00050570
_cell_angle_beta   89.98640073
_cell_angle_gamma   89.98734859
_symmetry_Int_Tables_number   1
_chemical_formula_structural   VGeO4
_chemical_formula_sum   'V4 Ge4 O16'
_cell_volume   237.32035182
_cell_formula_units_Z   4
loop_
 _symmetry_equiv_pos_site_id
 _symmetry_equiv_pos_as_xyz
  1  'x, y, z'
loop_
 _atom_site_type_symbol
 _atom_site_label
 _atom_site_symmetry_multiplicity
 _atom_site_fract_x
 _atom_site_fract_y
 _atom_site_fract_z
 _atom_site_occupancy
  V  V0  1  0.50060300  0.74992800  0.07090400  1
  V  V1  1  0.99949900  0.24993600  0.42919700  1
  V  V2  1  0.00042000  0.75009300  0.57080200  1
  V  V3  1  0.49950100  0.25005000  0.92911200  1
  Ge  Ge4  1  0.99994800  0.75010900  0.82163600  1
  Ge  Ge5  1  0.50006000  0.25013100  0.67837000  1
  Ge  Ge6  1  0.49989700  0.74984200  0.32157900  1
  Ge  Ge7  1  0.00014300  0.24988800  0.17843800  1
  O  O8  1  0.23005100  0.08143400  0.30706000  1
  O  O9  1  0.26991400  0.58147500  0.19300100  1
  O  O10  1  0.26984300  0.08142900  0.80693800  1
  O  O11  1  0.23010800  0.58143800  0.69298900  1
  O  O12  1  0.76986300  0.41855800  0.30702200  1
  O  O13  1  0.73015200  0.91857200  0.19303400  1
  O  O14  1  0.73007600  0.41858700  0.80696700  1
  O  O15  1  0.76993900  0.91861400  0.69296700  1
  O  O16  1  0.25191200  0.57702300  0.43807100  1
  O  O17  1  0.24807300  0.07702600  0.06195400  1
  O  O18  1  0.25185600  0.07705700  0.56192300  1
  O  O19  1  0.24815900  0.57706300  0.93806200  1
  O  O20  1  0.75196100  0.42288600  0.06188800  1
  O  O21  1  0.74804500  0.92289600  0.43811300  1
  O  O22  1  0.75184500  0.92296400  0.93801500  1
  O  O23  1  0.74813300  0.42300100  0.56195800  1
