# generated using pymatgen
data_ErTa3O9
_symmetry_space_group_name_H-M   'P 1'
_cell_length_a   7.51807600
_cell_length_b   5.27336500
_cell_length_c   8.31060236
_cell_angle_alpha   87.54425027
_cell_angle_beta   90.00000000
_cell_angle_gamma   90.00000000
_symmetry_Int_Tables_number   1
_chemical_formula_structural   ErTa3O9
_chemical_formula_sum   'Er2 Ta6 O18'
_cell_volume   329.17588573
_cell_formula_units_Z   2
loop_
 _symmetry_equiv_pos_site_id
 _symmetry_equiv_pos_as_xyz
  1  'x, y, z'
loop_
 _atom_site_type_symbol
 _atom_site_label
 _atom_site_symmetry_multiplicity
 _atom_site_fract_x
 _atom_site_fract_y
 _atom_site_fract_z
 _atom_site_occupancy
  Er  Er0  1  0.25000000  0.96363600  0.43545400  1
  Er  Er1  1  0.75000000  0.03636400  0.56454600  1
  Ta  Ta2  1  0.00000000  0.00000000  0.00000000  1
  Ta  Ta3  1  0.50000000  0.00000000  0.00000000  1
  Ta  Ta4  1  0.00690200  0.53044100  0.69496400  1
  Ta  Ta5  1  0.49309800  0.53044100  0.69496400  1
  Ta  Ta6  1  0.99309800  0.46955900  0.30503600  1
  Ta  Ta7  1  0.50690200  0.46955900  0.30503600  1
  O  O8  1  0.25000000  0.90539600  0.97719300  1
  O  O9  1  0.93422500  0.85291700  0.78386000  1
  O  O10  1  0.56577500  0.85291700  0.78386000  1
  O  O11  1  0.95670100  0.74435600  0.46738300  1
  O  O12  1  0.54329900  0.74435600  0.46738300  1
  O  O13  1  0.25000000  0.66535300  0.65331800  1
  O  O14  1  0.94786000  0.67310200  0.12093000  1
  O  O15  1  0.55214000  0.67310200  0.12093000  1
  O  O16  1  0.25000000  0.58073500  0.31616000  1
  O  O17  1  0.75000000  0.41926500  0.68384000  1
  O  O18  1  0.05214000  0.32689800  0.87907000  1
  O  O19  1  0.44786000  0.32689800  0.87907000  1
  O  O20  1  0.75000000  0.33464700  0.34668200  1
  O  O21  1  0.04329900  0.25564400  0.53261700  1
  O  O22  1  0.45670100  0.25564400  0.53261700  1
  O  O23  1  0.06577500  0.14708300  0.21614000  1
  O  O24  1  0.43422500  0.14708300  0.21614000  1
  O  O25  1  0.75000000  0.09460400  0.02280700  1
