# generated using pymatgen
data_Dy2TiO5
_symmetry_space_group_name_H-M   'P 1'
_cell_length_a   5.91368794
_cell_length_b   5.91368794
_cell_length_c   10.52765100
_cell_angle_alpha   90.00000000
_cell_angle_beta   90.00000000
_cell_angle_gamma   139.59793103
_symmetry_Int_Tables_number   1
_chemical_formula_structural   Dy2TiO5
_chemical_formula_sum   'Dy4 Ti2 O10'
_cell_volume   238.62836706
_cell_formula_units_Z   2
loop_
 _symmetry_equiv_pos_site_id
 _symmetry_equiv_pos_as_xyz
  1  'x, y, z'
loop_
 _atom_site_type_symbol
 _atom_site_label
 _atom_site_symmetry_multiplicity
 _atom_site_fract_x
 _atom_site_fract_y
 _atom_site_fract_z
 _atom_site_occupancy
  Dy  Dy0  1  0.14332700  0.85667300  0.92969600  1
  Dy  Dy1  1  0.14332700  0.85667300  0.57030400  1
  Dy  Dy2  1  0.85667300  0.14332700  0.07030400  1
  Dy  Dy3  1  0.85667300  0.14332700  0.42969600  1
  Ti  Ti4  1  0.16974100  0.83025900  0.25000000  1
  Ti  Ti5  1  0.83025900  0.16974100  0.75000000  1
  O  O6  1  0.05077000  0.94923000  0.37643300  1
  O  O7  1  0.05077000  0.94923000  0.12356800  1
  O  O8  1  0.71135500  0.28864500  0.90782800  1
  O  O9  1  0.71135500  0.28864500  0.59217200  1
  O  O10  1  0.27682400  0.72317600  0.75000000  1
  O  O11  1  0.72317600  0.27682400  0.25000000  1
  O  O12  1  0.28864500  0.71135500  0.09217200  1
  O  O13  1  0.28864500  0.71135500  0.40782800  1
  O  O14  1  0.94923000  0.05077000  0.62356800  1
  O  O15  1  0.94923000  0.05077000  0.87643200  1
