# generated using pymatgen
data_Te3WO12
_symmetry_space_group_name_H-M   'P 1'
_cell_length_a   8.53986800
_cell_length_b   4.98630800
_cell_length_c   5.23885412
_cell_angle_alpha   88.70983057
_cell_angle_beta   90.00000000
_cell_angle_gamma   90.00000000
_symmetry_Int_Tables_number   1
_chemical_formula_structural   Te3WO12
_chemical_formula_sum   'Te3 W1 O12'
_cell_volume   223.02649066
_cell_formula_units_Z   1
loop_
 _symmetry_equiv_pos_site_id
 _symmetry_equiv_pos_as_xyz
  1  'x, y, z'
loop_
 _atom_site_type_symbol
 _atom_site_label
 _atom_site_symmetry_multiplicity
 _atom_site_fract_x
 _atom_site_fract_y
 _atom_site_fract_z
 _atom_site_occupancy
  Te  Te0  1  0.57964600  0.50000000  0.00000000  1
  Te  Te1  1  0.08769700  0.00000000  0.50000000  1
  Te  Te2  1  0.39784500  0.50000000  0.50000000  1
  W  W3  1  0.89856900  0.00000000  0.00000000  1
  O  O4  1  0.74272900  0.25578200  0.89424300  1
  O  O5  1  0.41972800  0.28568300  0.81682500  1
  O  O6  1  0.06322300  0.20359900  0.80937900  1
  O  O7  1  0.56361300  0.70768200  0.68113800  1
  O  O8  1  0.92730300  0.79091900  0.69053400  1
  O  O9  1  0.24528300  0.74928300  0.63714500  1
  O  O10  1  0.24528300  0.25071700  0.36285500  1
  O  O11  1  0.92730300  0.20908100  0.30946600  1
  O  O12  1  0.56361300  0.29231800  0.31886200  1
  O  O13  1  0.06322300  0.79640100  0.19062100  1
  O  O14  1  0.41972800  0.71431700  0.18317500  1
  O  O15  1  0.74272900  0.74421800  0.10575700  1
