# generated using pymatgen
data_Mn3Cr3(SbO8)2
_symmetry_space_group_name_H-M   'P 1'
_cell_length_a   5.89908720
_cell_length_b   5.89253280
_cell_length_c   9.24250324
_cell_angle_alpha   90.00589259
_cell_angle_beta   89.12870982
_cell_angle_gamma   119.92047058
_symmetry_Int_Tables_number   1
_chemical_formula_structural   Mn3Cr3(SbO8)2
_chemical_formula_sum   'Mn3 Cr3 Sb2 O16'
_cell_volume   278.41212557
_cell_formula_units_Z   1
loop_
 _symmetry_equiv_pos_site_id
 _symmetry_equiv_pos_as_xyz
  1  'x, y, z'
loop_
 _atom_site_type_symbol
 _atom_site_label
 _atom_site_symmetry_multiplicity
 _atom_site_fract_x
 _atom_site_fract_y
 _atom_site_fract_z
 _atom_site_occupancy
  Mn  Mn0  1  0.65954800  0.82992300  0.20930900  1
  Mn  Mn1  1  0.83101800  0.66352600  0.71285000  1
  Mn  Mn2  1  0.83097900  0.16746100  0.71283100  1
  Cr  Cr3  1  0.16576400  0.82781000  0.21599500  1
  Cr  Cr4  1  0.16701700  0.33850700  0.21419600  1
  Cr  Cr5  1  0.33671700  0.16833100  0.71319200  1
  Sb  Sb6  1  0.33138800  0.66548400  0.49254100  1
  Sb  Sb7  1  0.66262800  0.33104500  0.99188900  1
  O  O8  1  0.16233200  0.83353100  0.59940700  1
  O  O9  1  0.04096600  0.52193700  0.34228700  1
  O  O10  1  0.34088000  0.67199200  0.10724500  1
  O  O11  1  0.99586400  0.99590400  0.30057200  1
  O  O12  1  0.98791900  0.99388900  0.80973800  1
  O  O13  1  0.16223800  0.32872100  0.59932000  1
  O  O14  1  0.48446000  0.95988000  0.33682300  1
  O  O15  1  0.48518600  0.52554700  0.33697400  1
  O  O16  1  0.32850600  0.16363900  0.09829400  1
  O  O17  1  0.66865400  0.83439000  0.60139900  1
  O  O18  1  0.52690200  0.48701800  0.83847500  1
  O  O19  1  0.52704600  0.03998800  0.83844400  1
  O  O20  1  0.67884000  0.33950500  0.60920300  1
  O  O21  1  0.83181200  0.66643300  0.10007400  1
  O  O22  1  0.96184100  0.48081400  0.83480200  1
  O  O23  1  0.83149500  0.16493000  0.09986200  1
