# generated using pymatgen
data_Rb3ErO3
_symmetry_space_group_name_H-M   'P 1'
_cell_length_a   7.36136100
_cell_length_b   7.97795400
_cell_length_c   11.72841051
_cell_angle_alpha   85.88098367
_cell_angle_beta   90.00000000
_cell_angle_gamma   90.00000000
_symmetry_Int_Tables_number   1
_chemical_formula_structural   Rb3ErO3
_chemical_formula_sum   'Rb12 Er4 O12'
_cell_volume   687.01396871
_cell_formula_units_Z   4
loop_
 _symmetry_equiv_pos_site_id
 _symmetry_equiv_pos_as_xyz
  1  'x, y, z'
loop_
 _atom_site_type_symbol
 _atom_site_label
 _atom_site_symmetry_multiplicity
 _atom_site_fract_x
 _atom_site_fract_y
 _atom_site_fract_z
 _atom_site_occupancy
  Rb  Rb0  1  0.32907900  0.35921600  0.07824300  1
  Rb  Rb1  1  0.62204100  0.93427500  0.15476500  1
  Rb  Rb2  1  0.80386700  0.37449800  0.19249900  1
  Rb  Rb3  1  0.30386700  0.62550200  0.30750100  1
  Rb  Rb4  1  0.12204100  0.06572500  0.34523500  1
  Rb  Rb5  1  0.82907900  0.64078400  0.42175700  1
  Rb  Rb6  1  0.17092100  0.35921600  0.57824300  1
  Rb  Rb7  1  0.87795900  0.93427500  0.65476500  1
  Rb  Rb8  1  0.69613300  0.37449800  0.69249900  1
  Rb  Rb9  1  0.19613300  0.62550200  0.80750100  1
  Rb  Rb10  1  0.37795900  0.06572500  0.84523500  1
  Rb  Rb11  1  0.67092100  0.64078400  0.92175700  1
  Er  Er12  1  0.08841600  0.83894600  0.06693000  1
  Er  Er13  1  0.58841600  0.16105400  0.43307000  1
  Er  Er14  1  0.41158400  0.83894600  0.56693000  1
  Er  Er15  1  0.91158400  0.16105400  0.93307000  1
  O  O16  1  0.35411000  0.74685600  0.04228700  1
  O  O17  1  0.04904200  0.10560700  0.09623900  1
  O  O18  1  0.94026800  0.68994700  0.18874200  1
  O  O19  1  0.44026800  0.31005300  0.31125800  1
  O  O20  1  0.54904200  0.89439300  0.40376100  1
  O  O21  1  0.85411000  0.25314400  0.45771300  1
  O  O22  1  0.14589000  0.74685600  0.54228700  1
  O  O23  1  0.45095800  0.10560700  0.59623900  1
  O  O24  1  0.55973200  0.68994700  0.68874200  1
  O  O25  1  0.05973200  0.31005300  0.81125800  1
  O  O26  1  0.95095800  0.89439300  0.90376100  1
  O  O27  1  0.64589000  0.25314400  0.95771300  1
