data_image0
_chemical_formula_structural       Cl2Cs2O4
_chemical_formula_sum              "Cl2 Cs2 O4"
_cell_length_a       4.66023
_cell_length_b       4.66023
_cell_length_c       8.23689
_cell_angle_alpha    90
_cell_angle_beta     90
_cell_angle_gamma    89.1926

_space_group_name_H-M_alt    "P 1"
_space_group_IT_number       1

loop_
  _space_group_symop_operation_xyz
  'x, y, z'

loop_
  _atom_site_type_symbol
  _atom_site_label
  _atom_site_symmetry_multiplicity
  _atom_site_fract_x
  _atom_site_fract_y
  _atom_site_fract_z
  _atom_site_occupancy
  Cl  Cl1       1.0  0.48100  0.51900  0.25000  1.0000
  Cl  Cl2       1.0  0.51900  0.48100  0.75000  1.0000
  Cs  Cs1       1.0  0.00000  0.00000  0.00000  1.0000
  Cs  Cs2       1.0  0.00000  0.00000  0.50000  1.0000
  O   O1        1.0  0.14700  0.46400  0.25000  1.0000
  O   O2        1.0  0.53600  0.85300  0.25000  1.0000
  O   O3        1.0  0.46400  0.14700  0.75000  1.0000
  O   O4        1.0  0.85300  0.53600  0.75000  1.0000
