# generated using pymatgen
data_BaCu(SiO3)2
_symmetry_space_group_name_H-M   'P 1'
_cell_length_a   13.26125091
_cell_length_b   13.26125091
_cell_length_c   13.26125091
_cell_angle_alpha   134.98207915
_cell_angle_beta   134.98207915
_cell_angle_gamma   65.55804570
_symmetry_Int_Tables_number   1
_chemical_formula_structural   BaCu(SiO3)2
_chemical_formula_sum   'Ba8 Cu8 Si16 O48'
_cell_volume   1149.46358953
_cell_formula_units_Z   8
loop_
 _symmetry_equiv_pos_site_id
 _symmetry_equiv_pos_as_xyz
  1  'x, y, z'
loop_
 _atom_site_type_symbol
 _atom_site_label
 _atom_site_symmetry_multiplicity
 _atom_site_fract_x
 _atom_site_fract_y
 _atom_site_fract_z
 _atom_site_occupancy
  Ba  Ba0  1  0.24715100  0.99715300  0.74991600  1
  Ba  Ba1  1  0.74723600  0.49723400  0.75008400  1
  Ba  Ba2  1  0.99723400  0.74715100  0.74999800  1
  Ba  Ba3  1  0.49715300  0.24723600  0.75000200  1
  Ba  Ba4  1  0.75284900  0.00284700  0.25008400  1
  Ba  Ba5  1  0.25276400  0.50276600  0.24991600  1
  Ba  Ba6  1  0.00276600  0.25284900  0.25000200  1
  Ba  Ba7  1  0.50284700  0.75276400  0.24999800  1
  Cu  Cu8  1  0.43603900  0.18603900  0.25000000  1
  Cu  Cu9  1  0.68603900  0.93603900  0.75000000  1
  Cu  Cu10  1  0.56396100  0.81396100  0.75000000  1
  Cu  Cu11  1  0.31396100  0.06396100  0.25000000  1
  Cu  Cu12  1  0.93599200  0.68599200  0.25000000  1
  Cu  Cu13  1  0.18599200  0.43599200  0.75000000  1
  Cu  Cu14  1  0.06400800  0.31400800  0.75000000  1
  Cu  Cu15  1  0.81400800  0.56400800  0.25000000  1
  Si  Si16  1  0.87455300  0.89844700  0.52364000  1
  Si  Si17  1  0.87480700  0.35091300  0.97636000  1
  Si  Si18  1  0.85091300  0.37455300  0.47610600  1
  Si  Si19  1  0.39844700  0.37480700  0.02389400  1
  Si  Si20  1  0.12544700  0.10155300  0.47636000  1
  Si  Si21  1  0.12519300  0.64908700  0.02364000  1
  Si  Si22  1  0.14908700  0.62544700  0.52389400  1
  Si  Si23  1  0.60155300  0.62519300  0.97610600  1
  Si  Si24  1  0.10070200  0.12455500  0.97608000  1
  Si  Si25  1  0.64847500  0.12462200  0.52392000  1
  Si  Si26  1  0.62462200  0.60070200  0.47614700  1
  Si  Si27  1  0.62455500  0.14847500  0.02385300  1
  Si  Si28  1  0.89929800  0.87544500  0.02392000  1
  Si  Si29  1  0.35152500  0.87537800  0.47608000  1
  Si  Si30  1  0.37537800  0.39929800  0.52385300  1
  Si  Si31  1  0.37544500  0.85152500  0.97614700  1
  O  O32  1  0.00842800  0.99352300  0.74990100  1
  O  O33  1  0.74362200  0.25852700  0.75009900  1
  O  O34  1  0.75852700  0.50842800  0.51490500  1
  O  O35  1  0.49352300  0.24362200  0.98509500  1
  O  O36  1  0.99157200  0.00647700  0.25009900  1
  O  O37  1  0.25637800  0.74147300  0.24990100  1
  O  O38  1  0.24147300  0.49157200  0.48509500  1
  O  O39  1  0.50647700  0.75637800  0.01490500  1
  O  O40  1  0.11946400  0.06116500  0.05650100  1
  O  O41  1  0.50466300  0.06296200  0.44349900  1
  O  O42  1  0.56296200  0.61946400  0.55829900  1
  O  O43  1  0.56116500  0.00466300  0.94170100  1
  O  O44  1  0.88053600  0.93883500  0.94349900  1
  O  O45  1  0.49533700  0.93703800  0.55650100  1
  O  O46  1  0.43703800  0.38053600  0.44170100  1
  O  O47  1  0.43883500  0.99533700  0.05829900  1
  O  O48  1  0.74101200  0.99102200  0.48542200  1
  O  O49  1  0.00560000  0.25559000  0.01457800  1
  O  O50  1  0.75559000  0.24101200  0.24999000  1
  O  O51  1  0.49102200  0.50560000  0.25001000  1
  O  O52  1  0.25898800  0.00897800  0.51457800  1
  O  O53  1  0.99440000  0.74441000  0.98542200  1
  O  O54  1  0.24441000  0.75898800  0.75001000  1
  O  O55  1  0.50897800  0.49440000  0.74999000  1
  O  O56  1  0.18732800  0.24557600  0.55709600  1
  O  O57  1  0.18847900  0.63023200  0.94290400  1
  O  O58  1  0.13023200  0.68732800  0.44175300  1
  O  O59  1  0.74557600  0.68847900  0.05824700  1
  O  O60  1  0.81267200  0.75442400  0.44290400  1
  O  O61  1  0.81152100  0.36976800  0.05709600  1
  O  O62  1  0.86976800  0.31267200  0.55824700  1
  O  O63  1  0.25442400  0.31152100  0.94175300  1
  O  O64  1  0.93621200  0.87995100  0.44120600  1
  O  O65  1  0.93874500  0.49500500  0.05879400  1
  O  O66  1  0.99500500  0.43621200  0.55626000  1
  O  O67  1  0.37995100  0.43874500  0.94374000  1
  O  O68  1  0.06378800  0.12004900  0.55879400  1
  O  O69  1  0.06125500  0.50499500  0.94120600  1
  O  O70  1  0.00499500  0.56378800  0.44374000  1
  O  O71  1  0.62004900  0.56125500  0.05626000  1
  O  O72  1  0.68617300  0.74479300  0.55622200  1
  O  O73  1  0.68857100  0.12995100  0.94377800  1
  O  O74  1  0.62995100  0.18617300  0.44138000  1
  O  O75  1  0.24479300  0.18857100  0.05862000  1
  O  O76  1  0.31382700  0.25520700  0.44377800  1
  O  O77  1  0.31142900  0.87004900  0.05622200  1
  O  O78  1  0.37004900  0.81382700  0.55862000  1
  O  O79  1  0.75520700  0.81142900  0.94138000  1
