# generated using pymatgen
data_K3GePCO7
_symmetry_space_group_name_H-M   'P 1'
_cell_length_a   7.34457200
_cell_length_b   5.59845100
_cell_length_c   10.00529640
_cell_angle_alpha   88.62680913
_cell_angle_beta   90.00000000
_cell_angle_gamma   90.00000000
_symmetry_Int_Tables_number   1
_chemical_formula_structural   K3GePCO7
_chemical_formula_sum   'K6 Ge2 P2 C2 O14'
_cell_volume   411.28189404
_cell_formula_units_Z   2
loop_
 _symmetry_equiv_pos_site_id
 _symmetry_equiv_pos_as_xyz
  1  'x, y, z'
loop_
 _atom_site_type_symbol
 _atom_site_label
 _atom_site_symmetry_multiplicity
 _atom_site_fract_x
 _atom_site_fract_y
 _atom_site_fract_z
 _atom_site_occupancy
  K  K0  1  0.25000000  0.76287500  0.91702200  1
  K  K1  1  0.00187200  0.25575800  0.73966300  1
  K  K2  1  0.49812800  0.25575800  0.73966300  1
  K  K3  1  0.50187200  0.74424200  0.26033700  1
  K  K4  1  0.99812800  0.74424200  0.26033700  1
  K  K5  1  0.75000000  0.23712500  0.08297800  1
  Ge  Ge6  1  0.75000000  0.77803500  0.62840400  1
  Ge  Ge7  1  0.25000000  0.22196500  0.37159600  1
  P  P8  1  0.25000000  0.70944400  0.58245000  1
  P  P9  1  0.75000000  0.29055600  0.41755000  1
  C  C10  1  0.75000000  0.73795100  0.92682500  1
  C  C11  1  0.25000000  0.26204900  0.07317500  1
  O  O12  1  0.25000000  0.26822000  0.94232500  1
  O  O13  1  0.75000000  0.94339600  0.86247200  1
  O  O14  1  0.75000000  0.54026000  0.86119300  1
  O  O15  1  0.07767500  0.76997100  0.66600800  1
  O  O16  1  0.42232500  0.76997100  0.66600800  1
  O  O17  1  0.25000000  0.43426800  0.55424500  1
  O  O18  1  0.75000000  0.14831200  0.55495900  1
  O  O19  1  0.25000000  0.85168800  0.44504100  1
  O  O20  1  0.75000000  0.56573200  0.44575500  1
  O  O21  1  0.57767500  0.23002900  0.33399200  1
  O  O22  1  0.92232500  0.23002900  0.33399200  1
  O  O23  1  0.25000000  0.45974000  0.13880700  1
  O  O24  1  0.25000000  0.05660400  0.13752800  1
  O  O25  1  0.75000000  0.73178000  0.05767500  1
