# generated using pymatgen
data_BaB2H10O9
_symmetry_space_group_name_H-M   'P 1'
_cell_length_a   8.86606100
_cell_length_b   6.86362000
_cell_length_c   18.72773635
_cell_angle_alpha   89.53931861
_cell_angle_beta   90.00000000
_cell_angle_gamma   90.00000000
_symmetry_Int_Tables_number   1
_chemical_formula_structural   BaB2H10O9
_chemical_formula_sum   'Ba4 B8 H40 O36'
_cell_volume   1139.60722650
_cell_formula_units_Z   4
loop_
 _symmetry_equiv_pos_site_id
 _symmetry_equiv_pos_as_xyz
  1  'x, y, z'
loop_
 _atom_site_type_symbol
 _atom_site_label
 _atom_site_symmetry_multiplicity
 _atom_site_fract_x
 _atom_site_fract_y
 _atom_site_fract_z
 _atom_site_occupancy
  Ba  Ba0  1  0.49685600  0.90024000  0.80148000  1
  Ba  Ba1  1  0.99685600  0.09976000  0.69852000  1
  Ba  Ba2  1  0.50314400  0.09976000  0.19852000  1
  Ba  Ba3  1  0.00314400  0.90024000  0.30148000  1
  B  B4  1  0.71016300  0.16164700  0.03439900  1
  B  B5  1  0.21016300  0.83835300  0.46560100  1
  B  B6  1  0.28983700  0.83835300  0.96560100  1
  B  B7  1  0.78983700  0.16164700  0.53439900  1
  B  B8  1  0.65620300  0.63638400  0.28141500  1
  B  B9  1  0.15620300  0.36361600  0.21858500  1
  B  B10  1  0.34379700  0.36361600  0.71858500  1
  B  B11  1  0.84379700  0.63638400  0.78141500  1
  H  H12  1  0.21873600  0.78333300  0.60042500  1
  H  H13  1  0.71873600  0.21666700  0.89957500  1
  H  H14  1  0.78126400  0.21666700  0.39957500  1
  H  H15  1  0.28126400  0.78333300  0.10042500  1
  H  H16  1  0.22639900  0.46598400  0.38413400  1
  H  H17  1  0.72639900  0.53401600  0.11586600  1
  H  H18  1  0.77360100  0.53401600  0.61586600  1
  H  H19  1  0.27360100  0.46598400  0.88413400  1
  H  H20  1  0.61642500  0.28268700  0.48440600  1
  H  H21  1  0.11642500  0.71731300  0.01559400  1
  H  H22  1  0.38357500  0.71731300  0.51559400  1
  H  H23  1  0.88357500  0.28268700  0.98440600  1
  H  H24  1  0.31006400  0.47717000  0.37964600  1
  H  H25  1  0.81006400  0.52283000  0.12035400  1
  H  H26  1  0.68993600  0.52283000  0.62035400  1
  H  H27  1  0.18993600  0.47717000  0.87964600  1
  H  H28  1  0.79881200  0.30109800  0.32356500  1
  H  H29  1  0.29881200  0.69890200  0.17643500  1
  H  H30  1  0.20118800  0.69890200  0.67643500  1
  H  H31  1  0.70118800  0.30109800  0.82356500  1
  H  H32  1  0.44175600  0.56055500  0.27822100  1
  H  H33  1  0.94175600  0.43944500  0.22177900  1
  H  H34  1  0.55824400  0.43944500  0.72177900  1
  H  H35  1  0.05824400  0.56055500  0.77822100  1
  H  H36  1  0.77056000  0.58808500  0.37036900  1
  H  H37  1  0.27056000  0.41191500  0.12963100  1
  H  H38  1  0.22944000  0.41191500  0.62963100  1
  H  H39  1  0.72944000  0.58808500  0.87036900  1
  H  H40  1  0.32324900  0.12652700  0.52667700  1
  H  H41  1  0.82324900  0.87347300  0.97332300  1
  H  H42  1  0.67675100  0.87347300  0.47332300  1
  H  H43  1  0.17675100  0.12652700  0.02667700  1
  H  H44  1  0.69123200  0.98658400  0.64876800  1
  H  H45  1  0.19123200  0.01341600  0.85123200  1
  H  H46  1  0.30876800  0.01341600  0.35123200  1
  H  H47  1  0.80876800  0.98658400  0.14876800  1
  H  H48  1  0.63481500  0.94713200  0.39697200  1
  H  H49  1  0.13481500  0.05286800  0.10302800  1
  H  H50  1  0.36518500  0.05286800  0.60302800  1
  H  H51  1  0.86518500  0.94713200  0.89697200  1
  O  O52  1  0.30994900  0.97323600  0.29974500  1
  O  O53  1  0.80994900  0.02676400  0.20025500  1
  O  O54  1  0.69005100  0.02676400  0.70025500  1
  O  O55  1  0.19005100  0.97323600  0.79974500  1
  O  O56  1  0.64369400  0.77650200  0.23220400  1
  O  O57  1  0.14369400  0.22349800  0.26779600  1
  O  O58  1  0.35630600  0.22349800  0.76779600  1
  O  O59  1  0.85630600  0.77650200  0.73220400  1
  O  O60  1  0.64428200  0.82802700  0.42560500  1
  O  O61  1  0.14428200  0.17197300  0.07439500  1
  O  O62  1  0.35571800  0.17197300  0.57439500  1
  O  O63  1  0.85571800  0.82802700  0.92560500  1
  O  O64  1  0.53648800  0.50906500  0.29672600  1
  O  O65  1  0.03648800  0.49093500  0.20327400  1
  O  O66  1  0.46351200  0.49093500  0.70327400  1
  O  O67  1  0.96351200  0.50906500  0.79672600  1
  O  O68  1  0.70400000  0.17577100  0.84913000  1
  O  O69  1  0.20400000  0.82422900  0.65087000  1
  O  O70  1  0.29600000  0.82422900  0.15087000  1
  O  O71  1  0.79600000  0.17577100  0.34913000  1
  O  O72  1  0.71866200  0.99695000  0.55746500  1
  O  O73  1  0.21866200  0.00305000  0.94253500  1
  O  O74  1  0.28133800  0.00305000  0.44253500  1
  O  O75  1  0.78133800  0.99695000  0.05746500  1
  O  O76  1  0.77356100  0.29174300  0.98375500  1
  O  O77  1  0.27356100  0.70825700  0.51624500  1
  O  O78  1  0.22643900  0.70825700  0.01624500  1
  O  O79  1  0.72643900  0.29174300  0.48375500  1
  O  O80  1  0.79216400  0.59191100  0.31870000  1
  O  O81  1  0.29216400  0.40808900  0.18130000  1
  O  O82  1  0.20783600  0.40808900  0.68130000  1
  O  O83  1  0.70783600  0.59191100  0.81870000  1
  O  O84  1  0.42911900  0.81741200  0.93794500  1
  O  O85  1  0.92911900  0.18258800  0.56205500  1
  O  O86  1  0.57088100  0.18258800  0.06205500  1
  O  O87  1  0.07088100  0.81741200  0.43794500  1
