# generated using pymatgen
data_Li4V3O8
_symmetry_space_group_name_H-M   'P 1'
_cell_length_a   5.90780158
_cell_length_b   5.90780158
_cell_length_c   5.90780144
_cell_angle_alpha   57.80804846
_cell_angle_beta   57.80804846
_cell_angle_gamma   57.80805538
_symmetry_Int_Tables_number   1
_chemical_formula_structural   Li4V3O8
_chemical_formula_sum   'Li4 V3 O8'
_cell_volume   138.46317973
_cell_formula_units_Z   1
loop_
 _symmetry_equiv_pos_site_id
 _symmetry_equiv_pos_as_xyz
  1  'x, y, z'
loop_
 _atom_site_type_symbol
 _atom_site_label
 _atom_site_symmetry_multiplicity
 _atom_site_fract_x
 _atom_site_fract_y
 _atom_site_fract_z
 _atom_site_occupancy
  Li  Li0  1  0.00000000  0.00000000  0.00000000  1
  Li  Li1  1  0.50000000  0.00000000  0.00000000  1
  Li  Li2  1  0.00000000  0.50000000  0.00000000  1
  Li  Li3  1  0.00000000  0.00000000  0.50000000  1
  V  V4  1  0.00000000  0.50000000  0.50000000  1
  V  V5  1  0.50000000  0.00000000  0.50000000  1
  V  V6  1  0.50000000  0.50000000  0.00000000  1
  O  O7  1  0.74632000  0.74632000  0.74632000  1
  O  O8  1  0.72612900  0.24430100  0.24430100  1
  O  O9  1  0.24430100  0.72612900  0.24430100  1
  O  O10  1  0.25368000  0.25368000  0.25368000  1
  O  O11  1  0.24430100  0.24430100  0.72612900  1
  O  O12  1  0.27387100  0.75569900  0.75569900  1
  O  O13  1  0.75569900  0.27387100  0.75569900  1
  O  O14  1  0.75569900  0.75569900  0.27387100  1
