# generated using pymatgen
data_Li3Fe3CuO8
_symmetry_space_group_name_H-M   'P 1'
_cell_length_a   5.82726938
_cell_length_b   5.82726938
_cell_length_c   5.75135423
_cell_angle_alpha   61.51057756
_cell_angle_beta   61.51057756
_cell_angle_gamma   57.16093316
_symmetry_Int_Tables_number   1
_chemical_formula_structural   Li3Fe3CuO8
_chemical_formula_sum   'Li3 Fe3 Cu1 O8'
_cell_volume   137.77180915
_cell_formula_units_Z   1
loop_
 _symmetry_equiv_pos_site_id
 _symmetry_equiv_pos_as_xyz
  1  'x, y, z'
loop_
 _atom_site_type_symbol
 _atom_site_label
 _atom_site_symmetry_multiplicity
 _atom_site_fract_x
 _atom_site_fract_y
 _atom_site_fract_z
 _atom_site_occupancy
  Li  Li0  1  0.00000000  0.00000000  0.50000000  1
  Li  Li1  1  0.50000000  0.00000000  0.50000000  1
  Li  Li2  1  0.00000000  0.50000000  0.50000000  1
  Fe  Fe3  1  0.50000000  0.50000000  0.00000000  1
  Fe  Fe4  1  0.00000000  0.50000000  0.00000000  1
  Fe  Fe5  1  0.50000000  0.00000000  0.00000000  1
  Cu  Cu6  1  0.00000000  0.00000000  0.00000000  1
  O  O7  1  0.24085700  0.24085700  0.24444400  1
  O  O8  1  0.74692600  0.74692600  0.22840800  1
  O  O9  1  0.27873900  0.77019300  0.20221500  1
  O  O10  1  0.75914300  0.75914300  0.75555600  1
  O  O11  1  0.77019300  0.27873900  0.20221500  1
  O  O12  1  0.25307400  0.25307400  0.77159200  1
  O  O13  1  0.72126100  0.22980700  0.79778500  1
  O  O14  1  0.22980700  0.72126100  0.79778500  1
