# generated using pymatgen
data_Cr3Fe2O15
_symmetry_space_group_name_H-M   'P 1'
_cell_length_a   5.61035100
_cell_length_b   14.79417900
_cell_length_c   17.73188261
_cell_angle_alpha   73.86727696
_cell_angle_beta   90.00000000
_cell_angle_gamma   90.00000000
_symmetry_Int_Tables_number   1
_chemical_formula_structural   Cr3Fe2O15
_chemical_formula_sum   'Cr12 Fe8 O60'
_cell_volume   1413.79894214
_cell_formula_units_Z   4
loop_
 _symmetry_equiv_pos_site_id
 _symmetry_equiv_pos_as_xyz
  1  'x, y, z'
loop_
 _atom_site_type_symbol
 _atom_site_label
 _atom_site_symmetry_multiplicity
 _atom_site_fract_x
 _atom_site_fract_y
 _atom_site_fract_z
 _atom_site_occupancy
  Cr  Cr0  1  0.87633400  0.39162700  0.11607800  1
  Cr  Cr1  1  0.37633400  0.10837300  0.88392200  1
  Cr  Cr2  1  0.12366600  0.60837300  0.88392200  1
  Cr  Cr3  1  0.62366600  0.89162700  0.11607800  1
  Cr  Cr4  1  0.92316400  0.15828300  0.44585800  1
  Cr  Cr5  1  0.42316400  0.34171700  0.55414200  1
  Cr  Cr6  1  0.07683600  0.84171700  0.55414200  1
  Cr  Cr7  1  0.57683600  0.65828300  0.44585800  1
  Cr  Cr8  1  0.37977000  0.16178300  0.10571200  1
  Cr  Cr9  1  0.87977000  0.33821700  0.89428800  1
  Cr  Cr10  1  0.62023000  0.83821700  0.89428800  1
  Cr  Cr11  1  0.12023000  0.66178300  0.10571200  1
  Fe  Fe12  1  0.88445800  0.09351700  0.01244600  1
  Fe  Fe13  1  0.38445800  0.40648300  0.98755400  1
  Fe  Fe14  1  0.11554200  0.90648300  0.98755400  1
  Fe  Fe15  1  0.61554200  0.59351700  0.01244600  1
  Fe  Fe16  1  0.67312500  0.37265500  0.36950700  1
  Fe  Fe17  1  0.17312500  0.12734500  0.63049300  1
  Fe  Fe18  1  0.32687500  0.62734500  0.63049300  1
  Fe  Fe19  1  0.82687500  0.87265500  0.36950700  1
  O  O20  1  0.52733700  0.33560700  0.45961800  1
  O  O21  1  0.02733700  0.16439300  0.54038200  1
  O  O22  1  0.47266300  0.66439300  0.54038200  1
  O  O23  1  0.97266300  0.83560700  0.45961800  1
  O  O24  1  0.62205500  0.10144900  0.08713700  1
  O  O25  1  0.12205500  0.39855100  0.91286300  1
  O  O26  1  0.37794500  0.89855100  0.91286300  1
  O  O27  1  0.87794500  0.60144900  0.08713700  1
  O  O28  1  0.67071100  0.10676300  0.45261400  1
  O  O29  1  0.17071100  0.39323700  0.54738600  1
  O  O30  1  0.32928900  0.89323700  0.54738600  1
  O  O31  1  0.82928900  0.60676300  0.45261400  1
  O  O32  1  0.63363800  0.44663400  0.05702400  1
  O  O33  1  0.13363800  0.05336600  0.94297600  1
  O  O34  1  0.36636200  0.55336600  0.94297600  1
  O  O35  1  0.86636200  0.94663400  0.05702400  1
  O  O36  1  0.38178400  0.16425400  0.19547600  1
  O  O37  1  0.88178400  0.33574600  0.80452400  1
  O  O38  1  0.61821600  0.83574600  0.80452400  1
  O  O39  1  0.11821600  0.66425400  0.19547600  1
  O  O40  1  0.84270300  0.27936900  0.14075200  1
  O  O41  1  0.34270300  0.22063100  0.85924800  1
  O  O42  1  0.15729700  0.72063100  0.85924800  1
  O  O43  1  0.65729700  0.77936900  0.14075200  1
  O  O44  1  0.90020700  0.42548300  0.19615800  1
  O  O45  1  0.40020700  0.07451700  0.80384200  1
  O  O46  1  0.09979300  0.57451700  0.80384200  1
  O  O47  1  0.59979300  0.92548300  0.19615800  1
  O  O48  1  0.90195600  0.27383800  0.39181100  1
  O  O49  1  0.40195600  0.22616200  0.60818900  1
  O  O50  1  0.09804400  0.72616200  0.60818900  1
  O  O51  1  0.59804400  0.77383800  0.39181100  1
  O  O52  1  0.12904400  0.41987100  0.06398100  1
  O  O53  1  0.62904400  0.08012900  0.93601900  1
  O  O54  1  0.87095600  0.58012900  0.93601900  1
  O  O55  1  0.37095600  0.91987100  0.06398100  1
  O  O56  1  0.13215700  0.10541400  0.08866700  1
  O  O57  1  0.63215700  0.39458600  0.91133300  1
  O  O58  1  0.86784300  0.89458600  0.91133300  1
  O  O59  1  0.36784300  0.60541400  0.08866700  1
  O  O60  1  0.10989900  0.10471100  0.40461100  1
  O  O61  1  0.60989900  0.39528900  0.59538900  1
  O  O62  1  0.89010100  0.89528900  0.59538900  1
  O  O63  1  0.39010100  0.60471100  0.40461100  1
  O  O64  1  0.38938100  0.27035300  0.04337500  1
  O  O65  1  0.88938100  0.22964700  0.95662500  1
  O  O66  1  0.61061900  0.72964700  0.95662500  1
  O  O67  1  0.11061900  0.77035300  0.04337500  1
  O  O68  1  0.49836100  0.47587100  0.32988600  1
  O  O69  1  0.99836100  0.02412900  0.67011400  1
  O  O70  1  0.50163900  0.52412900  0.67011400  1
  O  O71  1  0.00163900  0.97587100  0.32988600  1
  O  O72  1  0.88576800  0.45282400  0.34905300  1
  O  O73  1  0.38576800  0.04717600  0.65094700  1
  O  O74  1  0.11423200  0.54717600  0.65094700  1
  O  O75  1  0.61423200  0.95282400  0.34905300  1
  O  O76  1  0.56997500  0.34221300  0.29282000  1
  O  O77  1  0.06997500  0.15778700  0.70718000  1
  O  O78  1  0.43002500  0.65778700  0.70718000  1
  O  O79  1  0.93002500  0.84221300  0.29282000  1
