# generated using pymatgen
data_CaB3O10
_symmetry_space_group_name_H-M   'P 1'
_cell_length_a   6.29872900
_cell_length_b   8.03517167
_cell_length_c   9.48864522
_cell_angle_alpha   96.81832591
_cell_angle_beta   101.04532764
_cell_angle_gamma   107.04449904
_symmetry_Int_Tables_number   1
_chemical_formula_structural   CaB3O10
_chemical_formula_sum   'Ca2 B6 O20'
_cell_volume   442.74027687
_cell_formula_units_Z   2
loop_
 _symmetry_equiv_pos_site_id
 _symmetry_equiv_pos_as_xyz
  1  'x, y, z'
loop_
 _atom_site_type_symbol
 _atom_site_label
 _atom_site_symmetry_multiplicity
 _atom_site_fract_x
 _atom_site_fract_y
 _atom_site_fract_z
 _atom_site_occupancy
  Ca  Ca0  1  0.33943300  0.28158100  0.39191500  1
  Ca  Ca1  1  0.66056700  0.71841900  0.60808500  1
  B  B2  1  0.37682600  0.20717100  0.92123400  1
  B  B3  1  0.62317400  0.79282900  0.07876600  1
  B  B4  1  0.45059000  0.30781700  0.70344800  1
  B  B5  1  0.54941000  0.69218300  0.29655200  1
  B  B6  1  0.28421700  0.97911700  0.69667500  1
  B  B7  1  0.71578300  0.02088300  0.30332500  1
  O  O8  1  0.48007100  0.34241100  0.85467200  1
  O  O9  1  0.51992900  0.65758900  0.14532800  1
  O  O10  1  0.31212300  0.03233900  0.85423800  1
  O  O11  1  0.68787700  0.96766100  0.14576200  1
  O  O12  1  0.33850800  0.13332600  0.62423500  1
  O  O13  1  0.66149200  0.86667400  0.37576500  1
  O  O14  1  0.32721800  0.24997400  0.05314700  1
  O  O15  1  0.67278200  0.75002600  0.94685300  1
  O  O16  1  0.89238300  0.22346700  0.73864800  1
  O  O17  1  0.10761700  0.77653300  0.26135200  1
  O  O18  1  0.51727300  0.43448200  0.62641200  1
  O  O19  1  0.48272700  0.56551800  0.37358800  1
  O  O20  1  0.41002000  0.86132400  0.66556300  1
  O  O21  1  0.58998000  0.13867600  0.33443700  1
  O  O22  1  0.06199000  0.84900300  0.63308000  1
  O  O23  1  0.93801000  0.15099700  0.36692000  1
  O  O24  1  0.04045900  0.05939000  0.05347700  1
  O  O25  1  0.95954100  0.94061000  0.94652300  1
  O  O26  1  0.98370700  0.36311200  0.70010600  1
  O  O27  1  0.01629300  0.63688800  0.29989400  1
