# generated using pymatgen
data_Mn5Co3O16
_symmetry_space_group_name_H-M   'P 1'
_cell_length_a   5.67623922
_cell_length_b   5.69631747
_cell_length_c   8.78202444
_cell_angle_alpha   89.99092326
_cell_angle_beta   90.69882484
_cell_angle_gamma   120.14081905
_symmetry_Int_Tables_number   1
_chemical_formula_structural   Mn5Co3O16
_chemical_formula_sum   'Mn5 Co3 O16'
_cell_volume   245.53844479
_cell_formula_units_Z   1
loop_
 _symmetry_equiv_pos_site_id
 _symmetry_equiv_pos_as_xyz
  1  'x, y, z'
loop_
 _atom_site_type_symbol
 _atom_site_label
 _atom_site_symmetry_multiplicity
 _atom_site_fract_x
 _atom_site_fract_y
 _atom_site_fract_z
 _atom_site_occupancy
  Mn  Mn0  1  0.33360500  0.66710400  0.48451800  1
  Mn  Mn1  1  0.66377700  0.83167600  0.21282600  1
  Mn  Mn2  1  0.66590000  0.33263500  0.98621200  1
  Mn  Mn3  1  0.83167600  0.66487300  0.71190700  1
  Mn  Mn4  1  0.83177900  0.16696700  0.71193000  1
  Co  Co5  1  0.16625500  0.83211700  0.20760100  1
  Co  Co6  1  0.16605100  0.33445800  0.20767200  1
  Co  Co7  1  0.33322500  0.16669800  0.70652400  1
  O  O8  1  0.17049700  0.84072000  0.60326100  1
  O  O9  1  0.04292800  0.52164300  0.33313800  1
  O  O10  1  0.32939600  0.66473100  0.10005500  1
  O  O11  1  0.00614900  0.00325000  0.31728300  1
  O  O12  1  0.00416400  0.00213100  0.81939700  1
  O  O13  1  0.17063400  0.33029800  0.60342500  1
  O  O14  1  0.47480500  0.96028600  0.33925500  1
  O  O15  1  0.47443500  0.51448000  0.33961300  1
  O  O16  1  0.32881300  0.16426100  0.10766000  1
  O  O17  1  0.66965200  0.83493900  0.59812500  1
  O  O18  1  0.51352500  0.47349500  0.83882100  1
  O  O19  1  0.51327700  0.03967100  0.83867300  1
  O  O20  1  0.66567800  0.33282000  0.59930000  1
  O  O21  1  0.84019400  0.66982900  0.10301500  1
  O  O22  1  0.96291000  0.48158300  0.84314400  1
  O  O23  1  0.84067300  0.16953200  0.10236500  1
