# generated using pymatgen
data_Mg(Fe5O8)2
_symmetry_space_group_name_H-M   'P 1'
_cell_length_a   10.21391401
_cell_length_b   10.21391401
_cell_length_c   10.21391386
_cell_angle_alpha   33.97571970
_cell_angle_beta   33.97571970
_cell_angle_gamma   33.97572243
_symmetry_Int_Tables_number   1
_chemical_formula_structural   Mg(Fe5O8)2
_chemical_formula_sum   'Mg1 Fe10 O16'
_cell_volume   296.61793757
_cell_formula_units_Z   1
loop_
 _symmetry_equiv_pos_site_id
 _symmetry_equiv_pos_as_xyz
  1  'x, y, z'
loop_
 _atom_site_type_symbol
 _atom_site_label
 _atom_site_symmetry_multiplicity
 _atom_site_fract_x
 _atom_site_fract_y
 _atom_site_fract_z
 _atom_site_occupancy
  Mg  Mg0  1  0.19090100  0.19090100  0.19090100  1
  Fe  Fe1  1  0.50271000  0.50271000  0.50271000  1
  Fe  Fe2  1  0.75216100  0.25016200  0.75216100  1
  Fe  Fe3  1  0.25016200  0.75216100  0.75216100  1
  Fe  Fe4  1  0.68758500  0.68758500  0.68758500  1
  Fe  Fe5  1  0.75216100  0.75216100  0.25016200  1
  Fe  Fe6  1  0.30718800  0.30718800  0.30718800  1
  Fe  Fe7  1  0.75565300  0.24245700  0.24245700  1
  Fe  Fe8  1  0.24245700  0.75565300  0.24245700  1
  Fe  Fe9  1  0.24245700  0.24245700  0.75565300  1
  Fe  Fe10  1  0.81259400  0.81259400  0.81259400  1
  O  O11  1  0.39637000  0.84618600  0.39637000  1
  O  O12  1  0.84618600  0.39637000  0.39637000  1
  O  O13  1  0.62048000  0.62048000  0.62048000  1
  O  O14  1  0.39637000  0.39637000  0.84618600  1
  O  O15  1  0.11187200  0.11187200  0.62807900  1
  O  O16  1  0.87925200  0.87925200  0.87925200  1
  O  O17  1  0.62807900  0.11187200  0.11187200  1
  O  O18  1  0.11187200  0.62807900  0.11187200  1
  O  O19  1  0.87937500  0.38194900  0.87937500  1
  O  O20  1  0.38194900  0.87937500  0.87937500  1
  O  O21  1  0.12058000  0.12058000  0.12058000  1
  O  O22  1  0.87937500  0.87937500  0.38194900  1
  O  O23  1  0.37695100  0.37695100  0.37695100  1
  O  O24  1  0.61316600  0.61316600  0.14892700  1
  O  O25  1  0.61316600  0.14892700  0.61316600  1
  O  O26  1  0.14892700  0.61316600  0.61316600  1
