# generated using pymatgen
data_NdAl11O18
_symmetry_space_group_name_H-M   'P 1'
_cell_length_a   5.60902540
_cell_length_b   11.67333377
_cell_length_c   5.77178776
_cell_angle_alpha   106.13453297
_cell_angle_beta   59.38509747
_cell_angle_gamma   104.49299501
_symmetry_Int_Tables_number   1
_chemical_formula_structural   NdAl11O18
_chemical_formula_sum   'Nd1 Al11 O18'
_cell_volume   309.71129503
_cell_formula_units_Z   1
loop_
 _symmetry_equiv_pos_site_id
 _symmetry_equiv_pos_as_xyz
  1  'x, y, z'
loop_
 _atom_site_type_symbol
 _atom_site_label
 _atom_site_symmetry_multiplicity
 _atom_site_fract_x
 _atom_site_fract_y
 _atom_site_fract_z
 _atom_site_occupancy
  Nd  Nd0  1  0.50001900  0.49999400  0.99998300  1
  Al  Al1  1  0.08636500  0.78217600  0.09347400  1
  Al  Al2  1  0.00000000  0.99999700  0.00000400  1
  Al  Al3  1  0.08491500  0.77498800  0.58670800  1
  Al  Al4  1  0.58647100  0.79268900  0.09677500  1
  Al  Al5  1  0.35082000  0.05660800  0.35395000  1
  Al  Al6  1  0.46259800  0.37316000  0.45790100  1
  Al  Al7  1  0.53739500  0.62684300  0.54209700  1
  Al  Al8  1  0.64917900  0.94338800  0.64605000  1
  Al  Al9  1  0.41352700  0.20730900  0.90322500  1
  Al  Al10  1  0.91508300  0.22501100  0.41329300  1
  Al  Al11  1  0.91363400  0.21782200  0.90652800  1
  O  O12  1  0.29259000  0.89192100  0.29084300  1
  O  O13  1  0.10981800  0.29438500  0.10058700  1
  O  O14  1  0.27521900  0.89202800  0.80766700  1
  O  O15  1  0.19734000  0.10336400  0.18594000  1
  O  O16  1  0.11054900  0.28700000  0.60408000  1
  O  O17  1  0.40979600  0.70797500  0.37955800  1
  O  O18  1  0.67760700  0.50353400  0.55508100  1
  O  O19  1  0.19252200  0.09741600  0.72601700  1
  O  O20  1  0.38789200  0.69495700  0.90889100  1
  O  O21  1  0.61210600  0.30504300  0.09110900  1
  O  O22  1  0.80747900  0.90258600  0.27398700  1
  O  O23  1  0.32238800  0.49645900  0.44489700  1
  O  O24  1  0.59020200  0.29202700  0.62044900  1
  O  O25  1  0.88945300  0.71300400  0.39592400  1
  O  O26  1  0.80265900  0.89663700  0.81406200  1
  O  O27  1  0.72478100  0.10797400  0.19233600  1
  O  O28  1  0.70740900  0.10808100  0.70915700  1
  O  O29  1  0.89018200  0.70561500  0.89941700  1
