# generated using pymatgen
data_MnP2O7
_symmetry_space_group_name_H-M   'P 1'
_cell_length_a   5.20685600
_cell_length_b   6.27307038
_cell_length_c   9.10414805
_cell_angle_alpha   102.43173701
_cell_angle_beta   102.61545559
_cell_angle_gamma   103.85475193
_symmetry_Int_Tables_number   1
_chemical_formula_structural   MnP2O7
_chemical_formula_sum   'Mn2 P4 O14'
_cell_volume   270.27760743
_cell_formula_units_Z   2
loop_
 _symmetry_equiv_pos_site_id
 _symmetry_equiv_pos_as_xyz
  1  'x, y, z'
loop_
 _atom_site_type_symbol
 _atom_site_label
 _atom_site_symmetry_multiplicity
 _atom_site_fract_x
 _atom_site_fract_y
 _atom_site_fract_z
 _atom_site_occupancy
  Mn  Mn0  1  0.25233500  0.75274500  0.35732200  1
  Mn  Mn1  1  0.74766500  0.24725500  0.64267800  1
  P  P2  1  0.12128000  0.23291200  0.38464100  1
  P  P3  1  0.28846700  0.17377200  0.85419600  1
  P  P4  1  0.71153300  0.82622800  0.14580400  1
  P  P5  1  0.87872000  0.76708800  0.61535900  1
  O  O6  1  0.27326300  0.45005300  0.35272800  1
  O  O7  1  0.32655200  0.09053100  0.41027100  1
  O  O8  1  0.51279200  0.24419200  0.77711000  1
  O  O9  1  0.93040000  0.70005700  0.16331400  1
  O  O10  1  0.60981000  0.79465200  0.97063400  1
  O  O11  1  0.99252300  0.72134200  0.47480500  1
  O  O12  1  0.12872100  0.90354200  0.76803100  1
  O  O13  1  0.87127900  0.09645800  0.23196900  1
  O  O14  1  0.00747700  0.27865800  0.52519500  1
  O  O15  1  0.39019000  0.20534800  0.02936600  1
  O  O16  1  0.06960000  0.29994300  0.83668600  1
  O  O17  1  0.48720800  0.75580800  0.22289000  1
  O  O18  1  0.67344800  0.90946900  0.58972900  1
  O  O19  1  0.72673700  0.54994700  0.64727200  1
