# generated using pymatgen
data_FeHO2
_symmetry_space_group_name_H-M   'P 1'
_cell_length_a   6.16233300
_cell_length_b   9.22455535
_cell_length_c   11.34466466
_cell_angle_alpha   84.07353373
_cell_angle_beta   89.91111186
_cell_angle_gamma   89.83694894
_symmetry_Int_Tables_number   1
_chemical_formula_structural   FeHO2
_chemical_formula_sum   'Fe16 H16 O32'
_cell_volume   641.43511490
_cell_formula_units_Z   16
loop_
 _symmetry_equiv_pos_site_id
 _symmetry_equiv_pos_as_xyz
  1  'x, y, z'
loop_
 _atom_site_type_symbol
 _atom_site_label
 _atom_site_symmetry_multiplicity
 _atom_site_fract_x
 _atom_site_fract_y
 _atom_site_fract_z
 _atom_site_occupancy
  Fe  Fe0  1  0.01210600  0.31293900  0.11792800  1
  Fe  Fe1  1  0.99884500  0.17672800  0.62588500  1
  Fe  Fe2  1  0.75092900  0.82674000  0.60930900  1
  Fe  Fe3  1  0.75034500  0.69088000  0.12183700  1
  Fe  Fe4  1  0.99961000  0.70330400  0.85219600  1
  Fe  Fe5  1  0.00956600  0.84142200  0.32883900  1
  Fe  Fe6  1  0.75041300  0.21277900  0.35276100  1
  Fe  Fe7  1  0.75436500  0.32191800  0.84197600  1
  Fe  Fe8  1  0.49241400  0.31163900  0.11637400  1
  Fe  Fe9  1  0.50416000  0.19629000  0.62684200  1
  Fe  Fe10  1  0.26068900  0.82784600  0.60723300  1
  Fe  Fe11  1  0.25868200  0.70572900  0.12544700  1
  Fe  Fe12  1  0.50662600  0.70754900  0.83671800  1
  Fe  Fe13  1  0.49083200  0.84983800  0.33533100  1
  Fe  Fe14  1  0.25803300  0.21648500  0.35353200  1
  Fe  Fe15  1  0.25345600  0.35735600  0.83625300  1
  H  H16  1  0.00477000  0.02322300  0.46145700  1
  H  H17  1  0.97857600  0.46245200  0.66686800  1
  H  H18  1  0.73996000  0.52487400  0.95742000  1
  H  H19  1  0.86094400  0.92558500  0.11227400  1
  H  H20  1  0.02725200  0.63105400  0.56611100  1
  H  H21  1  0.01821900  0.54090800  0.28541900  1
  H  H22  1  0.73665700  0.07303500  0.16442200  1
  H  H23  1  0.73937700  0.44838500  0.20323300  1
  H  H24  1  0.75081500  0.02746200  0.78775800  1
  H  H25  1  0.51699200  0.49108100  0.67486600  1
  H  H26  1  0.20958700  0.94692300  0.79815500  1
  H  H27  1  0.50467100  0.01714100  0.48890100  1
  H  H28  1  0.49813200  0.55136500  0.29056000  1
  H  H29  1  0.25674700  0.05744800  0.16742800  1
  H  H30  1  0.25486400  0.50515100  0.00175400  1
  H  H31  1  0.33790600  0.10181700  0.84054800  1
  O  O32  1  0.00398000  0.34255600  0.29367900  1
  O  O33  1  0.00579900  0.05750400  0.37181300  1
  O  O34  1  0.99808700  0.36759100  0.71295800  1
  O  O35  1  0.00515200  0.29411300  0.94697500  1
  O  O36  1  0.76302000  0.83592900  0.79304800  1
  O  O37  1  0.75321200  0.54703900  0.87113200  1
  O  O38  1  0.78092100  0.89090900  0.18455800  1
  O  O39  1  0.75339000  0.80283500  0.43168700  1
  O  O40  1  0.00435400  0.67660900  0.63921800  1
  O  O41  1  0.00726300  0.97221300  0.59512900  1
  O  O42  1  0.00790600  0.64450500  0.24936200  1
  O  O43  1  0.00176000  0.73845600  0.01773900  1
  O  O44  1  0.75039800  0.18016400  0.16225000  1
  O  O45  1  0.75229600  0.46462900  0.11534100  1
  O  O46  1  0.75106000  0.13434300  0.75766500  1
  O  O47  1  0.75468300  0.24115900  0.52275400  1
  O  O48  1  0.50470500  0.34754800  0.29352600  1
  O  O49  1  0.50324000  0.06070500  0.37079900  1
  O  O50  1  0.51155700  0.38732500  0.71163600  1
  O  O51  1  0.50142200  0.29099700  0.94569700  1
  O  O52  1  0.24028200  0.84342100  0.79339600  1
  O  O53  1  0.24955700  0.56255900  0.86409500  1
  O  O54  1  0.25770200  0.88832400  0.20583200  1
  O  O55  1  0.25054800  0.79028100  0.44028000  1
  O  O56  1  0.50304500  0.69039000  0.65978700  1
  O  O57  1  0.50381600  0.98203000  0.58540800  1
  O  O58  1  0.50923600  0.65275900  0.25052400  1
  O  O59  1  0.50701300  0.73071500  0.01346400  1
  O  O60  1  0.25365900  0.17019100  0.16373500  1
  O  O61  1  0.25439300  0.46999700  0.09057500  1
  O  O62  1  0.27297300  0.14984500  0.76815800  1
  O  O63  1  0.25099400  0.23940700  0.52619000  1
