# generated using pymatgen
data_Ca4Al6WO16
_symmetry_space_group_name_H-M   'P 1'
_cell_length_a   8.07808638
_cell_length_b   8.07808666
_cell_length_c   13.54921800
_cell_angle_alpha   90.00000000
_cell_angle_beta   90.00000000
_cell_angle_gamma   113.88478985
_symmetry_Int_Tables_number   1
_chemical_formula_structural   Ca4Al6WO16
_chemical_formula_sum   'Ca8 Al12 W2 O32'
_cell_volume   808.44252672
_cell_formula_units_Z   2
loop_
 _symmetry_equiv_pos_site_id
 _symmetry_equiv_pos_as_xyz
  1  'x, y, z'
loop_
 _atom_site_type_symbol
 _atom_site_label
 _atom_site_symmetry_multiplicity
 _atom_site_fract_x
 _atom_site_fract_y
 _atom_site_fract_z
 _atom_site_occupancy
  Ca  Ca0  1  0.41662600  0.91662600  0.04505600  1
  Ca  Ca1  1  0.83204100  0.76877900  0.25318500  1
  Ca  Ca2  1  0.33204100  0.26877900  0.74681500  1
  Ca  Ca3  1  0.91662600  0.41662600  0.95494400  1
  Ca  Ca4  1  0.26877900  0.33204100  0.25318500  1
  Ca  Ca5  1  0.47174300  0.97174300  0.48254400  1
  Ca  Ca6  1  0.97174300  0.47174300  0.51745600  1
  Ca  Ca7  1  0.76877900  0.83204100  0.74681500  1
  Al  Al8  1  0.61167400  0.35852300  0.12392600  1
  Al  Al9  1  0.35852300  0.61167400  0.87607400  1
  Al  Al10  1  0.11167400  0.85852300  0.87607400  1
  Al  Al11  1  0.73348200  0.73348200  0.00000000  1
  Al  Al12  1  0.13417500  0.88002100  0.63062300  1
  Al  Al13  1  0.75803000  0.75803000  0.50000000  1
  Al  Al14  1  0.63417500  0.38002100  0.36937700  1
  Al  Al15  1  0.23348200  0.23348200  0.00000000  1
  Al  Al16  1  0.85852300  0.11167400  0.12392600  1
  Al  Al17  1  0.88002100  0.13417500  0.36937700  1
  Al  Al18  1  0.38002100  0.63417500  0.63062300  1
  Al  Al19  1  0.25803000  0.25803000  0.50000000  1
  W  W20  1  0.75507100  0.25507100  0.72997700  1
  W  W21  1  0.25507100  0.75507100  0.27002300  1
  O  O22  1  0.90404700  0.78745800  0.60200800  1
  O  O23  1  0.77430700  0.57466400  0.43367200  1
  O  O24  1  0.57466400  0.77430700  0.56632800  1
  O  O25  1  0.21057400  0.71057400  0.60367500  1
  O  O26  1  0.78745800  0.90404700  0.39799200  1
  O  O27  1  0.17280600  0.67280600  0.90013100  1
  O  O28  1  0.84451300  0.13362000  0.81534300  1
  O  O29  1  0.34451300  0.63362000  0.18465700  1
  O  O30  1  0.87672100  0.77774200  0.89475200  1
  O  O31  1  0.27430700  0.07466400  0.56632800  1
  O  O32  1  0.28745800  0.40404700  0.60200800  1
  O  O33  1  0.40404700  0.28745800  0.39799200  1
  O  O34  1  0.34233100  0.67582600  0.38539000  1
  O  O35  1  0.27774200  0.37672100  0.89475200  1
  O  O36  1  0.67280600  0.17280600  0.09986900  1
  O  O37  1  0.77774200  0.87672100  0.10524800  1
  O  O38  1  0.64717000  0.45097500  0.24480000  1
  O  O39  1  0.14717000  0.95097500  0.75520000  1
  O  O40  1  0.63362000  0.34451300  0.81534300  1
  O  O41  1  0.53078700  0.74529400  0.95646200  1
  O  O42  1  0.84233100  0.17582600  0.61461000  1
  O  O43  1  0.67582600  0.34233100  0.61461000  1
  O  O44  1  0.37672100  0.27774200  0.10524800  1
  O  O45  1  0.24529400  0.03078700  0.95646200  1
  O  O46  1  0.45097500  0.64717000  0.75520000  1
  O  O47  1  0.03078700  0.24529400  0.04353800  1
  O  O48  1  0.95097500  0.14717000  0.24480000  1
  O  O49  1  0.17582600  0.84233100  0.38539000  1
  O  O50  1  0.13362000  0.84451300  0.18465700  1
  O  O51  1  0.07466400  0.27430700  0.43367200  1
  O  O52  1  0.71057400  0.21057400  0.39632500  1
  O  O53  1  0.74529400  0.53078700  0.04353800  1
