# generated using pymatgen
data_Li3MnBPO7
_symmetry_space_group_name_H-M   'P 1'
_cell_length_a   5.01265746
_cell_length_b   8.31245390
_cell_length_c   13.39616701
_cell_angle_alpha   90.00308739
_cell_angle_beta   89.99815836
_cell_angle_gamma   83.96889714
_symmetry_Int_Tables_number   1
_chemical_formula_structural   Li3MnBPO7
_chemical_formula_sum   'Li12 Mn4 B4 P4 O28'
_cell_volume   555.09502499
_cell_formula_units_Z   4
loop_
 _symmetry_equiv_pos_site_id
 _symmetry_equiv_pos_as_xyz
  1  'x, y, z'
loop_
 _atom_site_type_symbol
 _atom_site_label
 _atom_site_symmetry_multiplicity
 _atom_site_fract_x
 _atom_site_fract_y
 _atom_site_fract_z
 _atom_site_occupancy
  Li  Li0  1  0.77156100  0.09854100  0.12501400  1
  Li  Li1  1  0.77143700  0.09857400  0.62500600  1
  Li  Li2  1  0.22829100  0.90145800  0.37499000  1
  Li  Li3  1  0.22844100  0.90136800  0.87501200  1
  Li  Li4  1  0.25213200  0.24274800  0.00320200  1
  Li  Li5  1  0.25171200  0.24268000  0.50309900  1
  Li  Li6  1  0.25172500  0.24250500  0.24695500  1
  Li  Li7  1  0.25208800  0.24281700  0.74683800  1
  Li  Li8  1  0.74816200  0.75746700  0.25304000  1
  Li  Li9  1  0.74787500  0.75717200  0.75320000  1
  Li  Li10  1  0.74779000  0.75723100  0.49678600  1
  Li  Li11  1  0.74806200  0.75718700  0.99682600  1
  Mn  Mn12  1  0.78176600  0.32587400  0.87500300  1
  Mn  Mn13  1  0.21778100  0.67400900  0.62490000  1
  Mn  Mn14  1  0.78214300  0.32598100  0.37487500  1
  Mn  Mn15  1  0.21798500  0.67395300  0.12509600  1
  B  B16  1  0.69932100  0.04439500  0.37498800  1
  B  B17  1  0.69958500  0.04430900  0.87500900  1
  B  B18  1  0.30070900  0.95563400  0.12503400  1
  B  B19  1  0.30057600  0.95575400  0.62497400  1
  P  P20  1  0.74903700  0.41477300  0.12503300  1
  P  P21  1  0.74893900  0.41483900  0.62502600  1
  P  P22  1  0.25099500  0.58525300  0.37500000  1
  P  P23  1  0.25117200  0.58516400  0.87498100  1
  O  O24  1  0.37056100  0.10783300  0.12502000  1
  O  O25  1  0.37050400  0.10790900  0.62496100  1
  O  O26  1  0.62941300  0.89223200  0.37497100  1
  O  O27  1  0.62943700  0.89216500  0.87503500  1
  O  O28  1  0.95850200  0.09175100  0.37496800  1
  O  O29  1  0.95867200  0.09161100  0.87497400  1
  O  O30  1  0.04157700  0.90825100  0.12507100  1
  O  O31  1  0.04145300  0.90841000  0.62499200  1
  O  O32  1  0.50557800  0.18156800  0.37499500  1
  O  O33  1  0.50567300  0.18146900  0.87501300  1
  O  O34  1  0.49452800  0.81848700  0.12503700  1
  O  O35  1  0.49436500  0.81854000  0.62493300  1
  O  O36  1  0.43822200  0.45843500  0.12499200  1
  O  O37  1  0.43800500  0.45854500  0.62501700  1
  O  O38  1  0.56187800  0.54154800  0.37503800  1
  O  O39  1  0.56212800  0.54154200  0.87500800  1
  O  O40  1  0.12449600  0.42294300  0.37490700  1
  O  O41  1  0.12473300  0.42281500  0.87488900  1
  O  O42  1  0.87553000  0.57703200  0.12514500  1
  O  O43  1  0.87535600  0.57715700  0.62510400  1
  O  O44  1  0.83697900  0.30646200  0.03439400  1
  O  O45  1  0.83677800  0.30652900  0.53436200  1
  O  O46  1  0.83674700  0.30629400  0.21556600  1
  O  O47  1  0.83666000  0.30633900  0.71553800  1
  O  O48  1  0.16318900  0.69375700  0.28447300  1
  O  O49  1  0.16341600  0.69368900  0.78445800  1
  O  O50  1  0.16301500  0.69356900  0.46560300  1
  O  O51  1  0.16332200  0.69343300  0.96565200  1
