# generated using pymatgen
data_BaGd2CuO5
_symmetry_space_group_name_H-M   'P 1'
_cell_length_a   12.37670600
_cell_length_b   5.76715800
_cell_length_c   7.33729400
_cell_angle_alpha   90.00000000
_cell_angle_beta   90.00000000
_cell_angle_gamma   90.00000000
_symmetry_Int_Tables_number   1
_chemical_formula_structural   BaGd2CuO5
_chemical_formula_sum   'Ba4 Gd8 Cu4 O20'
_cell_volume   523.72444562
_cell_formula_units_Z   4
loop_
 _symmetry_equiv_pos_site_id
 _symmetry_equiv_pos_as_xyz
  1  'x, y, z'
loop_
 _atom_site_type_symbol
 _atom_site_label
 _atom_site_symmetry_multiplicity
 _atom_site_fract_x
 _atom_site_fract_y
 _atom_site_fract_z
 _atom_site_occupancy
  Ba  Ba0  1  0.40617100  0.25000000  0.57217100  1
  Ba  Ba1  1  0.90617100  0.25000000  0.92782900  1
  Ba  Ba2  1  0.59382900  0.75000000  0.42782900  1
  Ba  Ba3  1  0.09382900  0.75000000  0.07217100  1
  Gd  Gd4  1  0.78764300  0.25000000  0.38513000  1
  Gd  Gd5  1  0.28764300  0.25000000  0.11487000  1
  Gd  Gd6  1  0.21235700  0.75000000  0.61487000  1
  Gd  Gd7  1  0.71235700  0.75000000  0.88513000  1
  Gd  Gd8  1  0.57411400  0.25000000  0.10380600  1
  Gd  Gd9  1  0.07411400  0.25000000  0.39619400  1
  Gd  Gd10  1  0.42588600  0.75000000  0.89619400  1
  Gd  Gd11  1  0.92588600  0.75000000  0.60380600  1
  Cu  Cu12  1  0.16095700  0.25000000  0.78349500  1
  Cu  Cu13  1  0.66095700  0.25000000  0.71650500  1
  Cu  Cu14  1  0.83904300  0.75000000  0.21650500  1
  Cu  Cu15  1  0.33904300  0.75000000  0.28349500  1
  O  O16  1  0.93267900  0.99209500  0.33384200  1
  O  O17  1  0.43267900  0.50790500  0.16615800  1
  O  O18  1  0.06732100  0.49209500  0.66615800  1
  O  O19  1  0.56732100  0.00790500  0.83384200  1
  O  O20  1  0.06732100  0.00790500  0.66615800  1
  O  O21  1  0.56732100  0.49209500  0.83384200  1
  O  O22  1  0.93267900  0.50790500  0.33384200  1
  O  O23  1  0.43267900  0.99209500  0.16615800  1
  O  O24  1  0.72756300  0.50594100  0.14545500  1
  O  O25  1  0.22756300  0.99405900  0.35454500  1
  O  O26  1  0.27243700  0.00594100  0.85454500  1
  O  O27  1  0.77243700  0.49405900  0.64545500  1
  O  O28  1  0.27243700  0.49405900  0.85454500  1
  O  O29  1  0.77243700  0.00594100  0.64545500  1
  O  O30  1  0.72756300  0.99405900  0.14545500  1
  O  O31  1  0.22756300  0.50594100  0.35454500  1
  O  O32  1  0.59989500  0.25000000  0.41750800  1
  O  O33  1  0.09989500  0.25000000  0.08249200  1
  O  O34  1  0.40010500  0.75000000  0.58249200  1
  O  O35  1  0.90010500  0.75000000  0.91750800  1
