# generated using pymatgen
data_MnCo3O8
_symmetry_space_group_name_H-M   'P 1'
_cell_length_a   5.62628201
_cell_length_b   5.62639551
_cell_length_c   8.70885511
_cell_angle_alpha   90.01132690
_cell_angle_beta   90.00708149
_cell_angle_gamma   119.99604641
_symmetry_Int_Tables_number   1
_chemical_formula_structural   MnCo3O8
_chemical_formula_sum   'Mn2 Co6 O16'
_cell_volume   238.75953777
_cell_formula_units_Z   2
loop_
 _symmetry_equiv_pos_site_id
 _symmetry_equiv_pos_as_xyz
  1  'x, y, z'
loop_
 _atom_site_type_symbol
 _atom_site_label
 _atom_site_symmetry_multiplicity
 _atom_site_fract_x
 _atom_site_fract_y
 _atom_site_fract_z
 _atom_site_occupancy
  Mn  Mn0  1  0.33332300  0.66667100  0.48537200  1
  Mn  Mn1  1  0.66661900  0.33329800  0.98527600  1
  Co  Co2  1  0.16749400  0.83264000  0.20926600  1
  Co  Co3  1  0.16746600  0.33491200  0.20925600  1
  Co  Co4  1  0.66526200  0.83262000  0.20928800  1
  Co  Co5  1  0.33487900  0.16743900  0.70903400  1
  Co  Co6  1  0.83253000  0.66512900  0.70904000  1
  Co  Co7  1  0.83259700  0.16748800  0.70901100  1
  O  O8  1  0.16399500  0.83588900  0.60501000  1
  O  O9  1  0.03821700  0.51918500  0.33727500  1
  O  O10  1  0.33332000  0.66661900  0.09836400  1
  O  O11  1  0.00018400  0.00019000  0.32044200  1
  O  O12  1  0.00007700  0.00009500  0.82020000  1
  O  O13  1  0.16403600  0.32814800  0.60499800  1
  O  O14  1  0.48094400  0.96171600  0.33723700  1
  O  O15  1  0.48100300  0.51919900  0.33722500  1
  O  O16  1  0.32794900  0.16393900  0.10495100  1
  O  O17  1  0.67161900  0.83581800  0.60510700  1
  O  O18  1  0.51925200  0.48088100  0.83702100  1
  O  O19  1  0.51929600  0.03840000  0.83699700  1
  O  O20  1  0.66654900  0.33327900  0.59800600  1
  O  O21  1  0.83588900  0.67177300  0.10519500  1
  O  O22  1  0.96163700  0.48086100  0.83701600  1
  O  O23  1  0.83586500  0.16401300  0.10513600  1
