# generated using pymatgen
data_Li2VPO5
_symmetry_space_group_name_H-M   'P 1'
_cell_length_a   5.13017600
_cell_length_b   12.66659100
_cell_length_c   13.17187197
_cell_angle_alpha   61.97958907
_cell_angle_beta   90.00000000
_cell_angle_gamma   90.00000000
_symmetry_Int_Tables_number   1
_chemical_formula_structural   Li2VPO5
_chemical_formula_sum   'Li16 V8 P8 O40'
_cell_volume   755.60033627
_cell_formula_units_Z   8
loop_
 _symmetry_equiv_pos_site_id
 _symmetry_equiv_pos_as_xyz
  1  'x, y, z'
loop_
 _atom_site_type_symbol
 _atom_site_label
 _atom_site_symmetry_multiplicity
 _atom_site_fract_x
 _atom_site_fract_y
 _atom_site_fract_z
 _atom_site_occupancy
  Li  Li0  1  0.73177000  0.81993400  0.35927800  1
  Li  Li1  1  0.76388700  0.34077300  0.08859000  1
  Li  Li2  1  0.21773400  0.17724200  0.14893100  1
  Li  Li3  1  0.72821100  0.57595600  0.58714000  1
  Li  Li4  1  0.22821100  0.92404400  0.41286000  1
  Li  Li5  1  0.71773400  0.32275800  0.85106900  1
  Li  Li6  1  0.76823000  0.31993400  0.35927800  1
  Li  Li7  1  0.73611300  0.84077300  0.08859000  1
  Li  Li8  1  0.26388700  0.15922700  0.91141000  1
  Li  Li9  1  0.23177000  0.68006600  0.64072200  1
  Li  Li10  1  0.28226600  0.67724200  0.14893100  1
  Li  Li11  1  0.77178900  0.07595600  0.58714000  1
  Li  Li12  1  0.27178900  0.42404400  0.41286000  1
  Li  Li13  1  0.78226600  0.82275800  0.85106900  1
  Li  Li14  1  0.23611300  0.65922700  0.91141000  1
  Li  Li15  1  0.26823000  0.18006600  0.64072200  1
  V  V16  1  0.73008600  0.13359000  0.05925900  1
  V  V17  1  0.26106000  0.69229100  0.43858100  1
  V  V18  1  0.76991400  0.63359000  0.05925900  1
  V  V19  1  0.76106000  0.80770900  0.56141900  1
  V  V20  1  0.23894000  0.19229100  0.43858100  1
  V  V21  1  0.23008600  0.36641000  0.94074100  1
  V  V22  1  0.73894000  0.30770900  0.56141900  1
  V  V23  1  0.26991400  0.86641000  0.94074100  1
  P  P24  1  0.22043800  0.92783800  0.16101200  1
  P  P25  1  0.23257400  0.41362000  0.66311700  1
  P  P26  1  0.27956200  0.42783800  0.16101200  1
  P  P27  1  0.73257400  0.08638000  0.33688300  1
  P  P28  1  0.26742600  0.91362000  0.66311700  1
  P  P29  1  0.72043800  0.57216200  0.83898800  1
  P  P30  1  0.76742600  0.58638000  0.33688300  1
  P  P31  1  0.77956200  0.07216200  0.83898800  1
  O  O32  1  0.92635400  0.95528800  0.12920600  1
  O  O33  1  0.02748400  0.22518900  0.98916900  1
  O  O34  1  0.37570700  0.04460300  0.12482300  1
  O  O35  1  0.61900600  0.65626000  0.38781600  1
  O  O36  1  0.24526400  0.85282900  0.29324000  1
  O  O37  1  0.15559100  0.35776900  0.10199500  1
  O  O38  1  0.80927300  0.14392600  0.20731100  1
  O  O39  1  0.93304400  0.40728300  0.64515500  1
  O  O40  1  0.96397800  0.72100900  0.50344800  1
  O  O41  1  0.57364600  0.45528800  0.12920600  1
  O  O42  1  0.47251600  0.72518900  0.98916900  1
  O  O43  1  0.32917200  0.54577400  0.60340800  1
  O  O44  1  0.82917200  0.95422600  0.39659200  1
  O  O45  1  0.12429300  0.54460300  0.12482300  1
  O  O46  1  0.46397800  0.77899100  0.49655200  1
  O  O47  1  0.43304400  0.09271700  0.35484500  1
  O  O48  1  0.88099400  0.15626000  0.38781600  1
  O  O49  1  0.25473600  0.35282900  0.29324000  1
  O  O50  1  0.30927300  0.35607400  0.79268900  1
  O  O51  1  0.65559100  0.14223100  0.89800500  1
  O  O52  1  0.34440900  0.85776900  0.10199500  1
  O  O53  1  0.69072700  0.64392600  0.20731100  1
  O  O54  1  0.74526400  0.64717100  0.70676000  1
  O  O55  1  0.11900600  0.84374000  0.61218400  1
  O  O56  1  0.56695600  0.90728300  0.64515500  1
  O  O57  1  0.53602200  0.22100900  0.50344800  1
  O  O58  1  0.87570700  0.45539700  0.87517700  1
  O  O59  1  0.17082800  0.04577400  0.60340800  1
  O  O60  1  0.67082800  0.45422600  0.39659200  1
  O  O61  1  0.52748400  0.27481100  0.01083100  1
  O  O62  1  0.42635400  0.54471200  0.87079400  1
  O  O63  1  0.03602200  0.27899100  0.49655200  1
  O  O64  1  0.06695600  0.59271700  0.35484500  1
  O  O65  1  0.19072700  0.85607400  0.79268900  1
  O  O66  1  0.84440900  0.64223100  0.89800500  1
  O  O67  1  0.75473600  0.14717100  0.70676000  1
  O  O68  1  0.38099400  0.34374000  0.61218400  1
  O  O69  1  0.62429300  0.95539700  0.87517700  1
  O  O70  1  0.97251600  0.77481100  0.01083100  1
  O  O71  1  0.07364600  0.04471200  0.87079400  1
