# generated using pymatgen
data_NaPH4SO8
_symmetry_space_group_name_H-M   'P 1'
_cell_length_a   6.84533300
_cell_length_b   5.47281100
_cell_length_c   8.82088000
_cell_angle_alpha   84.57791531
_cell_angle_beta   90.00000000
_cell_angle_gamma   90.00000000
_symmetry_Int_Tables_number   1
_chemical_formula_structural   NaPH4SO8
_chemical_formula_sum   'Na2 P2 H8 S2 O16'
_cell_volume   328.97991470
_cell_formula_units_Z   2
loop_
 _symmetry_equiv_pos_site_id
 _symmetry_equiv_pos_as_xyz
  1  'x, y, z'
loop_
 _atom_site_type_symbol
 _atom_site_label
 _atom_site_symmetry_multiplicity
 _atom_site_fract_x
 _atom_site_fract_y
 _atom_site_fract_z
 _atom_site_occupancy
  Na  Na0  1  0.86041600  0.98696700  0.44572700  1
  Na  Na1  1  0.36041600  0.01303300  0.55427300  1
  P  P2  1  0.11954900  0.88153400  0.87832300  1
  P  P3  1  0.61954900  0.11846600  0.12167700  1
  H  H4  1  0.50387300  0.91302300  0.93147800  1
  H  H5  1  0.41983400  0.84596500  0.24916100  1
  H  H6  1  0.91402300  0.57177900  0.86118800  1
  H  H7  1  0.38987300  0.54830900  0.77809000  1
  H  H8  1  0.88987300  0.45169100  0.22191000  1
  H  H9  1  0.41402300  0.42822100  0.13881200  1
  H  H10  1  0.91983400  0.15403500  0.75083900  1
  H  H11  1  0.00387300  0.08697700  0.06852200  1
  S  S12  1  0.13604000  0.54137800  0.36135400  1
  S  S13  1  0.63604000  0.45862200  0.63864600  1
  O  O14  1  0.62806100  0.94817900  0.98978800  1
  O  O15  1  0.51207200  0.98610100  0.26568900  1
  O  O16  1  0.32731600  0.82444900  0.83185900  1
  O  O17  1  0.63403400  0.71535900  0.57767300  1
  O  O18  1  0.00360000  0.64502900  0.93561500  1
  O  O19  1  0.13929200  0.72028800  0.47447300  1
  O  O20  1  0.93438600  0.59678600  0.27721600  1
  O  O21  1  0.29450900  0.59537200  0.24724900  1
  O  O22  1  0.79450900  0.40462800  0.75275100  1
  O  O23  1  0.43438600  0.40321400  0.72278400  1
  O  O24  1  0.63929200  0.27971200  0.52552700  1
  O  O25  1  0.50360000  0.35497100  0.06438500  1
  O  O26  1  0.13403400  0.28464100  0.42232700  1
  O  O27  1  0.82731600  0.17555100  0.16814100  1
  O  O28  1  0.01207200  0.01389900  0.73431100  1
  O  O29  1  0.12806100  0.05182100  0.01021200  1
