# generated using pymatgen
data_Fe8H10O17
_symmetry_space_group_name_H-M   'P 1'
_cell_length_a   6.15535000
_cell_length_b   10.35028867
_cell_length_c   10.74646567
_cell_angle_alpha   94.03329928
_cell_angle_beta   90.51014421
_cell_angle_gamma   90.60534782
_symmetry_Int_Tables_number   1
_chemical_formula_structural   Fe8H10O17
_chemical_formula_sum   'Fe16 H20 O34'
_cell_volume   682.88785077
_cell_formula_units_Z   2
loop_
 _symmetry_equiv_pos_site_id
 _symmetry_equiv_pos_as_xyz
  1  'x, y, z'
loop_
 _atom_site_type_symbol
 _atom_site_label
 _atom_site_symmetry_multiplicity
 _atom_site_fract_x
 _atom_site_fract_y
 _atom_site_fract_z
 _atom_site_occupancy
  Fe  Fe0  1  0.01081100  0.32399900  0.90995500  1
  Fe  Fe1  1  0.99187200  0.16925400  0.39012100  1
  Fe  Fe2  1  0.25102100  0.83766500  0.42041500  1
  Fe  Fe3  1  0.22877500  0.70127600  0.91378500  1
  Fe  Fe4  1  0.00070000  0.67092000  0.20067200  1
  Fe  Fe5  1  0.00806200  0.85652200  0.71472000  1
  Fe  Fe6  1  0.24468500  0.17541800  0.68215200  1
  Fe  Fe7  1  0.24465000  0.35231000  0.19646800  1
  Fe  Fe8  1  0.49635200  0.32923000  0.90621300  1
  Fe  Fe9  1  0.49013600  0.15424000  0.38686700  1
  Fe  Fe10  1  0.73962000  0.84103800  0.41385700  1
  Fe  Fe11  1  0.75045600  0.84193700  0.02298800  1
  Fe  Fe12  1  0.48257600  0.67840900  0.19386600  1
  Fe  Fe13  1  0.51003100  0.85429300  0.71972900  1
  Fe  Fe14  1  0.75744500  0.16910500  0.67808300  1
  Fe  Fe15  1  0.74251400  0.33835700  0.19563000  1
  H  H16  1  0.98425700  0.39107800  0.66291700  1
  H  H17  1  0.98972500  0.43808600  0.39153100  1
  H  H18  1  0.16105000  0.89944400  0.14025800  1
  H  H19  1  0.97932900  0.66181800  0.48505500  1
  H  H20  1  0.99715900  0.99784400  0.52558700  1
  H  H21  1  0.87789500  0.68024200  0.80147600  1
  H  H22  1  0.25968400  0.49796800  0.01792700  1
  H  H23  1  0.18981300  0.09074700  0.18456300  1
  H  H24  1  0.52575800  0.37099200  0.64033700  1
  H  H25  1  0.49538800  0.01385400  0.57009000  1
  H  H26  1  0.49249300  0.42193600  0.39839500  1
  H  H27  1  0.74564400  0.52626700  0.07579300  1
  H  H28  1  0.50639800  0.64904700  0.47223000  1
  H  H29  1  0.73133100  0.12238400  0.93110400  1
  H  H30  1  0.82081900  0.52500700  0.86466800  1
  H  H31  1  0.71124400  0.09042000  0.17370000  1
  H  H32  1  0.49511500  0.03093500  0.04027400  1
  H  H33  1  0.16471200  0.95218000  0.00181400  1
  H  H34  1  0.51446900  0.56024500  0.79080300  1
  H  H35  1  0.31631600  0.60007700  0.70511600  1
  O  O36  1  0.99454600  0.31516300  0.71073000  1
  O  O37  1  0.00079000  0.04865100  0.67135400  1
  O  O38  1  0.99129400  0.36264800  0.33248900  1
  O  O39  1  0.99344500  0.31156500  0.08721600  1
  O  O40  1  0.23871700  0.80201900  0.23665000  1
  O  O41  1  0.24497000  0.54184800  0.18118400  1
  O  O42  1  0.25938600  0.86874600  0.84357000  1
  O  O43  1  0.25699300  0.81478100  0.59884400  1
  O  O44  1  0.98881700  0.69701900  0.40331600  1
  O  O45  1  0.99656300  0.97293800  0.43116900  1
  O  O46  1  0.01671600  0.65106400  0.76453600  1
  O  O47  1  0.98472100  0.70925600  0.02359400  1
  O  O48  1  0.25478500  0.20895700  0.86679800  1
  O  O49  1  0.25643700  0.47467400  0.92531100  1
  O  O50  1  0.23042500  0.15564800  0.25554300  1
  O  O51  1  0.24651600  0.20242600  0.50118600  1
  O  O52  1  0.50890600  0.31269200  0.70655500  1
  O  O53  1  0.49865900  0.04439200  0.66357100  1
  O  O54  1  0.49404000  0.35461100  0.33105600  1
  O  O55  1  0.49269200  0.31434400  0.08482300  1
  O  O56  1  0.74686100  0.79889500  0.22300200  1
  O  O57  1  0.74065300  0.53671600  0.16922600  1
  O  O58  1  0.75726000  0.85613000  0.83950300  1
  O  O59  1  0.74926000  0.81920400  0.59528600  1
  O  O60  1  0.49811700  0.69563400  0.39692300  1
  O  O61  1  0.49537300  0.96845000  0.42299800  1
  O  O62  1  0.49272400  0.72096400  0.01888500  1
  O  O63  1  0.74628000  0.19482800  0.87373400  1
  O  O64  1  0.75990200  0.45575800  0.91173600  1
  O  O65  1  0.73783200  0.15179900  0.25582800  1
  O  O66  1  0.74329700  0.20185000  0.50119800  1
  O  O67  1  0.65141100  0.02250600  0.05298300  1
  O  O68  1  0.09713100  0.96714400  0.08493700  1
  O  O69  1  0.46042200  0.62712700  0.73827400  1
