# generated using pymatgen
data_P3W2O13
_symmetry_space_group_name_H-M   'P 1'
_cell_length_a   19.50134500
_cell_length_b   6.44483500
_cell_length_c   9.75695086
_cell_angle_alpha   73.31085426
_cell_angle_beta   90.00000000
_cell_angle_gamma   90.00000000
_symmetry_Int_Tables_number   1
_chemical_formula_structural   P3W2O13
_chemical_formula_sum   'P12 W8 O52'
_cell_volume   1174.62757952
_cell_formula_units_Z   4
loop_
 _symmetry_equiv_pos_site_id
 _symmetry_equiv_pos_as_xyz
  1  'x, y, z'
loop_
 _atom_site_type_symbol
 _atom_site_label
 _atom_site_symmetry_multiplicity
 _atom_site_fract_x
 _atom_site_fract_y
 _atom_site_fract_z
 _atom_site_occupancy
  P  P0  1  0.32506600  0.34166300  0.03080000  1
  P  P1  1  0.17493400  0.84166300  0.03080000  1
  P  P2  1  0.09156600  0.23349000  0.29585600  1
  P  P3  1  0.96794600  0.48830400  0.30258600  1
  P  P4  1  0.40843400  0.73349000  0.29585600  1
  P  P5  1  0.53205400  0.98830400  0.30258600  1
  P  P6  1  0.46794600  0.01169600  0.69741400  1
  P  P7  1  0.59156600  0.26651000  0.70414400  1
  P  P8  1  0.03205400  0.51169600  0.69741400  1
  P  P9  1  0.90843400  0.76651000  0.70414400  1
  P  P10  1  0.82506600  0.15833700  0.96920000  1
  P  P11  1  0.67493400  0.65833700  0.96920000  1
  W  W12  1  0.66285300  0.11512000  0.07139000  1
  W  W13  1  0.83714700  0.61512000  0.07139000  1
  W  W14  1  0.37532800  0.18698700  0.38492600  1
  W  W15  1  0.12467200  0.68698700  0.38492600  1
  W  W16  1  0.87532800  0.31301300  0.61507400  1
  W  W17  1  0.62467200  0.81301300  0.61507400  1
  W  W18  1  0.16285300  0.38488000  0.92861000  1
  W  W19  1  0.33714700  0.88488000  0.92861000  1
  O  O20  1  0.85061600  0.31492800  0.04866600  1
  O  O21  1  0.24797900  0.32596700  0.06349600  1
  O  O22  1  0.64994100  0.43443300  0.05379800  1
  O  O23  1  0.56418400  0.07305000  0.15602400  1
  O  O24  1  0.11263500  0.28585600  0.14259700  1
  O  O25  1  0.64938400  0.81492800  0.04866600  1
  O  O26  1  0.25202100  0.82596700  0.06349600  1
  O  O27  1  0.36279100  0.28117700  0.18087600  1
  O  O28  1  0.70929100  0.04712200  0.22915500  1
  O  O29  1  0.85005900  0.93443300  0.05379800  1
  O  O30  1  0.93581600  0.57305000  0.15602400  1
  O  O31  1  0.38736500  0.78585600  0.14259700  1
  O  O32  1  0.13720900  0.78117700  0.18087600  1
  O  O33  1  0.79070900  0.54712200  0.22915500  1
  O  O34  1  0.01033900  0.27081900  0.30572600  1
  O  O35  1  0.48310400  0.14850000  0.33778900  1
  O  O36  1  0.48966100  0.77081900  0.30572600  1
  O  O37  1  0.12657700  0.37699200  0.37944700  1
  O  O38  1  0.01689600  0.64850000  0.33778900  1
  O  O39  1  0.39791400  0.49267100  0.37995900  1
  O  O40  1  0.29021400  0.18731300  0.43261300  1
  O  O41  1  0.91146000  0.40537200  0.41693100  1
  O  O42  1  0.37342300  0.87699200  0.37944700  1
  O  O43  1  0.10208600  0.99267100  0.37995900  1
  O  O44  1  0.20978600  0.68731300  0.43261300  1
  O  O45  1  0.58854000  0.90537200  0.41693100  1
  O  O46  1  0.41146000  0.09462800  0.58306900  1
  O  O47  1  0.79021400  0.31268700  0.56738700  1
  O  O48  1  0.89791400  0.00732900  0.62004100  1
  O  O49  1  0.62657700  0.12300800  0.62055300  1
  O  O50  1  0.08854000  0.59462800  0.58306900  1
  O  O51  1  0.70978600  0.81268700  0.56738700  1
  O  O52  1  0.60208600  0.50732900  0.62004100  1
  O  O53  1  0.98310400  0.35150000  0.66221100  1
  O  O54  1  0.87342300  0.62300800  0.62055300  1
  O  O55  1  0.51033900  0.22918100  0.69427400  1
  O  O56  1  0.51689600  0.85150000  0.66221100  1
  O  O57  1  0.98966100  0.72918100  0.69427400  1
  O  O58  1  0.20929100  0.45287800  0.77084500  1
  O  O59  1  0.86279100  0.21882300  0.81912400  1
  O  O60  1  0.61263500  0.21414400  0.85740300  1
  O  O61  1  0.06418400  0.42695000  0.84397600  1
  O  O62  1  0.14994100  0.06556700  0.94620200  1
  O  O63  1  0.29070900  0.95287800  0.77084500  1
  O  O64  1  0.63720900  0.71882300  0.81912400  1
  O  O65  1  0.74797900  0.17403300  0.93650400  1
  O  O66  1  0.35061600  0.18507200  0.95133400  1
  O  O67  1  0.88736500  0.71414400  0.85740300  1
  O  O68  1  0.43581600  0.92695000  0.84397600  1
  O  O69  1  0.35005900  0.56556700  0.94620200  1
  O  O70  1  0.75202100  0.67403300  0.93650400  1
  O  O71  1  0.14938400  0.68507200  0.95133400  1
