# generated using pymatgen
data_MgH12SeO10
_symmetry_space_group_name_H-M   'P 1'
_cell_length_a   6.36177313
_cell_length_b   6.36177313
_cell_length_c   25.15163259
_cell_angle_alpha   82.90460053
_cell_angle_beta   82.90460053
_cell_angle_gamma   71.44237515
_symmetry_Int_Tables_number   1
_chemical_formula_structural   MgH12SeO10
_chemical_formula_sum   'Mg4 H48 Se4 O40'
_cell_volume   953.77750100
_cell_formula_units_Z   4
loop_
 _symmetry_equiv_pos_site_id
 _symmetry_equiv_pos_as_xyz
  1  'x, y, z'
loop_
 _atom_site_type_symbol
 _atom_site_label
 _atom_site_symmetry_multiplicity
 _atom_site_fract_x
 _atom_site_fract_y
 _atom_site_fract_z
 _atom_site_occupancy
  Mg  Mg0  1  0.55544900  0.44455100  0.75000000  1
  Mg  Mg1  1  0.50000000  0.50000000  0.50000000  1
  Mg  Mg2  1  0.44455100  0.55544900  0.25000000  1
  Mg  Mg3  1  0.50000000  0.50000000  0.00000000  1
  H  H4  1  0.98029600  0.43236300  0.77082000  1
  H  H5  1  0.45939200  0.83666900  0.92048500  1
  H  H6  1  0.55692500  0.77424600  0.80741800  1
  H  H7  1  0.74676800  0.79128200  0.49813700  1
  H  H8  1  0.82750600  0.41957100  0.91486900  1
  H  H9  1  0.83473400  0.49598900  0.66156300  1
  H  H10  1  0.57385900  0.82807800  0.55060600  1
  H  H11  1  0.60849700  0.69945000  0.65613100  1
  H  H12  1  0.21283300  0.84611000  0.94672400  1
  H  H13  1  0.93044800  0.21494700  0.80031500  1
  H  H14  1  0.30821100  0.82083000  0.79623900  1
  H  H15  1  0.78416400  0.19175300  0.93819500  1
  H  H16  1  0.43236300  0.98029600  0.27082000  1
  H  H17  1  0.83666900  0.45939200  0.42048500  1
  H  H18  1  0.77424600  0.55692500  0.30741800  1
  H  H19  1  0.79128200  0.74676800  0.99813700  1
  H  H20  1  0.41957100  0.82750600  0.41486900  1
  H  H21  1  0.49598900  0.83473400  0.16156300  1
  H  H22  1  0.82807800  0.57385900  0.05060600  1
  H  H23  1  0.69945000  0.60849700  0.15613100  1
  H  H24  1  0.80824700  0.21583600  0.56180500  1
  H  H25  1  0.84611000  0.21283300  0.44672400  1
  H  H26  1  0.21494700  0.93044800  0.30031500  1
  H  H27  1  0.17917000  0.69178900  0.70376100  1
  H  H28  1  0.82083000  0.30821100  0.29623900  1
  H  H29  1  0.78505300  0.06955200  0.69968500  1
  H  H30  1  0.15389000  0.78716700  0.55327600  1
  H  H31  1  0.19175300  0.78416400  0.43819500  1
  H  H32  1  0.30055000  0.39150300  0.84386900  1
  H  H33  1  0.17192200  0.42614100  0.94939400  1
  H  H34  1  0.50401100  0.16526600  0.83843700  1
  H  H35  1  0.58042900  0.17249400  0.58513100  1
  H  H36  1  0.20871800  0.25323200  0.00186300  1
  H  H37  1  0.22575400  0.44307500  0.69258200  1
  H  H38  1  0.16333100  0.54060800  0.57951500  1
  H  H39  1  0.56763700  0.01970400  0.72918000  1
  H  H40  1  0.21583600  0.80824700  0.06180500  1
  H  H41  1  0.69178900  0.17917000  0.20376100  1
  H  H42  1  0.06955200  0.78505300  0.19968500  1
  H  H43  1  0.78716700  0.15389000  0.05327600  1
  H  H44  1  0.39150300  0.30055000  0.34386900  1
  H  H45  1  0.42614100  0.17192200  0.44939400  1
  H  H46  1  0.16526600  0.50401100  0.33843700  1
  H  H47  1  0.17249400  0.58042900  0.08513100  1
  H  H48  1  0.25323200  0.20871800  0.50186300  1
  H  H49  1  0.44307500  0.22575400  0.19258200  1
  H  H50  1  0.54060800  0.16333100  0.07951500  1
  H  H51  1  0.01970400  0.56763700  0.22918000  1
  Se  Se52  1  0.91715500  0.81734000  0.87670100  1
  Se  Se53  1  0.81734000  0.91715500  0.37670100  1
  Se  Se54  1  0.18266000  0.08284500  0.62329900  1
  Se  Se55  1  0.08284500  0.18266000  0.12329900  1
  O  O56  1  0.92195900  0.90629300  0.93696400  1
  O  O57  1  0.65022300  0.87867900  0.86309800  1
  O  O58  1  0.90629300  0.92195900  0.43696400  1
  O  O59  1  0.46003300  0.96200000  0.61816600  1
  O  O60  1  0.37288500  0.79181600  0.95273700  1
  O  O61  1  0.87867900  0.65022300  0.36309800  1
  O  O62  1  0.86352700  0.36212500  0.78054400  1
  O  O63  1  0.46442000  0.76184200  0.77975900  1
  O  O64  1  0.69262500  0.57780000  0.68077900  1
  O  O65  1  0.64396600  0.72823700  0.52206100  1
  O  O66  1  0.71953000  0.35601000  0.93707800  1
  O  O67  1  0.05215700  0.94145100  0.82823400  1
  O  O68  1  0.96200000  0.46003300  0.11816500  1
  O  O69  1  0.05854900  0.94784300  0.67176600  1
  O  O70  1  0.79181600  0.37288500  0.45273700  1
  O  O71  1  0.36212500  0.86352700  0.28054400  1
  O  O72  1  0.76184200  0.46442000  0.27975900  1
  O  O73  1  0.57780000  0.69262500  0.18077900  1
  O  O74  1  0.72823700  0.64396600  0.02206100  1
  O  O75  1  0.35601000  0.71953000  0.43707800  1
  O  O76  1  0.64399000  0.28047000  0.56292200  1
  O  O77  1  0.27176300  0.35603400  0.97793900  1
  O  O78  1  0.42220000  0.30737500  0.81922100  1
  O  O79  1  0.23815800  0.53558000  0.72024100  1
  O  O80  1  0.63787500  0.13647300  0.71945600  1
  O  O81  1  0.20818400  0.62711500  0.54726300  1
  O  O82  1  0.94145100  0.05215700  0.32823400  1
  O  O83  1  0.03800000  0.53996700  0.88183400  1
  O  O84  1  0.94784300  0.05854900  0.17176600  1
  O  O85  1  0.28047000  0.64399000  0.06292200  1
  O  O86  1  0.35603400  0.27176300  0.47793900  1
  O  O87  1  0.30737500  0.42220000  0.31922100  1
  O  O88  1  0.53558000  0.23815800  0.22024100  1
  O  O89  1  0.13647300  0.63787500  0.21945600  1
  O  O90  1  0.12132100  0.34977700  0.63690200  1
  O  O91  1  0.62711500  0.20818400  0.04726300  1
  O  O92  1  0.53996700  0.03800000  0.38183400  1
  O  O93  1  0.09370700  0.07804100  0.56303600  1
  O  O94  1  0.34977700  0.12132100  0.13690200  1
  O  O95  1  0.07804100  0.09370700  0.06303600  1
