# generated using pymatgen
data_GdAsO4
_symmetry_space_group_name_H-M   'P 1'
_cell_length_a   7.19941400
_cell_length_b   4.84868000
_cell_length_c   4.84904187
_cell_angle_alpha   83.18800267
_cell_angle_beta   90.00000000
_cell_angle_gamma   90.00000000
_symmetry_Int_Tables_number   1
_chemical_formula_structural   GdAsO4
_chemical_formula_sum   'Gd2 As2 O8'
_cell_volume   168.07375971
_cell_formula_units_Z   2
loop_
 _symmetry_equiv_pos_site_id
 _symmetry_equiv_pos_as_xyz
  1  'x, y, z'
loop_
 _atom_site_type_symbol
 _atom_site_label
 _atom_site_symmetry_multiplicity
 _atom_site_fract_x
 _atom_site_fract_y
 _atom_site_fract_z
 _atom_site_occupancy
  Gd  Gd0  1  0.25000000  0.38225300  0.13556200  1
  Gd  Gd1  1  0.75000000  0.61774700  0.86443800  1
  As  As2  1  0.75000000  0.12703500  0.35699100  1
  As  As3  1  0.25000000  0.87296500  0.64300900  1
  O  O4  1  0.56590600  0.29888600  0.18601900  1
  O  O5  1  0.93409400  0.29888600  0.18601900  1
  O  O6  1  0.75000000  0.77802300  0.33290500  1
  O  O7  1  0.25000000  0.84345200  0.29502400  1
  O  O8  1  0.75000000  0.15654800  0.70497600  1
  O  O9  1  0.25000000  0.22197700  0.66709500  1
  O  O10  1  0.06590600  0.70111400  0.81398100  1
  O  O11  1  0.43409400  0.70111400  0.81398100  1
