# generated using pymatgen
data_V5W3O20
_symmetry_space_group_name_H-M   'P 1'
_cell_length_a   7.61958900
_cell_length_b   7.82732453
_cell_length_c   12.98269316
_cell_angle_alpha   90.37456803
_cell_angle_beta   107.02164910
_cell_angle_gamma   90.08941347
_symmetry_Int_Tables_number   1
_chemical_formula_structural   V5W3O20
_chemical_formula_sum   'V10 W6 O40'
_cell_volume   740.36118935
_cell_formula_units_Z   2
loop_
 _symmetry_equiv_pos_site_id
 _symmetry_equiv_pos_as_xyz
  1  'x, y, z'
loop_
 _atom_site_type_symbol
 _atom_site_label
 _atom_site_symmetry_multiplicity
 _atom_site_fract_x
 _atom_site_fract_y
 _atom_site_fract_z
 _atom_site_occupancy
  V  V0  1  0.17248400  0.20516200  0.84416000  1
  V  V1  1  0.67922800  0.21163500  0.85878100  1
  V  V2  1  0.17369000  0.70971900  0.84795000  1
  V  V3  1  0.82833600  0.79542500  0.65477400  1
  V  V4  1  0.82410600  0.28497800  0.66005600  1
  V  V5  1  0.17166400  0.20457500  0.34522600  1
  V  V6  1  0.17589400  0.71502200  0.33994400  1
  V  V7  1  0.82751600  0.79483800  0.15584000  1
  V  V8  1  0.32077200  0.78836500  0.14121900  1
  V  V9  1  0.82631000  0.29028100  0.15205000  1
  W  W10  1  0.67907900  0.71919700  0.85608000  1
  W  W11  1  0.31965800  0.77396600  0.64288300  1
  W  W12  1  0.32426800  0.27515600  0.64695100  1
  W  W13  1  0.68034200  0.22603400  0.35711700  1
  W  W14  1  0.67573200  0.72484400  0.35304900  1
  W  W15  1  0.32092100  0.28080300  0.14392000  1
  O  O16  1  0.17254000  0.99240900  0.84855000  1
  O  O17  1  0.67409400  0.99480200  0.84777900  1
  O  O18  1  0.17610400  0.49737800  0.85212200  1
  O  O19  1  0.67302800  0.49117600  0.84935800  1
  O  O20  1  0.41557200  0.24354100  0.81243500  1
  O  O21  1  0.41143500  0.75219900  0.81436400  1
  O  O22  1  0.90269100  0.75091400  0.81568900  1
  O  O23  1  0.89814000  0.24734800  0.81179800  1
  O  O24  1  0.09083800  0.25233800  0.68174100  1
  O  O25  1  0.58763000  0.25173400  0.67131400  1
  O  O26  1  0.09570000  0.74634100  0.68174600  1
  O  O27  1  0.58535500  0.74932700  0.67954100  1
  O  O28  1  0.32234700  0.00723200  0.64635900  1
  O  O29  1  0.32705700  0.50903500  0.65074600  1
  O  O30  1  0.82633200  0.00627200  0.64854800  1
  O  O31  1  0.82723500  0.49469700  0.65353000  1
  O  O32  1  0.24304500  0.75030500  0.49581100  1
  O  O33  1  0.24641800  0.25531900  0.50063100  1
  O  O34  1  0.75695500  0.24969500  0.50418900  1
  O  O35  1  0.75358200  0.74468100  0.49936900  1
  O  O36  1  0.17366800  0.99372800  0.35145200  1
  O  O37  1  0.17276500  0.50530300  0.34647000  1
  O  O38  1  0.67765300  0.99276800  0.35364100  1
  O  O39  1  0.67294300  0.49096500  0.34925400  1
  O  O40  1  0.90916200  0.74766200  0.31825900  1
  O  O41  1  0.41237000  0.74826600  0.32868600  1
  O  O42  1  0.41464500  0.25067300  0.32045900  1
  O  O43  1  0.90430000  0.25365900  0.31825400  1
  O  O44  1  0.09730900  0.24908600  0.18431100  1
  O  O45  1  0.10186000  0.75265200  0.18820200  1
  O  O46  1  0.58442800  0.75645900  0.18756500  1
  O  O47  1  0.58856500  0.24780100  0.18563600  1
  O  O48  1  0.32590600  0.00519800  0.15222100  1
  O  O49  1  0.82746000  0.00759100  0.15145000  1
  O  O50  1  0.32697200  0.50882400  0.15064200  1
  O  O51  1  0.82389600  0.50262200  0.14787800  1
  O  O52  1  0.74672000  0.24281800  0.99377400  1
  O  O53  1  0.24947400  0.25132400  0.99965500  1
  O  O54  1  0.25328000  0.75718200  0.00622600  1
  O  O55  1  0.75052600  0.74867600  0.00034500  1
