# generated using pymatgen
data_CoH2SeO4
_symmetry_space_group_name_H-M   'P 1'
_cell_length_a   4.85843606
_cell_length_b   13.90919483
_cell_length_c   5.73249295
_cell_angle_alpha   100.71631967
_cell_angle_beta   89.98780149
_cell_angle_gamma   89.99502099
_symmetry_Int_Tables_number   1
_chemical_formula_structural   CoH2SeO4
_chemical_formula_sum   'Co4 H8 Se4 O16'
_cell_volume   380.62825285
_cell_formula_units_Z   4
loop_
 _symmetry_equiv_pos_site_id
 _symmetry_equiv_pos_as_xyz
  1  'x, y, z'
loop_
 _atom_site_type_symbol
 _atom_site_label
 _atom_site_symmetry_multiplicity
 _atom_site_fract_x
 _atom_site_fract_y
 _atom_site_fract_z
 _atom_site_occupancy
  Co  Co0  1  0.31923200  0.73346500  0.49399100  1
  Co  Co1  1  0.68076900  0.26653500  0.50600800  1
  Co  Co2  1  0.81922400  0.76650300  0.00604000  1
  Co  Co3  1  0.18077600  0.23349700  0.99396000  1
  H  H4  1  0.26714000  0.86791600  0.15726700  1
  H  H5  1  0.76732200  0.63211300  0.34270800  1
  H  H6  1  0.23267900  0.36788600  0.65729000  1
  H  H7  1  0.73286000  0.13208400  0.84273400  1
  H  H8  1  0.81234000  0.11656800  0.09965700  1
  H  H9  1  0.31225100  0.38341200  0.40034800  1
  H  H10  1  0.68775000  0.61658800  0.59965100  1
  H  H11  1  0.18766200  0.88343100  0.90034200  1
  Se  Se12  1  0.76452200  0.39318800  0.06189800  1
  Se  Se13  1  0.73539600  0.89316300  0.56197700  1
  Se  Se14  1  0.26460300  0.10683800  0.43802500  1
  Se  Se15  1  0.23547800  0.60681200  0.93810200  1
  O  O16  1  0.11055700  0.88222500  0.05898400  1
  O  O17  1  0.61072200  0.61779000  0.44102200  1
  O  O18  1  0.38927900  0.38220800  0.55898100  1
  O  O19  1  0.88944300  0.11777400  0.94101500  1
  O  O20  1  0.08851500  0.67804200  0.19759300  1
  O  O21  1  0.58847200  0.82194600  0.30241500  1
  O  O22  1  0.41152700  0.17805500  0.69758800  1
  O  O23  1  0.91148500  0.32195800  0.80240700  1
  O  O24  1  0.42541400  0.36422500  0.05777900  1
  O  O25  1  0.07453500  0.86419300  0.55773900  1
  O  O26  1  0.92546200  0.13580800  0.44226000  1
  O  O27  1  0.57458700  0.63577500  0.94222100  1
  O  O28  1  0.91039600  0.32215800  0.25393600  1
  O  O29  1  0.41045500  0.17787100  0.24603200  1
  O  O30  1  0.58954400  0.82212900  0.75396800  1
  O  O31  1  0.08960500  0.67784200  0.74606300  1
