# generated using pymatgen
data_K2Fe2P2O7F2
_symmetry_space_group_name_H-M   'P 1'
_cell_length_a   6.66942200
_cell_length_b   9.74357000
_cell_length_c   16.58624700
_cell_angle_alpha   90.00000000
_cell_angle_beta   90.00000000
_cell_angle_gamma   90.00000000
_symmetry_Int_Tables_number   1
_chemical_formula_structural   K2Fe2P2O7F2
_chemical_formula_sum   'K8 Fe8 P8 O28 F8'
_cell_volume   1077.84034526
_cell_formula_units_Z   4
loop_
 _symmetry_equiv_pos_site_id
 _symmetry_equiv_pos_as_xyz
  1  'x, y, z'
loop_
 _atom_site_type_symbol
 _atom_site_label
 _atom_site_symmetry_multiplicity
 _atom_site_fract_x
 _atom_site_fract_y
 _atom_site_fract_z
 _atom_site_occupancy
  K  K0  1  0.41222900  0.02574200  0.83044000  1
  K  K1  1  0.08777100  0.52574200  0.66956000  1
  K  K2  1  0.08777100  0.02574200  0.33044000  1
  K  K3  1  0.41222900  0.52574200  0.16956000  1
  K  K4  1  0.91222900  0.97425800  0.66956000  1
  K  K5  1  0.58777100  0.97425800  0.16956000  1
  K  K6  1  0.91222900  0.47425800  0.33044000  1
  K  K7  1  0.58777100  0.47425800  0.83044000  1
  Fe  Fe8  1  0.00000000  0.75000000  0.84256900  1
  Fe  Fe9  1  0.50000000  0.25000000  0.65743100  1
  Fe  Fe10  1  0.50000000  0.75000000  0.34256900  1
  Fe  Fe11  1  0.00000000  0.50000000  0.00000000  1
  Fe  Fe12  1  0.00000000  0.00000000  0.00000000  1
  Fe  Fe13  1  0.00000000  0.25000000  0.15743100  1
  Fe  Fe14  1  0.50000000  0.00000000  0.50000000  1
  Fe  Fe15  1  0.50000000  0.50000000  0.50000000  1
  P  P16  1  0.22630500  0.71221300  0.47185400  1
  P  P17  1  0.72630500  0.78778700  0.97185400  1
  P  P18  1  0.72630500  0.28778700  0.02814600  1
  P  P19  1  0.27369500  0.21221300  0.02814600  1
  P  P20  1  0.22630500  0.21221300  0.52814600  1
  P  P21  1  0.77369500  0.28778700  0.52814600  1
  P  P22  1  0.27369500  0.71221300  0.97185400  1
  P  P23  1  0.77369500  0.78778700  0.47185400  1
  O  O24  1  0.82400100  0.65102100  0.94469300  1
  O  O25  1  0.67599900  0.65102100  0.44469300  1
  O  O26  1  0.17599900  0.34897900  0.05530700  1
  O  O27  1  0.24242200  0.11171600  0.59921700  1
  O  O28  1  0.32400200  0.34897900  0.55530700  1
  O  O29  1  0.18848100  0.14959500  0.95091000  1
  O  O30  1  0.00000000  0.25000000  0.50368500  1
  O  O31  1  0.00000000  0.75000000  0.49631500  1
  O  O32  1  0.75757800  0.38828400  0.59921700  1
  O  O33  1  0.18848100  0.64959500  0.04909000  1
  O  O34  1  0.31151900  0.64959500  0.54909000  1
  O  O35  1  0.81151900  0.35040500  0.95091000  1
  O  O36  1  0.81151900  0.85040500  0.04909000  1
  O  O37  1  0.74242200  0.88828400  0.90078300  1
  O  O38  1  0.82400100  0.15102100  0.05530700  1
  O  O39  1  0.24242200  0.61171600  0.40078300  1
  O  O40  1  0.31151900  0.14959500  0.45091000  1
  O  O41  1  0.75757800  0.88828400  0.40078300  1
  O  O42  1  0.17599900  0.84897900  0.94469300  1
  O  O43  1  0.32400200  0.84897900  0.44469300  1
  O  O44  1  0.67599900  0.15102100  0.55530700  1
  O  O45  1  0.50000000  0.25000000  0.00368500  1
  O  O46  1  0.68848100  0.35040500  0.45091000  1
  O  O47  1  0.74242200  0.38828400  0.09921700  1
  O  O48  1  0.25757800  0.11171600  0.09921700  1
  O  O49  1  0.68848100  0.85040500  0.54909000  1
  O  O50  1  0.25757800  0.61171600  0.90078300  1
  O  O51  1  0.50000000  0.75000000  0.99631500  1
  F  F52  1  0.16701500  0.84281200  0.76091200  1
  F  F53  1  0.83298500  0.15718800  0.23908800  1
  F  F54  1  0.33298500  0.34281200  0.73908800  1
  F  F55  1  0.16701500  0.34281200  0.23908800  1
  F  F56  1  0.66701500  0.65718800  0.26091200  1
  F  F57  1  0.33298500  0.84281200  0.26091200  1
  F  F58  1  0.83298500  0.65718800  0.76091200  1
  F  F59  1  0.66701500  0.15718800  0.73908800  1
