# generated using pymatgen
data_Fe2Co(PO4)3
_symmetry_space_group_name_H-M   'P 1'
_cell_length_a   8.42170950
_cell_length_b   8.42170950
_cell_length_c   8.42171045
_cell_angle_alpha   61.82411766
_cell_angle_beta   61.82411766
_cell_angle_gamma   61.82411678
_symmetry_Int_Tables_number   1
_chemical_formula_structural   Fe2Co(PO4)3
_chemical_formula_sum   'Fe4 Co2 P6 O24'
_cell_volume   439.61767591
_cell_formula_units_Z   2
loop_
 _symmetry_equiv_pos_site_id
 _symmetry_equiv_pos_as_xyz
  1  'x, y, z'
loop_
 _atom_site_type_symbol
 _atom_site_label
 _atom_site_symmetry_multiplicity
 _atom_site_fract_x
 _atom_site_fract_y
 _atom_site_fract_z
 _atom_site_occupancy
  Fe  Fe0  1  0.35491200  0.35491200  0.35491200  1
  Fe  Fe1  1  0.85491200  0.85491200  0.85491200  1
  Fe  Fe2  1  0.14508800  0.14508800  0.14508800  1
  Fe  Fe3  1  0.64508800  0.64508800  0.64508800  1
  Co  Co4  1  0.00000000  0.00000000  0.00000000  1
  Co  Co5  1  0.50000000  0.50000000  0.50000000  1
  P  P6  1  0.75000000  0.04720800  0.45279200  1
  P  P7  1  0.04720800  0.45279200  0.75000000  1
  P  P8  1  0.45279200  0.75000000  0.04720800  1
  P  P9  1  0.54720800  0.25000000  0.95279200  1
  P  P10  1  0.95279200  0.54720800  0.25000000  1
  P  P11  1  0.25000000  0.95279200  0.54720800  1
  O  O12  1  0.89148500  0.49535000  0.67767300  1
  O  O13  1  0.49535000  0.67767300  0.89148500  1
  O  O14  1  0.67767300  0.89148500  0.49535000  1
  O  O15  1  0.90522300  0.06131700  0.25115000  1
  O  O16  1  0.82232700  0.00465000  0.60851500  1
  O  O17  1  0.59477700  0.24885000  0.43868300  1
  O  O18  1  0.06131700  0.25115000  0.90522300  1
  O  O19  1  0.24885000  0.43868300  0.59477700  1
  O  O20  1  0.39148500  0.17767300  0.99535000  1
  O  O21  1  0.43868300  0.59477700  0.24885000  1
  O  O22  1  0.74885000  0.09477700  0.93868300  1
  O  O23  1  0.99535000  0.39148500  0.17767300  1
  O  O24  1  0.00465000  0.60851500  0.82232700  1
  O  O25  1  0.25115000  0.90522300  0.06131700  1
  O  O26  1  0.56131700  0.40522300  0.75115000  1
  O  O27  1  0.60851500  0.82232700  0.00465000  1
  O  O28  1  0.75115000  0.56131700  0.40522300  1
  O  O29  1  0.93868300  0.74885000  0.09477700  1
  O  O30  1  0.40522300  0.75115000  0.56131700  1
  O  O31  1  0.17767300  0.99535000  0.39148500  1
  O  O32  1  0.09477700  0.93868300  0.74885000  1
  O  O33  1  0.32232700  0.10851500  0.50465000  1
  O  O34  1  0.50465000  0.32232700  0.10851500  1
  O  O35  1  0.10851500  0.50465000  0.32232700  1
