# generated using pymatgen
data_NaMnP2H10NO10
_symmetry_space_group_name_H-M   'P 1'
_cell_length_a   9.66154777
_cell_length_b   9.66154777
_cell_length_c   5.62877475
_cell_angle_alpha   82.64433382
_cell_angle_beta   82.64433382
_cell_angle_gamma   116.41708882
_symmetry_Int_Tables_number   1
_chemical_formula_structural   NaMnP2H10NO10
_chemical_formula_sum   'Na2 Mn2 P4 H20 N2 O20'
_cell_volume   456.44964048
_cell_formula_units_Z   2
loop_
 _symmetry_equiv_pos_site_id
 _symmetry_equiv_pos_as_xyz
  1  'x, y, z'
loop_
 _atom_site_type_symbol
 _atom_site_label
 _atom_site_symmetry_multiplicity
 _atom_site_fract_x
 _atom_site_fract_y
 _atom_site_fract_z
 _atom_site_occupancy
  Na  Na0  1  0.22079000  0.09867900  0.65144400  1
  Na  Na1  1  0.09867900  0.22079000  0.15144400  1
  Mn  Mn2  1  0.45041000  0.94027700  0.88009600  1
  Mn  Mn3  1  0.94027700  0.45041000  0.38009600  1
  P  P4  1  0.71970200  0.29346000  0.96000900  1
  P  P5  1  0.86064900  0.11313000  0.75031500  1
  P  P6  1  0.29346000  0.71970200  0.46000900  1
  P  P7  1  0.11313000  0.86064900  0.25031500  1
  H  H8  1  0.92357500  0.84695600  0.79751800  1
  H  H9  1  0.84695600  0.92357500  0.29751800  1
  H  H10  1  0.89416000  0.67951200  0.98427000  1
  H  H11  1  0.90105900  0.68631800  0.67830600  1
  H  H12  1  0.67951200  0.89416000  0.48427000  1
  H  H13  1  0.74480700  0.68320800  0.85456000  1
  H  H14  1  0.68631800  0.90105900  0.17830600  1
  H  H15  1  0.68320800  0.74480700  0.35456000  1
  H  H16  1  0.48388000  0.65684000  0.78115500  1
  H  H17  1  0.65684000  0.48388000  0.28115500  1
  H  H18  1  0.61043600  0.48445400  0.55183600  1
  H  H19  1  0.48445400  0.61043600  0.05183600  1
  H  H20  1  0.40914200  0.38951800  0.90754900  1
  H  H21  1  0.57448400  0.22516600  0.57001800  1
  H  H22  1  0.38951800  0.40914200  0.40754900  1
  H  H23  1  0.12203900  0.50747200  0.87484400  1
  H  H24  1  0.39133400  0.22005400  0.99549200  1
  H  H25  1  0.22516600  0.57448400  0.07001800  1
  H  H26  1  0.50747200  0.12203900  0.37484400  1
  H  H27  1  0.22005400  0.39133400  0.49549200  1
  N  N28  1  0.86664600  0.72369200  0.82836400  1
  N  N29  1  0.72369200  0.86664600  0.32836400  1
  O  O30  1  0.69220700  0.97426000  0.78708100  1
  O  O31  1  0.97426000  0.69220700  0.28708100  1
  O  O32  1  0.21872100  0.92004100  0.99325300  1
  O  O33  1  0.52380300  0.59872500  0.88948600  1
  O  O34  1  0.40217300  0.76689600  0.64351300  1
  O  O35  1  0.84613500  0.22469400  0.94350300  1
  O  O36  1  0.73792000  0.38134000  0.69981000  1
  O  O37  1  0.92004100  0.21872100  0.49325300  1
  O  O38  1  0.97373800  0.06001000  0.84138600  1
  O  O39  1  0.59872500  0.52380300  0.38948600  1
  O  O40  1  0.76689600  0.40217300  0.14351300  1
  O  O41  1  0.22469400  0.84613500  0.44350300  1
  O  O42  1  0.38134000  0.73792000  0.19981000  1
  O  O43  1  0.06001000  0.97373800  0.34138600  1
  O  O44  1  0.34131700  0.27597200  0.91401800  1
  O  O45  1  0.15070400  0.55345700  0.55619400  1
  O  O46  1  0.48498300  0.12739600  0.55086700  1
  O  O47  1  0.27597200  0.34131700  0.41401800  1
  O  O48  1  0.55345700  0.15070400  0.05619400  1
  O  O49  1  0.12739600  0.48498300  0.05086700  1
