# generated using pymatgen
data_K7As2W8O39
_symmetry_space_group_name_H-M   'P 1'
_cell_length_a   21.33627800
_cell_length_b   9.64618100
_cell_length_c   9.81850466
_cell_angle_alpha   80.52595935
_cell_angle_beta   90.00000000
_cell_angle_gamma   90.00000000
_symmetry_Int_Tables_number   1
_chemical_formula_structural   K7As2W8O39
_chemical_formula_sum   'K14 As4 W16 O78'
_cell_volume   1993.21888644
_cell_formula_units_Z   2
loop_
 _symmetry_equiv_pos_site_id
 _symmetry_equiv_pos_as_xyz
  1  'x, y, z'
loop_
 _atom_site_type_symbol
 _atom_site_label
 _atom_site_symmetry_multiplicity
 _atom_site_fract_x
 _atom_site_fract_y
 _atom_site_fract_z
 _atom_site_occupancy
  K  K0  1  0.59568900  0.16933400  0.72598400  1
  K  K1  1  0.09568900  0.83066600  0.27401600  1
  K  K2  1  0.40431100  0.83066600  0.27401600  1
  K  K3  1  0.90431100  0.16933400  0.72598400  1
  K  K4  1  0.61911000  0.24840400  0.23146900  1
  K  K5  1  0.11911000  0.75159600  0.76853100  1
  K  K6  1  0.38089000  0.75159600  0.76853100  1
  K  K7  1  0.88089000  0.24840400  0.23146900  1
  K  K8  1  0.57621100  0.73317200  0.80553800  1
  K  K9  1  0.07621100  0.26682800  0.19446200  1
  K  K10  1  0.42378900  0.26682800  0.19446200  1
  K  K11  1  0.92378900  0.73317200  0.80553800  1
  K  K12  1  0.75000000  0.74816600  0.77609300  1
  K  K13  1  0.25000000  0.25183400  0.22390700  1
  As  As14  1  0.75000000  0.64684300  0.21762900  1
  As  As15  1  0.25000000  0.35315700  0.78237100  1
  As  As16  1  0.75000000  0.25558000  0.49592000  1
  As  As17  1  0.25000000  0.74442000  0.50408000  1
  W  W18  1  0.67048900  0.96714000  0.03088700  1
  W  W19  1  0.17048900  0.03286000  0.96911300  1
  W  W20  1  0.32951100  0.03286000  0.96911300  1
  W  W21  1  0.82951100  0.96714000  0.03088700  1
  W  W22  1  0.66191900  0.89125400  0.42513200  1
  W  W23  1  0.16191900  0.10874600  0.57486800  1
  W  W24  1  0.33808100  0.10874600  0.57486800  1
  W  W25  1  0.83808100  0.89125400  0.42513200  1
  W  W26  1  0.58254600  0.66733900  0.24368900  1
  W  W27  1  0.08254600  0.33266100  0.75631100  1
  W  W28  1  0.41745400  0.33266100  0.75631100  1
  W  W29  1  0.91745400  0.66733900  0.24368900  1
  W  W30  1  0.66048300  0.53521800  0.53864700  1
  W  W31  1  0.16048300  0.46478200  0.46135300  1
  W  W32  1  0.33951700  0.46478200  0.46135300  1
  W  W33  1  0.83951700  0.53521800  0.53864700  1
  O  O34  1  0.61956000  0.11528700  0.00961300  1
  O  O35  1  0.11956000  0.88471300  0.99038700  1
  O  O36  1  0.38044000  0.88471300  0.99038700  1
  O  O37  1  0.88044000  0.11528700  0.00961300  1
  O  O38  1  0.75000000  0.06724600  0.01147800  1
  O  O39  1  0.25000000  0.93275400  0.98852200  1
  O  O40  1  0.75000000  0.80637400  0.09526600  1
  O  O41  1  0.25000000  0.19362600  0.90473400  1
  O  O42  1  0.61146400  0.81456800  0.10278400  1
  O  O43  1  0.11146400  0.18543200  0.89721600  1
  O  O44  1  0.38853600  0.18543200  0.89721600  1
  O  O45  1  0.88853600  0.81456800  0.10278400  1
  O  O46  1  0.61254600  0.52482100  0.15922900  1
  O  O47  1  0.11254600  0.47517900  0.84077100  1
  O  O48  1  0.38745400  0.47517900  0.84077100  1
  O  O49  1  0.88745400  0.52482100  0.15922900  1
  O  O50  1  0.50142200  0.66799800  0.21224000  1
  O  O51  1  0.00142200  0.33200200  0.78776000  1
  O  O52  1  0.49857800  0.33200200  0.78776000  1
  O  O53  1  0.99857800  0.66799800  0.21224000  1
  O  O54  1  0.67726600  0.98330400  0.24775000  1
  O  O55  1  0.17726600  0.01669600  0.75225000  1
  O  O56  1  0.32273400  0.01669600  0.75225000  1
  O  O57  1  0.82273400  0.98330400  0.24775000  1
  O  O58  1  0.68485900  0.68723500  0.33191700  1
  O  O59  1  0.18485900  0.31276500  0.66808300  1
  O  O60  1  0.31514100  0.31276500  0.66808300  1
  O  O61  1  0.81514100  0.68723500  0.33191700  1
  O  O62  1  0.57908100  0.82781000  0.36657800  1
  O  O63  1  0.07908100  0.17219000  0.63342200  1
  O  O64  1  0.42091900  0.17219000  0.63342200  1
  O  O65  1  0.92091900  0.82781000  0.36657800  1
  O  O66  1  0.58570500  0.54587100  0.42957600  1
  O  O67  1  0.08570500  0.45412900  0.57042400  1
  O  O68  1  0.41429500  0.45412900  0.57042400  1
  O  O69  1  0.91429500  0.54587100  0.42957600  1
  O  O70  1  0.68443700  0.37052600  0.44444600  1
  O  O71  1  0.18443700  0.62947400  0.55555400  1
  O  O72  1  0.31556300  0.62947400  0.55555400  1
  O  O73  1  0.81556300  0.37052600  0.44444600  1
  O  O74  1  0.75000000  0.88662100  0.47812300  1
  O  O75  1  0.25000000  0.11337900  0.52187700  1
  O  O76  1  0.63509500  0.02852700  0.50933300  1
  O  O77  1  0.13509500  0.97147300  0.49066700  1
  O  O78  1  0.36490500  0.97147300  0.49066700  1
  O  O79  1  0.86490500  0.02852700  0.50933300  1
  O  O80  1  0.65131900  0.72391300  0.57991100  1
  O  O81  1  0.15131900  0.27608700  0.42008900  1
  O  O82  1  0.34868100  0.27608700  0.42008900  1
  O  O83  1  0.84868100  0.72391300  0.57991100  1
  O  O84  1  0.75000000  0.54387000  0.57784000  1
  O  O85  1  0.25000000  0.45613000  0.42216000  1
  O  O86  1  0.75000000  0.19887800  0.66751000  1
  O  O87  1  0.25000000  0.80112200  0.33249000  1
  O  O88  1  0.63286200  0.44576000  0.69705100  1
  O  O89  1  0.13286200  0.55424000  0.30294900  1
  O  O90  1  0.36713800  0.55424000  0.30294900  1
  O  O91  1  0.86713800  0.44576000  0.69705100  1
  O  O92  1  0.66589000  0.91893400  0.86158500  1
  O  O93  1  0.16589000  0.08106600  0.13841500  1
  O  O94  1  0.33411000  0.08106600  0.13841500  1
  O  O95  1  0.83411000  0.91893400  0.86158500  1
  O  O96  1  0.52162600  0.01502600  0.26560600  1
  O  O97  1  0.02162600  0.98497400  0.73439400  1
  O  O98  1  0.47837400  0.98497400  0.73439400  1
  O  O99  1  0.97837400  0.01502600  0.26560600  1
  O  O100  1  0.50017700  0.23986200  0.46743000  1
  O  O101  1  0.00017700  0.76013800  0.53257000  1
  O  O102  1  0.49982300  0.76013800  0.53257000  1
  O  O103  1  0.99982300  0.23986200  0.46743000  1
  O  O104  1  0.51250800  0.44243900  0.01928300  1
  O  O105  1  0.01250800  0.55756100  0.98071700  1
  O  O106  1  0.48749200  0.55756100  0.98071700  1
  O  O107  1  0.98749200  0.44243900  0.01928300  1
  O  O108  1  0.66296100  0.55212600  0.96766200  1
  O  O109  1  0.16296100  0.44787400  0.03233800  1
  O  O110  1  0.33703900  0.44787400  0.03233800  1
  O  O111  1  0.83703900  0.55212600  0.96766200  1
