data_image0
_chemical_formula_structural       Al2C2O2Sc2
_chemical_formula_sum              "Al2 C2 O2 Sc2"
_cell_length_a       3.27217
_cell_length_b       3.27217
_cell_length_c       10.2087
_cell_angle_alpha    90
_cell_angle_beta     99.2222
_cell_angle_gamma    120

_space_group_name_H-M_alt    "P 1"
_space_group_IT_number       1

loop_
  _space_group_symop_operation_xyz
  'x, y, z'

loop_
  _atom_site_type_symbol
  _atom_site_label
  _atom_site_symmetry_multiplicity
  _atom_site_fract_x
  _atom_site_fract_y
  _atom_site_fract_z
  _atom_site_occupancy
  Al  Al1       1.0  0.47700  0.73900  0.21600  1.0000
  Al  Al2       1.0  0.52300  0.26100  0.78400  1.0000
  C   C1        1.0  0.76300  0.38200  0.14500  1.0000
  C   C2        1.0  0.23700  0.61800  0.85500  1.0000
  O   O1        1.0  0.60000  0.80000  0.40000  1.0000
  O   O2        1.0  0.40000  0.20000  0.60000  1.0000
  Sc  Sc1       1.0  0.00000  0.00000  0.00000  1.0000
  Sc  Sc2       1.0  0.00000  0.50000  0.50000  1.0000
