# generated using pymatgen
data_K3Tl(Cl3O)2
_symmetry_space_group_name_H-M   'P 1'
_cell_length_a   15.03531249
_cell_length_b   15.03531249
_cell_length_c   15.03531249
_cell_angle_alpha   118.30937249
_cell_angle_beta   118.30937249
_cell_angle_gamma   92.95407733
_symmetry_Int_Tables_number   1
_chemical_formula_structural   K3Tl(Cl3O)2
_chemical_formula_sum   'K21 Tl7 Cl42 O14'
_cell_volume   2461.25643430
_cell_formula_units_Z   7
loop_
 _symmetry_equiv_pos_site_id
 _symmetry_equiv_pos_as_xyz
  1  'x, y, z'
loop_
 _atom_site_type_symbol
 _atom_site_label
 _atom_site_symmetry_multiplicity
 _atom_site_fract_x
 _atom_site_fract_y
 _atom_site_fract_z
 _atom_site_occupancy
  K  K0  1  0.50000000  0.50000000  0.00000000  1
  K  K1  1  0.19889000  0.19889000  0.39778000  1
  K  K2  1  0.80111000  0.80111000  0.60222000  1
  K  K3  1  0.19889000  0.80111000  0.00000000  1
  K  K4  1  0.80111000  0.19889000  0.00000000  1
  K  K5  1  0.86173900  0.14625200  0.28451400  1
  K  K6  1  0.86173900  0.57722500  0.71548600  1
  K  K7  1  0.14625200  0.86173900  0.28451400  1
  K  K8  1  0.57722500  0.86173900  0.71548600  1
  K  K9  1  0.13826100  0.85374800  0.71548600  1
  K  K10  1  0.13826100  0.42277500  0.28451400  1
  K  K11  1  0.85374800  0.13826100  0.71548600  1
  K  K12  1  0.42277500  0.13826100  0.28451400  1
  K  K13  1  0.62231100  0.90302800  0.28071700  1
  K  K14  1  0.62231100  0.34159400  0.71928300  1
  K  K15  1  0.90302800  0.62231100  0.28071700  1
  K  K16  1  0.34159400  0.62231100  0.71928300  1
  K  K17  1  0.37768900  0.09697200  0.71928300  1
  K  K18  1  0.37768900  0.65840600  0.28071700  1
  K  K19  1  0.09697200  0.37768900  0.71928300  1
  K  K20  1  0.65840600  0.37768900  0.28071700  1
  Tl  Tl21  1  0.00000000  0.00000000  0.00000000  1
  Tl  Tl22  1  0.00000000  0.50000000  0.50000000  1
  Tl  Tl23  1  0.50000000  0.00000000  0.50000000  1
  Tl  Tl24  1  0.00000000  0.00000000  0.50000000  1
  Tl  Tl25  1  0.50000000  0.50000000  0.50000000  1
  Tl  Tl26  1  0.00000000  0.50000000  0.00000000  1
  Tl  Tl27  1  0.50000000  0.00000000  0.00000000  1
  Cl  Cl28  1  0.88429600  0.88429600  0.00000000  1
  Cl  Cl29  1  0.11570400  0.11570400  0.00000000  1
  Cl  Cl30  1  0.18120900  0.00000000  0.18120900  1
  Cl  Cl31  1  0.81879100  0.00000000  0.81879100  1
  Cl  Cl32  1  0.00000000  0.81879100  0.81879100  1
  Cl  Cl33  1  0.00000000  0.18120900  0.18120900  1
  Cl  Cl34  1  0.87700300  0.37700300  0.50000000  1
  Cl  Cl35  1  0.37700300  0.87700300  0.50000000  1
  Cl  Cl36  1  0.12299700  0.62299700  0.50000000  1
  Cl  Cl37  1  0.62299700  0.12299700  0.50000000  1
  Cl  Cl38  1  0.38515800  0.12993100  0.51508900  1
  Cl  Cl39  1  0.61484200  0.87006900  0.48491100  1
  Cl  Cl40  1  0.38515800  0.87006900  0.25522700  1
  Cl  Cl41  1  0.61484200  0.12993100  0.74477300  1
  Cl  Cl42  1  0.12993100  0.61484200  0.74477300  1
  Cl  Cl43  1  0.87006900  0.38515800  0.25522700  1
  Cl  Cl44  1  0.12993100  0.38515800  0.51508900  1
  Cl  Cl45  1  0.87006900  0.61484200  0.48491100  1
  Cl  Cl46  1  0.81870300  0.49547200  0.00000000  1
  Cl  Cl47  1  0.49547200  0.81870300  0.00000000  1
  Cl  Cl48  1  0.81870300  0.81870300  0.32323100  1
  Cl  Cl49  1  0.49547200  0.49547200  0.67676900  1
  Cl  Cl50  1  0.18129700  0.50452800  0.00000000  1
  Cl  Cl51  1  0.50452800  0.18129700  0.00000000  1
  Cl  Cl52  1  0.18129700  0.18129700  0.67676900  1
  Cl  Cl53  1  0.50452800  0.50452800  0.32323100  1
  Cl  Cl54  1  0.00741800  0.67464600  0.00000000  1
  Cl  Cl55  1  0.67464600  0.00741800  0.00000000  1
  Cl  Cl56  1  0.00741800  0.00741800  0.33277200  1
  Cl  Cl57  1  0.67464600  0.67464600  0.66722800  1
  Cl  Cl58  1  0.99258200  0.32535400  0.00000000  1
  Cl  Cl59  1  0.32535400  0.99258200  0.00000000  1
  Cl  Cl60  1  0.99258200  0.99258200  0.66722800  1
  Cl  Cl61  1  0.32535400  0.32535400  0.33277200  1
  Cl  Cl62  1  0.11925200  0.61925200  0.23850400  1
  Cl  Cl63  1  0.38074800  0.88074800  0.76149600  1
  Cl  Cl64  1  0.11925200  0.88074800  0.50000000  1
  Cl  Cl65  1  0.38074800  0.61925200  0.50000000  1
  Cl  Cl66  1  0.61925200  0.38074800  0.50000000  1
  Cl  Cl67  1  0.88074800  0.11925200  0.50000000  1
  Cl  Cl68  1  0.61925200  0.11925200  0.23850400  1
  Cl  Cl69  1  0.88074800  0.38074800  0.76149600  1
  O  O70  1  0.62309800  0.62309800  0.00000000  1
  O  O71  1  0.37690200  0.37690200  0.00000000  1
  O  O72  1  0.68824300  0.50000000  0.18824300  1
  O  O73  1  0.31175700  0.50000000  0.81175700  1
  O  O74  1  0.50000000  0.31175700  0.81175700  1
  O  O75  1  0.50000000  0.68824300  0.18824300  1
  O  O76  1  0.74114400  0.80856100  0.06741700  1
  O  O77  1  0.74114400  0.67372700  0.93258300  1
  O  O78  1  0.80856100  0.74114400  0.06741700  1
  O  O79  1  0.67372700  0.74114400  0.93258300  1
  O  O80  1  0.25885600  0.19143900  0.93258300  1
  O  O81  1  0.25885600  0.32627300  0.06741700  1
  O  O82  1  0.19143900  0.25885600  0.93258300  1
  O  O83  1  0.32627300  0.25885600  0.06741700  1
