# generated using pymatgen
data_Fe41O56
_symmetry_space_group_name_H-M   'P 1'
_cell_length_a   10.43772225
_cell_length_b   10.43772225
_cell_length_c   10.43772219
_cell_angle_alpha   99.57286097
_cell_angle_beta   99.57286097
_cell_angle_gamma   99.57286071
_symmetry_Int_Tables_number   1
_chemical_formula_structural   Fe41O56
_chemical_formula_sum   'Fe41 O56'
_cell_volume   1083.47803369
_cell_formula_units_Z   1
loop_
 _symmetry_equiv_pos_site_id
 _symmetry_equiv_pos_as_xyz
  1  'x, y, z'
loop_
 _atom_site_type_symbol
 _atom_site_label
 _atom_site_symmetry_multiplicity
 _atom_site_fract_x
 _atom_site_fract_y
 _atom_site_fract_z
 _atom_site_occupancy
  Fe  Fe0  1  0.91048800  0.04837000  0.62818900  1
  Fe  Fe1  1  0.71762800  0.14199400  0.85729900  1
  Fe  Fe2  1  0.64606800  0.85040500  0.71268800  1
  Fe  Fe3  1  0.00102400  0.28634900  0.42915900  1
  Fe  Fe4  1  0.92756100  0.99505400  0.28540700  1
  Fe  Fe5  1  0.65900600  0.79916800  0.37901800  1
  Fe  Fe6  1  0.79916800  0.37901800  0.65900600  1
  Fe  Fe7  1  0.99792700  0.78506700  0.43056500  1
  Fe  Fe8  1  0.99505400  0.28540700  0.92756100  1
  Fe  Fe9  1  0.71157900  0.14403700  0.35827700  1
  Fe  Fe10  1  0.43056500  0.99792700  0.78506700  1
  Fe  Fe11  1  0.85650800  0.21525100  0.13915500  1
  Fe  Fe12  1  0.71268800  0.64606800  0.85040500  1
  Fe  Fe13  1  0.85040500  0.71268800  0.64606800  1
  Fe  Fe14  1  0.57386400  0.07114200  0.57076500  1
  Fe  Fe15  1  0.62818900  0.91048800  0.04837000  1
  Fe  Fe16  1  0.48542700  0.34247400  0.76589600  1
  Fe  Fe17  1  0.76589600  0.48542700  0.34247400  1
  Fe  Fe18  1  0.85729900  0.71762800  0.14199400  1
  Fe  Fe19  1  0.78506700  0.43056500  0.99792700  1
  Fe  Fe20  1  0.21525100  0.13915500  0.85650800  1
  Fe  Fe21  1  0.14199400  0.85729900  0.71762800  1
  Fe  Fe22  1  0.49932500  0.28706300  0.42874900  1
  Fe  Fe23  1  0.42915900  0.00102400  0.28634900  1
  Fe  Fe24  1  0.57082700  0.57082700  0.57082700  1
  Fe  Fe25  1  0.51737400  0.23490000  0.09182900  1
  Fe  Fe26  1  0.37901800  0.65900600  0.79916800  1
  Fe  Fe27  1  0.23490000  0.09182900  0.51737400  1
  Fe  Fe28  1  0.13915500  0.85650800  0.21525100  1
  Fe  Fe29  1  0.14403700  0.35827700  0.71157900  1
  Fe  Fe30  1  0.28706300  0.42874900  0.49932500  1
  Fe  Fe31  1  0.42874900  0.49932500  0.28706300  1
  Fe  Fe32  1  0.28540700  0.92756100  0.99505400  1
  Fe  Fe33  1  0.57076500  0.57386400  0.07114200  1
  Fe  Fe34  1  0.04837000  0.62818900  0.91048800  1
  Fe  Fe35  1  0.19523200  0.19523200  0.19523200  1
  Fe  Fe36  1  0.34247400  0.76589600  0.48542700  1
  Fe  Fe37  1  0.07114200  0.57076500  0.57386400  1
  Fe  Fe38  1  0.35827700  0.71157900  0.14403700  1
  Fe  Fe39  1  0.28634900  0.42915900  0.00102400  1
  Fe  Fe40  1  0.09182900  0.51737400  0.23490000  1
  O  O41  1  0.96452900  0.88206700  0.61714700  1
  O  O42  1  0.79899600  0.79899600  0.79899600  1
  O  O43  1  0.97722000  0.39253900  0.60065200  1
  O  O44  1  0.82294100  0.31465500  0.83034000  1
  O  O45  1  0.97081500  0.88430600  0.13494000  1
  O  O46  1  0.83034000  0.82294100  0.31465500  1
  O  O47  1  0.74092400  0.02923800  0.68228700  1
  O  O48  1  0.89337000  0.10643200  0.45599600  1
  O  O49  1  0.61714700  0.96452900  0.88206700  1
  O  O50  1  0.54654800  0.17391800  0.74904900  1
  O  O51  1  0.75855000  0.04248800  0.18547800  1
  O  O52  1  0.48163600  0.89602800  0.61064700  1
  O  O53  1  0.82487700  0.31168200  0.31963000  1
  O  O54  1  0.89602800  0.61064700  0.48163600  1
  O  O55  1  0.61064700  0.48163600  0.89602800  1
  O  O56  1  0.31465500  0.83034000  0.82294100  1
  O  O57  1  0.96373600  0.38768700  0.10496800  1
  O  O58  1  0.67116100  0.23438300  0.52579500  1
  O  O59  1  0.60065200  0.97722000  0.39253900  1
  O  O60  1  0.88430600  0.13494000  0.97081500  1
  O  O61  1  0.74894300  0.55400900  0.68556200  1
  O  O62  1  0.53541600  0.17289900  0.25700000  1
  O  O63  1  0.24676000  0.03425900  0.68198600  1
  O  O64  1  0.55400900  0.68556200  0.74894300  1
  O  O65  1  0.68198600  0.24676000  0.03425900  1
  O  O66  1  0.13494000  0.97081500  0.88430600  1
  O  O67  1  0.40272700  0.10369900  0.46151700  1
  O  O68  1  0.68556200  0.74894300  0.55400900  1
  O  O69  1  0.31168200  0.31963000  0.82487700  1
  O  O70  1  0.45599600  0.89337000  0.10643200  1
  O  O71  1  0.31963000  0.82487700  0.31168200  1
  O  O72  1  0.46282100  0.39307600  0.60106900  1
  O  O73  1  0.60106900  0.46282100  0.39307600  1
  O  O74  1  0.74904900  0.54654800  0.17391800  1
  O  O75  1  0.88206700  0.61714700  0.96452900  1
  O  O76  1  0.25370000  0.02396500  0.17607000  1
  O  O77  1  0.32233800  0.32233800  0.32233800  1
  O  O78  1  0.39307500  0.60106900  0.46282100  1
  O  O79  1  0.10643200  0.45599600  0.89337000  1
  O  O80  1  0.04248800  0.18547800  0.75855000  1
  O  O81  1  0.68228700  0.74092400  0.02923800  1
  O  O82  1  0.17289900  0.25700000  0.53541600  1
  O  O83  1  0.38768700  0.10496800  0.96373600  1
  O  O84  1  0.52579500  0.67116100  0.23438300  1
  O  O85  1  0.10496800  0.96373600  0.38768700  1
  O  O86  1  0.23438300  0.52579500  0.67116100  1
  O  O87  1  0.46151700  0.40272700  0.10369900  1
  O  O88  1  0.10369900  0.46151700  0.40272700  1
  O  O89  1  0.39253900  0.60065200  0.97722000  1
  O  O90  1  0.25700000  0.53541600  0.17289900  1
  O  O91  1  0.02396500  0.17607000  0.25370000  1
  O  O92  1  0.17607000  0.25370000  0.02396500  1
  O  O93  1  0.17391800  0.74904900  0.54654800  1
  O  O94  1  0.02923800  0.68228700  0.74092400  1
  O  O95  1  0.18547800  0.75855000  0.04248800  1
  O  O96  1  0.03425900  0.68198600  0.24676000  1
