# generated using pymatgen
data_Co(Mo3O17)2
_symmetry_space_group_name_H-M   'P 1'
_cell_length_a   11.16477600
_cell_length_b   11.81367400
_cell_length_c   12.11885454
_cell_angle_alpha   81.15041433
_cell_angle_beta   90.00000000
_cell_angle_gamma   90.00000000
_symmetry_Int_Tables_number   1
_chemical_formula_structural   Co(Mo3O17)2
_chemical_formula_sum   'Co2 Mo12 O68'
_cell_volume   1579.41238829
_cell_formula_units_Z   2
loop_
 _symmetry_equiv_pos_site_id
 _symmetry_equiv_pos_as_xyz
  1  'x, y, z'
loop_
 _atom_site_type_symbol
 _atom_site_label
 _atom_site_symmetry_multiplicity
 _atom_site_fract_x
 _atom_site_fract_y
 _atom_site_fract_z
 _atom_site_occupancy
  Co  Co0  1  0.50000000  0.50000000  0.50000000  1
  Co  Co1  1  0.00000000  0.50000000  0.00000000  1
  Mo  Mo2  1  0.25004700  0.33336500  0.44037300  1
  Mo  Mo3  1  0.75004700  0.66663500  0.05962700  1
  Mo  Mo4  1  0.74995300  0.66663500  0.55962700  1
  Mo  Mo5  1  0.24995300  0.33336500  0.94037300  1
  Mo  Mo6  1  0.51960000  0.19732900  0.54248200  1
  Mo  Mo7  1  0.01960000  0.80267100  0.95751800  1
  Mo  Mo8  1  0.48040000  0.80267100  0.45751800  1
  Mo  Mo9  1  0.98040000  0.19732900  0.04248200  1
  Mo  Mo10  1  0.76869600  0.35370000  0.61410800  1
  Mo  Mo11  1  0.26869600  0.64630000  0.88589200  1
  Mo  Mo12  1  0.23130400  0.64630000  0.38589200  1
  Mo  Mo13  1  0.73130400  0.35370000  0.11410800  1
  O  O14  1  0.38593100  0.40214600  0.54263500  1
  O  O15  1  0.88593100  0.59785400  0.95736500  1
  O  O16  1  0.61406900  0.59785400  0.45736500  1
  O  O17  1  0.11406900  0.40214600  0.04263500  1
  O  O18  1  0.60644400  0.37785500  0.50695000  1
  O  O19  1  0.10644400  0.62214500  0.99305000  1
  O  O20  1  0.39355600  0.62214500  0.49305000  1
  O  O21  1  0.89355600  0.37785500  0.00695000  1
  O  O22  1  0.58160100  0.50340300  0.71872700  1
  O  O23  1  0.08160100  0.49659700  0.78127300  1
  O  O24  1  0.41839900  0.49659700  0.28127300  1
  O  O25  1  0.91839900  0.50340300  0.21872700  1
  O  O26  1  0.40078300  0.25015000  0.42927200  1
  O  O27  1  0.90078300  0.74985000  0.07072800  1
  O  O28  1  0.59921700  0.74985000  0.57072800  1
  O  O29  1  0.09921700  0.25015000  0.92927200  1
  O  O30  1  0.62498500  0.25458200  0.65594100  1
  O  O31  1  0.12498500  0.74541800  0.84405900  1
  O  O32  1  0.37501500  0.74541800  0.34405900  1
  O  O33  1  0.87501500  0.25458200  0.15594100  1
  O  O34  1  0.80177200  0.51060300  0.54779400  1
  O  O35  1  0.30177200  0.48939700  0.95220600  1
  O  O36  1  0.19822800  0.48939700  0.45220600  1
  O  O37  1  0.69822800  0.51060300  0.04779400  1
  O  O38  1  0.16031400  0.24216200  0.52912100  1
  O  O39  1  0.66031400  0.75783800  0.97087900  1
  O  O40  1  0.83968600  0.75783800  0.47087900  1
  O  O41  1  0.33968600  0.24216200  0.02912100  1
  O  O42  1  0.19927600  0.32732700  0.30638900  1
  O  O43  1  0.69927600  0.67267300  0.19361100  1
  O  O44  1  0.80072400  0.67267300  0.69361100  1
  O  O45  1  0.30072400  0.32732700  0.80638900  1
  O  O46  1  0.43616700  0.10976500  0.64051600  1
  O  O47  1  0.93616700  0.89023500  0.85948400  1
  O  O48  1  0.56383300  0.89023500  0.35948400  1
  O  O49  1  0.06383300  0.10976500  0.14051600  1
  O  O50  1  0.61132000  0.10914700  0.48005400  1
  O  O51  1  0.11132000  0.89085300  0.01994600  1
  O  O52  1  0.38868000  0.89085300  0.51994600  1
  O  O53  1  0.88868000  0.10914700  0.98005400  1
  O  O54  1  0.86877900  0.26948400  0.55605900  1
  O  O55  1  0.36877900  0.73051600  0.94394100  1
  O  O56  1  0.13122100  0.73051600  0.44394100  1
  O  O57  1  0.63122100  0.26948400  0.05605900  1
  O  O58  1  0.81409300  0.35567900  0.75032300  1
  O  O59  1  0.31409300  0.64432100  0.74967700  1
  O  O60  1  0.18590700  0.64432100  0.24967700  1
  O  O61  1  0.68590700  0.35567900  0.25032300  1
  O  O62  1  0.48665200  0.10815300  0.89544800  1
  O  O63  1  0.98665200  0.89184700  0.60455200  1
  O  O64  1  0.51334800  0.89184700  0.10455200  1
  O  O65  1  0.01334800  0.10815300  0.39544800  1
  O  O66  1  0.45990100  0.50871800  0.18649100  1
  O  O67  1  0.95990100  0.49128200  0.31350900  1
  O  O68  1  0.54009900  0.49128200  0.81350900  1
  O  O69  1  0.04009900  0.50871800  0.68649100  1
  O  O70  1  0.07938800  0.09904200  0.74110400  1
  O  O71  1  0.57938800  0.90095800  0.75889600  1
  O  O72  1  0.92061200  0.90095800  0.25889600  1
  O  O73  1  0.42061200  0.09904200  0.24110400  1
  O  O74  1  0.15961500  0.03333700  0.72727200  1
  O  O75  1  0.65961500  0.96666300  0.77272800  1
  O  O76  1  0.84038500  0.96666300  0.27272800  1
  O  O77  1  0.34038500  0.03333700  0.22727200  1
  O  O78  1  0.40627500  0.03981000  0.89104500  1
  O  O79  1  0.90627500  0.96019000  0.60895500  1
  O  O80  1  0.59372500  0.96019000  0.10895500  1
  O  O81  1  0.09372500  0.03981000  0.39104500  1
