# generated using pymatgen
data_Na2FeO2
_symmetry_space_group_name_H-M   'P 1'
_cell_length_a   5.77031188
_cell_length_b   7.97870623
_cell_length_c   6.12633509
_cell_angle_alpha   90.01657860
_cell_angle_beta   90.00080138
_cell_angle_gamma   95.11138317
_symmetry_Int_Tables_number   1
_chemical_formula_structural   Na2FeO2
_chemical_formula_sum   'Na8 Fe4 O8'
_cell_volume   280.93252747
_cell_formula_units_Z   4
loop_
 _symmetry_equiv_pos_site_id
 _symmetry_equiv_pos_as_xyz
  1  'x, y, z'
loop_
 _atom_site_type_symbol
 _atom_site_label
 _atom_site_symmetry_multiplicity
 _atom_site_fract_x
 _atom_site_fract_y
 _atom_site_fract_z
 _atom_site_occupancy
  Na  Na0  1  0.50629300  0.01867800  0.24443700  1
  Na  Na1  1  0.00636800  0.01871400  0.25566700  1
  Na  Na2  1  0.99365500  0.98129600  0.74443900  1
  Na  Na3  1  0.49374400  0.98131800  0.75565200  1
  Na  Na4  1  0.92671100  0.33179600  0.85415700  1
  Na  Na5  1  0.42640200  0.33121100  0.64587000  1
  Na  Na6  1  0.57357000  0.66881600  0.35409400  1
  Na  Na7  1  0.07331900  0.66820900  0.14574800  1
  Fe  Fe8  1  0.34388700  0.35888200  0.11788400  1
  Fe  Fe9  1  0.65619400  0.64114200  0.88214200  1
  Fe  Fe10  1  0.84347100  0.35906500  0.38227200  1
  Fe  Fe11  1  0.15642700  0.64087600  0.61780100  1
  O  O12  1  0.75513600  0.14641100  0.53115600  1
  O  O13  1  0.25525200  0.14627300  0.96889000  1
  O  O14  1  0.74479400  0.85367000  0.03115600  1
  O  O15  1  0.24488700  0.85363300  0.46887300  1
  O  O16  1  0.70077800  0.44823000  0.11926800  1
  O  O17  1  0.20070000  0.44755400  0.38088100  1
  O  O18  1  0.79920400  0.55243400  0.61902000  1
  O  O19  1  0.29920600  0.55179200  0.88059400  1
