# generated using pymatgen
data_Li4Mn3Cr3(FeO8)2
_symmetry_space_group_name_H-M   'P 1'
_cell_length_a   5.83980035
_cell_length_b   5.83980035
_cell_length_c   9.54283601
_cell_angle_alpha   89.65671197
_cell_angle_beta   89.65671197
_cell_angle_gamma   59.83816965
_symmetry_Int_Tables_number   1
_chemical_formula_structural   Li4Mn3Cr3(FeO8)2
_chemical_formula_sum   'Li4 Mn3 Cr3 Fe2 O16'
_cell_volume   281.37350107
_cell_formula_units_Z   1
loop_
 _symmetry_equiv_pos_site_id
 _symmetry_equiv_pos_as_xyz
  1  'x, y, z'
loop_
 _atom_site_type_symbol
 _atom_site_label
 _atom_site_symmetry_multiplicity
 _atom_site_fract_x
 _atom_site_fract_y
 _atom_site_fract_z
 _atom_site_occupancy
  Li  Li0  1  0.66887300  0.66887300  0.89243100  1
  Li  Li1  1  0.99686200  0.99686200  0.99781900  1
  Li  Li2  1  0.99805200  0.99805200  0.49620300  1
  Li  Li3  1  0.33372100  0.33372100  0.39205200  1
  Mn  Mn4  1  0.82994200  0.82994200  0.21565200  1
  Mn  Mn5  1  0.16998700  0.65954500  0.71567800  1
  Mn  Mn6  1  0.65954500  0.16998700  0.71567800  1
  Cr  Cr7  1  0.34027000  0.82778700  0.21350300  1
  Cr  Cr8  1  0.82778700  0.34027000  0.21350300  1
  Cr  Cr9  1  0.16914200  0.16914200  0.71505900  1
  Fe  Fe10  1  0.66435700  0.66435700  0.49258300  1
  Fe  Fe11  1  0.33206300  0.33206300  0.99475700  1
  O  O12  1  0.32343800  0.83303800  0.60239300  1
  O  O13  1  0.51772300  0.51772300  0.33241600  1
  O  O14  1  0.67169000  0.67169000  0.10596400  1
  O  O15  1  0.99590100  0.99590100  0.30932900  1
  O  O16  1  0.99609900  0.99609900  0.81019200  1
  O  O17  1  0.83303800  0.32343800  0.60239300  1
  O  O18  1  0.51920300  0.96251500  0.33295400  1
  O  O19  1  0.96251500  0.51920300  0.33295400  1
  O  O20  1  0.15962600  0.15962600  0.10376700  1
  O  O21  1  0.83660700  0.83660700  0.60517400  1
  O  O22  1  0.03899600  0.48334400  0.83268300  1
  O  O23  1  0.48334400  0.03899600  0.83268300  1
  O  O24  1  0.33723900  0.33723900  0.60928800  1
  O  O25  1  0.16142600  0.67145900  0.10339700  1
  O  O26  1  0.48140400  0.48140400  0.83333700  1
  O  O27  1  0.67145900  0.16142600  0.10339700  1
