# generated using pymatgen
data_Ti3CrCo2(PO4)6
_symmetry_space_group_name_H-M   'P 1'
_cell_length_a   8.57360038
_cell_length_b   8.57360038
_cell_length_c   8.57360080
_cell_angle_alpha   60.51250767
_cell_angle_beta   60.51250767
_cell_angle_gamma   60.51250585
_symmetry_Int_Tables_number   1
_chemical_formula_structural   Ti3CrCo2(PO4)6
_chemical_formula_sum   'Ti3 Cr1 Co2 P6 O24'
_cell_volume   450.79145946
_cell_formula_units_Z   1
loop_
 _symmetry_equiv_pos_site_id
 _symmetry_equiv_pos_as_xyz
  1  'x, y, z'
loop_
 _atom_site_type_symbol
 _atom_site_label
 _atom_site_symmetry_multiplicity
 _atom_site_fract_x
 _atom_site_fract_y
 _atom_site_fract_z
 _atom_site_occupancy
  Ti  Ti0  1  0.35734700  0.35734700  0.35734700  1
  Ti  Ti1  1  0.14201000  0.14201000  0.14201000  1
  Ti  Ti2  1  0.64292300  0.64292300  0.64292300  1
  Cr  Cr3  1  0.85908500  0.85908500  0.85908500  1
  Co  Co4  1  0.99983600  0.99983600  0.99983600  1
  Co  Co5  1  0.49923300  0.49923300  0.49923300  1
  P  P6  1  0.46011300  0.75085800  0.04173300  1
  P  P7  1  0.75085800  0.04173300  0.46011300  1
  P  P8  1  0.04173300  0.46011300  0.75085800  1
  P  P9  1  0.95765900  0.54258800  0.24906200  1
  P  P10  1  0.24906200  0.95765900  0.54258800  1
  P  P11  1  0.54258800  0.24906200  0.95765900  1
  O  O12  1  0.68895300  0.87796200  0.50375300  1
  O  O13  1  0.87796200  0.50375200  0.68895300  1
  O  O14  1  0.50375200  0.68895300  0.87796200  1
  O  O15  1  0.26388900  0.91310000  0.05660500  1
  O  O16  1  0.61720200  0.80875600  0.00864900  1
  O  O17  1  0.43674300  0.58643900  0.23556300  1
  O  O18  1  0.91310000  0.05660500  0.26388900  1
  O  O19  1  0.58643900  0.23556300  0.43674300  1
  O  O20  1  0.00283900  0.37920400  0.18687300  1
  O  O21  1  0.23556300  0.43674300  0.58643900  1
  O  O22  1  0.94527100  0.73582500  0.08813600  1
  O  O23  1  0.18687300  0.00283900  0.37920400  1
  O  O24  1  0.80875600  0.00864900  0.61720200  1
  O  O25  1  0.05660500  0.26388900  0.91310000  1
  O  O26  1  0.76456100  0.55511700  0.41379200  1
  O  O27  1  0.00864900  0.61720200  0.80875600  1
  O  O28  1  0.41379200  0.76456100  0.55511700  1
  O  O29  1  0.08813600  0.94527100  0.73582500  1
  O  O30  1  0.55511700  0.41379200  0.76456100  1
  O  O31  1  0.37920400  0.18687300  0.00283900  1
  O  O32  1  0.73582500  0.08813600  0.94527100  1
  O  O33  1  0.49459400  0.31484200  0.11888400  1
  O  O34  1  0.11888400  0.49459400  0.31484200  1
  O  O35  1  0.31484200  0.11888400  0.49459400  1
