data_image0
_chemical_formula_structural       GeHg2Se4
_chemical_formula_sum              "Ge1 Hg2 Se4"
_cell_length_a       5.81669
_cell_length_b       5.81669
_cell_length_c       7.12028
_cell_angle_alpha    114.108
_cell_angle_beta     114.108
_cell_angle_gamma    90

_space_group_name_H-M_alt    "P 1"
_space_group_IT_number       1

loop_
  _space_group_symop_operation_xyz
  'x, y, z'

loop_
  _atom_site_type_symbol
  _atom_site_label
  _atom_site_symmetry_multiplicity
  _atom_site_fract_x
  _atom_site_fract_y
  _atom_site_fract_z
  _atom_site_occupancy
  Ge  Ge1       1.0  0.75000  0.25000  0.50000  1.0000
  Hg  Hg1       1.0  0.50000  0.50000  0.00000  1.0000
  Hg  Hg2       1.0  0.25000  0.75000  0.50000  1.0000
  Se  Se1       1.0  0.36000  0.31100  0.23900  1.0000
  Se  Se2       1.0  0.87900  0.92700  0.23900  1.0000
  Se  Se3       1.0  0.68900  0.12100  0.76100  1.0000
  Se  Se4       1.0  0.07270  0.64000  0.76100  1.0000
