# generated using pymatgen
data_Na2Mo(H2O3)2
_symmetry_space_group_name_H-M   'P 1'
_cell_length_a   8.81724600
_cell_length_b   10.65797900
_cell_length_c   13.88271700
_cell_angle_alpha   90.00000000
_cell_angle_beta   90.00000000
_cell_angle_gamma   90.00000000
_symmetry_Int_Tables_number   1
_chemical_formula_structural   Na2Mo(H2O3)2
_chemical_formula_sum   'Na16 Mo8 H32 O48'
_cell_volume   1304.61476258
_cell_formula_units_Z   8
loop_
 _symmetry_equiv_pos_site_id
 _symmetry_equiv_pos_as_xyz
  1  'x, y, z'
loop_
 _atom_site_type_symbol
 _atom_site_label
 _atom_site_symmetry_multiplicity
 _atom_site_fract_x
 _atom_site_fract_y
 _atom_site_fract_z
 _atom_site_occupancy
  Na  Na0  1  0.75566600  0.94368600  0.14378200  1
  Na  Na1  1  0.74433400  0.44368600  0.14378200  1
  Na  Na2  1  0.16029100  0.49587700  0.58226100  1
  Na  Na3  1  0.33970900  0.50412300  0.08226100  1
  Na  Na4  1  0.75566600  0.55631400  0.64378200  1
  Na  Na5  1  0.24433400  0.44368600  0.35621800  1
  Na  Na6  1  0.66029100  0.49587700  0.91773900  1
  Na  Na7  1  0.83970900  0.99587700  0.91773900  1
  Na  Na8  1  0.83970900  0.50412300  0.41773900  1
  Na  Na9  1  0.66029100  0.00412300  0.41773900  1
  Na  Na10  1  0.25566600  0.94368600  0.35621800  1
  Na  Na11  1  0.25566600  0.55631400  0.85621800  1
  Na  Na12  1  0.33970900  0.99587700  0.58226100  1
  Na  Na13  1  0.24433400  0.05631400  0.85621800  1
  Na  Na14  1  0.16029100  0.00412300  0.08226100  1
  Na  Na15  1  0.74433400  0.05631400  0.64378200  1
  Mo  Mo16  1  0.98399600  0.69874900  0.02362800  1
  Mo  Mo17  1  0.01600400  0.30125100  0.97637200  1
  Mo  Mo18  1  0.48399600  0.69874900  0.47637200  1
  Mo  Mo19  1  0.01600400  0.19874900  0.47637200  1
  Mo  Mo20  1  0.51600400  0.19874900  0.02362800  1
  Mo  Mo21  1  0.98399600  0.80125100  0.52362800  1
  Mo  Mo22  1  0.51600400  0.30125100  0.52362800  1
  Mo  Mo23  1  0.48399600  0.80125100  0.97637200  1
  H  H24  1  0.05797400  0.89887300  0.73386900  1
  H  H25  1  0.55283700  0.66746600  0.16554100  1
  H  H26  1  0.86856900  0.64507100  0.82716400  1
  H  H27  1  0.55797400  0.60112700  0.26613100  1
  H  H28  1  0.94202600  0.10112700  0.26613100  1
  H  H29  1  0.44202600  0.39887300  0.73386900  1
  H  H30  1  0.21272600  0.78622700  0.17853000  1
  H  H31  1  0.28727400  0.28622700  0.17853000  1
  H  H32  1  0.71272600  0.78622700  0.32147000  1
  H  H33  1  0.94716300  0.16746600  0.16554100  1
  H  H34  1  0.63143100  0.35492900  0.32716400  1
  H  H35  1  0.94716300  0.33253400  0.66554100  1
  H  H36  1  0.44716300  0.33253400  0.83445900  1
  H  H37  1  0.71272600  0.71377300  0.82147000  1
  H  H38  1  0.28727400  0.21377300  0.67853000  1
  H  H39  1  0.55283700  0.83253400  0.66554100  1
  H  H40  1  0.94202600  0.39887300  0.76613100  1
  H  H41  1  0.44202600  0.10112700  0.23386900  1
  H  H42  1  0.05283700  0.66746600  0.33445900  1
  H  H43  1  0.86856900  0.85492900  0.32716400  1
  H  H44  1  0.13143100  0.35492900  0.17283600  1
  H  H45  1  0.13143100  0.14507100  0.67283600  1
  H  H46  1  0.44716300  0.16746600  0.33445900  1
  H  H47  1  0.78727400  0.28622700  0.32147000  1
  H  H48  1  0.05797400  0.60112700  0.23386900  1
  H  H49  1  0.36856900  0.64507100  0.67283600  1
  H  H50  1  0.78727400  0.21377300  0.82147000  1
  H  H51  1  0.05283700  0.83253400  0.83445900  1
  H  H52  1  0.63143100  0.14507100  0.82716400  1
  H  H53  1  0.21272600  0.71377300  0.67853000  1
  H  H54  1  0.55797400  0.89887300  0.76613100  1
  H  H55  1  0.36856900  0.85492900  0.17283600  1
  O  O56  1  0.05894700  0.13789600  0.95868600  1
  O  O57  1  0.54085400  0.58462200  0.19673700  1
  O  O58  1  0.95914600  0.41537800  0.69673700  1
  O  O59  1  0.94105300  0.63789600  0.54131400  1
  O  O60  1  0.04372700  0.67900500  0.89979200  1
  O  O61  1  0.37353700  0.15242300  0.11090800  1
  O  O62  1  0.12646300  0.65242300  0.11090800  1
  O  O63  1  0.23502700  0.36346400  0.19995300  1
  O  O64  1  0.45627300  0.32099500  0.39979200  1
  O  O65  1  0.95627300  0.17900500  0.60020800  1
  O  O66  1  0.54372700  0.67900500  0.60020800  1
  O  O67  1  0.95627300  0.32099500  0.10020800  1
  O  O68  1  0.94105300  0.86210400  0.04131400  1
  O  O69  1  0.62646300  0.84757700  0.88909200  1
  O  O70  1  0.04085400  0.58462200  0.30326300  1
  O  O71  1  0.73502700  0.36346400  0.30004700  1
  O  O72  1  0.31816300  0.60557600  0.45987300  1
  O  O73  1  0.73502700  0.13653600  0.80004700  1
  O  O74  1  0.62646300  0.65242300  0.38909200  1
  O  O75  1  0.76497300  0.63653600  0.80004700  1
  O  O76  1  0.26497300  0.63653600  0.69995300  1
  O  O77  1  0.31816300  0.89442400  0.95987300  1
  O  O78  1  0.44105300  0.86210400  0.45868600  1
  O  O79  1  0.18183700  0.10557600  0.45987300  1
  O  O80  1  0.55894700  0.36210400  0.04131400  1
  O  O81  1  0.87353700  0.34757700  0.88909200  1
  O  O82  1  0.87353700  0.15242300  0.38909200  1
  O  O83  1  0.54372700  0.82099500  0.10020800  1
  O  O84  1  0.55894700  0.13789600  0.54131400  1
  O  O85  1  0.12646300  0.84757700  0.61090800  1
  O  O86  1  0.44105300  0.63789600  0.95868600  1
  O  O87  1  0.37353700  0.34757700  0.61090800  1
  O  O88  1  0.23502700  0.13653600  0.69995300  1
  O  O89  1  0.18183700  0.39442400  0.95987300  1
  O  O90  1  0.81816300  0.89442400  0.54012700  1
  O  O91  1  0.45627300  0.17900500  0.89979200  1
  O  O92  1  0.45914600  0.08462200  0.30326300  1
  O  O93  1  0.45914600  0.41537800  0.80326300  1
  O  O94  1  0.54085400  0.91537800  0.69673700  1
  O  O95  1  0.05894700  0.36210400  0.45868600  1
  O  O96  1  0.68183700  0.10557600  0.04012700  1
  O  O97  1  0.04085400  0.91537800  0.80326300  1
  O  O98  1  0.95914600  0.08462200  0.19673700  1
  O  O99  1  0.81816300  0.60557600  0.04012700  1
  O  O100  1  0.76497300  0.86346400  0.30004700  1
  O  O101  1  0.04372700  0.82099500  0.39979200  1
  O  O102  1  0.26497300  0.86346400  0.19995300  1
  O  O103  1  0.68183700  0.39442400  0.54012700  1
