# generated using pymatgen
data_V5CoO12
_symmetry_space_group_name_H-M   'P 1'
_cell_length_a   6.79555308
_cell_length_b   6.79555306
_cell_length_c   5.85730805
_cell_angle_alpha   75.18204801
_cell_angle_beta   104.81794958
_cell_angle_gamma   95.60531092
_symmetry_Int_Tables_number   1
_chemical_formula_structural   V5CoO12
_chemical_formula_sum   'V5 Co1 O12'
_cell_volume   252.64518659
_cell_formula_units_Z   1
loop_
 _symmetry_equiv_pos_site_id
 _symmetry_equiv_pos_as_xyz
  1  'x, y, z'
loop_
 _atom_site_type_symbol
 _atom_site_label
 _atom_site_symmetry_multiplicity
 _atom_site_fract_x
 _atom_site_fract_y
 _atom_site_fract_z
 _atom_site_occupancy
  V  V0  1  0.20487600  0.61093600  0.75808100  1
  V  V1  1  0.39105800  0.79456100  0.26304600  1
  V  V2  1  0.61093600  0.20487600  0.74191900  1
  V  V3  1  0.79456100  0.39105800  0.23695400  1
  V  V4  1  0.91682800  0.91682800  0.25000000  1
  Co  Co5  1  0.08773000  0.08773000  0.75000000  1
  O  O6  1  0.03587900  0.80893200  0.63205400  1
  O  O7  1  0.08835400  0.37851700  0.77787800  1
  O  O8  1  0.18964300  0.96405400  0.14974500  1
  O  O9  1  0.37142300  0.64050900  0.55987800  1
  O  O10  1  0.37851700  0.08835400  0.72212200  1
  O  O11  1  0.34771400  0.63271300  0.05172900  1
  O  O12  1  0.64050900  0.37142300  0.94012200  1
  O  O13  1  0.63247500  0.90379900  0.28452800  1
  O  O14  1  0.63271300  0.34771400  0.44827100  1
  O  O15  1  0.80893200  0.03587900  0.86794600  1
  O  O16  1  0.90379900  0.63247500  0.21547200  1
  O  O17  1  0.96405400  0.18964300  0.35025500  1
