# generated using pymatgen
data_LiMnPO4
_symmetry_space_group_name_H-M   'P 1'
_cell_length_a   5.14411800
_cell_length_b   13.87921900
_cell_length_c   18.28487290
_cell_angle_alpha   89.67020909
_cell_angle_beta   90.00000000
_cell_angle_gamma   90.00000000
_symmetry_Int_Tables_number   1
_chemical_formula_structural   LiMnPO4
_chemical_formula_sum   'Li16 Mn16 P16 O64'
_cell_volume   1305.45138166
_cell_formula_units_Z   16
loop_
 _symmetry_equiv_pos_site_id
 _symmetry_equiv_pos_as_xyz
  1  'x, y, z'
loop_
 _atom_site_type_symbol
 _atom_site_label
 _atom_site_symmetry_multiplicity
 _atom_site_fract_x
 _atom_site_fract_y
 _atom_site_fract_z
 _atom_site_occupancy
  Li  Li0  1  0.77465600  0.14767800  0.93954900  1
  Li  Li1  1  0.21828400  0.17082200  0.72453000  1
  Li  Li2  1  0.84250700  0.25946000  0.63239100  1
  Li  Li3  1  0.70934100  0.26375700  0.11315700  1
  Li  Li4  1  0.20934100  0.23624300  0.38684300  1
  Li  Li5  1  0.34250700  0.24054000  0.86760900  1
  Li  Li6  1  0.71828400  0.32917800  0.77547000  1
  Li  Li7  1  0.27465600  0.35232200  0.56045100  1
  Li  Li8  1  0.72534400  0.64767800  0.43954900  1
  Li  Li9  1  0.28171600  0.67082200  0.22453000  1
  Li  Li10  1  0.65749300  0.75946000  0.13239100  1
  Li  Li11  1  0.79065900  0.76375700  0.61315700  1
  Li  Li12  1  0.29065900  0.73624300  0.88684300  1
  Li  Li13  1  0.15749300  0.74054000  0.36760900  1
  Li  Li14  1  0.78171600  0.82917800  0.27547000  1
  Li  Li15  1  0.22534400  0.85232200  0.06045100  1
  Mn  Mn16  1  0.75791500  0.00071400  0.11894500  1
  Mn  Mn17  1  0.24522000  0.00180800  0.37152400  1
  Mn  Mn18  1  0.26457200  0.11451600  0.19535000  1
  Mn  Mn19  1  0.70308200  0.11576500  0.45444800  1
  Mn  Mn20  1  0.20308200  0.38423500  0.04555200  1
  Mn  Mn21  1  0.76457200  0.38548400  0.30465000  1
  Mn  Mn22  1  0.74522000  0.49819200  0.12847600  1
  Mn  Mn23  1  0.25791500  0.49928600  0.38105500  1
  Mn  Mn24  1  0.74208500  0.50071400  0.61894500  1
  Mn  Mn25  1  0.25478000  0.50180800  0.87152400  1
  Mn  Mn26  1  0.23542800  0.61451600  0.69535000  1
  Mn  Mn27  1  0.79691800  0.61576500  0.95444800  1
  Mn  Mn28  1  0.29691800  0.88423500  0.54555200  1
  Mn  Mn29  1  0.73542800  0.88548400  0.80465000  1
  Mn  Mn30  1  0.75478000  0.99819200  0.62847600  1
  Mn  Mn31  1  0.24208500  0.99928600  0.88105500  1
  P  P32  1  0.75679100  0.11563100  0.78544600  1
  P  P33  1  0.21707300  0.12120800  0.54197700  1
  P  P34  1  0.29716200  0.13265700  0.03586500  1
  P  P35  1  0.74958700  0.13454300  0.29000700  1
  P  P36  1  0.24958700  0.36545700  0.20999300  1
  P  P37  1  0.79716200  0.36734300  0.46413500  1
  P  P38  1  0.71707300  0.37879200  0.95802300  1
  P  P39  1  0.25679100  0.38436900  0.71455400  1
  P  P40  1  0.74320900  0.61563100  0.28544600  1
  P  P41  1  0.28292700  0.62120800  0.04197700  1
  P  P42  1  0.20283800  0.63265700  0.53586500  1
  P  P43  1  0.75041300  0.63454300  0.79000700  1
  P  P44  1  0.25041300  0.86545700  0.70999300  1
  P  P45  1  0.70283800  0.86734300  0.96413500  1
  P  P46  1  0.78292700  0.87879200  0.45802300  1
  P  P47  1  0.24320900  0.88436900  0.21455400  1
  O  O48  1  0.60152600  0.02704100  0.81430100  1
  O  O49  1  0.39734500  0.04250300  0.57525500  1
  O  O50  1  0.09476400  0.06013500  0.06653600  1
  O  O51  1  0.92882300  0.08392200  0.54470500  1
  O  O52  1  0.39711000  0.10272700  0.95820200  1
  O  O53  1  0.86501300  0.10221300  0.70627100  1
  O  O54  1  0.86432600  0.08986900  0.21872200  1
  O  O55  1  0.46561000  0.09809700  0.30235900  1
  O  O56  1  0.92128400  0.10313300  0.35688400  1
  O  O57  1  0.99642600  0.13222600  0.83707300  1
  O  O58  1  0.29087100  0.13145800  0.45868000  1
  O  O59  1  0.53581700  0.13481100  0.09077000  1
  O  O60  1  0.56039500  0.20059500  0.78330800  1
  O  O61  1  0.22973500  0.21660100  0.58261600  1
  O  O62  1  0.18030800  0.23464800  0.03165700  1
  O  O63  1  0.74867300  0.24415300  0.28693600  1
  O  O64  1  0.24867300  0.25584700  0.21306400  1
  O  O65  1  0.68030800  0.26535200  0.46834300  1
  O  O66  1  0.72973500  0.28339900  0.91738400  1
  O  O67  1  0.06039500  0.29940500  0.71669200  1
  O  O68  1  0.03581700  0.36518900  0.40923000  1
  O  O69  1  0.79087100  0.36854200  0.04132000  1
  O  O70  1  0.49642600  0.36777400  0.66292700  1
  O  O71  1  0.42128400  0.39686700  0.14311600  1
  O  O72  1  0.96561000  0.40190300  0.19764100  1
  O  O73  1  0.36501300  0.39778700  0.79372900  1
  O  O74  1  0.36432600  0.41013100  0.28127800  1
  O  O75  1  0.89711000  0.39727300  0.54179800  1
  O  O76  1  0.42882300  0.41607800  0.95529500  1
  O  O77  1  0.59476400  0.43986500  0.43346400  1
  O  O78  1  0.89734500  0.45749700  0.92474500  1
  O  O79  1  0.10152600  0.47295900  0.68569900  1
  O  O80  1  0.89847400  0.52704100  0.31430100  1
  O  O81  1  0.10265500  0.54250300  0.07525500  1
  O  O82  1  0.40523600  0.56013500  0.56653600  1
  O  O83  1  0.57117700  0.58392200  0.04470500  1
  O  O84  1  0.10289000  0.60272700  0.45820200  1
  O  O85  1  0.63567400  0.58986900  0.71872200  1
  O  O86  1  0.63498700  0.60221300  0.20627100  1
  O  O87  1  0.03439000  0.59809700  0.80235900  1
  O  O88  1  0.57871600  0.60313300  0.85688400  1
  O  O89  1  0.50357400  0.63222600  0.33707300  1
  O  O90  1  0.20912900  0.63145800  0.95868000  1
  O  O91  1  0.96418300  0.63481100  0.59077000  1
  O  O92  1  0.93960500  0.70059500  0.28330800  1
  O  O93  1  0.27026500  0.71660100  0.08261600  1
  O  O94  1  0.31969200  0.73464800  0.53165700  1
  O  O95  1  0.75132700  0.74415300  0.78693600  1
  O  O96  1  0.25132700  0.75584700  0.71306400  1
  O  O97  1  0.81969200  0.76535200  0.96834300  1
  O  O98  1  0.77026500  0.78339900  0.41738400  1
  O  O99  1  0.43960500  0.79940500  0.21669200  1
  O  O100  1  0.46418300  0.86518900  0.90923000  1
  O  O101  1  0.70912900  0.86854200  0.54132000  1
  O  O102  1  0.00357400  0.86777400  0.16292700  1
  O  O103  1  0.07871600  0.89686700  0.64311600  1
  O  O104  1  0.53439000  0.90190300  0.69764100  1
  O  O105  1  0.13567400  0.91013100  0.78127800  1
  O  O106  1  0.13498700  0.89778700  0.29372900  1
  O  O107  1  0.60289000  0.89727300  0.04179800  1
  O  O108  1  0.07117700  0.91607800  0.45529500  1
  O  O109  1  0.90523600  0.93986500  0.93346400  1
  O  O110  1  0.60265500  0.95749700  0.42474500  1
  O  O111  1  0.39847400  0.97295900  0.18569900  1
