# generated using pymatgen
data_Na3FeC6O17
_symmetry_space_group_name_H-M   'P 1'
_cell_length_a   11.06600224
_cell_length_b   11.06600224
_cell_length_c   14.45454673
_cell_angle_alpha   79.31278001
_cell_angle_beta   79.31278001
_cell_angle_gamma   75.31495971
_symmetry_Int_Tables_number   1
_chemical_formula_structural   Na3FeC6O17
_chemical_formula_sum   'Na12 Fe4 C24 O68'
_cell_volume   1664.59235788
_cell_formula_units_Z   4
loop_
 _symmetry_equiv_pos_site_id
 _symmetry_equiv_pos_as_xyz
  1  'x, y, z'
loop_
 _atom_site_type_symbol
 _atom_site_label
 _atom_site_symmetry_multiplicity
 _atom_site_fract_x
 _atom_site_fract_y
 _atom_site_fract_z
 _atom_site_occupancy
  Na  Na0  1  0.71539700  0.28460300  0.75000000  1
  Na  Na1  1  0.28460300  0.71539700  0.25000000  1
  Na  Na2  1  0.00638600  0.99361400  0.75000000  1
  Na  Na3  1  0.99361400  0.00638600  0.25000000  1
  Na  Na4  1  0.77987200  0.87621000  0.04598600  1
  Na  Na5  1  0.12379000  0.22012800  0.45401400  1
  Na  Na6  1  0.22012800  0.12379000  0.95401400  1
  Na  Na7  1  0.87621000  0.77987200  0.54598600  1
  Na  Na8  1  0.52994100  0.34432500  0.99384500  1
  Na  Na9  1  0.65567500  0.47005900  0.50615500  1
  Na  Na10  1  0.47005900  0.65567500  0.00615500  1
  Na  Na11  1  0.34432500  0.52994100  0.49384500  1
  Fe  Fe12  1  0.44570100  0.16746100  0.24749700  1
  Fe  Fe13  1  0.83253900  0.55429900  0.25250300  1
  Fe  Fe14  1  0.55429900  0.83253900  0.75250300  1
  Fe  Fe15  1  0.16746100  0.44570100  0.74749700  1
  C  C16  1  0.26946300  0.07042500  0.17815000  1
  C  C17  1  0.92957500  0.73053700  0.32185000  1
  C  C18  1  0.73053700  0.92957500  0.82185000  1
  C  C19  1  0.07042500  0.26946300  0.67815000  1
  C  C20  1  0.28585300  0.99620000  0.28097900  1
  C  C21  1  0.00380000  0.71414700  0.21902100  1
  C  C22  1  0.71414700  0.00380000  0.71902100  1
  C  C23  1  0.99620000  0.28585300  0.78097900  1
  C  C24  1  0.39705100  0.43622300  0.18807900  1
  C  C25  1  0.56377700  0.60294900  0.31192100  1
  C  C26  1  0.60294900  0.56377700  0.81192100  1
  C  C27  1  0.43622300  0.39705100  0.68807900  1
  C  C28  1  0.30816900  0.41590900  0.28401400  1
  C  C29  1  0.58409100  0.69183100  0.21598600  1
  C  C30  1  0.69183100  0.58409100  0.71598600  1
  C  C31  1  0.41590900  0.30816900  0.78401400  1
  C  C32  1  0.70175800  0.03433500  0.21124300  1
  C  C33  1  0.96566500  0.29824200  0.28875700  1
  C  C34  1  0.29824200  0.96566500  0.78875700  1
  C  C35  1  0.03433500  0.70175800  0.71124300  1
  C  C36  1  0.68997200  0.09535300  0.30220400  1
  C  C37  1  0.90464700  0.31002800  0.19779600  1
  C  C38  1  0.31002800  0.90464700  0.69779600  1
  C  C39  1  0.09535300  0.68997200  0.80220400  1
  O  O40  1  0.65261600  0.11704500  0.97921400  1
  O  O41  1  0.88295500  0.34738400  0.52078600  1
  O  O42  1  0.34738400  0.88295500  0.02078600  1
  O  O43  1  0.11704500  0.65261600  0.47921400  1
  O  O44  1  0.73538100  0.17458400  0.97962600  1
  O  O45  1  0.82541600  0.26461900  0.52037400  1
  O  O46  1  0.26461900  0.82541600  0.02037400  1
  O  O47  1  0.17458400  0.73538100  0.47962600  1
  O  O48  1  0.67773500  0.55114900  0.01934400  1
  O  O49  1  0.44885100  0.32226500  0.48065600  1
  O  O50  1  0.32226500  0.44885100  0.98065600  1
  O  O51  1  0.55114900  0.67773500  0.51934400  1
  O  O52  1  0.80454700  0.68427200  0.98031400  1
  O  O53  1  0.31572800  0.19545300  0.51968600  1
  O  O54  1  0.19545300  0.31572800  0.01968600  1
  O  O55  1  0.68427200  0.80454700  0.48031400  1
  O  O56  1  0.78924200  0.57187200  0.98373800  1
  O  O57  1  0.42812800  0.21075800  0.51626200  1
  O  O58  1  0.21075800  0.42812800  0.01626200  1
  O  O59  1  0.57187200  0.78924200  0.48373800  1
  O  O60  1  0.33867000  0.15177000  0.15064600  1
  O  O61  1  0.84823000  0.66133000  0.34935400  1
  O  O62  1  0.66133000  0.84823000  0.84935400  1
  O  O63  1  0.15177000  0.33867000  0.65064600  1
  O  O64  1  0.36043700  0.03265200  0.32326200  1
  O  O65  1  0.96734800  0.63956300  0.17673800  1
  O  O66  1  0.63956300  0.96734800  0.67673800  1
  O  O67  1  0.03265200  0.36043700  0.82326200  1
  O  O68  1  0.80426200  0.95296900  0.86795800  1
  O  O69  1  0.04703100  0.19573800  0.63204200  1
  O  O70  1  0.19573800  0.04703100  0.13204200  1
  O  O71  1  0.95296900  0.80426200  0.36795800  1
  O  O72  1  0.77225300  0.08849300  0.68703100  1
  O  O73  1  0.91150700  0.22774700  0.81296900  1
  O  O74  1  0.22774700  0.91150700  0.31296900  1
  O  O75  1  0.08849300  0.77225300  0.18703100  1
  O  O76  1  0.46841100  0.33416300  0.15940500  1
  O  O77  1  0.66583700  0.53158900  0.34059500  1
  O  O78  1  0.53158900  0.66583700  0.84059500  1
  O  O79  1  0.33416300  0.46841100  0.65940500  1
  O  O80  1  0.30874500  0.29860900  0.31582300  1
  O  O81  1  0.70139100  0.69125500  0.18417700  1
  O  O82  1  0.69125500  0.70139100  0.68417700  1
  O  O83  1  0.29860900  0.30874500  0.81582300  1
  O  O84  1  0.60609100  0.45493800  0.85542500  1
  O  O85  1  0.54506200  0.39390900  0.64457500  1
  O  O86  1  0.39390900  0.54506200  0.14457500  1
  O  O87  1  0.45493800  0.60609100  0.35542500  1
  O  O88  1  0.75486400  0.49125600  0.67824400  1
  O  O89  1  0.50874400  0.24513600  0.82175600  1
  O  O90  1  0.24513600  0.50874400  0.32175600  1
  O  O91  1  0.49125600  0.75486400  0.17824400  1
  O  O92  1  0.59661100  0.05556800  0.17736800  1
  O  O93  1  0.94443200  0.40338900  0.32263200  1
  O  O94  1  0.40338900  0.94443200  0.82263200  1
  O  O95  1  0.05556800  0.59661100  0.67736800  1
  O  O96  1  0.57568600  0.15722900  0.32887400  1
  O  O97  1  0.84277100  0.42431400  0.17112600  1
  O  O98  1  0.42431400  0.84277100  0.67112600  1
  O  O99  1  0.15722900  0.57568600  0.82887400  1
  O  O100  1  0.19527000  0.02884400  0.82411200  1
  O  O101  1  0.97115600  0.80473000  0.67588800  1
  O  O102  1  0.80473000  0.97115600  0.17588800  1
  O  O103  1  0.02884400  0.19527000  0.32411200  1
  O  O104  1  0.21678600  0.91678300  0.65847600  1
  O  O105  1  0.08321700  0.78321400  0.84152400  1
  O  O106  1  0.78321400  0.08321700  0.34152400  1
  O  O107  1  0.91678300  0.21678600  0.15847600  1
