# generated using pymatgen
data_CaSi(HO2)2
_symmetry_space_group_name_H-M   'P 1'
_cell_length_a   12.51153855
_cell_length_b   9.56645711
_cell_length_c   15.54226741
_cell_angle_alpha   53.58173849
_cell_angle_beta   37.97269125
_cell_angle_gamma   88.44557027
_symmetry_Int_Tables_number   1
_chemical_formula_structural   CaSi(HO2)2
_chemical_formula_sum   'Ca4 Si4 H8 O16'
_cell_volume   419.20381970
_cell_formula_units_Z   4
loop_
 _symmetry_equiv_pos_site_id
 _symmetry_equiv_pos_as_xyz
  1  'x, y, z'
loop_
 _atom_site_type_symbol
 _atom_site_label
 _atom_site_symmetry_multiplicity
 _atom_site_fract_x
 _atom_site_fract_y
 _atom_site_fract_z
 _atom_site_occupancy
  Ca  Ca0  1  0.43516300  0.10955200  0.15045800  1
  Ca  Ca1  1  0.10955200  0.43516300  0.30482700  1
  Ca  Ca2  1  0.09954200  0.94517300  0.81483700  1
  Ca  Ca3  1  0.94517300  0.09954200  0.14044800  1
  Si  Si4  1  0.36765700  0.60384000  0.39535600  1
  Si  Si5  1  0.60384000  0.36765700  0.63314600  1
  Si  Si6  1  0.85464400  0.61685400  0.88234300  1
  Si  Si7  1  0.61685400  0.85464400  0.64616000  1
  H  H8  1  0.67330100  0.34336500  0.43012600  1
  H  H9  1  0.34336500  0.67330100  0.55320600  1
  H  H10  1  0.81987400  0.69679400  0.57669900  1
  H  H11  1  0.69679400  0.81987400  0.90663500  1
  H  H12  1  0.24663100  0.72302200  0.67171300  1
  H  H13  1  0.72302200  0.24663100  0.35863400  1
  H  H14  1  0.57828700  0.89136600  0.00336900  1
  H  H15  1  0.89136600  0.57828700  0.52697800  1
  O  O16  1  0.95382000  0.95382000  0.04618000  1
  O  O17  1  0.20381900  0.20381900  0.29618100  1
  O  O18  1  0.94709400  0.58622100  0.74944000  1
  O  O19  1  0.58622100  0.94709400  0.71724400  1
  O  O20  1  0.50056000  0.53275600  0.30290600  1
  O  O21  1  0.53275600  0.50056000  0.66377900  1
  O  O22  1  0.44810800  0.83667500  0.19516400  1
  O  O23  1  0.83667500  0.44810800  0.52005200  1
  O  O24  1  0.05483600  0.72994800  0.80189200  1
  O  O25  1  0.72994800  0.05483600  0.41332500  1
  O  O26  1  0.35580500  0.69716500  0.59966700  1
  O  O27  1  0.69716500  0.35580500  0.34736200  1
  O  O28  1  0.65033300  0.90263800  0.89419500  1
  O  O29  1  0.90263800  0.65033300  0.55283500  1
  O  O30  1  0.58597900  0.58597900  0.41402100  1
  O  O31  1  0.83597900  0.83597900  0.66402100  1
