# generated using pymatgen
data_Bi12AsO20
_symmetry_space_group_name_H-M   'P 1'
_cell_length_a   8.98974206
_cell_length_b   8.98974206
_cell_length_c   8.98974206
_cell_angle_alpha   109.47122063
_cell_angle_beta   109.47122063
_cell_angle_gamma   109.47122063
_symmetry_Int_Tables_number   1
_chemical_formula_structural   Bi12AsO20
_chemical_formula_sum   'Bi12 As1 O20'
_cell_volume   559.26778293
_cell_formula_units_Z   1
loop_
 _symmetry_equiv_pos_site_id
 _symmetry_equiv_pos_as_xyz
  1  'x, y, z'
loop_
 _atom_site_type_symbol
 _atom_site_label
 _atom_site_symmetry_multiplicity
 _atom_site_fract_x
 _atom_site_fract_y
 _atom_site_fract_z
 _atom_site_occupancy
  Bi  Bi0  1  0.80190300  0.14772000  0.30232500  1
  Bi  Bi1  1  0.85228000  0.65418300  0.15460500  1
  Bi  Bi2  1  0.50042200  0.34581700  0.19809700  1
  Bi  Bi3  1  0.65418300  0.15460500  0.85228000  1
  Bi  Bi4  1  0.34581700  0.19809700  0.50042200  1
  Bi  Bi5  1  0.84539500  0.49957800  0.69767500  1
  Bi  Bi6  1  0.19809700  0.50042200  0.34581700  1
  Bi  Bi7  1  0.30232500  0.80190300  0.14772000  1
  Bi  Bi8  1  0.69767500  0.84539500  0.49957800  1
  Bi  Bi9  1  0.14772000  0.30232500  0.80190300  1
  Bi  Bi10  1  0.49957800  0.69767500  0.84539500  1
  Bi  Bi11  1  0.15460500  0.85228000  0.65418300  1
  As  As12  1  0.00000000  0.00000000  0.00000000  1
  O  O13  1  0.60564000  0.00000000  0.00000000  1
  O  O14  1  0.75636700  0.37590900  0.11623500  1
  O  O15  1  0.19327700  0.00000000  0.00000000  1
  O  O16  1  0.61954200  0.24363300  0.35986800  1
  O  O17  1  0.88376500  0.25967400  0.64013200  1
  O  O18  1  0.00000000  0.19327700  0.00000000  1
  O  O19  1  0.00000000  0.00000000  0.19327700  1
  O  O20  1  0.74032600  0.62409000  0.38045800  1
  O  O21  1  0.39436000  0.39436000  0.39436000  1
  O  O22  1  0.62409100  0.38045800  0.74032600  1
  O  O23  1  0.37591000  0.11623500  0.75636700  1
  O  O24  1  0.35986800  0.61954200  0.24363300  1
  O  O25  1  0.64013200  0.88376500  0.25967400  1
  O  O26  1  0.00000000  0.00000000  0.60564000  1
  O  O27  1  0.00000000  0.60564000  0.00000000  1
  O  O28  1  0.24363300  0.35986800  0.61954200  1
  O  O29  1  0.80672300  0.80672300  0.80672300  1
  O  O30  1  0.38045800  0.74032600  0.62409000  1
  O  O31  1  0.11623500  0.75636700  0.37591000  1
  O  O32  1  0.25967400  0.64013200  0.88376500  1
