# generated using pymatgen
data_Co2C2O7
_symmetry_space_group_name_H-M   'P 1'
_cell_length_a   7.88042900
_cell_length_b   8.04653600
_cell_length_c   11.40728226
_cell_angle_alpha   78.67213980
_cell_angle_beta   90.00000000
_cell_angle_gamma   90.00000000
_symmetry_Int_Tables_number   1
_chemical_formula_structural   Co2C2O7
_chemical_formula_sum   'Co8 C8 O28'
_cell_volume   709.24639549
_cell_formula_units_Z   4
loop_
 _symmetry_equiv_pos_site_id
 _symmetry_equiv_pos_as_xyz
  1  'x, y, z'
loop_
 _atom_site_type_symbol
 _atom_site_label
 _atom_site_symmetry_multiplicity
 _atom_site_fract_x
 _atom_site_fract_y
 _atom_site_fract_z
 _atom_site_occupancy
  Co  Co0  1  0.43194200  0.79621500  0.62584700  1
  Co  Co1  1  0.62730400  0.64163100  0.88290500  1
  Co  Co2  1  0.06805800  0.79621500  0.12584700  1
  Co  Co3  1  0.87269600  0.64163100  0.38290500  1
  Co  Co4  1  0.12730400  0.35836900  0.61709500  1
  Co  Co5  1  0.93194200  0.20378500  0.87415300  1
  Co  Co6  1  0.37269600  0.35836900  0.11709500  1
  Co  Co7  1  0.56805800  0.20378500  0.37415300  1
  C  C8  1  0.91377200  0.83871300  0.89559500  1
  C  C9  1  0.58622800  0.83871300  0.39559500  1
  C  C10  1  0.12136000  0.72564100  0.54626600  1
  C  C11  1  0.37864000  0.72564100  0.04626600  1
  C  C12  1  0.62136000  0.27435900  0.95373400  1
  C  C13  1  0.87864000  0.27435900  0.45373400  1
  C  C14  1  0.41377200  0.16128700  0.60440500  1
  C  C15  1  0.08622800  0.16128700  0.10440500  1
  O  O16  1  0.99903700  0.97754900  0.86660900  1
  O  O17  1  0.80991200  0.79059400  0.82111000  1
  O  O18  1  0.50096300  0.97754900  0.36660900  1
  O  O19  1  0.20132700  0.85295100  0.57299900  1
  O  O20  1  0.46818000  0.66172000  0.76842100  1
  O  O21  1  0.96842500  0.74325500  0.50685700  1
  O  O22  1  0.56382200  0.73998900  0.49957700  1
  O  O23  1  0.69008800  0.79059400  0.32111000  1
  O  O24  1  0.29867300  0.85295100  0.07299900  1
  O  O25  1  0.20362600  0.58082000  0.55946500  1
  O  O26  1  0.70362600  0.41918000  0.94053500  1
  O  O27  1  0.06382200  0.26001100  0.00042300  1
  O  O28  1  0.03182000  0.66172000  0.26842100  1
  O  O29  1  0.53157500  0.74325500  0.00685700  1
  O  O30  1  0.46842500  0.25674500  0.99314300  1
  O  O31  1  0.96818000  0.33828000  0.73157900  1
  O  O32  1  0.93617800  0.73998900  0.99957700  1
  O  O33  1  0.29637400  0.58082000  0.05946500  1
  O  O34  1  0.79637400  0.41918000  0.44053500  1
  O  O35  1  0.70132700  0.14704900  0.92700100  1
  O  O36  1  0.30991200  0.20940600  0.67889000  1
  O  O37  1  0.43617800  0.26001100  0.50042300  1
  O  O38  1  0.03157500  0.25674500  0.49314300  1
  O  O39  1  0.53182000  0.33828000  0.23157900  1
  O  O40  1  0.79867300  0.14704900  0.42700100  1
  O  O41  1  0.49903700  0.02245100  0.63339100  1
  O  O42  1  0.19008800  0.20940600  0.17889000  1
  O  O43  1  0.00096300  0.02245100  0.13339100  1
