# generated using pymatgen
data_CsSO4
_symmetry_space_group_name_H-M   'P 1'
_cell_length_a   8.14646549
_cell_length_b   5.98053100
_cell_length_c   10.10740056
_cell_angle_alpha   90.00000000
_cell_angle_beta   107.46450880
_cell_angle_gamma   90.00000000
_symmetry_Int_Tables_number   1
_chemical_formula_structural   CsSO4
_chemical_formula_sum   'Cs4 S4 O16'
_cell_volume   469.73473559
_cell_formula_units_Z   4
loop_
 _symmetry_equiv_pos_site_id
 _symmetry_equiv_pos_as_xyz
  1  'x, y, z'
loop_
 _atom_site_type_symbol
 _atom_site_label
 _atom_site_symmetry_multiplicity
 _atom_site_fract_x
 _atom_site_fract_y
 _atom_site_fract_z
 _atom_site_occupancy
  Cs  Cs0  1  0.11912800  0.75636100  0.84876100  1
  Cs  Cs1  1  0.61912800  0.74363900  0.34876100  1
  Cs  Cs2  1  0.88087200  0.24363900  0.15123900  1
  Cs  Cs3  1  0.38087200  0.25636100  0.65123900  1
  S  S4  1  0.15575900  0.74463500  0.39318300  1
  S  S5  1  0.65575900  0.75536500  0.89318300  1
  S  S6  1  0.84424100  0.25536500  0.60681700  1
  S  S7  1  0.34424100  0.24463500  0.10681700  1
  O  O8  1  0.25439200  0.54154900  0.37488700  1
  O  O9  1  0.75439200  0.95845100  0.87488700  1
  O  O10  1  0.74560800  0.45845100  0.62511300  1
  O  O11  1  0.24560800  0.04154900  0.12511300  1
  O  O12  1  0.14627700  0.73736300  0.53866500  1
  O  O13  1  0.64627700  0.76263700  0.03866500  1
  O  O14  1  0.85372300  0.26263700  0.46133500  1
  O  O15  1  0.35372300  0.23736300  0.96133500  1
  O  O16  1  0.98343400  0.74614400  0.29074900  1
  O  O17  1  0.48343400  0.75385600  0.79074900  1
  O  O18  1  0.01656600  0.25385600  0.70925100  1
  O  O19  1  0.51656600  0.24614400  0.20925100  1
  O  O20  1  0.25132900  0.95495000  0.38432400  1
  O  O21  1  0.75132900  0.54505000  0.88432400  1
  O  O22  1  0.74867100  0.04505000  0.61567600  1
  O  O23  1  0.24867100  0.45495000  0.11567600  1
