# generated using pymatgen
data_SbH5(Cl3O)2
_symmetry_space_group_name_H-M   'P 1'
_cell_length_a   7.10529266
_cell_length_b   7.10529266
_cell_length_c   13.60150110
_cell_angle_alpha   69.38830935
_cell_angle_beta   69.38830935
_cell_angle_gamma   61.17949854
_symmetry_Int_Tables_number   1
_chemical_formula_structural   SbH5(Cl3O)2
_chemical_formula_sum   'Sb2 H10 Cl12 O4'
_cell_volume   549.01295359
_cell_formula_units_Z   2
loop_
 _symmetry_equiv_pos_site_id
 _symmetry_equiv_pos_as_xyz
  1  'x, y, z'
loop_
 _atom_site_type_symbol
 _atom_site_label
 _atom_site_symmetry_multiplicity
 _atom_site_fract_x
 _atom_site_fract_y
 _atom_site_fract_z
 _atom_site_occupancy
  Sb  Sb0  1  0.49919200  0.00265300  0.25115500  1
  Sb  Sb1  1  0.99734700  0.50080800  0.74884500  1
  H  H2  1  0.69264800  0.13695900  0.41610700  1
  H  H3  1  0.76333500  0.33980600  0.34969700  1
  H  H4  1  0.71919100  0.28080900  0.50000000  1
  H  H5  1  0.66019400  0.23666500  0.65030300  1
  H  H6  1  0.13491600  0.69012300  0.91924600  1
  H  H7  1  0.86304100  0.30735200  0.58389300  1
  H  H8  1  0.32228300  0.77964000  0.85093200  1
  H  H9  1  0.27888700  0.72111300  0.00000000  1
  H  H10  1  0.22036000  0.67771700  0.14906800  1
  H  H11  1  0.30987700  0.86508400  0.08075400  1
  Cl  Cl12  1  0.32822300  0.23660500  0.81780600  1
  Cl  Cl13  1  0.85061300  0.65804100  0.90699300  1
  Cl  Cl14  1  0.24758000  0.83111300  0.34329800  1
  Cl  Cl15  1  0.16888700  0.75242000  0.65670200  1
  Cl  Cl16  1  0.34195900  0.14938700  0.09300700  1
  Cl  Cl17  1  0.76339500  0.67177700  0.18219400  1
  Cl  Cl18  1  0.23794600  0.32815200  0.32025500  1
  Cl  Cl19  1  0.66219000  0.84970600  0.40775700  1
  Cl  Cl20  1  0.83272200  0.24621200  0.84012000  1
  Cl  Cl21  1  0.75378800  0.16727800  0.15988000  1
  Cl  Cl22  1  0.15029400  0.33781000  0.59224300  1
  Cl  Cl23  1  0.67184800  0.76205400  0.67974500  1
  O  O24  1  0.68911200  0.27571000  0.41951900  1
  O  O25  1  0.72429000  0.31088800  0.58048100  1
  O  O26  1  0.27289400  0.69203600  0.92007500  1
  O  O27  1  0.30796400  0.72710600  0.07992500  1
