# generated using pymatgen
data_Cs2MoN(Cl2O)2
_symmetry_space_group_name_H-M   'P 1'
_cell_length_a   9.56195335
_cell_length_b   9.53451721
_cell_length_c   8.69725502
_cell_angle_alpha   89.98473799
_cell_angle_beta   90.04680368
_cell_angle_gamma   46.26793079
_symmetry_Int_Tables_number   1
_chemical_formula_structural   Cs2MoN(Cl2O)2
_chemical_formula_sum   'Cs4 Mo2 N2 Cl8 O4'
_cell_volume   572.94540303
_cell_formula_units_Z   2
loop_
 _symmetry_equiv_pos_site_id
 _symmetry_equiv_pos_as_xyz
  1  'x, y, z'
loop_
 _atom_site_type_symbol
 _atom_site_label
 _atom_site_symmetry_multiplicity
 _atom_site_fract_x
 _atom_site_fract_y
 _atom_site_fract_z
 _atom_site_occupancy
  Cs  Cs0  1  0.23810400  0.23658900  0.24668100  1
  Cs  Cs1  1  0.76173900  0.76684900  0.74867500  1
  Cs  Cs2  1  0.52582500  0.52013400  0.24691600  1
  Cs  Cs3  1  0.47351600  0.48054900  0.74671200  1
  Mo  Mo4  1  0.89339800  0.89568000  0.24947800  1
  Mo  Mo5  1  0.10591800  0.10439900  0.74797300  1
  N  N6  1  0.77367600  0.77435900  0.24779200  1
  N  N7  1  0.22484700  0.22624700  0.74708400  1
  Cl  Cl8  1  0.11512800  0.64589500  0.44875500  1
  Cl  Cl9  1  0.35337200  0.88470700  0.54657400  1
  Cl  Cl10  1  0.11274800  0.65119700  0.04714500  1
  Cl  Cl11  1  0.35467300  0.88491400  0.94914900  1
  Cl  Cl12  1  0.88425500  0.35103900  0.54735800  1
  Cl  Cl13  1  0.64747300  0.11372800  0.45167400  1
  Cl  Cl14  1  0.88602300  0.35040700  0.94920500  1
  Cl  Cl15  1  0.64557100  0.11761700  0.04849700  1
  O  O16  1  0.70377900  0.70746600  0.24667000  1
  O  O17  1  0.29859300  0.28951200  0.74634500  1
  O  O18  1  0.98919100  0.99666400  0.25067100  1
  O  O19  1  0.01244400  0.00104200  0.74858600  1
