# generated using pymatgen
data_Li5Fe11O16
_symmetry_space_group_name_H-M   'P 1'
_cell_length_a   5.97928320
_cell_length_b   5.97928320
_cell_length_c   10.36150309
_cell_angle_alpha   73.89693642
_cell_angle_beta   73.89693642
_cell_angle_gamma   60.37743400
_symmetry_Int_Tables_number   1
_chemical_formula_structural   Li5Fe11O16
_chemical_formula_sum   'Li5 Fe11 O16'
_cell_volume   304.99643241
_cell_formula_units_Z   1
loop_
 _symmetry_equiv_pos_site_id
 _symmetry_equiv_pos_as_xyz
  1  'x, y, z'
loop_
 _atom_site_type_symbol
 _atom_site_label
 _atom_site_symmetry_multiplicity
 _atom_site_fract_x
 _atom_site_fract_y
 _atom_site_fract_z
 _atom_site_occupancy
  Li  Li0  1  0.50000000  0.00000000  0.00000000  1
  Li  Li1  1  0.00000000  0.50000000  0.00000000  1
  Li  Li2  1  0.50000000  0.00000000  0.50000000  1
  Li  Li3  1  0.00000000  0.00000000  0.00000000  1
  Li  Li4  1  0.00000000  0.50000000  0.50000000  1
  Fe  Fe5  1  0.50000000  0.50000000  0.00000000  1
  Fe  Fe6  1  0.25377400  0.25377400  0.25012300  1
  Fe  Fe7  1  0.24490400  0.75295900  0.75171100  1
  Fe  Fe8  1  0.75509600  0.24704100  0.24828900  1
  Fe  Fe9  1  0.24704100  0.75509600  0.24828900  1
  Fe  Fe10  1  0.00000000  0.00000000  0.50000000  1
  Fe  Fe11  1  0.24612500  0.24612500  0.75355200  1
  Fe  Fe12  1  0.50000000  0.50000000  0.50000000  1
  Fe  Fe13  1  0.75387500  0.75387500  0.24644800  1
  Fe  Fe14  1  0.74622600  0.74622600  0.74987700  1
  Fe  Fe15  1  0.75295900  0.24490400  0.75171100  1
  O  O16  1  0.62305000  0.12935700  0.12452800  1
  O  O17  1  0.37679100  0.87484600  0.37668600  1
  O  O18  1  0.37691900  0.37691900  0.87272400  1
  O  O19  1  0.87772200  0.87772200  0.37340400  1
  O  O20  1  0.12407400  0.12407400  0.13482800  1
  O  O21  1  0.62012500  0.62012500  0.63035700  1
  O  O22  1  0.62308100  0.62308100  0.12727600  1
  O  O23  1  0.37987500  0.37987500  0.36964300  1
  O  O24  1  0.12515400  0.62320900  0.62331400  1
  O  O25  1  0.62320900  0.12515400  0.62331400  1
  O  O26  1  0.12935700  0.62305000  0.12452800  1
  O  O27  1  0.37695000  0.87064300  0.87547200  1
  O  O28  1  0.87064300  0.37695000  0.87547200  1
  O  O29  1  0.87484600  0.37679100  0.37668600  1
  O  O30  1  0.12227800  0.12227800  0.62659600  1
  O  O31  1  0.87592600  0.87592600  0.86517200  1
