# generated using pymatgen
data_CaH12(IO6)2
_symmetry_space_group_name_H-M   'P 1'
_cell_length_a   13.80171476
_cell_length_b   12.00346045
_cell_length_c   8.16883305
_cell_angle_alpha   84.05092532
_cell_angle_beta   59.88544759
_cell_angle_gamma   36.06362710
_symmetry_Int_Tables_number   1
_chemical_formula_structural   CaH12(IO6)2
_chemical_formula_sum   'Ca2 H24 I4 O24'
_cell_volume   554.93390690
_cell_formula_units_Z   2
loop_
 _symmetry_equiv_pos_site_id
 _symmetry_equiv_pos_as_xyz
  1  'x, y, z'
loop_
 _atom_site_type_symbol
 _atom_site_label
 _atom_site_symmetry_multiplicity
 _atom_site_fract_x
 _atom_site_fract_y
 _atom_site_fract_z
 _atom_site_occupancy
  Ca  Ca0  1  0.43232200  0.06767800  0.06767800  1
  Ca  Ca1  1  0.18232200  0.81767800  0.81767800  1
  H  H2  1  0.87967400  0.88294200  0.16886900  1
  H  H3  1  0.19372100  0.25202100  0.90933600  1
  H  H4  1  0.85909200  0.22485700  0.27260400  1
  H  H5  1  0.46038000  0.98871600  0.69217500  1
  H  H6  1  0.08372900  0.71822400  0.14987200  1
  H  H7  1  0.91866500  0.05948000  0.32897100  1
  H  H8  1  0.92102900  0.55711600  0.33133500  1
  H  H9  1  0.10012800  0.20182500  0.16627100  1
  H  H10  1  0.55782500  0.39127000  0.78962000  1
  H  H11  1  0.97739600  0.60655200  0.39090800  1
  H  H12  1  0.34066400  0.60507700  0.05627900  1
  H  H13  1  0.08113100  0.18148600  0.37032600  1
  H  H14  1  0.36705800  0.37032600  0.18148600  1
  H  H15  1  0.99797900  0.05627900  0.60507700  1
  H  H16  1  0.02514300  0.39090800  0.60655200  1
  H  H17  1  0.26128400  0.78962000  0.39127000  1
  H  H18  1  0.53177600  0.16627100  0.20182500  1
  H  H19  1  0.19052000  0.33133500  0.55711600  1
  H  H20  1  0.69288400  0.32897100  0.05948000  1
  H  H21  1  0.04817500  0.14987200  0.71822400  1
  H  H22  1  0.85873000  0.69217500  0.98871600  1
  H  H23  1  0.64344800  0.27260400  0.22485700  1
  H  H24  1  0.64492300  0.90933600  0.25202100  1
  H  H25  1  0.06851400  0.16886900  0.88294200  1
  I  I26  1  0.37542800  0.34698100  0.65752300  1
  I  I27  1  0.59247700  0.62993200  0.87457200  1
  I  I28  1  0.90301900  0.87457200  0.62993200  1
  I  I29  1  0.62006800  0.65752300  0.34698100  1
  O  O30  1  0.94464400  0.37049500  0.08669000  1
  O  O31  1  0.58064500  0.55370900  0.46834300  1
  O  O32  1  0.04894100  0.75727800  0.05457100  1
  O  O33  1  0.63615000  0.72111200  0.52463100  1
  O  O34  1  0.35438500  0.13656800  0.81615200  1
  O  O35  1  0.99054000  0.05614900  0.20185800  1
  O  O36  1  0.04814200  0.49854600  0.25946000  1
  O  O37  1  0.43384800  0.55710600  0.89561500  1
  O  O38  1  0.72536900  0.13189300  0.61385000  1
  O  O39  1  0.19542900  0.11078900  0.20105900  1
  O  O40  1  0.78165700  0.85269800  0.66935500  1
  O  O41  1  0.16331000  0.65182900  0.30535600  1
  O  O42  1  0.87950500  0.30535600  0.65182900  1
  O  O43  1  0.69629100  0.66935500  0.85269800  1
  O  O44  1  0.49272200  0.20105900  0.11078900  1
  O  O45  1  0.52888800  0.61385000  0.13189300  1
  O  O46  1  0.11343200  0.89561500  0.55710600  1
  O  O47  1  0.19385100  0.25946100  0.49854600  1
  O  O48  1  0.75145400  0.20185800  0.05614900  1
  O  O49  1  0.69289400  0.81615200  0.13656800  1
  O  O50  1  0.11810700  0.52463100  0.72111200  1
  O  O51  1  0.13921100  0.05457100  0.75727800  1
  O  O52  1  0.39730200  0.46834300  0.55370900  1
  O  O53  1  0.59817100  0.08669000  0.37049500  1
