# generated using pymatgen
data_CoSbO4
_symmetry_space_group_name_H-M   'P 1'
_cell_length_a   5.94704921
_cell_length_b   5.94704921
_cell_length_c   5.94704921
_cell_angle_alpha   122.43345947
_cell_angle_beta   116.12371910
_cell_angle_gamma   91.33908606
_symmetry_Int_Tables_number   1
_chemical_formula_structural   CoSbO4
_chemical_formula_sum   'Co2 Sb2 O8'
_cell_volume   149.75022622
_cell_formula_units_Z   2
loop_
 _symmetry_equiv_pos_site_id
 _symmetry_equiv_pos_as_xyz
  1  'x, y, z'
loop_
 _atom_site_type_symbol
 _atom_site_label
 _atom_site_symmetry_multiplicity
 _atom_site_fract_x
 _atom_site_fract_y
 _atom_site_fract_z
 _atom_site_occupancy
  Co  Co0  1  0.00000000  0.00000000  0.50000000  1
  Co  Co1  1  0.00000000  0.50000000  0.00000000  1
  Sb  Sb2  1  0.50000000  0.00000000  0.50000000  1
  Sb  Sb3  1  0.00000000  0.00000000  0.00000000  1
  O  O4  1  0.76444000  0.24923700  0.98479700  1
  O  O5  1  0.21708500  0.76105400  0.45603100  1
  O  O6  1  0.19497600  0.23894600  0.95603100  1
  O  O7  1  0.23556000  0.22035700  0.48479700  1
  O  O8  1  0.76444000  0.77964300  0.51520300  1
  O  O9  1  0.80502400  0.76105400  0.04396900  1
  O  O10  1  0.78291500  0.23894600  0.54396900  1
  O  O11  1  0.23556000  0.75076300  0.01520300  1
