# generated using pymatgen
data_Mg3(AsO4)2
_symmetry_space_group_name_H-M   'P 1'
_cell_length_a   10.71884931
_cell_length_b   10.71884931
_cell_length_c   10.71884931
_cell_angle_alpha   142.48771862
_cell_angle_beta   142.48771862
_cell_angle_gamma   54.09481442
_symmetry_Int_Tables_number   1
_chemical_formula_structural   Mg3(AsO4)2
_chemical_formula_sum   'Mg9 As6 O24'
_cell_volume   453.60170158
_cell_formula_units_Z   3
loop_
 _symmetry_equiv_pos_site_id
 _symmetry_equiv_pos_as_xyz
  1  'x, y, z'
loop_
 _atom_site_type_symbol
 _atom_site_label
 _atom_site_symmetry_multiplicity
 _atom_site_fract_x
 _atom_site_fract_y
 _atom_site_fract_z
 _atom_site_occupancy
  Mg  Mg0  1  0.12833000  0.63163700  0.00732700  1
  Mg  Mg1  1  0.75000000  0.25000000  0.50000000  1
  Mg  Mg2  1  0.22798200  0.22798200  0.00000000  1
  Mg  Mg3  1  0.87899700  0.87167000  0.50330700  1
  Mg  Mg4  1  0.62431000  0.12100300  0.99267300  1
  Mg  Mg5  1  0.47952200  0.97952200  0.50000000  1
  Mg  Mg6  1  0.77201800  0.77201800  0.00000000  1
  Mg  Mg7  1  0.02047800  0.52047800  0.50000000  1
  Mg  Mg8  1  0.36836300  0.37569000  0.49669300  1
  As  As9  1  0.00000000  0.00000000  0.00000000  1
  As  As10  1  0.62808500  0.53120900  0.40717500  1
  As  As11  1  0.12403400  0.22090900  0.59282500  1
  As  As12  1  0.46879100  0.87596600  0.09687500  1
  As  As13  1  0.25000000  0.75000000  0.50000000  1
  As  As14  1  0.77909100  0.37191500  0.90312500  1
  O  O15  1  0.16501100  0.90232300  0.15655600  1
  O  O16  1  0.44156600  0.67668900  0.32787800  1
  O  O17  1  0.80726200  0.62041800  0.73235100  1
  O  O18  1  0.92508900  0.19273800  0.81315600  1
  O  O19  1  0.14382300  0.45216200  0.71496600  1
  O  O20  1  0.07972600  0.31010500  0.78157900  1
  O  O21  1  0.52852600  0.29814700  0.21842100  1
  O  O22  1  0.73719600  0.42885700  0.28503400  1
  O  O23  1  0.37958200  0.11193300  0.18684400  1
  O  O24  1  0.99154500  0.83498900  0.73731300  1
  O  O25  1  0.57114300  0.85617700  0.30833900  1
  O  O26  1  0.88806700  0.07491100  0.26764900  1
  O  O27  1  0.34881100  0.11368700  0.67212200  1
  O  O28  1  0.70185300  0.92027400  0.23037900  1
  O  O29  1  0.14576300  0.91711000  0.64961800  1
  O  O30  1  0.74576700  0.00845500  0.84344400  1
  O  O31  1  0.50385500  0.85423700  0.77134700  1
  O  O32  1  0.32331100  0.65118900  0.76487600  1
  O  O33  1  0.88631300  0.55843400  0.23512400  1
  O  O34  1  0.08289000  0.73250800  0.22865300  1
  O  O35  1  0.26749200  0.49614500  0.35038200  1
  O  O36  1  0.68989500  0.47147400  0.76962100  1
  O  O37  1  0.54783800  0.26280400  0.69166100  1
  O  O38  1  0.09767700  0.25423300  0.26268700  1
