# generated using pymatgen
data_Fe35SiO48
_symmetry_space_group_name_H-M   'P 1'
_cell_length_a   10.53574804
_cell_length_b   10.46859462
_cell_length_c   10.46859462
_cell_angle_alpha   60.39617175
_cell_angle_beta   99.92623881
_cell_angle_gamma   80.07376119
_symmetry_Int_Tables_number   1
_chemical_formula_structural   Fe35SiO48
_chemical_formula_sum   'Fe35 Si1 O48'
_cell_volume   943.10985929
_cell_formula_units_Z   1
loop_
 _symmetry_equiv_pos_site_id
 _symmetry_equiv_pos_as_xyz
  1  'x, y, z'
loop_
 _atom_site_type_symbol
 _atom_site_label
 _atom_site_symmetry_multiplicity
 _atom_site_fract_x
 _atom_site_fract_y
 _atom_site_fract_z
 _atom_site_occupancy
  Fe  Fe0  1  0.81412000  0.73443700  0.10477600  1
  Fe  Fe1  1  0.81412000  0.89522400  0.26556300  1
  Fe  Fe2  1  0.56377500  0.81183800  0.18816200  1
  Fe  Fe3  1  0.81204800  0.89894100  0.76929800  1
  Fe  Fe4  1  0.80951800  0.56174500  0.43825500  1
  Fe  Fe5  1  0.81204800  0.23070200  0.10105900  1
  Fe  Fe6  1  0.62228900  0.79508300  0.54265100  1
  Fe  Fe7  1  0.62228900  0.45734900  0.20491700  1
  Fe  Fe8  1  0.81495000  0.05889800  0.43521100  1
  Fe  Fe9  1  0.31299500  0.89330000  0.27808500  1
  Fe  Fe10  1  0.81495000  0.56478900  0.94110200  1
  Fe  Fe11  1  0.80996700  0.39659200  0.77351000  1
  Fe  Fe12  1  0.31299500  0.72191500  0.10670000  1
  Fe  Fe13  1  0.80996700  0.22649000  0.60340800  1
  Fe  Fe14  1  0.50022400  0.50352400  0.49647600  1
  Fe  Fe15  1  0.50132100  0.83172000  0.83765900  1
  Fe  Fe16  1  0.50132100  0.16234100  0.16828000  1
  Fe  Fe17  1  0.31312300  0.72629200  0.60520100  1
  Fe  Fe18  1  0.31312300  0.39479900  0.27370800  1
  Fe  Fe19  1  0.06700000  0.97340900  0.35950300  1
  Fe  Fe20  1  0.55776000  0.48559400  0.85003700  1
  Fe  Fe21  1  0.06700000  0.64049700  0.02659100  1
  Fe  Fe22  1  0.55776000  0.14996300  0.51440600  1
  Fe  Fe23  1  0.12537300  0.62382800  0.37617200  1
  Fe  Fe24  1  0.12631100  0.29232300  0.04224400  1
  Fe  Fe25  1  0.62132300  0.12766500  0.87233500  1
  Fe  Fe26  1  0.12631100  0.95775600  0.70767700  1
  Fe  Fe27  1  0.31204100  0.56171300  0.93791400  1
  Fe  Fe28  1  0.31204100  0.06208600  0.43828700  1
  Fe  Fe29  1  0.31402400  0.40212600  0.76879100  1
  Fe  Fe30  1  0.31402400  0.23120900  0.59787400  1
  Fe  Fe31  1  0.99835500  0.66692600  0.66733800  1
  Fe  Fe32  1  0.99835500  0.33266200  0.33307400  1
  Fe  Fe33  1  0.30990800  0.06370500  0.93629500  1
  Fe  Fe34  1  0.06581000  0.31172100  0.68827900  1
  Si  Si35  1  0.00202500  0.00333500  0.99666500  1
  O  O36  1  0.93936300  0.87253000  0.46455800  1
  O  O37  1  0.93936300  0.53544200  0.12747000  1
  O  O38  1  0.93169400  0.68356400  0.31643600  1
  O  O39  1  0.67554900  0.93752100  0.06247900  1
  O  O40  1  0.69645300  0.95070000  0.56680400  1
  O  O41  1  0.68720000  0.76241200  0.38552500  1
  O  O42  1  0.68720000  0.61447500  0.23758800  1
  O  O43  1  0.69645300  0.43319600  0.04930000  1
  O  O44  1  0.93260000  0.17158000  0.30496900  1
  O  O45  1  0.94590300  0.02639900  0.12632400  1
  O  O46  1  0.93260000  0.69503100  0.82842000  1
  O  O47  1  0.93166800  0.49857900  0.65088400  1
  O  O48  1  0.94590300  0.87367600  0.97360100  1
  O  O49  1  0.93166800  0.34911600  0.50142100  1
  O  O50  1  0.42502300  0.70817500  0.29182500  1
  O  O51  1  0.70701300  0.76996200  0.89520400  1
  O  O52  1  0.17238300  0.94743500  0.05256500  1
  O  O53  1  0.70921300  0.42223300  0.57776700  1
  O  O54  1  0.70701300  0.10479600  0.23003800  1
  O  O55  1  0.94407600  0.17584900  0.82415100  1
  O  O56  1  0.42092800  0.85966700  0.46993900  1
  O  O57  1  0.69503000  0.25105400  0.41488600  1
  O  O58  1  0.91866000  0.36024100  0.97144300  1
  O  O59  1  0.42092800  0.53006100  0.14033300  1
  O  O60  1  0.69503000  0.58511400  0.74894600  1
  O  O61  1  0.91866000  0.02855700  0.63975900  1
  O  O62  1  0.19362300  0.93659100  0.54772800  1
  O  O63  1  0.69068300  0.10320800  0.72339800  1
  O  O64  1  0.19362300  0.45227200  0.06340900  1
  O  O65  1  0.18720600  0.60941500  0.22060700  1
  O  O66  1  0.18720600  0.77939300  0.39058500  1
  O  O67  1  0.69068300  0.27660200  0.89679200  1
  O  O68  1  0.42056600  0.85923900  0.99170500  1
  O  O69  1  0.43533100  0.51571800  0.66092700  1
  O  O70  1  0.43533100  0.33907300  0.48428200  1
  O  O71  1  0.42056600  0.00829500  0.14076100  1
  O  O72  1  0.43470100  0.18253000  0.32902100  1
  O  O73  1  0.43470100  0.67097900  0.81747000  1
  O  O74  1  0.43362100  0.03792300  0.63037300  1
  O  O75  1  0.20403600  0.26257800  0.40377000  1
  O  O76  1  0.20403600  0.59623000  0.73742200  1
  O  O77  1  0.43362100  0.36962700  0.96207700  1
  O  O78  1  0.42589400  0.19300800  0.80699200  1
  O  O79  1  0.19101900  0.42858200  0.57141800  1
  O  O80  1  0.19216800  0.08457000  0.24781400  1
  O  O81  1  0.19216800  0.75218600  0.91543000  1
  O  O82  1  0.19554100  0.27074800  0.87863000  1
  O  O83  1  0.19554100  0.12137000  0.72925200  1
