# generated using pymatgen
data_NiP2(H8O5)2
_symmetry_space_group_name_H-M   'P 1'
_cell_length_a   7.26666864
_cell_length_b   7.26666864
_cell_length_c   10.41016124
_cell_angle_alpha   88.21788095
_cell_angle_beta   88.21788095
_cell_angle_gamma   90.05854120
_symmetry_Int_Tables_number   1
_chemical_formula_structural   NiP2(H8O5)2
_chemical_formula_sum   'Ni2 P4 H32 O20'
_cell_volume   549.17035227
_cell_formula_units_Z   2
loop_
 _symmetry_equiv_pos_site_id
 _symmetry_equiv_pos_as_xyz
  1  'x, y, z'
loop_
 _atom_site_type_symbol
 _atom_site_label
 _atom_site_symmetry_multiplicity
 _atom_site_fract_x
 _atom_site_fract_y
 _atom_site_fract_z
 _atom_site_occupancy
  Ni  Ni0  1  0.26583000  0.73417000  0.75000000  1
  Ni  Ni1  1  0.73417000  0.26583000  0.25000000  1
  P  P2  1  0.77902200  0.74952600  0.50980500  1
  P  P3  1  0.74952600  0.77902200  0.00980500  1
  P  P4  1  0.25047400  0.22097800  0.99019500  1
  P  P5  1  0.22097800  0.25047400  0.49019500  1
  H  H6  1  0.95495100  0.93443100  0.69623400  1
  H  H7  1  0.93443100  0.95495100  0.19623400  1
  H  H8  1  0.75084200  0.94625700  0.93674500  1
  H  H9  1  0.94625700  0.75084200  0.43674500  1
  H  H10  1  0.95153500  0.54048600  0.69529200  1
  H  H11  1  0.57331100  0.93841700  0.69367600  1
  H  H12  1  0.54048600  0.95153500  0.19529200  1
  H  H13  1  0.93841700  0.57331100  0.19367600  1
  H  H14  1  0.75744200  0.64107600  0.91727400  1
  H  H15  1  0.64107600  0.75744200  0.41727400  1
  H  H16  1  0.36155100  0.73255700  0.99629400  1
  H  H17  1  0.57515600  0.54105000  0.69285500  1
  H  H18  1  0.26032400  0.86124000  0.50514400  1
  H  H19  1  0.73255700  0.36155100  0.49629400  1
  H  H20  1  0.54105000  0.57515600  0.19285500  1
  H  H21  1  0.86124000  0.26032400  0.00514400  1
  H  H22  1  0.13876000  0.73967600  0.99485600  1
  H  H23  1  0.45895000  0.42484400  0.80714500  1
  H  H24  1  0.26744300  0.63844900  0.50370600  1
  H  H25  1  0.73967600  0.13876000  0.49485600  1
  H  H26  1  0.42484400  0.45895000  0.30714500  1
  H  H27  1  0.63844900  0.26744300  0.00370600  1
  H  H28  1  0.35892400  0.24255800  0.58272600  1
  H  H29  1  0.24255800  0.35892400  0.08272600  1
  H  H30  1  0.06158300  0.42668900  0.80632400  1
  H  H31  1  0.45951400  0.04846500  0.80470800  1
  H  H32  1  0.42668900  0.06158300  0.30632400  1
  H  H33  1  0.04846500  0.45951400  0.30470800  1
  H  H34  1  0.05374300  0.24915800  0.56325500  1
  H  H35  1  0.24915800  0.05374300  0.06325500  1
  H  H36  1  0.06556900  0.04504900  0.80376600  1
  H  H37  1  0.04504900  0.06556900  0.30376600  1
  O  O38  1  0.77019700  0.92463500  0.58865500  1
  O  O39  1  0.92463500  0.77019700  0.08865500  1
  O  O40  1  0.46937700  0.93273000  0.75763600  1
  O  O41  1  0.93273000  0.46937700  0.25763600  1
  O  O42  1  0.76493300  0.56614000  0.58698400  1
  O  O43  1  0.56614000  0.76493300  0.08698400  1
  O  O44  1  0.29791200  0.74831200  0.55278300  1
  O  O45  1  0.46382100  0.53617900  0.75000000  1
  O  O46  1  0.06511900  0.93488100  0.75000000  1
  O  O47  1  0.74831200  0.29791200  0.05278300  1
  O  O48  1  0.25168800  0.70208800  0.94721700  1
  O  O49  1  0.93488100  0.06511900  0.25000000  1
  O  O50  1  0.53617900  0.46382100  0.25000000  1
  O  O51  1  0.70208800  0.25168800  0.44721700  1
  O  O52  1  0.43386000  0.23506700  0.91301600  1
  O  O53  1  0.23506700  0.43386000  0.41301600  1
  O  O54  1  0.06727000  0.53062300  0.74236400  1
  O  O55  1  0.53062300  0.06727000  0.24236400  1
  O  O56  1  0.07536500  0.22980300  0.91134500  1
  O  O57  1  0.22980300  0.07536500  0.41134500  1
