# generated using pymatgen
data_Ga13Fe11O32
_symmetry_space_group_name_H-M   'P 1'
_cell_length_a   5.95687498
_cell_length_b   5.95687498
_cell_length_c   20.90241836
_cell_angle_alpha   74.07321442
_cell_angle_beta   74.07321442
_cell_angle_gamma   58.85948732
_symmetry_Int_Tables_number   1
_chemical_formula_structural   Ga13Fe11O32
_chemical_formula_sum   'Ga13 Fe11 O32'
_cell_volume   602.49802593
_cell_formula_units_Z   1
loop_
 _symmetry_equiv_pos_site_id
 _symmetry_equiv_pos_as_xyz
  1  'x, y, z'
loop_
 _atom_site_type_symbol
 _atom_site_label
 _atom_site_symmetry_multiplicity
 _atom_site_fract_x
 _atom_site_fract_y
 _atom_site_fract_z
 _atom_site_occupancy
  Ga  Ga0  1  0.49849000  0.49849000  0.24905500  1
  Ga  Ga1  1  0.74641500  0.74641500  0.12426700  1
  Ga  Ga2  1  0.80921100  0.80921100  0.27775600  1
  Ga  Ga3  1  0.19299600  0.19299600  0.21789900  1
  Ga  Ga4  1  0.69108800  0.69108800  0.96988400  1
  Ga  Ga5  1  0.30891200  0.30891200  0.03011600  1
  Ga  Ga6  1  0.19078900  0.19078900  0.72224400  1
  Ga  Ga7  1  0.25358500  0.25358500  0.87573300  1
  Ga  Ga8  1  0.50151000  0.50151000  0.75094500  1
  Ga  Ga9  1  0.80700400  0.80700400  0.78210100  1
  Ga  Ga10  1  0.31394000  0.31394000  0.52746700  1
  Ga  Ga11  1  0.68606000  0.68606000  0.47253300  1
  Ga  Ga12  1  0.00000000  0.00000000  0.50000000  1
  Fe  Fe13  1  0.75982000  0.23853800  0.12103300  1
  Fe  Fe14  1  0.23853800  0.75982000  0.12103300  1
  Fe  Fe15  1  0.00000000  0.00000000  0.00000000  1
  Fe  Fe16  1  0.24292800  0.75604800  0.62571600  1
  Fe  Fe17  1  0.24018000  0.76146200  0.87896700  1
  Fe  Fe18  1  0.76146200  0.24018000  0.87896700  1
  Fe  Fe19  1  0.75142400  0.75142400  0.62561500  1
  Fe  Fe20  1  0.75604800  0.24292800  0.62571600  1
  Fe  Fe21  1  0.24395200  0.75707200  0.37428400  1
  Fe  Fe22  1  0.24857600  0.24857600  0.37438500  1
  Fe  Fe23  1  0.75707200  0.24395200  0.37428400  1
  O  O24  1  0.85643200  0.38960400  0.18553500  1
  O  O25  1  0.38427100  0.38427100  0.18800000  1
  O  O26  1  0.62645700  0.62645700  0.06513700  1
  O  O27  1  0.86899300  0.86899300  0.18248000  1
  O  O28  1  0.63061200  0.10806500  0.06495600  1
  O  O29  1  0.14356800  0.61039600  0.81446500  1
  O  O30  1  0.10806500  0.63061200  0.06495600  1
  O  O31  1  0.89193500  0.36938800  0.93504400  1
  O  O32  1  0.38960400  0.85643200  0.18553500  1
  O  O33  1  0.38269500  0.38269500  0.69007600  1
  O  O34  1  0.87650700  0.87650700  0.93710000  1
  O  O35  1  0.13100700  0.13100700  0.81752000  1
  O  O36  1  0.12349300  0.12349300  0.06290000  1
  O  O37  1  0.37354300  0.37354300  0.93486300  1
  O  O38  1  0.61572900  0.61572900  0.81200000  1
  O  O39  1  0.11837100  0.64263500  0.56122900  1
  O  O40  1  0.61039600  0.14356800  0.81446500  1
  O  O41  1  0.85975200  0.37912400  0.69025800  1
  O  O42  1  0.36938800  0.89193500  0.93504400  1
  O  O43  1  0.37912400  0.85975200  0.69025800  1
  O  O44  1  0.62328600  0.62328600  0.56622200  1
  O  O45  1  0.87376800  0.87376800  0.68767600  1
  O  O46  1  0.37671400  0.37671400  0.43377800  1
  O  O47  1  0.61730500  0.61730500  0.30992400  1
  O  O48  1  0.12104400  0.12104400  0.56043000  1
  O  O49  1  0.14024800  0.62087600  0.30974200  1
  O  O50  1  0.64263500  0.11837100  0.56122900  1
  O  O51  1  0.62087600  0.14024800  0.30974200  1
  O  O52  1  0.88162900  0.35736500  0.43877100  1
  O  O53  1  0.35736500  0.88162900  0.43877100  1
  O  O54  1  0.87895600  0.87895600  0.43957000  1
  O  O55  1  0.12623200  0.12623200  0.31232400  1
