# generated using pymatgen
data_Li4Ti3V3(SbO8)2
_symmetry_space_group_name_H-M   'P 1'
_cell_length_a   5.94461882
_cell_length_b   5.94461882
_cell_length_c   10.49226121
_cell_angle_alpha   89.78850331
_cell_angle_beta   89.78850331
_cell_angle_gamma   59.89462435
_symmetry_Int_Tables_number   1
_chemical_formula_structural   Li4Ti3V3(SbO8)2
_chemical_formula_sum   'Li4 Ti3 V3 Sb2 O16'
_cell_volume   320.76108926
_cell_formula_units_Z   1
loop_
 _symmetry_equiv_pos_site_id
 _symmetry_equiv_pos_as_xyz
  1  'x, y, z'
loop_
 _atom_site_type_symbol
 _atom_site_label
 _atom_site_symmetry_multiplicity
 _atom_site_fract_x
 _atom_site_fract_y
 _atom_site_fract_z
 _atom_site_occupancy
  Li  Li0  1  0.66965100  0.66965100  0.90154300  1
  Li  Li1  1  0.99611800  0.99611800  0.98892700  1
  Li  Li2  1  0.00260600  0.00260600  0.49805100  1
  Li  Li3  1  0.33492600  0.33492600  0.38865400  1
  Ti  Ti4  1  0.33984900  0.83038300  0.21685000  1
  Ti  Ti5  1  0.83038300  0.33984900  0.21685000  1
  Ti  Ti6  1  0.17337500  0.17337500  0.72694800  1
  V  V7  1  0.82600400  0.82600400  0.21280300  1
  V  V8  1  0.18502800  0.64569900  0.71962500  1
  V  V9  1  0.64569900  0.18502800  0.71962500  1
  Sb  Sb10  1  0.67242100  0.67242100  0.51616200  1
  Sb  Sb11  1  0.33349300  0.33349300  0.00436200  1
  O  O12  1  0.31975600  0.83995500  0.61041000  1
  O  O13  1  0.50992000  0.50992000  0.31230900  1
  O  O14  1  0.65986100  0.65986100  0.10628900  1
  O  O15  1  0.00180300  0.00180300  0.31160500  1
  O  O16  1  0.00063400  0.00063400  0.80878800  1
  O  O17  1  0.83995500  0.31975600  0.61041000  1
  O  O18  1  0.50671500  0.98242100  0.31137600  1
  O  O19  1  0.98242100  0.50671500  0.31137600  1
  O  O20  1  0.15266500  0.15266500  0.10129300  1
  O  O21  1  0.84632200  0.84632200  0.61555800  1
  O  O22  1  0.02678800  0.48557900  0.82798600  1
  O  O23  1  0.48557900  0.02678800  0.82798600  1
  O  O24  1  0.32941200  0.32941200  0.60812900  1
  O  O25  1  0.14820700  0.69344400  0.10394700  1
  O  O26  1  0.49042000  0.49042000  0.82602300  1
  O  O27  1  0.69344400  0.14820700  0.10394700  1
