# generated using pymatgen
data_Na2TeH5SO10
_symmetry_space_group_name_H-M   'P 1'
_cell_length_a   5.87668627
_cell_length_b   5.87668627
_cell_length_c   15.36236320
_cell_angle_alpha   88.11483433
_cell_angle_beta   88.11483433
_cell_angle_gamma   124.42492908
_symmetry_Int_Tables_number   1
_chemical_formula_structural   Na2TeH5SO10
_chemical_formula_sum   'Na4 Te2 H10 S2 O20'
_cell_volume   436.53931158
_cell_formula_units_Z   2
loop_
 _symmetry_equiv_pos_site_id
 _symmetry_equiv_pos_as_xyz
  1  'x, y, z'
loop_
 _atom_site_type_symbol
 _atom_site_label
 _atom_site_symmetry_multiplicity
 _atom_site_fract_x
 _atom_site_fract_y
 _atom_site_fract_z
 _atom_site_occupancy
  Na  Na0  1  0.90340300  0.41746300  0.61929700  1
  Na  Na1  1  0.61280400  0.46466300  0.81072100  1
  Na  Na2  1  0.41746300  0.90340300  0.11929700  1
  Na  Na3  1  0.46466300  0.61280400  0.31072100  1
  Te  Te4  1  0.99332600  0.01517100  0.00219700  1
  Te  Te5  1  0.01517100  0.99332600  0.50219700  1
  H  H6  1  0.93396700  0.70062500  0.37638700  1
  H  H7  1  0.93793200  0.40774400  0.00847000  1
  H  H8  1  0.69281800  0.62195500  0.11419400  1
  H  H9  1  0.84392800  0.25659700  0.43201700  1
  H  H10  1  0.45670400  0.44023000  0.48608300  1
  H  H11  1  0.70062500  0.93396700  0.87638700  1
  H  H12  1  0.40774400  0.93793200  0.50847000  1
  H  H13  1  0.62195500  0.69281800  0.61419400  1
  H  H14  1  0.25659700  0.84392800  0.93201700  1
  H  H15  1  0.44023000  0.45670400  0.98608300  1
  S  S16  1  0.85869900  0.36591200  0.24838600  1
  S  S17  1  0.36591200  0.85869900  0.74838600  1
  O  O18  1  0.88541200  0.83435100  0.39106200  1
  O  O19  1  0.68963600  0.65038900  0.56059700  1
  O  O20  1  0.94918300  0.44596200  0.33996200  1
  O  O21  1  0.72858000  0.50713300  0.21811300  1
  O  O22  1  0.78425900  0.14140900  0.48908200  1
  O  O23  1  0.83435100  0.88541200  0.89106200  1
  O  O24  1  0.80788100  0.20379100  0.01981400  1
  O  O25  1  0.46610200  0.11744700  0.69339600  1
  O  O26  1  0.33995400  0.31595400  0.43963600  1
  O  O27  1  0.66236900  0.06427600  0.24627400  1
  O  O28  1  0.44596200  0.94918300  0.83996200  1
  O  O29  1  0.50713300  0.72858000  0.71811300  1
  O  O30  1  0.14140900  0.78425900  0.98908200  1
  O  O31  1  0.65038900  0.68963600  0.06059700  1
  O  O32  1  0.17107500  0.10611800  0.10981300  1
  O  O33  1  0.20379100  0.80788100  0.51981400  1
  O  O34  1  0.31595400  0.33995400  0.93963600  1
  O  O35  1  0.06427600  0.66236900  0.74627400  1
  O  O36  1  0.11744700  0.46610200  0.19339600  1
  O  O37  1  0.10611800  0.17107500  0.60981300  1
