# generated using pymatgen
data_Fe7(SiO6)2
_symmetry_space_group_name_H-M   'P 1'
_cell_length_a   13.24289802
_cell_length_b   13.24289802
_cell_length_c   13.24289802
_cell_angle_alpha   154.19792736
_cell_angle_beta   154.19792736
_cell_angle_gamma   36.81198480
_symmetry_Int_Tables_number   1
_chemical_formula_structural   Fe7(SiO6)2
_chemical_formula_sum   'Fe14 Si4 O24'
_cell_volume   439.39532193
_cell_formula_units_Z   2
loop_
 _symmetry_equiv_pos_site_id
 _symmetry_equiv_pos_as_xyz
  1  'x, y, z'
loop_
 _atom_site_type_symbol
 _atom_site_label
 _atom_site_symmetry_multiplicity
 _atom_site_fract_x
 _atom_site_fract_y
 _atom_site_fract_z
 _atom_site_occupancy
  Fe  Fe0  1  0.87500000  0.12500000  0.75000000  1
  Fe  Fe1  1  0.37500000  0.12500000  0.25000000  1
  Fe  Fe2  1  0.20752100  0.95243300  0.74491300  1
  Fe  Fe3  1  0.20752100  0.46260800  0.25508700  1
  Fe  Fe4  1  0.75000000  0.25000000  0.50000000  1
  Fe  Fe5  1  0.04756700  0.79247900  0.25508700  1
  Fe  Fe6  1  0.53739200  0.79247900  0.74491300  1
  Fe  Fe7  1  0.87500000  0.62500000  0.75000000  1
  Fe  Fe8  1  0.87500000  0.12500000  0.25000000  1
  Fe  Fe9  1  0.21260800  0.45752100  0.75508700  1
  Fe  Fe10  1  0.70243300  0.45752100  0.24491300  1
  Fe  Fe11  1  0.00000000  0.00000000  0.00000000  1
  Fe  Fe12  1  0.54247900  0.29756700  0.75508700  1
  Fe  Fe13  1  0.54247900  0.78739200  0.24491300  1
  Si  Si14  1  0.08190100  0.58190100  0.50000000  1
  Si  Si15  1  0.66809900  0.66809900  0.00000000  1
  Si  Si16  1  0.33190100  0.33190100  0.00000000  1
  Si  Si17  1  0.41809900  0.91809900  0.50000000  1
  O  O18  1  0.12031500  0.84827800  0.72796300  1
  O  O19  1  0.12031500  0.39235200  0.27203700  1
  O  O20  1  0.62968500  0.40172200  0.77203700  1
  O  O21  1  0.62968500  0.85764800  0.22796300  1
  O  O22  1  0.47351700  0.70575800  0.76775900  1
  O  O23  1  0.93799900  0.70575800  0.23224100  1
  O  O24  1  0.43880100  0.20420100  0.23460000  1
  O  O25  1  0.96960100  0.20420100  0.76540000  1
  O  O26  1  0.79579900  0.03039900  0.23460000  1
  O  O27  1  0.79579900  0.56119900  0.76540000  1
  O  O28  1  0.29424200  0.06200100  0.76775900  1
  O  O29  1  0.29424200  0.52648300  0.23224100  1
  O  O30  1  0.59827800  0.37031500  0.22796300  1
  O  O31  1  0.14235200  0.37031500  0.77203700  1
  O  O32  1  0.60764800  0.87968500  0.72796300  1
  O  O33  1  0.15172200  0.87968500  0.27203700  1
  O  O34  1  0.45575800  0.18799900  0.73224100  1
  O  O35  1  0.45575800  0.72351700  0.26775900  1
  O  O36  1  0.95420100  0.21960100  0.26540000  1
  O  O37  1  0.95420100  0.68880100  0.73460000  1
  O  O38  1  0.31119900  0.04579900  0.26540000  1
  O  O39  1  0.78039900  0.04579900  0.73460000  1
  O  O40  1  0.27648300  0.54424200  0.73224100  1
  O  O41  1  0.81200100  0.54424200  0.26775900  1
