# generated using pymatgen
data_Sr16(Ru5O16)3
_symmetry_space_group_name_H-M   'P 1'
_cell_length_a   7.89497300
_cell_length_b   7.89951982
_cell_length_c   16.14290411
_cell_angle_alpha   90.05159278
_cell_angle_beta   90.03805190
_cell_angle_gamma   90.02618359
_symmetry_Int_Tables_number   1
_chemical_formula_structural   Sr16(Ru5O16)3
_chemical_formula_sum   'Sr16 Ru15 O48'
_cell_volume   1006.77562460
_cell_formula_units_Z   1
loop_
 _symmetry_equiv_pos_site_id
 _symmetry_equiv_pos_as_xyz
  1  'x, y, z'
loop_
 _atom_site_type_symbol
 _atom_site_label
 _atom_site_symmetry_multiplicity
 _atom_site_fract_x
 _atom_site_fract_y
 _atom_site_fract_z
 _atom_site_occupancy
  Sr  Sr0  1  0.24923900  0.74830600  0.12630300  1
  Sr  Sr1  1  0.27085200  0.76261300  0.61581200  1
  Sr  Sr2  1  0.72914800  0.23738700  0.38418800  1
  Sr  Sr3  1  0.75076100  0.25169400  0.87369700  1
  Sr  Sr4  1  0.26437700  0.22809500  0.38373100  1
  Sr  Sr5  1  0.24901400  0.24986900  0.87403300  1
  Sr  Sr6  1  0.75001800  0.75081700  0.87413200  1
  Sr  Sr7  1  0.73715700  0.76790300  0.38310500  1
  Sr  Sr8  1  0.26284300  0.23209700  0.61689500  1
  Sr  Sr9  1  0.73562300  0.77190500  0.61626900  1
  Sr  Sr10  1  0.24998200  0.24918300  0.12586800  1
  Sr  Sr11  1  0.75098600  0.75013100  0.12596700  1
  Sr  Sr12  1  0.75041700  0.24941400  0.12561700  1
  Sr  Sr13  1  0.72492000  0.23593800  0.61665300  1
  Sr  Sr14  1  0.27508000  0.76406200  0.38334700  1
  Sr  Sr15  1  0.24958300  0.75058600  0.87438300  1
  Ru  Ru16  1  0.00000000  0.00000000  0.00000000  1
  Ru  Ru17  1  0.00000000  0.00000000  0.50000000  1
  Ru  Ru18  1  0.99998700  0.99996900  0.74835600  1
  Ru  Ru19  1  0.00001300  0.00003100  0.25164400  1
  Ru  Ru20  1  0.50000000  0.00000000  0.00000000  1
  Ru  Ru21  1  0.49965300  0.00008600  0.75023200  1
  Ru  Ru22  1  0.00007100  0.50012800  0.74616600  1
  Ru  Ru23  1  0.00000000  0.50000000  0.50000000  1
  Ru  Ru24  1  0.99992900  0.49987200  0.25383400  1
  Ru  Ru25  1  0.50034700  0.99991400  0.24976800  1
  Ru  Ru26  1  0.00000000  0.50000000  0.00000000  1
  Ru  Ru27  1  0.49993600  0.49949500  0.25074200  1
  Ru  Ru28  1  0.50000000  0.50000000  0.00000000  1
  Ru  Ru29  1  0.50000000  0.50000000  0.50000000  1
  Ru  Ru30  1  0.50006400  0.50050500  0.74925800  1
  O  O31  1  0.96242300  0.74823000  0.49975600  1
  O  O32  1  0.95281300  0.75041300  0.75021400  1
  O  O33  1  0.95295000  0.75079600  0.24991400  1
  O  O34  1  0.95434800  0.74976800  0.99975000  1
  O  O35  1  0.00006400  0.99932100  0.12527100  1
  O  O36  1  0.00421000  0.99733100  0.62430800  1
  O  O37  1  0.99993600  0.00067900  0.87472900  1
  O  O38  1  0.99579000  0.00266900  0.37569200  1
  O  O39  1  0.25029600  0.95459100  0.24935900  1
  O  O40  1  0.24993500  0.95351200  0.00008800  1
  O  O41  1  0.25073600  0.95470400  0.75223900  1
  O  O42  1  0.75020200  0.45235600  0.74605200  1
  O  O43  1  0.23976300  0.97627500  0.49850300  1
  O  O44  1  0.75180700  0.45960500  0.50478600  1
  O  O45  1  0.74936100  0.45355000  0.24683000  1
  O  O46  1  0.74998400  0.45418400  0.00251600  1
  O  O47  1  0.04705000  0.24920400  0.75008600  1
  O  O48  1  0.03757700  0.25177000  0.50024400  1
  O  O49  1  0.04718700  0.24958700  0.24978600  1
  O  O50  1  0.04565200  0.25023200  0.00025000  1
  O  O51  1  0.50087600  0.99821500  0.87794300  1
  O  O52  1  0.99278600  0.49836900  0.87454700  1
  O  O53  1  0.50197900  0.99878000  0.36630300  1
  O  O54  1  0.98357000  0.49914600  0.37623700  1
  O  O55  1  0.49912400  0.00178500  0.12205700  1
  O  O56  1  0.01643000  0.50085400  0.62376300  1
  O  O57  1  0.49802100  0.00122000  0.63369700  1
  O  O58  1  0.00721400  0.50163100  0.12545300  1
  O  O59  1  0.45425600  0.24978800  0.24986200  1
  O  O60  1  0.45360200  0.25018900  0.99896300  1
  O  O61  1  0.47410400  0.25973900  0.49901400  1
  O  O62  1  0.45547500  0.25001800  0.75278900  1
  O  O63  1  0.74926400  0.04529600  0.24776100  1
  O  O64  1  0.75006500  0.04648800  0.99991200  1
  O  O65  1  0.74970400  0.04540900  0.75064100  1
  O  O66  1  0.76023700  0.02372500  0.50149700  1
  O  O67  1  0.24819300  0.54039500  0.49521400  1
  O  O68  1  0.25063900  0.54645000  0.75317000  1
  O  O69  1  0.25001600  0.54581600  0.99748400  1
  O  O70  1  0.24979800  0.54764400  0.25394800  1
  O  O71  1  0.49047000  0.49564900  0.62525700  1
  O  O72  1  0.49247100  0.49707800  0.12480000  1
  O  O73  1  0.50752900  0.50292200  0.87520000  1
  O  O74  1  0.50953000  0.50435100  0.37474300  1
  O  O75  1  0.54452500  0.74998200  0.24721100  1
  O  O76  1  0.54574400  0.75021200  0.75013800  1
  O  O77  1  0.54639800  0.74981100  0.00103700  1
  O  O78  1  0.52589600  0.74026100  0.50098600  1
