# generated using pymatgen
data_TiNb2O7
_symmetry_space_group_name_H-M   'P 1'
_cell_length_a   10.56787444
_cell_length_b   10.56787444
_cell_length_c   12.16400428
_cell_angle_alpha   60.43366067
_cell_angle_beta   60.43366067
_cell_angle_gamma   20.86925250
_symmetry_Int_Tables_number   1
_chemical_formula_structural   TiNb2O7
_chemical_formula_sum   'Ti3 Nb6 O21'
_cell_volume   418.61921078
_cell_formula_units_Z   3
loop_
 _symmetry_equiv_pos_site_id
 _symmetry_equiv_pos_as_xyz
  1  'x, y, z'
loop_
 _atom_site_type_symbol
 _atom_site_label
 _atom_site_symmetry_multiplicity
 _atom_site_fract_x
 _atom_site_fract_y
 _atom_site_fract_z
 _atom_site_occupancy
  Ti  Ti0  1  0.92097600  0.92097600  0.64140100  1
  Ti  Ti1  1  0.00012900  0.00012900  0.99802600  1
  Ti  Ti2  1  0.70887900  0.70887900  0.36341200  1
  Nb  Nb3  1  0.10662700  0.10662700  0.63192800  1
  Nb  Nb4  1  0.18087300  0.18087300  0.00008200  1
  Nb  Nb5  1  0.29411100  0.29411100  0.63401600  1
  Nb  Nb6  1  0.07703600  0.07703600  0.36794600  1
  Nb  Nb7  1  0.81819300  0.81819300  0.00352800  1
  Nb  Nb8  1  0.89024500  0.89024500  0.36281700  1
  O  O9  1  0.04972700  0.04972700  0.80290300  1
  O  O10  1  0.70816300  0.70816300  0.99654500  1
  O  O11  1  0.87477400  0.87477400  0.81047300  1
  O  O12  1  0.62780500  0.62780500  0.57993400  1
  O  O13  1  0.09923000  0.09923000  0.98410600  1
  O  O14  1  0.79168000  0.79168000  0.38158500  1
  O  O15  1  0.02415900  0.02415900  0.58338100  1
  O  O16  1  0.24913100  0.24913100  0.80760900  1
  O  O17  1  0.50035800  0.50035800  0.99979500  1
  O  O18  1  0.17331000  0.17331000  0.40202900  1
  O  O19  1  0.40268900  0.40268900  0.62372500  1
  O  O20  1  0.59763800  0.59763800  0.37819400  1
  O  O21  1  0.82734600  0.82734600  0.59622400  1
  O  O22  1  0.75025000  0.75025000  0.19589700  1
  O  O23  1  0.97541800  0.97541800  0.41499400  1
  O  O24  1  0.20958300  0.20958300  0.61652000  1
  O  O25  1  0.90153200  0.90153200  0.01532800  1
  O  O26  1  0.37325800  0.37325800  0.41977400  1
  O  O27  1  0.12459500  0.12459500  0.19055200  1
  O  O28  1  0.29070600  0.29070600  0.00367700  1
  O  O29  1  0.95157700  0.95157700  0.19360400  1
