# generated using pymatgen
data_La11V12O36
_symmetry_space_group_name_H-M   'P 1'
_cell_length_a   7.90969900
_cell_length_b   9.66335294
_cell_length_c   11.15629645
_cell_angle_alpha   106.62456282
_cell_angle_beta   89.89033145
_cell_angle_gamma   113.86563820
_symmetry_Int_Tables_number   1
_chemical_formula_structural   La11V12O36
_chemical_formula_sum   'La11 V12 O36'
_cell_volume   740.88360399
_cell_formula_units_Z   1
loop_
 _symmetry_equiv_pos_site_id
 _symmetry_equiv_pos_as_xyz
  1  'x, y, z'
loop_
 _atom_site_type_symbol
 _atom_site_label
 _atom_site_symmetry_multiplicity
 _atom_site_fract_x
 _atom_site_fract_y
 _atom_site_fract_z
 _atom_site_occupancy
  La  La0  1  0.94089700  0.84244600  0.59240100  1
  La  La1  1  0.60356500  0.17400200  0.92531400  1
  La  La2  1  0.72935700  0.49566300  0.74583300  1
  La  La3  1  0.09700800  0.18140900  0.93166400  1
  La  La4  1  0.76986900  0.51587500  0.25820000  1
  La  La5  1  0.43702700  0.84609000  0.59760600  1
  La  La6  1  0.57198600  0.15468900  0.40333000  1
  La  La7  1  0.23578900  0.49061200  0.73991600  1
  La  La8  1  0.26741700  0.50862100  0.25579200  1
  La  La9  1  0.06559100  0.15645400  0.40648200  1
  La  La10  1  0.38712700  0.82220000  0.07708500  1
  V  V11  1  0.67033500  0.83408700  0.83764700  1
  V  V12  1  0.83481800  0.16830600  0.66752500  1
  V  V13  1  0.83057000  0.15515400  0.16602900  1
  V  V14  1  0.33501000  0.16712700  0.66645000  1
  V  V15  1  0.16121100  0.83733300  0.84053300  1
  V  V16  1  0.50088700  0.49925800  0.49769400  1
  V  V17  1  0.66956300  0.83321700  0.32990700  1
  V  V18  1  0.50656600  0.50689000  0.00002200  1
  V  V19  1  0.33221300  0.16487100  0.16538100  1
  V  V20  1  0.00089300  0.50100200  0.50062300  1
  V  V21  1  0.16652400  0.83307700  0.33157800  1
  V  V22  1  0.99599200  0.50576500  0.00346400  1
  O  O23  1  0.93639800  0.30899300  0.84890300  1
  O  O24  1  0.78931700  0.03704600  0.98503000  1
  O  O25  1  0.89793500  0.78427200  0.81094700  1
  O  O26  1  0.73687500  0.48446300  0.96208600  1
  O  O27  1  0.90385600  0.37401700  0.61893800  1
  O  O28  1  0.54566300  0.67803200  0.94030300  1
  O  O29  1  0.76582700  0.96558400  0.72011700  1
  O  O30  1  0.43763800  0.87899100  0.84140000  1
  O  O31  1  0.58050400  0.15572800  0.70227600  1
  O  O32  1  0.91321800  0.82772600  0.36919600  1
  O  O33  1  0.77585100  0.55036800  0.50459100  1
  O  O34  1  0.39798000  0.36105600  0.82078200  1
  O  O35  1  0.53793300  0.63782900  0.68180700  1
  O  O36  1  0.73499200  0.03107700  0.48764800  1
  O  O37  1  0.86928500  0.30217900  0.34281200  1
  O  O38  1  0.12082700  0.65042600  0.89510200  1
  O  O39  1  0.78081700  0.99336800  0.23459200  1
  O  O40  1  0.45561100  0.31115800  0.56232600  1
  O  O41  1  0.54752800  0.68972300  0.43608700  1
  O  O42  1  0.21174700  0.02228800  0.77256700  1
  O  O43  1  0.87569300  0.34418300  0.10606900  1
  O  O44  1  0.58142900  0.62665600  0.17915900  1
  O  O45  1  0.46239000  0.36016400  0.31493300  1
  O  O46  1  0.26868900  0.97006300  0.51428100  1
  O  O47  1  0.13556500  0.70386700  0.66039500  1
  O  O48  1  0.56004300  0.11309600  0.15610300  1
  O  O49  1  0.42367500  0.84222500  0.29778900  1
  O  O50  1  0.08809000  0.17796600  0.63087800  1
  O  O51  1  0.22486300  0.44970200  0.49219700  1
  O  O52  1  0.25114800  0.03985800  0.28649300  1
  O  O53  1  0.42943300  0.30840500  0.05058900  1
  O  O54  1  0.09738700  0.63338500  0.38724800  1
  O  O55  1  0.10367400  0.21634500  0.17407400  1
  O  O56  1  0.24614400  0.48936000  0.03126700  1
  O  O57  1  0.22341400  0.97873600  0.00434900  1
  O  O58  1  0.07561200  0.68054400  0.15921900  1
