# generated using pymatgen
data_FeOF
_symmetry_space_group_name_H-M   'P 1'
_cell_length_a   14.15023525
_cell_length_b   4.78539346
_cell_length_c   3.06085500
_cell_angle_alpha   90.00000000
_cell_angle_beta   90.00000000
_cell_angle_gamma   91.25211075
_symmetry_Int_Tables_number   1
_chemical_formula_structural   FeOF
_chemical_formula_sum   'Fe6 O6 F6'
_cell_volume   207.21460220
_cell_formula_units_Z   6
loop_
 _symmetry_equiv_pos_site_id
 _symmetry_equiv_pos_as_xyz
  1  'x, y, z'
loop_
 _atom_site_type_symbol
 _atom_site_label
 _atom_site_symmetry_multiplicity
 _atom_site_fract_x
 _atom_site_fract_y
 _atom_site_fract_z
 _atom_site_occupancy
  Fe  Fe0  1  0.00497200  0.01277100  0.00000000  1
  Fe  Fe1  1  0.17706200  0.43201700  0.50000000  1
  Fe  Fe2  1  0.33806900  0.99764400  0.00000000  1
  Fe  Fe3  1  0.50021600  0.56278000  0.50000000  1
  Fe  Fe4  1  0.67189800  0.99254400  0.00000000  1
  Fe  Fe5  1  0.80909000  0.50559400  0.50000000  1
  O  O6  1  0.09968500  0.29270400  0.00000000  1
  O  O7  1  0.27457200  0.17766000  0.50000000  1
  O  O8  1  0.39061900  0.80280600  0.50000000  1
  O  O9  1  0.56522700  0.71369100  0.00000000  1
  O  O10  1  0.73406000  0.81888600  0.50000000  1
  O  O11  1  0.76744900  0.30306900  0.00000000  1
  F  F12  1  0.06273200  0.80345800  0.50000000  1
  F  F13  1  0.22605000  0.68790100  0.00000000  1
  F  F14  1  0.43734500  0.30878500  0.00000000  1
  F  F15  1  0.60025000  0.20715700  0.50000000  1
  F  F16  1  0.90606200  0.69618700  0.00000000  1
  F  F17  1  0.93464300  0.18434200  0.50000000  1
