# generated using pymatgen
data_SiS2
_symmetry_space_group_name_H-M   'P 1'
_cell_length_a   5.90777770
_cell_length_b   5.90777770
_cell_length_c   5.90777770
_cell_angle_alpha   122.86123300
_cell_angle_beta   122.86123300
_cell_angle_gamma   85.11175787
_symmetry_Int_Tables_number   1
_chemical_formula_structural   SiS2
_chemical_formula_sum   'Si2 S4'
_cell_volume   138.94248589
_cell_formula_units_Z   2
loop_
 _symmetry_equiv_pos_site_id
 _symmetry_equiv_pos_as_xyz
  1  'x, y, z'
loop_
 _atom_site_type_symbol
 _atom_site_label
 _atom_site_symmetry_multiplicity
 _atom_site_fract_x
 _atom_site_fract_y
 _atom_site_fract_z
 _atom_site_occupancy
  Si  Si0  1  0.00000000  0.00000000  0.00000000  1
  Si  Si1  1  0.75000000  0.25000000  0.50000000  1
  S  S2  1  0.37500000  0.33828200  0.46328200  1
  S  S3  1  0.66171800  0.12500000  0.03671800  1
  S  S4  1  0.08828200  0.62500000  0.96328200  1
  S  S5  1  0.87500000  0.91171800  0.53671800  1
