# generated using pymatgen
data_La4Mn4O11
_symmetry_space_group_name_H-M   'P 1'
_cell_length_a   7.99234600
_cell_length_b   7.96439000
_cell_length_c   11.28587162
_cell_angle_alpha   46.68221538
_cell_angle_beta   90.00000000
_cell_angle_gamma   90.00000000
_symmetry_Int_Tables_number   1
_chemical_formula_structural   La4Mn4O11
_chemical_formula_sum   'La8 Mn8 O22'
_cell_volume   522.67366951
_cell_formula_units_Z   2
loop_
 _symmetry_equiv_pos_site_id
 _symmetry_equiv_pos_as_xyz
  1  'x, y, z'
loop_
 _atom_site_type_symbol
 _atom_site_label
 _atom_site_symmetry_multiplicity
 _atom_site_fract_x
 _atom_site_fract_y
 _atom_site_fract_z
 _atom_site_occupancy
  La  La0  1  0.99169300  0.04492100  0.98923000  1
  La  La1  1  0.98990600  0.55203400  0.96860900  1
  La  La2  1  0.01009400  0.55203400  0.46860900  1
  La  La3  1  0.48366200  0.93395200  0.53312500  1
  La  La4  1  0.00830700  0.04492100  0.48923000  1
  La  La5  1  0.51362000  0.46334100  0.51503400  1
  La  La6  1  0.48638000  0.46334100  0.01503400  1
  La  La7  1  0.51633800  0.93395200  0.03312500  1
  Mn  Mn8  1  0.24222200  0.50126100  0.74957600  1
  Mn  Mn9  1  0.74874500  0.50060600  0.74974000  1
  Mn  Mn10  1  0.24916700  0.00048400  0.74973500  1
  Mn  Mn11  1  0.75091900  0.00204900  0.75019500  1
  Mn  Mn12  1  0.24908100  0.00204900  0.25019500  1
  Mn  Mn13  1  0.75083300  0.00048400  0.24973500  1
  Mn  Mn14  1  0.25125500  0.50060600  0.24974000  1
  Mn  Mn15  1  0.75777800  0.50126100  0.24957600  1
  O  O16  1  0.19916300  0.30221200  0.98339900  1
  O  O17  1  0.79215700  0.30059000  0.00591100  1
  O  O18  1  0.01213200  0.45302500  0.72180500  1
  O  O19  1  0.48230800  0.51154400  0.78395700  1
  O  O20  1  0.29705300  0.66722000  0.52119400  1
  O  O21  1  0.68972800  0.73531100  0.49431300  1
  O  O22  1  0.20962200  0.80762400  0.69205900  1
  O  O23  1  0.79764400  0.80011700  0.70932900  1
  O  O24  1  0.20235600  0.80011700  0.20932900  1
  O  O25  1  0.79037800  0.80762400  0.19205900  1
  O  O26  1  0.99619600  0.97375300  0.81376200  1
  O  O27  1  0.00380400  0.97375300  0.31376200  1
  O  O28  1  0.50447500  0.03647000  0.69172600  1
  O  O29  1  0.49552500  0.03647000  0.19172600  1
  O  O30  1  0.69728400  0.19528500  0.79750200  1
  O  O31  1  0.30271600  0.19528500  0.29750200  1
  O  O32  1  0.20784300  0.30059000  0.50591100  1
  O  O33  1  0.80083700  0.30221200  0.48339900  1
  O  O34  1  0.98786800  0.45302500  0.22180500  1
  O  O35  1  0.51769200  0.51154400  0.28395700  1
  O  O36  1  0.70294700  0.66722000  0.02119400  1
  O  O37  1  0.31027200  0.73531100  0.99431300  1
