# generated using pymatgen
data_Ce(NF3)2
_symmetry_space_group_name_H-M   'P 1'
_cell_length_a   7.49174600
_cell_length_b   8.63151323
_cell_length_c   15.63943324
_cell_angle_alpha   90.30154106
_cell_angle_beta   90.41735116
_cell_angle_gamma   90.26052819
_symmetry_Int_Tables_number   1
_chemical_formula_structural   Ce(NF3)2
_chemical_formula_sum   'Ce4 N8 F24'
_cell_volume   1011.27412059
_cell_formula_units_Z   4
loop_
 _symmetry_equiv_pos_site_id
 _symmetry_equiv_pos_as_xyz
  1  'x, y, z'
loop_
 _atom_site_type_symbol
 _atom_site_label
 _atom_site_symmetry_multiplicity
 _atom_site_fract_x
 _atom_site_fract_y
 _atom_site_fract_z
 _atom_site_occupancy
  Ce  Ce0  1  0.25084400  0.99946400  0.99950300  1
  Ce  Ce1  1  0.75101500  0.49913900  0.49885900  1
  Ce  Ce2  1  0.75080900  0.99951800  0.99886500  1
  Ce  Ce3  1  0.25102900  0.49887500  0.49955100  1
  N  N4  1  0.04407600  0.89950100  0.69400900  1
  N  N5  1  0.54240000  0.59567700  0.80579300  1
  N  N6  1  0.95944600  0.40237800  0.80526500  1
  N  N7  1  0.45899000  0.09818300  0.69374400  1
  N  N8  1  0.94246900  0.09038000  0.30779300  1
  N  N9  1  0.45730100  0.40023700  0.19421800  1
  N  N10  1  0.04434600  0.59702500  0.19326600  1
  N  N11  1  0.54525600  0.92654900  0.31810900  1
  F  F12  1  0.25037900  0.73392700  0.50079700  1
  F  F13  1  0.74687100  0.76453400  0.99759500  1
  F  F14  1  0.75466600  0.23444800  0.99727200  1
  F  F15  1  0.25153400  0.26385800  0.50036100  1
  F  F16  1  0.75085000  0.26421500  0.49778600  1
  F  F17  1  0.25430900  0.23448300  0.00078800  1
  F  F18  1  0.24725600  0.76447300  0.00087000  1
  F  F19  1  0.75057700  0.73405600  0.49780600  1
  F  F20  1  0.15449600  0.81579200  0.74344500  1
  F  F21  1  0.65155500  0.68047500  0.75663300  1
  F  F22  1  0.84978000  0.31618800  0.75571600  1
  F  F23  1  0.34898400  0.18225300  0.74285300  1
  F  F24  1  0.85535700  0.18531800  0.25419600  1
  F  F25  1  0.34822400  0.31524400  0.24332600  1
  F  F26  1  0.15347000  0.68283200  0.24325000  1
  F  F27  1  0.62683900  0.82691600  0.26504100  1
  F  F28  1  0.00071500  0.99623000  0.91429500  1
  F  F29  1  0.50377300  0.50205300  0.58407500  1
  F  F30  1  0.00119900  0.49735100  0.58410500  1
  F  F31  1  0.49774900  0.00133200  0.91429500  1
  F  F32  1  0.00092200  0.00237000  0.08397500  1
  F  F33  1  0.49806900  0.49623300  0.41424000  1
  F  F34  1  0.00088100  0.50037000  0.41424500  1
  F  F35  1  0.50356400  0.99812400  0.08405400  1
