# generated using pymatgen
data_FeOF
_symmetry_space_group_name_H-M   'P 1'
_cell_length_a   3.08170200
_cell_length_b   4.73876400
_cell_length_c   4.70629600
_cell_angle_alpha   90.00064298
_cell_angle_beta   90.00000000
_cell_angle_gamma   90.00000000
_symmetry_Int_Tables_number   1
_chemical_formula_structural   FeOF
_chemical_formula_sum   'Fe2 O2 F2'
_cell_volume   68.72819831
_cell_formula_units_Z   2
loop_
 _symmetry_equiv_pos_site_id
 _symmetry_equiv_pos_as_xyz
  1  'x, y, z'
loop_
 _atom_site_type_symbol
 _atom_site_label
 _atom_site_symmetry_multiplicity
 _atom_site_fract_x
 _atom_site_fract_y
 _atom_site_fract_z
 _atom_site_occupancy
  Fe  Fe0  1  0.50000000  0.49781600  0.45811800  1
  Fe  Fe1  1  0.00000000  0.99781100  0.04188000  1
  O  O2  1  0.00000000  0.30388100  0.30389500  1
  O  O3  1  0.50000000  0.80388200  0.19610600  1
  F  F4  1  0.50000000  0.19830500  0.80268100  1
  F  F5  1  0.00000000  0.69830500  0.69732000  1
