# generated using pymatgen
data_Bi17(WO11)3
_symmetry_space_group_name_H-M   'P 1'
_cell_length_a   10.19163100
_cell_length_b   10.41342484
_cell_length_c   10.41824422
_cell_angle_alpha   108.48222295
_cell_angle_beta   104.07075572
_cell_angle_gamma   113.18327287
_symmetry_Int_Tables_number   1
_chemical_formula_structural   Bi17(WO11)3
_chemical_formula_sum   'Bi17 W3 O33'
_cell_volume   873.93701254
_cell_formula_units_Z   1
loop_
 _symmetry_equiv_pos_site_id
 _symmetry_equiv_pos_as_xyz
  1  'x, y, z'
loop_
 _atom_site_type_symbol
 _atom_site_label
 _atom_site_symmetry_multiplicity
 _atom_site_fract_x
 _atom_site_fract_y
 _atom_site_fract_z
 _atom_site_occupancy
  Bi  Bi0  1  0.17831700  0.39962500  0.60776700  1
  Bi  Bi1  1  0.31260700  0.10429300  0.41345200  1
  Bi  Bi2  1  0.03156900  0.32639500  0.90376400  1
  Bi  Bi3  1  0.55999200  0.85355600  0.90509000  1
  Bi  Bi4  1  0.11522100  0.68599700  0.79045100  1
  Bi  Bi5  1  0.84514500  0.94910400  0.31577200  1
  Bi  Bi6  1  0.61945500  0.22026600  0.82661900  1
  Bi  Bi7  1  0.37319300  0.48160900  0.30054100  1
  Bi  Bi8  1  0.90500800  0.28372700  0.20921700  1
  Bi  Bi9  1  0.65178100  0.54721300  0.70210100  1
  Bi  Bi10  1  0.12421400  0.02426600  0.72036600  1
  Bi  Bi11  1  0.42194200  0.80557700  0.18892500  1
  Bi  Bi12  1  0.46418700  0.15846700  0.10379400  1
  Bi  Bi13  1  0.93907000  0.63079800  0.07509700  1
  Bi  Bi14  1  0.70783100  0.90641100  0.60186100  1
  Bi  Bi15  1  0.72615800  0.24480600  0.49187700  1
  Bi  Bi16  1  0.79075000  0.58747400  0.40895200  1
  W  W17  1  0.22538500  0.73471900  0.48359800  1
  W  W18  1  0.03133200  0.98376100  0.01466400  1
  W  W19  1  0.53034000  0.50718000  0.00471000  1
  O  O20  1  0.13312100  0.50836500  0.42188300  1
  O  O21  1  0.11103100  0.25904600  0.73064300  1
  O  O22  1  0.44207300  0.55565900  0.86344000  1
  O  O23  1  0.10599100  0.92572900  0.16210400  1
  O  O24  1  0.36826300  0.78599300  0.67317800  1
  O  O25  1  0.40846200  0.55510200  0.12679400  1
  O  O26  1  0.62907300  0.87997800  0.13736700  1
  O  O27  1  0.87502900  0.01072900  0.06276700  1
  O  O28  1  0.30121000  0.96176800  0.52585300  1
  O  O29  1  0.08594200  0.76039800  0.59251700  1
  O  O30  1  0.55437800  0.28008400  0.59248100  1
  O  O31  1  0.36278900  0.81942800  0.96146100  1
  O  O32  1  0.62599600  0.10045100  0.99096600  1
  O  O33  1  0.84879400  0.37536600  0.02751800  1
  O  O34  1  0.88861400  0.89317200  0.52865100  1
  O  O35  1  0.61719900  0.64833000  0.50526100  1
  O  O36  1  0.08189500  0.56781000  0.95094900  1
  O  O37  1  0.45232100  0.28185000  0.94752300  1
  O  O38  1  0.37134300  0.73520400  0.39684900  1
  O  O39  1  0.93974900  0.20850200  0.40616500  1
  O  O40  1  0.17830000  0.95983900  0.91602800  1
  O  O41  1  0.66572700  0.94440600  0.40314000  1
  O  O42  1  0.66740200  0.47142200  0.88992000  1
  O  O43  1  0.74453700  0.32238800  0.29405600  1
  O  O44  1  0.04886100  0.66910100  0.30613700  1
  O  O45  1  0.46524300  0.07107600  0.30259400  1
  O  O46  1  0.95946400  0.02299300  0.83060700  1
  O  O47  1  0.72623000  0.64542900  0.17692600  1
  O  O48  1  0.52930000  0.39744200  0.26709900  1
  O  O49  1  0.19103300  0.19807600  0.13682500  1
  O  O50  1  0.79993600  0.21215900  0.72504900  1
  O  O51  1  0.80491300  0.51141400  0.59528600  1
  O  O52  1  0.88728200  0.75104300  0.88333800  1
