# generated using pymatgen
data_AlCu4
_symmetry_space_group_name_H-M   'P 1'
_cell_length_a   6.29211100
_cell_length_b   6.29211100
_cell_length_c   6.29211100
_cell_angle_alpha   90.00000000
_cell_angle_beta   90.00000000
_cell_angle_gamma   90.00000000
_symmetry_Int_Tables_number   1
_chemical_formula_structural   AlCu4
_chemical_formula_sum   'Al4 Cu16'
_cell_volume   249.10883255
_cell_formula_units_Z   4
loop_
 _symmetry_equiv_pos_site_id
 _symmetry_equiv_pos_as_xyz
  1  'x, y, z'
loop_
 _atom_site_type_symbol
 _atom_site_label
 _atom_site_symmetry_multiplicity
 _atom_site_fract_x
 _atom_site_fract_y
 _atom_site_fract_z
 _atom_site_occupancy
  Al  Al0  1  0.43627800  0.93627800  0.56372200  1
  Al  Al1  1  0.93627800  0.56372200  0.43627800  1
  Al  Al2  1  0.56372200  0.43627800  0.93627800  1
  Al  Al3  1  0.06372200  0.06372200  0.06372200  1
  Cu  Cu4  1  0.80973000  0.30973000  0.19027000  1
  Cu  Cu5  1  0.30973000  0.19027000  0.80973000  1
  Cu  Cu6  1  0.19027000  0.80973000  0.30973000  1
  Cu  Cu7  1  0.69027000  0.69027000  0.69027000  1
  Cu  Cu8  1  0.04607800  0.87693300  0.70228800  1
  Cu  Cu9  1  0.29771200  0.54607800  0.62306700  1
  Cu  Cu10  1  0.37693300  0.79771200  0.95392200  1
  Cu  Cu11  1  0.54607800  0.62306700  0.29771200  1
  Cu  Cu12  1  0.79771200  0.95392200  0.37693300  1
  Cu  Cu13  1  0.87693300  0.70228800  0.04607800  1
  Cu  Cu14  1  0.95392200  0.37693300  0.79771200  1
  Cu  Cu15  1  0.70228800  0.04607800  0.87693300  1
  Cu  Cu16  1  0.62306700  0.29771200  0.54607800  1
  Cu  Cu17  1  0.45392200  0.12306700  0.20228800  1
  Cu  Cu18  1  0.20228800  0.45392200  0.12306700  1
  Cu  Cu19  1  0.12306700  0.20228800  0.45392200  1
