# generated using pymatgen
data_UH12S2O15
_symmetry_space_group_name_H-M   'P 1'
_cell_length_a   6.95785298
_cell_length_b   6.95785298
_cell_length_c   14.85050497
_cell_angle_alpha   77.25377098
_cell_angle_beta   77.25377098
_cell_angle_gamma   68.18166919
_symmetry_Int_Tables_number   1
_chemical_formula_structural   UH12S2O15
_chemical_formula_sum   'U2 H24 S4 O30'
_cell_volume   643.31605698
_cell_formula_units_Z   2
loop_
 _symmetry_equiv_pos_site_id
 _symmetry_equiv_pos_as_xyz
  1  'x, y, z'
loop_
 _atom_site_type_symbol
 _atom_site_label
 _atom_site_symmetry_multiplicity
 _atom_site_fract_x
 _atom_site_fract_y
 _atom_site_fract_z
 _atom_site_occupancy
  U  U0  1  0.22936900  0.77063100  0.75000000  1
  U  U1  1  0.77063100  0.22936900  0.25000000  1
  H  H2  1  0.54406400  0.31953100  0.78325300  1
  H  H3  1  0.68046900  0.45593600  0.71674700  1
  H  H4  1  0.45593600  0.68046900  0.21674700  1
  H  H5  1  0.31953100  0.54406400  0.28325300  1
  H  H6  1  0.30446800  0.12869100  0.91470600  1
  H  H7  1  0.87130900  0.69553200  0.58529400  1
  H  H8  1  0.69553200  0.87130900  0.08529400  1
  H  H9  1  0.12869100  0.30446800  0.41470600  1
  H  H10  1  0.20765100  0.19200900  0.01652400  1
  H  H11  1  0.80799100  0.79234900  0.48347600  1
  H  H12  1  0.79234900  0.80799100  0.98347600  1
  H  H13  1  0.19200900  0.20765100  0.51652400  1
  H  H14  1  0.77799800  0.47020700  0.90605700  1
  H  H15  1  0.52979300  0.22200200  0.59394300  1
  H  H16  1  0.22200200  0.52979300  0.09394300  1
  H  H17  1  0.47020700  0.77799800  0.40605700  1
  H  H18  1  0.99503500  0.24046900  0.94106300  1
  H  H19  1  0.75953100  0.00496500  0.55893700  1
  H  H20  1  0.00496500  0.75953100  0.05893700  1
  H  H21  1  0.24046900  0.99503500  0.44106300  1
  H  H22  1  0.73703400  0.27210000  0.97924600  1
  H  H23  1  0.72790000  0.26296600  0.52075400  1
  H  H24  1  0.26296600  0.72790000  0.02075400  1
  H  H25  1  0.27210000  0.73703400  0.47924600  1
  S  S26  1  0.11343600  0.34410500  0.68899700  1
  S  S27  1  0.65589500  0.88656400  0.81100200  1
  S  S28  1  0.88656400  0.65589500  0.31100200  1
  S  S29  1  0.34410500  0.11343600  0.18899800  1
  O  O30  1  0.18818000  0.72728300  0.87649200  1
  O  O31  1  0.27271700  0.81182000  0.62350800  1
  O  O32  1  0.81182000  0.27271700  0.12350800  1
  O  O33  1  0.72728300  0.18818000  0.37649200  1
  O  O34  1  0.14308700  0.46787200  0.75235900  1
  O  O35  1  0.53212800  0.85691300  0.74764100  1
  O  O36  1  0.85691300  0.53212800  0.24764100  1
  O  O37  1  0.46787200  0.14308700  0.25235900  1
  O  O38  1  0.11066100  0.14043700  0.74651100  1
  O  O39  1  0.85956300  0.88933900  0.75348900  1
  O  O40  1  0.88933900  0.85956300  0.25348900  1
  O  O41  1  0.14043700  0.11066100  0.24651100  1
  O  O42  1  0.53781400  0.46218600  0.75000000  1
  O  O43  1  0.46218600  0.53781400  0.25000000  1
  O  O44  1  0.54189600  0.08910700  0.84616900  1
  O  O45  1  0.91089300  0.45810400  0.65383100  1
  O  O46  1  0.45810400  0.91089300  0.15383100  1
  O  O47  1  0.08910700  0.54189600  0.34616900  1
  O  O48  1  0.68811200  0.71589500  0.89279300  1
  O  O49  1  0.28410500  0.31188800  0.60720700  1
  O  O50  1  0.31188800  0.28410500  0.10720700  1
  O  O51  1  0.71589500  0.68811200  0.39279300  1
  O  O52  1  0.18029400  0.14127400  0.96507600  1
  O  O53  1  0.85872600  0.81970600  0.53492400  1
  O  O54  1  0.81970600  0.85872600  0.03492400  1
  O  O55  1  0.14127400  0.18029400  0.46507600  1
  O  O56  1  0.82852800  0.31090800  0.92383900  1
  O  O57  1  0.68909200  0.17147200  0.57616100  1
  O  O58  1  0.17147200  0.68909200  0.07616100  1
  O  O59  1  0.31090800  0.82852800  0.42383900  1
