# generated using pymatgen
data_Mn(Ni9O10)2
_symmetry_space_group_name_H-M   'P 1'
_cell_length_a   5.95305845
_cell_length_b   5.95305845
_cell_length_c   21.39607227
_cell_angle_alpha   97.99667792
_cell_angle_beta   97.99667792
_cell_angle_gamma   90.00000000
_symmetry_Int_Tables_number   1
_chemical_formula_structural   Mn(Ni9O10)2
_chemical_formula_sum   'Mn2 Ni36 O40'
_cell_volume   743.43394547
_cell_formula_units_Z   2
loop_
 _symmetry_equiv_pos_site_id
 _symmetry_equiv_pos_as_xyz
  1  'x, y, z'
loop_
 _atom_site_type_symbol
 _atom_site_label
 _atom_site_symmetry_multiplicity
 _atom_site_fract_x
 _atom_site_fract_y
 _atom_site_fract_z
 _atom_site_occupancy
  Mn  Mn0  1  0.59968200  0.59968200  0.19936400  1
  Mn  Mn1  1  0.20031800  0.20031800  0.40063600  1
  Ni  Ni2  1  0.99959800  0.99959800  0.99919500  1
  Ni  Ni3  1  0.50035700  0.00035700  0.00071400  1
  Ni  Ni4  1  0.49998800  0.49998800  0.99997700  1
  Ni  Ni5  1  0.00035700  0.50035700  0.00071400  1
  Ni  Ni6  1  0.80740200  0.80740200  0.10114200  1
  Ni  Ni7  1  0.29373900  0.80740200  0.10114200  1
  Ni  Ni8  1  0.29373900  0.29373900  0.10114200  1
  Ni  Ni9  1  0.80740200  0.29373900  0.10114200  1
  Ni  Ni10  1  0.10011300  0.60011300  0.20022700  1
  Ni  Ni11  1  0.60011300  0.10011300  0.20022700  1
  Ni  Ni12  1  0.90000000  0.40000000  0.30000000  1
  Ni  Ni13  1  0.40000000  0.40000000  0.30000000  1
  Ni  Ni14  1  0.90000000  0.90000000  0.30000000  1
  Ni  Ni15  1  0.40000000  0.90000000  0.30000000  1
  Ni  Ni16  1  0.69988700  0.19988700  0.39977300  1
  Ni  Ni17  1  0.19988700  0.69988700  0.39977300  1
  Ni  Ni18  1  0.99259800  0.99259800  0.49885800  1
  Ni  Ni19  1  0.50626100  0.50626100  0.49885800  1
  Ni  Ni20  1  0.99259800  0.50626100  0.49885800  1
  Ni  Ni21  1  0.50626100  0.99259800  0.49885800  1
  Ni  Ni22  1  0.29964300  0.79964300  0.59928600  1
  Ni  Ni23  1  0.80040200  0.80040200  0.60080500  1
  Ni  Ni24  1  0.30001200  0.30001200  0.60002300  1
  Ni  Ni25  1  0.79964300  0.29964300  0.59928600  1
  Ni  Ni26  1  0.10009400  0.59974100  0.69983600  1
  Ni  Ni27  1  0.59974100  0.59974100  0.69983600  1
  Ni  Ni28  1  0.59974100  0.10009400  0.69983600  1
  Ni  Ni29  1  0.10009400  0.10009400  0.69983600  1
  Ni  Ni30  1  0.90000000  0.40000000  0.80000000  1
  Ni  Ni31  1  0.40000000  0.40000000  0.80000000  1
  Ni  Ni32  1  0.40000000  0.90000000  0.80000000  1
  Ni  Ni33  1  0.90000000  0.90000000  0.80000000  1
  Ni  Ni34  1  0.20025900  0.20025900  0.90016400  1
  Ni  Ni35  1  0.69990600  0.69990600  0.90016400  1
  Ni  Ni36  1  0.20025900  0.69990600  0.90016400  1
  Ni  Ni37  1  0.69990600  0.20025900  0.90016400  1
  O  O38  1  0.25248300  0.25248300  0.00048400  1
  O  O39  1  0.74800100  0.25248300  0.00048400  1
  O  O40  1  0.74800100  0.74800100  0.00048400  1
  O  O41  1  0.25248300  0.74800100  0.00048400  1
  O  O42  1  0.04731900  0.04731900  0.09463800  1
  O  O43  1  0.05069000  0.55069000  0.10137900  1
  O  O44  1  0.55069000  0.05069000  0.10137900  1
  O  O45  1  0.55253100  0.55253100  0.10506200  1
  O  O46  1  0.37179100  0.82857300  0.20036400  1
  O  O47  1  0.82857300  0.37179100  0.20036400  1
  O  O48  1  0.37179100  0.37179100  0.20036400  1
  O  O49  1  0.82857300  0.82857300  0.20036400  1
  O  O50  1  0.64532200  0.64532200  0.29064400  1
  O  O51  1  0.15000000  0.65000000  0.30000000  1
  O  O52  1  0.65000000  0.15000000  0.30000000  1
  O  O53  1  0.15467800  0.15467800  0.30935600  1
  O  O54  1  0.97142700  0.42820900  0.39963600  1
  O  O55  1  0.42820900  0.42820900  0.39963600  1
  O  O56  1  0.42820900  0.97142700  0.39963600  1
  O  O57  1  0.97142700  0.97142700  0.39963600  1
  O  O58  1  0.24746900  0.24746900  0.49493800  1
  O  O59  1  0.74931000  0.24931000  0.49862100  1
  O  O60  1  0.24931000  0.74931000  0.49862100  1
  O  O61  1  0.75268100  0.75268100  0.50536200  1
  O  O62  1  0.54751700  0.54751700  0.59951600  1
  O  O63  1  0.05199900  0.54751700  0.59951600  1
  O  O64  1  0.05199900  0.05199900  0.59951600  1
  O  O65  1  0.54751700  0.05199900  0.59951600  1
  O  O66  1  0.84992200  0.84992200  0.69984400  1
  O  O67  1  0.84979100  0.34979100  0.69958100  1
  O  O68  1  0.34979100  0.84979100  0.69958100  1
  O  O69  1  0.35000300  0.35000300  0.70000600  1
  O  O70  1  0.65016100  0.14983900  0.80000000  1
  O  O71  1  0.14983900  0.14983900  0.80000000  1
  O  O72  1  0.65016100  0.65016100  0.80000000  1
  O  O73  1  0.14983900  0.65016100  0.80000000  1
  O  O74  1  0.44999700  0.44999700  0.89999400  1
  O  O75  1  0.95020900  0.45020900  0.90041900  1
  O  O76  1  0.45020900  0.95020900  0.90041900  1
  O  O77  1  0.95007800  0.95007800  0.90015600  1
