# generated using pymatgen
data_Li4Mn3Nb3(FeO8)2
_symmetry_space_group_name_H-M   'P 1'
_cell_length_a   6.20913667
_cell_length_b   6.03444634
_cell_length_c   9.84576057
_cell_angle_alpha   89.92515087
_cell_angle_beta   87.99365265
_cell_angle_gamma   119.08211930
_symmetry_Int_Tables_number   1
_chemical_formula_structural   Li4Mn3Nb3(FeO8)2
_chemical_formula_sum   'Li4 Mn3 Nb3 Fe2 O16'
_cell_volume   322.12886309
_cell_formula_units_Z   1
loop_
 _symmetry_equiv_pos_site_id
 _symmetry_equiv_pos_as_xyz
  1  'x, y, z'
loop_
 _atom_site_type_symbol
 _atom_site_label
 _atom_site_symmetry_multiplicity
 _atom_site_fract_x
 _atom_site_fract_y
 _atom_site_fract_z
 _atom_site_occupancy
  Li  Li0  1  0.34164700  0.67100900  0.90031000  1
  Li  Li1  1  0.00312400  0.00140700  0.00232500  1
  Li  Li2  1  0.02792300  0.01378500  0.48802800  1
  Li  Li3  1  0.67555400  0.33798700  0.38756800  1
  Mn  Mn4  1  0.17318100  0.83214500  0.21300800  1
  Mn  Mn5  1  0.17264000  0.34102500  0.21288400  1
  Mn  Mn6  1  0.34014300  0.17014400  0.71452700  1
  Nb  Nb7  1  0.66007700  0.82985700  0.21884900  1
  Nb  Nb8  1  0.83070300  0.66323800  0.71548300  1
  Nb  Nb9  1  0.83082800  0.16769900  0.71538800  1
  Fe  Fe10  1  0.30653300  0.65357800  0.47961500  1
  Fe  Fe11  1  0.64515400  0.32250300  0.00364900  1
  O  O12  1  0.14842700  0.82514300  0.59853900  1
  O  O13  1  0.04574700  0.52299500  0.32753700  1
  O  O14  1  0.33161900  0.66587600  0.10977000  1
  O  O15  1  0.00272600  0.00142500  0.30320200  1
  O  O16  1  0.98629800  0.99301100  0.81825400  1
  O  O17  1  0.14851400  0.32284000  0.59847200  1
  O  O18  1  0.49815000  0.96654800  0.34707900  1
  O  O19  1  0.49719800  0.53106800  0.34687900  1
  O  O20  1  0.31203800  0.15609400  0.10085700  1
  O  O21  1  0.69305600  0.84657900  0.60482900  1
  O  O22  1  0.53348900  0.49192800  0.83818100  1
  O  O23  1  0.53320800  0.04153300  0.83801000  1
  O  O24  1  0.69667600  0.34844900  0.60018500  1
  O  O25  1  0.79714300  0.65799200  0.09637700  1
  O  O26  1  0.96983800  0.48463100  0.83143300  1
  O  O27  1  0.79836500  0.13981000  0.09660400  1
