data_image0
_chemical_formula_structural       N4Na2P2
_chemical_formula_sum              "N4 Na2 P2"
_cell_length_a       4.9475
_cell_length_b       4.9475
_cell_length_c       4.9475
_cell_angle_alpha    119.743
_cell_angle_beta     90.4459
_cell_angle_gamma    119.743

_space_group_name_H-M_alt    "P 1"
_space_group_IT_number       1

loop_
  _space_group_symop_operation_xyz
  'x, y, z'

loop_
  _atom_site_type_symbol
  _atom_site_label
  _atom_site_symmetry_multiplicity
  _atom_site_fract_x
  _atom_site_fract_y
  _atom_site_fract_z
  _atom_site_occupancy
  N   N1        1.0  0.87500  0.62200  0.99700  1.0000
  N   N2        1.0  0.74700  0.12200  0.12500  1.0000
  N   N3        1.0  0.37500  0.37800  0.25300  1.0000
  N   N4        1.0  0.00324  0.87800  0.62500  1.0000
  Na  Na1       1.0  0.50000  0.00000  0.50000  1.0000
  Na  Na2       1.0  0.25000  0.50000  0.75000  1.0000
  P   P1        1.0  0.00000  0.00000  0.00000  1.0000
  P   P2        1.0  0.75000  0.50000  0.25000  1.0000
