# generated using pymatgen
data_ZnCoO3
_symmetry_space_group_name_H-M   'P 1'
_cell_length_a   5.39080167
_cell_length_b   5.39080167
_cell_length_c   5.39080109
_cell_angle_alpha   54.53040113
_cell_angle_beta   54.53040113
_cell_angle_gamma   54.53040507
_symmetry_Int_Tables_number   1
_chemical_formula_structural   ZnCoO3
_chemical_formula_sum   'Zn2 Co2 O6'
_cell_volume   96.65191093
_cell_formula_units_Z   2
loop_
 _symmetry_equiv_pos_site_id
 _symmetry_equiv_pos_as_xyz
  1  'x, y, z'
loop_
 _atom_site_type_symbol
 _atom_site_label
 _atom_site_symmetry_multiplicity
 _atom_site_fract_x
 _atom_site_fract_y
 _atom_site_fract_z
 _atom_site_occupancy
  Zn  Zn0  1  0.36627700  0.36627700  0.36627700  1
  Zn  Zn1  1  0.63372300  0.63372300  0.63372300  1
  Co  Co2  1  0.16080100  0.16080100  0.16080100  1
  Co  Co3  1  0.83919900  0.83919900  0.83919900  1
  O  O4  1  0.43815700  0.78797500  0.04386300  1
  O  O5  1  0.78797500  0.04386300  0.43815700  1
  O  O6  1  0.04386300  0.43815700  0.78797500  1
  O  O7  1  0.95613700  0.56184300  0.21202500  1
  O  O8  1  0.21202500  0.95613700  0.56184300  1
  O  O9  1  0.56184300  0.21202500  0.95613700  1
