# generated using pymatgen
data_TeH14C2(NO2)4
_symmetry_space_group_name_H-M   'P 1'
_cell_length_a   8.75772690
_cell_length_b   8.75772690
_cell_length_c   9.99927131
_cell_angle_alpha   57.18883815
_cell_angle_beta   57.18883815
_cell_angle_gamma   62.02697813
_symmetry_Int_Tables_number   1
_chemical_formula_structural   TeH14C2(NO2)4
_chemical_formula_sum   'Te2 H28 C4 N8 O16'
_cell_volume   524.76149977
_cell_formula_units_Z   2
loop_
 _symmetry_equiv_pos_site_id
 _symmetry_equiv_pos_as_xyz
  1  'x, y, z'
loop_
 _atom_site_type_symbol
 _atom_site_label
 _atom_site_symmetry_multiplicity
 _atom_site_fract_x
 _atom_site_fract_y
 _atom_site_fract_z
 _atom_site_occupancy
  Te  Te0  1  0.56622500  0.43377500  0.25000000  1
  Te  Te1  1  0.43377500  0.56622500  0.75000000  1
  H  H2  1  0.33172800  0.97138900  0.41087100  1
  H  H3  1  0.53446000  0.66921100  0.33710700  1
  H  H4  1  0.09057200  0.68396500  0.80217600  1
  H  H5  1  0.34966400  0.88807500  0.10238900  1
  H  H6  1  0.83594000  0.89719400  0.68133900  1
  H  H7  1  0.10764500  0.68982600  0.55335400  1
  H  H8  1  0.73853600  0.65240600  0.96639600  1
  H  H9  1  0.11192500  0.65033600  0.39761100  1
  H  H10  1  0.34759400  0.26146400  0.53360400  1
  H  H11  1  0.97138900  0.33172800  0.91087100  1
  H  H12  1  0.68396500  0.09057200  0.30217600  1
  H  H13  1  0.31017400  0.89235500  0.94664600  1
  H  H14  1  0.10280600  0.16406000  0.81866100  1
  H  H15  1  0.33078900  0.46554000  0.16289300  1
  H  H16  1  0.66921100  0.53446000  0.83710700  1
  H  H17  1  0.89719400  0.83594000  0.18133900  1
  H  H18  1  0.68982600  0.10764500  0.05335400  1
  H  H19  1  0.31603500  0.90942800  0.69782400  1
  H  H20  1  0.02861100  0.66827200  0.08912900  1
  H  H21  1  0.65240600  0.73853600  0.46639600  1
  H  H22  1  0.88807500  0.34966400  0.60238900  1
  H  H23  1  0.26146400  0.34759400  0.03360400  1
  H  H24  1  0.89235500  0.31017400  0.44664600  1
  H  H25  1  0.16406000  0.10280600  0.31866100  1
  H  H26  1  0.65033600  0.11192500  0.89761100  1
  H  H27  1  0.90942800  0.31603500  0.19782400  1
  H  H28  1  0.46554000  0.33078900  0.66289300  1
  H  H29  1  0.66827200  0.02861100  0.58912900  1
  C  C30  1  0.83764700  0.87633100  0.98683300  1
  C  C31  1  0.87633100  0.83764700  0.48683300  1
  C  C32  1  0.12366900  0.16235300  0.51316700  1
  C  C33  1  0.16235300  0.12366900  0.01316700  1
  N  N34  1  0.29101600  0.96065100  0.01323300  1
  N  N35  1  0.78910900  0.92855400  0.59293200  1
  N  N36  1  0.03934900  0.70898400  0.48676700  1
  N  N37  1  0.07144600  0.21089100  0.90706800  1
  N  N38  1  0.92855400  0.78910900  0.09293200  1
  N  N39  1  0.96065100  0.29101600  0.51323300  1
  N  N40  1  0.21089100  0.07144600  0.40706800  1
  N  N41  1  0.70898400  0.03934900  0.98676700  1
  O  O42  1  0.20771100  0.62866900  0.71901900  1
  O  O43  1  0.87337800  0.80298100  0.88747000  1
  O  O44  1  0.48859900  0.67494300  0.26206900  1
  O  O45  1  0.69102200  0.54921900  0.99611000  1
  O  O46  1  0.45078100  0.30897800  0.50389000  1
  O  O47  1  0.32505700  0.51140100  0.23793100  1
  O  O48  1  0.62866900  0.20771100  0.21901900  1
  O  O49  1  0.80298100  0.87337800  0.38747000  1
  O  O50  1  0.19701900  0.12662200  0.61253000  1
  O  O51  1  0.37133100  0.79228900  0.78098100  1
  O  O52  1  0.67494300  0.48859900  0.76206900  1
  O  O53  1  0.54921900  0.69102200  0.49611000  1
  O  O54  1  0.30897800  0.45078100  0.00389000  1
  O  O55  1  0.51140100  0.32505700  0.73793100  1
  O  O56  1  0.12662200  0.19701900  0.11253000  1
  O  O57  1  0.79228900  0.37133100  0.28098100  1
