# generated using pymatgen
data_MnV4O12
_symmetry_space_group_name_H-M   'P 1'
_cell_length_a   5.32463317
_cell_length_b   10.91945992
_cell_length_c   9.62081675
_cell_angle_alpha   26.90220511
_cell_angle_beta   50.33853214
_cell_angle_gamma   55.22743071
_symmetry_Int_Tables_number   1
_chemical_formula_structural   MnV4O12
_chemical_formula_sum   'Mn1 V4 O12'
_cell_volume   194.84244339
_cell_formula_units_Z   1
loop_
 _symmetry_equiv_pos_site_id
 _symmetry_equiv_pos_as_xyz
  1  'x, y, z'
loop_
 _atom_site_type_symbol
 _atom_site_label
 _atom_site_symmetry_multiplicity
 _atom_site_fract_x
 _atom_site_fract_y
 _atom_site_fract_z
 _atom_site_occupancy
  Mn  Mn0  1  0.31308100  0.00090300  0.29174600  1
  V  V1  1  0.02732600  0.02231500  0.96322900  1
  V  V2  1  0.95640900  0.48499800  0.03356600  1
  V  V3  1  0.49218700  0.98813500  0.52440000  1
  V  V4  1  0.49490600  0.52758900  0.47879300  1
  O  O5  1  0.33790500  0.28116100  0.13465400  1
  O  O6  1  0.23428800  0.10574800  0.62051400  1
  O  O7  1  0.13266400  0.30681600  0.71996400  1
  O  O8  1  0.87564500  0.17426600  0.24167700  1
  O  O9  1  0.32873000  0.80306600  0.13060800  1
  O  O10  1  0.74604000  0.39398200  0.33783000  1
  O  O11  1  0.23694000  0.66279400  0.56575600  1
  O  O12  1  0.57557600  0.18804700  0.87673000  1
  O  O13  1  0.13835700  0.80352900  0.71132000  1
  O  O14  1  0.83913700  0.68442800  0.23742700  1
  O  O15  1  0.71150900  0.89147500  0.33479100  1
  O  O16  1  0.61859900  0.68074700  0.85629600  1
