# generated using pymatgen
data_Ba5Nb2O10
_symmetry_space_group_name_H-M   'P 1'
_cell_length_a   6.17834553
_cell_length_b   6.17834553
_cell_length_c   18.33528400
_cell_angle_alpha   90.00000000
_cell_angle_beta   90.00000000
_cell_angle_gamma   120.22516966
_symmetry_Int_Tables_number   1
_chemical_formula_structural   Ba5Nb2O10
_chemical_formula_sum   'Ba10 Nb4 O20'
_cell_volume   604.74569353
_cell_formula_units_Z   2
loop_
 _symmetry_equiv_pos_site_id
 _symmetry_equiv_pos_as_xyz
  1  'x, y, z'
loop_
 _atom_site_type_symbol
 _atom_site_label
 _atom_site_symmetry_multiplicity
 _atom_site_fract_x
 _atom_site_fract_y
 _atom_site_fract_z
 _atom_site_occupancy
  Ba  Ba0  1  0.83187500  0.16812500  0.75050100  1
  Ba  Ba1  1  0.80770200  0.19229800  0.98157500  1
  Ba  Ba2  1  0.49623900  0.50376100  0.86492200  1
  Ba  Ba3  1  0.50043900  0.49956100  0.63504600  1
  Ba  Ba4  1  0.50376100  0.49623900  0.36492200  1
  Ba  Ba5  1  0.49956100  0.50043900  0.13504600  1
  Ba  Ba6  1  0.85070600  0.14929400  0.51965800  1
  Ba  Ba7  1  0.19229800  0.80770200  0.48157500  1
  Ba  Ba8  1  0.16812500  0.83187500  0.25050100  1
  Ba  Ba9  1  0.14929400  0.85070600  0.01965800  1
  Nb  Nb10  1  0.83667100  0.16332900  0.33072500  1
  Nb  Nb11  1  0.83091100  0.16908900  0.16980600  1
  Nb  Nb12  1  0.16332900  0.83667100  0.83072500  1
  Nb  Nb13  1  0.16908900  0.83091100  0.66980600  1
  O  O14  1  0.56287600  0.43712400  0.99973300  1
  O  O15  1  0.97546400  0.48384600  0.38012400  1
  O  O16  1  0.00396900  0.47598400  0.11467200  1
  O  O17  1  0.68725000  0.31275000  0.24513500  1
  O  O18  1  0.12693600  0.31283600  0.25244400  1
  O  O19  1  0.51615400  0.02453600  0.38012400  1
  O  O20  1  0.52401600  0.99603100  0.11467200  1
  O  O21  1  0.68716400  0.87306400  0.25244400  1
  O  O22  1  0.98485000  0.01515000  0.38945600  1
  O  O23  1  0.99350600  0.00649400  0.12124800  1
  O  O24  1  0.00649400  0.99350600  0.62124800  1
  O  O25  1  0.01515000  0.98485000  0.88945600  1
  O  O26  1  0.31283600  0.12693600  0.75244400  1
  O  O27  1  0.48384600  0.97546400  0.88012400  1
  O  O28  1  0.87306400  0.68716400  0.75244400  1
  O  O29  1  0.47598400  0.00396900  0.61467200  1
  O  O30  1  0.31275000  0.68725000  0.74513500  1
  O  O31  1  0.02453600  0.51615400  0.88012400  1
  O  O32  1  0.99603100  0.52401600  0.61467200  1
  O  O33  1  0.43712400  0.56287600  0.49973300  1
