# generated using pymatgen
data_NaMn(HO)3
_symmetry_space_group_name_H-M   'P 1'
_cell_length_a   11.51348200
_cell_length_b   11.51348200
_cell_length_c   6.05686400
_cell_angle_alpha   90.00000000
_cell_angle_beta   90.00000000
_cell_angle_gamma   90.00000000
_symmetry_Int_Tables_number   1
_chemical_formula_structural   NaMn(HO)3
_chemical_formula_sum   'Na8 Mn8 H24 O24'
_cell_volume   802.89951365
_cell_formula_units_Z   8
loop_
 _symmetry_equiv_pos_site_id
 _symmetry_equiv_pos_as_xyz
  1  'x, y, z'
loop_
 _atom_site_type_symbol
 _atom_site_label
 _atom_site_symmetry_multiplicity
 _atom_site_fract_x
 _atom_site_fract_y
 _atom_site_fract_z
 _atom_site_occupancy
  Na  Na0  1  0.11759000  0.06382900  0.55510900  1
  Na  Na1  1  0.93617100  0.11759000  0.05510900  1
  Na  Na2  1  0.43617100  0.38241000  0.05510900  1
  Na  Na3  1  0.61759000  0.43617100  0.55510900  1
  Na  Na4  1  0.38241000  0.56382900  0.55510900  1
  Na  Na5  1  0.56382900  0.61759000  0.05510900  1
  Na  Na6  1  0.06382900  0.88241000  0.05510900  1
  Na  Na7  1  0.88241000  0.93617100  0.55510900  1
  Mn  Mn8  1  0.28963000  0.07112100  0.02570500  1
  Mn  Mn9  1  0.42887900  0.21037000  0.52570500  1
  Mn  Mn10  1  0.92887900  0.28963000  0.52570500  1
  Mn  Mn11  1  0.78963000  0.42887900  0.02570500  1
  Mn  Mn12  1  0.21037000  0.57112100  0.02570500  1
  Mn  Mn13  1  0.07112100  0.71037000  0.52570500  1
  Mn  Mn14  1  0.57112100  0.78963000  0.52570500  1
  Mn  Mn15  1  0.71037000  0.92887900  0.02570500  1
  H  H16  1  0.75810600  0.78537400  0.70062800  1
  H  H17  1  0.62335700  0.15224900  0.34640700  1
  H  H18  1  0.83868100  0.12313000  0.73607200  1
  H  H19  1  0.71462600  0.74189400  0.20062800  1
  H  H20  1  0.65224900  0.12335700  0.84640700  1
  H  H21  1  0.12313000  0.16131900  0.23607200  1
  H  H22  1  0.62313000  0.33868100  0.23607200  1
  H  H23  1  0.15224900  0.37664300  0.84640700  1
  H  H24  1  0.21462600  0.75810600  0.20062800  1
  H  H25  1  0.33868100  0.37687000  0.73607200  1
  H  H26  1  0.12335700  0.34775100  0.34640700  1
  H  H27  1  0.25810600  0.71462600  0.70062800  1
  H  H28  1  0.74189400  0.28537400  0.70062800  1
  H  H29  1  0.87664300  0.65224900  0.34640700  1
  H  H30  1  0.66131900  0.62313000  0.73607200  1
  H  H31  1  0.78537400  0.24189400  0.20062800  1
  H  H32  1  0.84775100  0.62335700  0.84640700  1
  H  H33  1  0.37687000  0.66131900  0.23607200  1
  H  H34  1  0.87687000  0.83868100  0.23607200  1
  H  H35  1  0.34775100  0.87664300  0.84640700  1
  H  H36  1  0.28537400  0.25810600  0.20062800  1
  H  H37  1  0.16131900  0.87687000  0.73607200  1
  H  H38  1  0.37664300  0.84775100  0.34640700  1
  H  H39  1  0.24189400  0.21462600  0.70062800  1
  O  O40  1  0.85772000  0.28767500  0.20350000  1
  O  O41  1  0.12444700  0.08359800  0.16769800  1
  O  O42  1  0.70863700  0.10174700  0.95903800  1
  O  O43  1  0.91640200  0.12444700  0.66769800  1
  O  O44  1  0.21232500  0.64228000  0.70350000  1
  O  O45  1  0.60174700  0.20863700  0.45903800  1
  O  O46  1  0.10174700  0.29136300  0.45903800  1
  O  O47  1  0.71232500  0.85772000  0.70350000  1
  O  O48  1  0.41640200  0.37555300  0.66769800  1
  O  O49  1  0.20863700  0.39825300  0.95903800  1
  O  O50  1  0.62444700  0.41640200  0.16769800  1
  O  O51  1  0.35772000  0.21232500  0.20350000  1
  O  O52  1  0.64228000  0.78767500  0.20350000  1
  O  O53  1  0.37555300  0.58359800  0.16769800  1
  O  O54  1  0.79136300  0.60174700  0.95903800  1
  O  O55  1  0.58359800  0.62444700  0.66769800  1
  O  O56  1  0.28767500  0.14228000  0.70350000  1
  O  O57  1  0.89825300  0.70863700  0.45903800  1
  O  O58  1  0.39825300  0.79136300  0.45903800  1
  O  O59  1  0.78767500  0.35772000  0.70350000  1
  O  O60  1  0.08359800  0.87555300  0.66769800  1
  O  O61  1  0.29136300  0.89825300  0.95903800  1
  O  O62  1  0.87555300  0.91640200  0.16769800  1
  O  O63  1  0.14228000  0.71232500  0.20350000  1
