# generated using pymatgen
data_FeOF
_symmetry_space_group_name_H-M   'P 1'
_cell_length_a   3.09815500
_cell_length_b   9.45686100
_cell_length_c   14.19824090
_cell_angle_alpha   89.77559813
_cell_angle_beta   90.00000000
_cell_angle_gamma   90.00000000
_symmetry_Int_Tables_number   1
_chemical_formula_structural   FeOF
_chemical_formula_sum   'Fe12 O12 F12'
_cell_volume   415.98853072
_cell_formula_units_Z   12
loop_
 _symmetry_equiv_pos_site_id
 _symmetry_equiv_pos_as_xyz
  1  'x, y, z'
loop_
 _atom_site_type_symbol
 _atom_site_label
 _atom_site_symmetry_multiplicity
 _atom_site_fract_x
 _atom_site_fract_y
 _atom_site_fract_z
 _atom_site_occupancy
  Fe  Fe0  1  0.00000000  0.00277300  0.99979500  1
  Fe  Fe1  1  0.00000000  0.49640800  0.99179100  1
  Fe  Fe2  1  0.50000000  0.28004600  0.83327800  1
  Fe  Fe3  1  0.50000000  0.75030000  0.85256500  1
  Fe  Fe4  1  0.00000000  0.00490000  0.66241900  1
  Fe  Fe5  1  0.00000000  0.48781800  0.66071900  1
  Fe  Fe6  1  0.50000000  0.75389900  0.47903700  1
  Fe  Fe7  1  0.50000000  0.24620600  0.51105300  1
  Fe  Fe8  1  0.00000000  0.98995300  0.32438700  1
  Fe  Fe9  1  0.00000000  0.51440900  0.33392800  1
  Fe  Fe10  1  0.50000000  0.22081900  0.16913900  1
  Fe  Fe11  1  0.50000000  0.74514300  0.18098200  1
  O  O12  1  0.50000000  0.39896700  0.94167300  1
  O  O13  1  0.50000000  0.90918100  0.93185600  1
  O  O14  1  0.00000000  0.64970800  0.89832000  1
  O  O15  1  0.00000000  0.35097600  0.76510100  1
  O  O16  1  0.50000000  0.40819000  0.59522600  1
  O  O17  1  0.00000000  0.14692100  0.57030400  1
  O  O18  1  0.00000000  0.85564100  0.43714200  1
  O  O19  1  0.50000000  0.58824400  0.40095000  1
  O  O20  1  0.50000000  0.89925300  0.26792500  1
  O  O21  1  0.00000000  0.15253300  0.23638300  1
  O  O22  1  0.00000000  0.64696100  0.23011300  1
  O  O23  1  0.50000000  0.09890700  0.06152000  1
  F  F24  1  0.00000000  0.15489300  0.88878300  1
  F  F25  1  0.00000000  0.85210800  0.76140600  1
  F  F26  1  0.50000000  0.09163800  0.73345400  1
  F  F27  1  0.50000000  0.60619900  0.72701600  1
  F  F28  1  0.50000000  0.90033200  0.60498300  1
  F  F29  1  0.00000000  0.66330400  0.56841300  1
  F  F30  1  0.00000000  0.33603900  0.43372900  1
  F  F31  1  0.50000000  0.10261200  0.40268300  1
  F  F32  1  0.50000000  0.39930500  0.27007900  1
  F  F33  1  0.00000000  0.35575600  0.10710700  1
  F  F34  1  0.00000000  0.83982700  0.10017700  1
  F  F35  1  0.50000000  0.59983000  0.06656600  1
