# generated using pymatgen
data_AlI2NO15
_symmetry_space_group_name_H-M   'P 1'
_cell_length_a   6.86743237
_cell_length_b   6.86743237
_cell_length_c   8.00445500
_cell_angle_alpha   90.00000000
_cell_angle_beta   90.00000000
_cell_angle_gamma   120.00000358
_symmetry_Int_Tables_number   1
_chemical_formula_structural   AlI2NO15
_chemical_formula_sum   'Al1 I2 N1 O15'
_cell_volume   326.92728367
_cell_formula_units_Z   1
loop_
 _symmetry_equiv_pos_site_id
 _symmetry_equiv_pos_as_xyz
  1  'x, y, z'
loop_
 _atom_site_type_symbol
 _atom_site_label
 _atom_site_symmetry_multiplicity
 _atom_site_fract_x
 _atom_site_fract_y
 _atom_site_fract_z
 _atom_site_occupancy
  Al  Al0  1  0.00000000  0.00000000  0.50000000  1
  I  I1  1  0.33333300  0.66666700  0.88269100  1
  I  I2  1  0.66666700  0.33333300  0.11730900  1
  N  N3  1  0.00000000  0.00000000  0.00000000  1
  O  O4  1  0.18225500  0.00000000  0.00000000  1
  O  O5  1  0.81774500  0.81774500  0.00000000  1
  O  O6  1  0.00000000  0.18225500  0.00000000  1
  O  O7  1  0.89093500  0.74374400  0.63151100  1
  O  O8  1  0.85280900  0.10906500  0.63151100  1
  O  O9  1  0.25625600  0.14719100  0.63151100  1
  O  O10  1  0.10906500  0.85280900  0.36848900  1
  O  O11  1  0.74374400  0.89093500  0.36848900  1
  O  O12  1  0.14719100  0.25625600  0.36848900  1
  O  O13  1  0.49171500  0.94606700  0.78632100  1
  O  O14  1  0.45435200  0.50828500  0.78632100  1
  O  O15  1  0.05393300  0.54564800  0.78632100  1
  O  O16  1  0.50828500  0.45435200  0.21367900  1
  O  O17  1  0.94606700  0.49171500  0.21367900  1
  O  O18  1  0.54564800  0.05393300  0.21367900  1
