# generated using pymatgen
data_V4(OF3)3
_symmetry_space_group_name_H-M   'P 1'
_cell_length_a   5.22781600
_cell_length_b   5.41142117
_cell_length_c   17.48344061
_cell_angle_alpha   89.35344676
_cell_angle_beta   98.39521998
_cell_angle_gamma   118.76476108
_symmetry_Int_Tables_number   1
_chemical_formula_structural   V4(OF3)3
_chemical_formula_sum   'V8 O6 F18'
_cell_volume   427.93329711
_cell_formula_units_Z   2
loop_
 _symmetry_equiv_pos_site_id
 _symmetry_equiv_pos_as_xyz
  1  'x, y, z'
loop_
 _atom_site_type_symbol
 _atom_site_label
 _atom_site_symmetry_multiplicity
 _atom_site_fract_x
 _atom_site_fract_y
 _atom_site_fract_z
 _atom_site_occupancy
  V  V0  1  0.24843800  0.62231400  0.87486300  1
  V  V1  1  0.25076000  0.14318800  0.37424900  1
  V  V2  1  0.54341200  0.26239200  0.75060400  1
  V  V3  1  0.49393700  0.72156500  0.25371200  1
  V  V4  1  0.75251800  0.89566900  0.62737400  1
  V  V5  1  0.71928000  0.37973400  0.12771200  1
  V  V6  1  0.95531300  0.98055100  0.99838400  1
  V  V7  1  0.00969100  0.49712400  0.49309000  1
  O  O8  1  0.07812100  0.34519600  0.42095000  1
  O  O9  1  0.59833700  0.79820800  0.95920800  1
  O  O10  1  0.45541500  0.45721000  0.31164400  1
  O  O11  1  0.61008400  0.07570400  0.66672400  1
  O  O12  1  0.58001700  0.56486600  0.16585600  1
  O  O13  1  0.89926300  0.44937400  0.79151900  1
  F  F14  1  0.08761800  0.84839000  0.91455500  1
  F  F15  1  0.03461300  0.32141300  0.94182800  1
  F  F16  1  0.02619400  0.81669700  0.43585900  1
  F  F17  1  0.46790300  0.92775000  0.81051400  1
  F  F18  1  0.10261500  0.03389500  0.70835300  1
  F  F19  1  0.07204500  0.53680100  0.20964700  1
  F  F20  1  0.40681800  0.39738400  0.83431600  1
  F  F21  1  0.42995200  0.92863600  0.33503200  1
  F  F22  1  0.43230600  0.72861600  0.53791200  1
  F  F23  1  0.53549600  0.55428300  0.68387300  1
  F  F24  1  0.57608400  0.29258500  0.46255100  1
  F  F25  1  0.40332000  0.19374200  0.03952000  1
  F  F26  1  0.92142200  0.67303800  0.58128400  1
  F  F27  1  0.92319900  0.96341100  0.28711900  1
  F  F28  1  0.52784200  0.04449200  0.18755400  1
  F  F29  1  0.95840300  0.67696500  0.06175500  1
  F  F30  1  0.98697500  0.20277800  0.56462700  1
  F  F31  1  0.91260700  0.16603200  0.08781100  1
