# generated using pymatgen
data_VOF2
_symmetry_space_group_name_H-M   'P 1'
_cell_length_a   5.19990336
_cell_length_b   5.32783274
_cell_length_c   5.20093041
_cell_angle_alpha   86.27325391
_cell_angle_beta   117.07580583
_cell_angle_gamma   62.17782869
_symmetry_Int_Tables_number   1
_chemical_formula_structural   VOF2
_chemical_formula_sum   'V2 O2 F4'
_cell_volume   106.19019989
_cell_formula_units_Z   2
loop_
 _symmetry_equiv_pos_site_id
 _symmetry_equiv_pos_as_xyz
  1  'x, y, z'
loop_
 _atom_site_type_symbol
 _atom_site_label
 _atom_site_symmetry_multiplicity
 _atom_site_fract_x
 _atom_site_fract_y
 _atom_site_fract_z
 _atom_site_occupancy
  V  V0  1  0.00000000  0.50000000  0.50000000  1
  V  V1  1  0.00000000  0.00000000  0.00000000  1
  O  O2  1  0.04853100  0.25003300  0.79851500  1
  O  O3  1  0.95146900  0.74996700  0.20148500  1
  F  F4  1  0.50130000  0.22590800  0.66679200  1
  F  F5  1  0.89270300  0.27406600  0.22719300  1
  F  F6  1  0.10729800  0.72593400  0.77280700  1
  F  F7  1  0.49869900  0.77409200  0.33320800  1
