# generated using pymatgen
data_Al2Mo3
_symmetry_space_group_name_H-M   'P 1'
_cell_length_a   9.05982447
_cell_length_b   8.49989000
_cell_length_c   9.30851755
_cell_angle_alpha   90.00000000
_cell_angle_beta   116.10328531
_cell_angle_gamma   90.00000000
_symmetry_Int_Tables_number   1
_chemical_formula_structural   Al2Mo3
_chemical_formula_sum   'Al16 Mo24'
_cell_volume   643.71122591
_cell_formula_units_Z   8
loop_
 _symmetry_equiv_pos_site_id
 _symmetry_equiv_pos_as_xyz
  1  'x, y, z'
loop_
 _atom_site_type_symbol
 _atom_site_label
 _atom_site_symmetry_multiplicity
 _atom_site_fract_x
 _atom_site_fract_y
 _atom_site_fract_z
 _atom_site_occupancy
  Al  Al0  1  0.90414000  0.56178300  0.35114800  1
  Al  Al1  1  0.59586000  0.06178300  0.64885200  1
  Al  Al2  1  0.09586000  0.43821700  0.64885200  1
  Al  Al3  1  0.40414000  0.93821700  0.35114800  1
  Al  Al4  1  0.83719400  0.12957400  0.92548800  1
  Al  Al5  1  0.66280600  0.62957400  0.07451200  1
  Al  Al6  1  0.16280600  0.87042600  0.07451200  1
  Al  Al7  1  0.33719400  0.37042600  0.92548800  1
  Al  Al8  1  0.62919000  0.10103600  0.26171800  1
  Al  Al9  1  0.87081000  0.60103600  0.73828200  1
  Al  Al10  1  0.37081000  0.89896400  0.73828200  1
  Al  Al11  1  0.12919000  0.39896400  0.26171800  1
  Al  Al12  1  0.64299700  0.49086100  0.48937900  1
  Al  Al13  1  0.85700300  0.99086100  0.51062100  1
  Al  Al14  1  0.35700300  0.50913900  0.51062100  1
  Al  Al15  1  0.14299700  0.00913900  0.48937900  1
  Mo  Mo16  1  0.44245500  0.25660000  0.40363000  1
  Mo  Mo17  1  0.05754500  0.75660000  0.59637000  1
  Mo  Mo18  1  0.55754500  0.74340000  0.59637000  1
  Mo  Mo19  1  0.94245500  0.24340000  0.40363000  1
  Mo  Mo20  1  0.80408800  0.33697200  0.10683600  1
  Mo  Mo21  1  0.69591200  0.83697200  0.89316400  1
  Mo  Mo22  1  0.19591200  0.66302800  0.89316400  1
  Mo  Mo23  1  0.30408800  0.16302800  0.10683600  1
  Mo  Mo24  1  0.58208300  0.40440300  0.21156000  1
  Mo  Mo25  1  0.91791700  0.90440300  0.78844000  1
  Mo  Mo26  1  0.41791700  0.59559700  0.78844000  1
  Mo  Mo27  1  0.08208300  0.09559700  0.21156000  1
  Mo  Mo28  1  0.65832800  0.75327800  0.34586700  1
  Mo  Mo29  1  0.84167200  0.25327800  0.65413300  1
  Mo  Mo30  1  0.34167200  0.24672200  0.65413300  1
  Mo  Mo31  1  0.15832800  0.74672200  0.34586700  1
  Mo  Mo32  1  0.85297900  0.90331500  0.22954900  1
  Mo  Mo33  1  0.64702100  0.40331500  0.77045100  1
  Mo  Mo34  1  0.14702100  0.09668500  0.77045100  1
  Mo  Mo35  1  0.35297900  0.59668500  0.22954900  1
  Mo  Mo36  1  0.45556000  0.86317800  0.05770900  1
  Mo  Mo37  1  0.04444000  0.36317800  0.94229100  1
  Mo  Mo38  1  0.54444000  0.13682200  0.94229100  1
  Mo  Mo39  1  0.95556000  0.63682200  0.05770900  1
