# generated using pymatgen
data_Na7(WO3)12
_symmetry_space_group_name_H-M   'P 1'
_cell_length_a   9.58073156
_cell_length_b   9.58073156
_cell_length_c   9.58004478
_cell_angle_alpha   80.40971582
_cell_angle_beta   80.40971582
_cell_angle_gamma   120.00315964
_symmetry_Int_Tables_number   1
_chemical_formula_structural   Na7(WO3)12
_chemical_formula_sum   'Na7 W12 O36'
_cell_volume   717.99933312
_cell_formula_units_Z   1
loop_
 _symmetry_equiv_pos_site_id
 _symmetry_equiv_pos_as_xyz
  1  'x, y, z'
loop_
 _atom_site_type_symbol
 _atom_site_label
 _atom_site_symmetry_multiplicity
 _atom_site_fract_x
 _atom_site_fract_y
 _atom_site_fract_z
 _atom_site_occupancy
  Na  Na0  1  0.41729200  0.08349500  0.74949500  1
  Na  Na1  1  0.74962200  0.74962200  0.74979800  1
  Na  Na2  1  0.25037800  0.25037800  0.25020200  1
  Na  Na3  1  0.08349500  0.41729200  0.74949500  1
  Na  Na4  1  0.58270800  0.91650500  0.25050500  1
  Na  Na5  1  0.00000000  0.00000000  0.00000000  1
  Na  Na6  1  0.91650500  0.58270800  0.25050500  1
  W  W7  1  0.70680700  0.04194900  0.87375400  1
  W  W8  1  0.12631300  0.12631300  0.62241600  1
  W  W9  1  0.04194900  0.70680700  0.87375400  1
  W  W10  1  0.45807300  0.79190500  0.62434900  1
  W  W11  1  0.54192700  0.20809500  0.37565100  1
  W  W12  1  0.95805100  0.29319300  0.12624600  1
  W  W13  1  0.87368700  0.87368700  0.37758400  1
  W  W14  1  0.37755800  0.37755800  0.87358700  1
  W  W15  1  0.29319300  0.95805100  0.12624600  1
  W  W16  1  0.79190500  0.45807300  0.62434900  1
  W  W17  1  0.62244200  0.62244200  0.12641300  1
  W  W18  1  0.20809500  0.54192700  0.37565100  1
  O  O19  1  0.24798100  0.24798100  0.75207800  1
  O  O20  1  0.74972700  0.24972200  0.75008200  1
  O  O21  1  0.08264500  0.91744500  0.75195100  1
  O  O22  1  0.91744500  0.08264500  0.75195100  1
  O  O23  1  0.33325600  0.16675100  0.49986500  1
  O  O24  1  0.00000000  0.00000000  0.50000000  1
  O  O25  1  0.58318700  0.91680300  0.74995800  1
  O  O26  1  0.75027800  0.25027300  0.24991800  1
  O  O27  1  0.83324900  0.66674400  0.50013500  1
  O  O28  1  0.08255500  0.91735500  0.24804900  1
  O  O29  1  0.24972200  0.74972700  0.75008200  1
  O  O30  1  0.41692100  0.58346500  0.74997300  1
  O  O31  1  0.50000000  0.00000000  0.50000000  1
  O  O32  1  0.66674400  0.83324900  0.50013500  1
  O  O33  1  0.91735500  0.08255500  0.24804900  1
  O  O34  1  0.33063600  0.16539500  0.99998400  1
  O  O35  1  0.58346500  0.41692100  0.74997300  1
  O  O36  1  0.91680300  0.58318700  0.74995800  1
  O  O37  1  0.41681300  0.08319700  0.25004200  1
  O  O38  1  0.83471500  0.16528500  0.00000000  1
  O  O39  1  0.75201900  0.75201900  0.24792200  1
  O  O40  1  0.33330500  0.66669500  0.50000000  1
  O  O41  1  0.50000000  0.00000000  0.00000000  1
  O  O42  1  0.41653500  0.58307900  0.25002700  1
  O  O43  1  0.83460500  0.66936400  0.00001600  1
  O  O44  1  0.00000000  0.50000000  0.50000000  1
  O  O45  1  0.16675100  0.33325600  0.49986500  1
  O  O46  1  0.25027300  0.75027800  0.24991800  1
  O  O47  1  0.66936400  0.83460500  0.00001600  1
  O  O48  1  0.58307900  0.41653500  0.25002700  1
  O  O49  1  0.50000000  0.50000000  0.00000000  1
  O  O50  1  0.16528500  0.83471500  0.00000000  1
  O  O51  1  0.66669500  0.33330500  0.50000000  1
  O  O52  1  0.08319700  0.41681300  0.25004200  1
  O  O53  1  0.00000000  0.50000000  0.00000000  1
  O  O54  1  0.16539500  0.33063600  0.99998400  1
