# generated using pymatgen
data_FeOF
_symmetry_space_group_name_H-M   'P 1'
_cell_length_a   3.11084700
_cell_length_b   9.48212800
_cell_length_c   14.17185013
_cell_angle_alpha   89.99234269
_cell_angle_beta   90.00000000
_cell_angle_gamma   90.00000000
_symmetry_Int_Tables_number   1
_chemical_formula_structural   FeOF
_chemical_formula_sum   'Fe12 O12 F12'
_cell_volume   418.03342888
_cell_formula_units_Z   12
loop_
 _symmetry_equiv_pos_site_id
 _symmetry_equiv_pos_as_xyz
  1  'x, y, z'
loop_
 _atom_site_type_symbol
 _atom_site_label
 _atom_site_symmetry_multiplicity
 _atom_site_fract_x
 _atom_site_fract_y
 _atom_site_fract_z
 _atom_site_occupancy
  Fe  Fe0  1  0.00000000  0.98986500  0.00757800  1
  Fe  Fe1  1  0.00000000  0.49423700  0.01075000  1
  Fe  Fe2  1  0.50000000  0.24239500  0.14920500  1
  Fe  Fe3  1  0.50000000  0.74479300  0.14963500  1
  Fe  Fe4  1  0.00000000  0.98973800  0.34129700  1
  Fe  Fe5  1  0.00000000  0.49308800  0.34339000  1
  Fe  Fe6  1  0.50000000  0.74394800  0.48742000  1
  Fe  Fe7  1  0.50000000  0.27458400  0.50562200  1
  Fe  Fe8  1  0.00000000  0.99467600  0.67962300  1
  Fe  Fe9  1  0.00000000  0.48631300  0.67418700  1
  Fe  Fe10  1  0.50000000  0.24545700  0.82076200  1
  Fe  Fe11  1  0.50000000  0.77427600  0.83969900  1
  O  O12  1  0.50000000  0.40177900  0.06303100  1
  O  O13  1  0.50000000  0.90417600  0.06742400  1
  O  O14  1  0.00000000  0.14801200  0.10104500  1
  O  O15  1  0.00000000  0.65161800  0.09941800  1
  O  O16  1  0.50000000  0.39751800  0.39486900  1
  O  O17  1  0.50000000  0.90601900  0.39902000  1
  O  O18  1  0.00000000  0.65113200  0.43379500  1
  O  O19  1  0.00000000  0.35270600  0.56732800  1
  O  O20  1  0.50000000  0.40923000  0.73614300  1
  O  O21  1  0.50000000  0.89930000  0.72896300  1
  O  O22  1  0.00000000  0.15387400  0.76613100  1
  O  O23  1  0.00000000  0.85227900  0.90089200  1
  F  F24  1  0.00000000  0.34630800  0.23046800  1
  F  F25  1  0.00000000  0.84933800  0.23276300  1
  F  F26  1  0.50000000  0.09831300  0.27101600  1
  F  F27  1  0.50000000  0.59833100  0.26651000  1
  F  F28  1  0.00000000  0.15423000  0.43498100  1
  F  F29  1  0.00000000  0.84844500  0.56321800  1
  F  F30  1  0.50000000  0.09512300  0.59617100  1
  F  F31  1  0.50000000  0.60598200  0.60487700  1
  F  F32  1  0.00000000  0.65550900  0.76978400  1
  F  F33  1  0.00000000  0.34796300  0.89838500  1
  F  F34  1  0.50000000  0.10513400  0.93379400  1
  F  F35  1  0.50000000  0.59430700  0.93080800  1
