# generated using pymatgen
data_MnAl2P2(HO)18
_symmetry_space_group_name_H-M   'P 1'
_cell_length_a   7.07345600
_cell_length_b   10.25515548
_cell_length_c   10.60728055
_cell_angle_alpha   107.89510558
_cell_angle_beta   90.14872651
_cell_angle_gamma   110.00184465
_symmetry_Int_Tables_number   1
_chemical_formula_structural   MnAl2P2(HO)18
_chemical_formula_sum   'Mn2 Al4 P4 H36 O36'
_cell_volume   683.04547069
_cell_formula_units_Z   2
loop_
 _symmetry_equiv_pos_site_id
 _symmetry_equiv_pos_as_xyz
  1  'x, y, z'
loop_
 _atom_site_type_symbol
 _atom_site_label
 _atom_site_symmetry_multiplicity
 _atom_site_fract_x
 _atom_site_fract_y
 _atom_site_fract_z
 _atom_site_occupancy
  Mn  Mn0  1  0.63026200  0.26952800  0.51045700  1
  Mn  Mn1  1  0.36973800  0.73047200  0.48954300  1
  Al  Al2  1  0.00000000  0.00000000  0.00000000  1
  Al  Al3  1  0.50000000  0.50000000  0.00000000  1
  Al  Al4  1  0.25911800  0.74835600  0.99626500  1
  Al  Al5  1  0.74088200  0.25164400  0.00373500  1
  P  P6  1  0.43326900  0.09224500  0.18145600  1
  P  P7  1  0.86542000  0.46109300  0.82770200  1
  P  P8  1  0.13458000  0.53890700  0.17229800  1
  P  P9  1  0.56673100  0.90775500  0.81854400  1
  H  H10  1  0.29539600  0.03579100  0.85514600  1
  H  H11  1  0.10418900  0.05631500  0.78406000  1
  H  H12  1  0.36508800  0.04963700  0.60852800  1
  H  H13  1  0.81298200  0.01015800  0.66490700  1
  H  H14  1  0.55770100  0.14923700  0.71629600  1
  H  H15  1  0.34780500  0.34829900  0.74425200  1
  H  H16  1  0.92655900  0.17845200  0.74202100  1
  H  H17  1  0.22290200  0.44549300  0.82868300  1
  H  H18  1  0.89916100  0.12657500  0.53298300  1
  H  H19  1  0.17239200  0.23090300  0.26008000  1
  H  H20  1  0.29217900  0.32990100  0.47589500  1
  H  H21  1  0.08031700  0.25872200  0.02204400  1
  H  H22  1  0.14638300  0.38509900  0.32992000  1
  H  H23  1  0.93829600  0.18334500  0.40499700  1
  H  H24  1  0.08811700  0.53024700  0.61402900  1
  H  H25  1  0.40200600  0.46666000  0.60032900  1
  H  H26  1  0.41826000  0.27293800  0.04425800  1
  H  H27  1  0.27045300  0.66654500  0.70770500  1
  H  H28  1  0.72954700  0.33345500  0.29229500  1
  H  H29  1  0.58174000  0.72706200  0.95574200  1
  H  H30  1  0.59799400  0.53334000  0.39967100  1
  H  H31  1  0.91188300  0.46975300  0.38597100  1
  H  H32  1  0.06170400  0.81665500  0.59500300  1
  H  H33  1  0.85361700  0.61490100  0.67008000  1
  H  H34  1  0.91968300  0.74127800  0.97795600  1
  H  H35  1  0.70782100  0.67009900  0.52410500  1
  H  H36  1  0.82760800  0.76909700  0.73992000  1
  H  H37  1  0.10083900  0.87342500  0.46701700  1
  H  H38  1  0.77709800  0.55450700  0.17131700  1
  H  H39  1  0.07344100  0.82154800  0.25797900  1
  H  H40  1  0.65219500  0.65170100  0.25574800  1
  H  H41  1  0.44229900  0.85076300  0.28370400  1
  H  H42  1  0.18701800  0.98984200  0.33509300  1
  H  H43  1  0.63491200  0.95036300  0.39147200  1
  H  H44  1  0.89581100  0.94368500  0.21594000  1
  H  H45  1  0.70460400  0.96420900  0.14485400  1
  O  O46  1  0.14763600  0.01549400  0.84819100  1
  O  O47  1  0.56626500  0.06590100  0.88309500  1
  O  O48  1  0.47778500  0.14603300  0.63908100  1
  O  O49  1  0.94564400  0.09263300  0.67559600  1
  O  O50  1  0.42321900  0.12422200  0.33232300  1
  O  O51  1  0.30825100  0.38660900  0.83337700  1
  O  O52  1  0.24965000  0.11400100  0.11893600  1
  O  O53  1  0.13943000  0.29164200  0.34343400  1
  O  O54  1  0.83092000  0.13563800  0.45462600  1
  O  O55  1  0.82528800  0.31006300  0.84768100  1
  O  O56  1  0.09141400  0.56009900  0.87620600  1
  O  O57  1  0.38772500  0.36369000  0.56028700  1
  O  O58  1  0.63456100  0.20083800  0.15808700  1
  O  O59  1  0.72842300  0.53940200  0.90519000  1
  O  O60  1  0.47176600  0.67363600  0.99697900  1
  O  O61  1  0.83281300  0.43947800  0.67650500  1
  O  O62  1  0.22882800  0.59330100  0.61363200  1
  O  O63  1  0.04772200  0.82500100  0.99271200  1
  O  O64  1  0.95227800  0.17499900  0.00728800  1
  O  O65  1  0.77117200  0.40669900  0.38636800  1
  O  O66  1  0.16718700  0.56052200  0.32349500  1
  O  O67  1  0.52823400  0.32636400  0.00302100  1
  O  O68  1  0.27157700  0.46059800  0.09481000  1
  O  O69  1  0.36543900  0.79916200  0.84191300  1
  O  O70  1  0.61227500  0.63631000  0.43971300  1
  O  O71  1  0.90858600  0.43990100  0.12379400  1
  O  O72  1  0.17471200  0.68993700  0.15231900  1
  O  O73  1  0.16908000  0.86436200  0.54537400  1
  O  O74  1  0.86057000  0.70835800  0.65656600  1
  O  O75  1  0.75035000  0.88599900  0.88106400  1
  O  O76  1  0.69174900  0.61339100  0.16662300  1
  O  O77  1  0.57678100  0.87577800  0.66767700  1
  O  O78  1  0.05435600  0.90736700  0.32440400  1
  O  O79  1  0.52221500  0.85396700  0.36091900  1
  O  O80  1  0.43373500  0.93409900  0.11690500  1
  O  O81  1  0.85236400  0.98450600  0.15180900  1
