# generated using pymatgen
data_Al2Si2H4O9
_symmetry_space_group_name_H-M   'P 1'
_cell_length_a   5.35566457
_cell_length_b   5.35566457
_cell_length_c   22.80900527
_cell_angle_alpha   61.37696597
_cell_angle_beta   118.62303403
_cell_angle_gamma   119.54877502
_symmetry_Int_Tables_number   1
_chemical_formula_structural   Al2Si2H4O9
_chemical_formula_sum   'Al4 Si4 H8 O18'
_cell_volume   473.66163669
_cell_formula_units_Z   2
loop_
 _symmetry_equiv_pos_site_id
 _symmetry_equiv_pos_as_xyz
  1  'x, y, z'
loop_
 _atom_site_type_symbol
 _atom_site_label
 _atom_site_symmetry_multiplicity
 _atom_site_fract_x
 _atom_site_fract_y
 _atom_site_fract_z
 _atom_site_occupancy
  Al  Al0  1  0.75135200  0.47862600  0.70850200  1
  Al  Al1  1  0.52137400  0.24864800  0.20850200  1
  Al  Al2  1  0.10135800  0.19628900  0.70273900  1
  Al  Al3  1  0.80371100  0.89864200  0.20273900  1
  Si  Si4  1  0.79456400  0.39217900  0.52587100  1
  Si  Si5  1  0.60782100  0.20543600  0.02587100  1
  Si  Si6  1  0.45833900  0.74658300  0.52285900  1
  Si  Si7  1  0.25341700  0.54166100  0.02285900  1
  H  H8  1  0.68941200  0.91087700  0.61299500  1
  H  H9  1  0.08912300  0.31058800  0.11299500  1
  H  H10  1  0.60405400  0.94892400  0.87902900  1
  H  H11  1  0.05107600  0.39594600  0.37902900  1
  H  H12  1  0.74357500  0.91435900  0.89076200  1
  H  H13  1  0.08564100  0.25642500  0.39076200  1
  H  H14  1  0.59945000  0.68512400  0.78681600  1
  H  H15  1  0.31487600  0.40055000  0.28681600  1
  O  O16  1  0.57996200  0.11693300  0.49031700  1
  O  O17  1  0.88306700  0.42003800  0.99031700  1
  O  O18  1  0.08996500  0.60298900  0.49817600  1
  O  O19  1  0.39701100  0.91003500  0.99817600  1
  O  O20  1  0.59809500  0.59896700  0.50329600  1
  O  O21  1  0.40103300  0.40190500  0.00329600  1
  O  O22  1  0.88762200  0.22490300  0.61056500  1
  O  O23  1  0.77509700  0.11237800  0.11056500  1
  O  O24  1  0.58657700  0.68912900  0.61018900  1
  O  O25  1  0.31087100  0.41342300  0.11018900  1
  O  O26  1  0.81195100  0.70113500  0.80067300  1
  O  O27  1  0.29886500  0.18804900  0.30067300  1
  O  O28  1  0.83338000  0.80717500  0.73016200  1
  O  O29  1  0.19282500  0.16662000  0.23016200  1
  O  O30  1  0.44881900  0.17737800  0.72827400  1
  O  O31  1  0.82262200  0.55118100  0.22827400  1
  O  O32  1  0.08134300  0.45324800  0.72297500  1
  O  O33  1  0.54675200  0.91865700  0.22297500  1
