# generated using pymatgen
data_AgC2N3
_symmetry_space_group_name_H-M   'P 1'
_cell_length_a   3.85875401
_cell_length_b   3.85875401
_cell_length_c   22.18491200
_cell_angle_alpha   90.00000000
_cell_angle_beta   90.00000000
_cell_angle_gamma   120.00000013
_symmetry_Int_Tables_number   1
_chemical_formula_structural   AgC2N3
_chemical_formula_sum   'Ag3 C6 N9'
_cell_volume   286.07672714
_cell_formula_units_Z   3
loop_
 _symmetry_equiv_pos_site_id
 _symmetry_equiv_pos_as_xyz
  1  'x, y, z'
loop_
 _atom_site_type_symbol
 _atom_site_label
 _atom_site_symmetry_multiplicity
 _atom_site_fract_x
 _atom_site_fract_y
 _atom_site_fract_z
 _atom_site_occupancy
  Ag  Ag0  1  0.00000000  0.36501100  0.66666700  1
  Ag  Ag1  1  0.36501100  0.00000000  0.33333300  1
  Ag  Ag2  1  0.63498900  0.63498900  0.00000000  1
  C  C3  1  0.16065100  0.60683600  0.26086600  1
  C  C4  1  0.83934900  0.44618500  0.07246800  1
  C  C5  1  0.39316400  0.55381500  0.59419900  1
  C  C6  1  0.60683600  0.16065100  0.73913400  1
  C  C7  1  0.55381500  0.39316400  0.40580100  1
  C  C8  1  0.44618500  0.83934900  0.92753200  1
  N  N9  1  0.55638300  0.64337100  0.54701300  1
  N  N10  1  0.20877300  0.00000000  0.83333300  1
  N  N11  1  0.64337100  0.55638300  0.45298700  1
  N  N12  1  0.00000000  0.20877300  0.16666700  1
  N  N13  1  0.79122700  0.79122700  0.50000000  1
  N  N14  1  0.91301200  0.35662900  0.11965400  1
  N  N15  1  0.08698800  0.44361700  0.21367900  1
  N  N16  1  0.35662900  0.91301200  0.88034600  1
  N  N17  1  0.44361700  0.08698800  0.78632100  1
