# generated using pymatgen
data_VF4
_symmetry_space_group_name_H-M   'P 1'
_cell_length_a   7.78395700
_cell_length_b   8.19264200
_cell_length_c   9.98305700
_cell_angle_alpha   90.00000000
_cell_angle_beta   90.00000000
_cell_angle_gamma   90.00000000
_symmetry_Int_Tables_number   1
_chemical_formula_structural   VF4
_chemical_formula_sum   'V8 F32'
_cell_volume   636.63125546
_cell_formula_units_Z   8
loop_
 _symmetry_equiv_pos_site_id
 _symmetry_equiv_pos_as_xyz
  1  'x, y, z'
loop_
 _atom_site_type_symbol
 _atom_site_label
 _atom_site_symmetry_multiplicity
 _atom_site_fract_x
 _atom_site_fract_y
 _atom_site_fract_z
 _atom_site_occupancy
  V  V0  1  0.14042200  0.05353100  0.24909000  1
  V  V1  1  0.14042200  0.44646900  0.24909000  1
  V  V2  1  0.35957800  0.55353100  0.74909000  1
  V  V3  1  0.35957800  0.94646900  0.74909000  1
  V  V4  1  0.64042200  0.05353100  0.25091000  1
  V  V5  1  0.64042200  0.44646900  0.25091000  1
  V  V6  1  0.85957800  0.55353100  0.75091000  1
  V  V7  1  0.85957800  0.94646900  0.75091000  1
  F  F8  1  0.10971800  0.93834400  0.76311500  1
  F  F9  1  0.10971800  0.56165600  0.76311500  1
  F  F10  1  0.12767700  0.57296700  0.39082000  1
  F  F11  1  0.12767700  0.92703300  0.39082000  1
  F  F12  1  0.13070800  0.25000000  0.36753900  1
  F  F13  1  0.14964400  0.25000000  0.13018300  1
  F  F14  1  0.15241600  0.57165100  0.10637100  1
  F  F15  1  0.15241600  0.92834900  0.10637100  1
  F  F16  1  0.34758400  0.07165100  0.60637100  1
  F  F17  1  0.34758400  0.42834900  0.60637100  1
  F  F18  1  0.35035600  0.75000000  0.63018300  1
  F  F19  1  0.36929200  0.75000000  0.86753900  1
  F  F20  1  0.37232300  0.07296700  0.89082000  1
  F  F21  1  0.37232300  0.42703300  0.89082000  1
  F  F22  1  0.39028200  0.06165600  0.26311500  1
  F  F23  1  0.39028200  0.43834400  0.26311500  1
  F  F24  1  0.60971800  0.56165600  0.73688500  1
  F  F25  1  0.60971800  0.93834400  0.73688500  1
  F  F26  1  0.62767700  0.57296700  0.10918000  1
  F  F27  1  0.62767700  0.92703300  0.10918000  1
  F  F28  1  0.63070800  0.25000000  0.13246100  1
  F  F29  1  0.64964400  0.25000000  0.36981700  1
  F  F30  1  0.65241600  0.57165100  0.39362900  1
  F  F31  1  0.65241600  0.92834900  0.39362900  1
  F  F32  1  0.84758400  0.07165100  0.89362900  1
  F  F33  1  0.84758400  0.42834900  0.89362900  1
  F  F34  1  0.85035600  0.75000000  0.86981700  1
  F  F35  1  0.86929200  0.75000000  0.63246100  1
  F  F36  1  0.87232300  0.07296700  0.60918000  1
  F  F37  1  0.87232300  0.42703300  0.60918000  1
  F  F38  1  0.89028200  0.06165600  0.23688500  1
  F  F39  1  0.89028200  0.43834400  0.23688500  1
