# generated using pymatgen
data_VH10(CO5)2
_symmetry_space_group_name_H-M   'P 1'
_cell_length_a   8.92901300
_cell_length_b   7.22942700
_cell_length_c   14.13084981
_cell_angle_alpha   84.84890956
_cell_angle_beta   90.00000000
_cell_angle_gamma   90.00000000
_symmetry_Int_Tables_number   1
_chemical_formula_structural   VH10(CO5)2
_chemical_formula_sum   'V4 H40 C8 O40'
_cell_volume   908.48575243
_cell_formula_units_Z   4
loop_
 _symmetry_equiv_pos_site_id
 _symmetry_equiv_pos_as_xyz
  1  'x, y, z'
loop_
 _atom_site_type_symbol
 _atom_site_label
 _atom_site_symmetry_multiplicity
 _atom_site_fract_x
 _atom_site_fract_y
 _atom_site_fract_z
 _atom_site_occupancy
  V  V0  1  0.23171000  0.68817800  0.98888600  1
  V  V1  1  0.26829000  0.68817800  0.48888600  1
  V  V2  1  0.73171000  0.31182200  0.51111400  1
  V  V3  1  0.76829000  0.31182200  0.01111400  1
  H  H4  1  0.74860500  0.96186300  0.95415300  1
  H  H5  1  0.04729600  0.01029400  0.74353600  1
  H  H6  1  0.69299900  0.94979600  0.56501000  1
  H  H7  1  0.75139500  0.96186300  0.45415300  1
  H  H8  1  0.89895800  0.89556600  0.75451500  1
  H  H9  1  0.45270400  0.01029400  0.24353600  1
  H  H10  1  0.40216400  0.83515900  0.84837300  1
  H  H11  1  0.80700100  0.94979600  0.06501000  1
  H  H12  1  0.60104200  0.89556600  0.25451500  1
  H  H13  1  0.02738500  0.79959200  0.62039100  1
  H  H14  1  0.53256400  0.76356700  0.64065500  1
  H  H15  1  0.09783600  0.83515900  0.34837300  1
  H  H16  1  0.69364500  0.73520600  0.68583600  1
  H  H17  1  0.47261500  0.79959200  0.12039100  1
  H  H18  1  0.95723100  0.68796600  0.53883100  1
  H  H19  1  0.36367100  0.61998100  0.82870300  1
  H  H20  1  0.96743600  0.76356700  0.14065500  1
  H  H21  1  0.80635500  0.73520600  0.18583600  1
  H  H22  1  0.54276900  0.68796600  0.03883100  1
  H  H23  1  0.13632900  0.61998100  0.32870300  1
  H  H24  1  0.86367100  0.38001900  0.67129700  1
  H  H25  1  0.45723100  0.31203400  0.96116900  1
  H  H26  1  0.19364500  0.26479400  0.81416400  1
  H  H27  1  0.03256400  0.23643300  0.85934500  1
  H  H28  1  0.63632900  0.38001900  0.17129700  1
  H  H29  1  0.04276900  0.31203400  0.46116900  1
  H  H30  1  0.52738500  0.20040800  0.87960900  1
  H  H31  1  0.30635500  0.26479400  0.31416400  1
  H  H32  1  0.90216400  0.16484100  0.65162700  1
  H  H33  1  0.46743600  0.23643300  0.35934500  1
  H  H34  1  0.97261500  0.20040800  0.37960900  1
  H  H35  1  0.39895800  0.10443400  0.74548500  1
  H  H36  1  0.19299900  0.05020400  0.93499000  1
  H  H37  1  0.59783600  0.16484100  0.15162700  1
  H  H38  1  0.54729600  0.98970600  0.75646400  1
  H  H39  1  0.10104200  0.10443400  0.24548500  1
  H  H40  1  0.24860500  0.03813700  0.54584700  1
  H  H41  1  0.30700100  0.05020400  0.43499000  1
  H  H42  1  0.95270400  0.98970600  0.25646400  1
  H  H43  1  0.25139500  0.03813700  0.04584700  1
  C  C44  1  0.75558700  0.65351000  0.89595100  1
  C  C45  1  0.74441300  0.65351000  0.39595100  1
  C  C46  1  0.81123200  0.50622600  0.83086300  1
  C  C47  1  0.31123200  0.49377400  0.66913700  1
  C  C48  1  0.68876800  0.50622600  0.33086300  1
  C  C49  1  0.18876800  0.49377400  0.16913700  1
  C  C50  1  0.25558700  0.34649000  0.60404900  1
  C  C51  1  0.24441300  0.34649000  0.10404900  1
  O  O52  1  0.24238800  0.96917300  0.98786000  1
  O  O53  1  0.96675900  0.95734000  0.70641400  1
  O  O54  1  0.25761200  0.96917300  0.48786000  1
  O  O55  1  0.53324100  0.95734000  0.20641400  1
  O  O56  1  0.74971700  0.81966100  0.86466700  1
  O  O57  1  0.62340500  0.83083200  0.65777500  1
  O  O58  1  0.75028300  0.81966100  0.36466700  1
  O  O59  1  0.38121400  0.70723000  0.87891400  1
  O  O60  1  0.07560700  0.67574700  0.92963000  1
  O  O61  1  0.87659500  0.83083200  0.15777500  1
  O  O62  1  0.05116500  0.71483100  0.57107800  1
  O  O63  1  0.11878600  0.70723000  0.37891400  1
  O  O64  1  0.34381400  0.65383300  0.62604300  1
  O  O65  1  0.71921600  0.58769900  0.98104500  1
  O  O66  1  0.42439300  0.67574700  0.42963000  1
  O  O67  1  0.44883500  0.71483100  0.07107800  1
  O  O68  1  0.82178000  0.54749900  0.74331800  1
  O  O69  1  0.15618600  0.65383300  0.12604300  1
  O  O70  1  0.78078400  0.58769900  0.48104500  1
  O  O71  1  0.32178000  0.45250100  0.75668200  1
  O  O72  1  0.67822000  0.54749900  0.24331800  1
  O  O73  1  0.21921600  0.41230100  0.51895500  1
  O  O74  1  0.84381400  0.34616700  0.87395700  1
  O  O75  1  0.17822000  0.45250100  0.25668200  1
  O  O76  1  0.55116500  0.28516900  0.92892200  1
  O  O77  1  0.57560700  0.32425300  0.57037000  1
  O  O78  1  0.28078400  0.41230100  0.01895500  1
  O  O79  1  0.65618600  0.34616700  0.37395700  1
  O  O80  1  0.88121400  0.29277000  0.62108600  1
  O  O81  1  0.94883500  0.28516900  0.42892200  1
  O  O82  1  0.12340500  0.16916800  0.84222500  1
  O  O83  1  0.92439300  0.32425300  0.07037000  1
  O  O84  1  0.61878600  0.29277000  0.12108600  1
  O  O85  1  0.24971700  0.18033900  0.63533300  1
  O  O86  1  0.37659500  0.16916800  0.34222500  1
  O  O87  1  0.25028300  0.18033900  0.13533300  1
  O  O88  1  0.46675900  0.04266000  0.79358600  1
  O  O89  1  0.74238800  0.03082700  0.51214000  1
  O  O90  1  0.03324100  0.04266000  0.29358600  1
  O  O91  1  0.75761200  0.03082700  0.01214000  1
