# generated using pymatgen
data_LiMnV(P2O7)2
_symmetry_space_group_name_H-M   'P 1'
_cell_length_a   4.85724078
_cell_length_b   8.14903667
_cell_length_c   13.37884535
_cell_angle_alpha   91.43471332
_cell_angle_beta   87.97883140
_cell_angle_gamma   88.60074663
_symmetry_Int_Tables_number   1
_chemical_formula_structural   LiMnV(P2O7)2
_chemical_formula_sum   'Li2 Mn2 V2 P8 O28'
_cell_volume   528.89415884
_cell_formula_units_Z   2
loop_
 _symmetry_equiv_pos_site_id
 _symmetry_equiv_pos_as_xyz
  1  'x, y, z'
loop_
 _atom_site_type_symbol
 _atom_site_label
 _atom_site_symmetry_multiplicity
 _atom_site_fract_x
 _atom_site_fract_y
 _atom_site_fract_z
 _atom_site_occupancy
  Li  Li0  1  0.82429300  0.86688700  0.33740800  1
  Li  Li1  1  0.32415100  0.86691100  0.83749400  1
  Mn  Mn2  1  0.15123600  0.00650700  0.63343100  1
  Mn  Mn3  1  0.65140200  0.00645600  0.13336800  1
  V  V4  1  0.34440700  0.49460300  0.86007600  1
  V  V5  1  0.84453200  0.49451200  0.35998500  1
  P  P6  1  0.14357300  0.17767700  0.25919900  1
  P  P7  1  0.64339000  0.17772700  0.75928400  1
  P  P8  1  0.17855300  0.78031800  0.04712200  1
  P  P9  1  0.67835000  0.78019200  0.54716800  1
  P  P10  1  0.32891500  0.28530300  0.45537900  1
  P  P11  1  0.82902900  0.28547100  0.95544100  1
  P  P12  1  0.35785600  0.68009700  0.24323600  1
  P  P13  1  0.85774800  0.68002000  0.74328700  1
  O  O14  1  0.62319700  0.33537200  0.42183900  1
  O  O15  1  0.12344200  0.33555500  0.92199100  1
  O  O16  1  0.69637900  0.68564800  0.44606400  1
  O  O17  1  0.19613600  0.68569100  0.94604600  1
  O  O18  1  0.93540900  0.04208000  0.24262800  1
  O  O19  1  0.43522700  0.04207900  0.74272800  1
  O  O20  1  0.00794000  0.35038900  0.25795100  1
  O  O21  1  0.50782900  0.35046300  0.75809000  1
  O  O22  1  0.07846800  0.67418100  0.30283600  1
  O  O23  1  0.57833200  0.67419800  0.80288300  1
  O  O24  1  0.13405700  0.43747200  0.44974700  1
  O  O25  1  0.63422400  0.43762900  0.94981500  1
  O  O26  1  0.23628900  0.14968700  0.37262000  1
  O  O27  1  0.73671700  0.14980300  0.87264100  1
  O  O28  1  0.28808500  0.65112600  0.12696600  1
  O  O29  1  0.78799100  0.65101500  0.62701000  1
  O  O30  1  0.36411400  0.92922800  0.04186000  1
  O  O31  1  0.86384000  0.92910200  0.54192700  1
  O  O32  1  0.39914300  0.17222500  0.19011600  1
  O  O33  1  0.89891700  0.17232800  0.69019200  1
  O  O34  1  0.49106600  0.84583700  0.25461700  1
  O  O35  1  0.99098300  0.84574500  0.75468700  1
  O  O36  1  0.55092300  0.53645900  0.26714600  1
  O  O37  1  0.05067700  0.53639600  0.76723400  1
  O  O38  1  0.82733400  0.19800100  0.05201100  1
  O  O39  1  0.32724700  0.19788100  0.55197900  1
  O  O40  1  0.87854400  0.82655500  0.07535200  1
  O  O41  1  0.37839700  0.82655300  0.57546700  1
