# generated using pymatgen
data_FeOF
_symmetry_space_group_name_H-M   'P 1'
_cell_length_a   3.11859500
_cell_length_b   14.16493400
_cell_length_c   14.24144402
_cell_angle_alpha   89.93552463
_cell_angle_beta   90.00000000
_cell_angle_gamma   90.00000000
_symmetry_Int_Tables_number   1
_chemical_formula_structural   FeOF
_chemical_formula_sum   'Fe18 O18 F18'
_cell_volume   629.11100972
_cell_formula_units_Z   18
loop_
 _symmetry_equiv_pos_site_id
 _symmetry_equiv_pos_as_xyz
  1  'x, y, z'
loop_
 _atom_site_type_symbol
 _atom_site_label
 _atom_site_symmetry_multiplicity
 _atom_site_fract_x
 _atom_site_fract_y
 _atom_site_fract_z
 _atom_site_occupancy
  Fe  Fe0  1  0.00000000  0.98702200  0.00361200  1
  Fe  Fe1  1  0.00000000  0.98780800  0.66767600  1
  Fe  Fe2  1  0.00000000  0.99349300  0.34131800  1
  Fe  Fe3  1  0.50000000  0.84825700  0.83456800  1
  Fe  Fe4  1  0.50000000  0.84762800  0.50134700  1
  Fe  Fe5  1  0.50000000  0.85162200  0.17478500  1
  Fe  Fe6  1  0.00000000  0.66022600  0.00848600  1
  Fe  Fe7  1  0.00000000  0.65430100  0.66927900  1
  Fe  Fe8  1  0.00000000  0.65492400  0.33612500  1
  Fe  Fe9  1  0.50000000  0.51289300  0.50213700  1
  Fe  Fe10  1  0.50000000  0.49500700  0.81740300  1
  Fe  Fe11  1  0.50000000  0.51183800  0.17023000  1
  Fe  Fe12  1  0.00000000  0.31986200  0.00262000  1
  Fe  Fe13  1  0.00000000  0.32697100  0.67545100  1
  Fe  Fe14  1  0.00000000  0.31923400  0.33691900  1
  Fe  Fe15  1  0.50000000  0.17919500  0.83496000  1
  Fe  Fe16  1  0.50000000  0.16097100  0.48453700  1
  Fe  Fe17  1  0.50000000  0.17941800  0.16981500  1
  O  O18  1  0.50000000  0.93576600  0.73042200  1
  O  O19  1  0.50000000  0.93310700  0.39700400  1
  O  O20  1  0.50000000  0.93603500  0.06622600  1
  O  O21  1  0.00000000  0.89707000  0.89916600  1
  O  O22  1  0.00000000  0.89925800  0.56426400  1
  O  O23  1  0.00000000  0.90098900  0.23457000  1
  O  O24  1  0.50000000  0.60489100  0.73483700  1
  O  O25  1  0.50000000  0.60206200  0.39776100  1
  O  O26  1  0.50000000  0.60162900  0.06268300  1
  O  O27  1  0.00000000  0.56421100  0.56585400  1
  O  O28  1  0.00000000  0.56634400  0.23002700  1
  O  O29  1  0.00000000  0.43274200  0.76552800  1
  O  O30  1  0.50000000  0.26380900  0.72636900  1
  O  O31  1  0.50000000  0.27067200  0.40061400  1
  O  O32  1  0.50000000  0.26862400  0.06445200  1
  O  O33  1  0.00000000  0.23292800  0.89654300  1
  O  O34  1  0.00000000  0.23244600  0.23138100  1
  O  O35  1  0.00000000  0.09994600  0.43241600  1
  F  F36  1  0.00000000  0.76857700  0.76772100  1
  F  F37  1  0.00000000  0.76749700  0.43310100  1
  F  F38  1  0.00000000  0.76843600  0.10183400  1
  F  F39  1  0.50000000  0.72977500  0.93445200  1
  F  F40  1  0.50000000  0.73274700  0.26746900  1
  F  F41  1  0.50000000  0.73239700  0.60077400  1
  F  F42  1  0.00000000  0.56566000  0.89831500  1
  F  F43  1  0.00000000  0.43584900  0.43297100  1
  F  F44  1  0.00000000  0.43514300  0.10096200  1
  F  F45  1  0.50000000  0.40314700  0.93676400  1
  F  F46  1  0.50000000  0.39477800  0.59576200  1
  F  F47  1  0.50000000  0.39961700  0.26696100  1
  F  F48  1  0.00000000  0.23010400  0.56327700  1
  F  F49  1  0.00000000  0.10041900  0.76839100  1
  F  F50  1  0.00000000  0.10198000  0.09940400  1
  F  F51  1  0.50000000  0.06546000  0.93381900  1
  F  F52  1  0.50000000  0.06865300  0.60366300  1
  F  F53  1  0.50000000  0.06656100  0.26297800  1
