# generated using pymatgen
data_Na3MnO3
_symmetry_space_group_name_H-M   'P 1'
_cell_length_a   5.91026664
_cell_length_b   6.57870561
_cell_length_c   11.58665755
_cell_angle_alpha   90.54809921
_cell_angle_beta   89.38208795
_cell_angle_gamma   65.81208543
_symmetry_Int_Tables_number   1
_chemical_formula_structural   Na3MnO3
_chemical_formula_sum   'Na12 Mn4 O12'
_cell_volume   410.88717511
_cell_formula_units_Z   4
loop_
 _symmetry_equiv_pos_site_id
 _symmetry_equiv_pos_as_xyz
  1  'x, y, z'
loop_
 _atom_site_type_symbol
 _atom_site_label
 _atom_site_symmetry_multiplicity
 _atom_site_fract_x
 _atom_site_fract_y
 _atom_site_fract_z
 _atom_site_occupancy
  Na  Na0  1  0.76481400  0.44869800  0.03268300  1
  Na  Na1  1  0.76490600  0.44882700  0.53271200  1
  Na  Na2  1  0.23508800  0.55119500  0.46728900  1
  Na  Na3  1  0.23518900  0.55130400  0.96732100  1
  Na  Na4  1  0.77005000  0.98029900  0.06120200  1
  Na  Na5  1  0.77012400  0.98011900  0.56126400  1
  Na  Na6  1  0.22988500  0.01987800  0.43873700  1
  Na  Na7  1  0.22995200  0.01970100  0.93880800  1
  Na  Na8  1  0.24023700  0.77435900  0.22287900  1
  Na  Na9  1  0.24028000  0.77429800  0.72295100  1
  Na  Na10  1  0.75972200  0.22569400  0.27705100  1
  Na  Na11  1  0.75976600  0.22564500  0.77712400  1
  Mn  Mn12  1  0.19848000  0.31749800  0.69240600  1
  Mn  Mn13  1  0.80154500  0.68246500  0.30757100  1
  Mn  Mn14  1  0.19817400  0.31788500  0.19217000  1
  Mn  Mn15  1  0.80172800  0.68212700  0.80782900  1
  O  O16  1  0.10017100  0.10724800  0.12577800  1
  O  O17  1  0.10021100  0.10718100  0.62581900  1
  O  O18  1  0.89980700  0.89278800  0.37416700  1
  O  O19  1  0.89984400  0.89274900  0.87422500  1
  O  O20  1  0.47561500  0.32684400  0.11769400  1
  O  O21  1  0.47569400  0.32665500  0.61781400  1
  O  O22  1  0.52432400  0.67334900  0.38217700  1
  O  O23  1  0.52437600  0.67319200  0.88232500  1
  O  O24  1  0.94426700  0.64303700  0.15451300  1
  O  O25  1  0.94439100  0.64270100  0.65477000  1
  O  O26  1  0.05559900  0.35731000  0.34524500  1
  O  O27  1  0.05576100  0.35695400  0.84547400  1
