# generated using pymatgen
data_FeOF
_symmetry_space_group_name_H-M   'P 1'
_cell_length_a   6.13785200
_cell_length_b   9.53862602
_cell_length_c   9.54458751
_cell_angle_alpha   89.90294745
_cell_angle_beta   89.84746460
_cell_angle_gamma   89.99675037
_symmetry_Int_Tables_number   1
_chemical_formula_structural   FeOF
_chemical_formula_sum   'Fe16 O16 F16'
_cell_volume   558.80107827
_cell_formula_units_Z   16
loop_
 _symmetry_equiv_pos_site_id
 _symmetry_equiv_pos_as_xyz
  1  'x, y, z'
loop_
 _atom_site_type_symbol
 _atom_site_label
 _atom_site_symmetry_multiplicity
 _atom_site_fract_x
 _atom_site_fract_y
 _atom_site_fract_z
 _atom_site_occupancy
  Fe  Fe0  1  0.01552600  0.23900600  0.73657700  1
  Fe  Fe1  1  0.48456000  0.26043200  0.76411400  1
  Fe  Fe2  1  0.99896200  0.26103100  0.26366100  1
  Fe  Fe3  1  0.49887700  0.23909800  0.23649400  1
  Fe  Fe4  1  0.26628700  0.51685400  0.97987800  1
  Fe  Fe5  1  0.73371300  0.48314600  0.02012200  1
  Fe  Fe6  1  0.23494100  0.48781100  0.51231900  1
  Fe  Fe7  1  0.76505900  0.51218900  0.48768100  1
  Fe  Fe8  1  0.98447400  0.76099400  0.26342300  1
  Fe  Fe9  1  0.51544000  0.73956800  0.23588600  1
  Fe  Fe10  1  0.00103800  0.73896900  0.73633900  1
  Fe  Fe11  1  0.50112300  0.76090200  0.76350600  1
  Fe  Fe12  1  0.26501900  0.01099800  0.98880700  1
  Fe  Fe13  1  0.73498100  0.98900200  0.01119300  1
  Fe  Fe14  1  0.23377900  0.01978700  0.48297800  1
  Fe  Fe15  1  0.76622100  0.98021300  0.51702200  1
  O  O16  1  0.75202300  0.33955300  0.16150800  1
  O  O17  1  0.25413400  0.34566800  0.65437800  1
  O  O18  1  0.50437500  0.40378000  0.90460200  1
  O  O19  1  0.00012400  0.40358200  0.40482900  1
  O  O20  1  0.49562500  0.59622000  0.09539800  1
  O  O21  1  0.99987600  0.59641800  0.59517100  1
  O  O22  1  0.74586600  0.65433200  0.34562200  1
  O  O23  1  0.24797700  0.66044700  0.83849200  1
  O  O24  1  0.75423100  0.84640900  0.15331000  1
  O  O25  1  0.74825300  0.83852800  0.66044900  1
  O  O26  1  0.50042600  0.90348200  0.90472600  1
  O  O27  1  0.00405500  0.90334300  0.40495600  1
  O  O28  1  0.49957400  0.09651800  0.09527400  1
  O  O29  1  0.99594500  0.09665700  0.59504400  1
  O  O30  1  0.24576900  0.15359100  0.84669000  1
  O  O31  1  0.25174700  0.16147200  0.33955100  1
  F  F32  1  0.24397300  0.35224800  0.14584800  1
  F  F33  1  0.74584000  0.34597000  0.65348700  1
  F  F34  1  0.99578000  0.40501100  0.90378300  1
  F  F35  1  0.49976600  0.40498100  0.40409200  1
  F  F36  1  0.00422000  0.59498900  0.09621700  1
  F  F37  1  0.50023400  0.59501900  0.59590800  1
  F  F38  1  0.75602700  0.64775200  0.85415200  1
  F  F39  1  0.25416000  0.65403000  0.34651300  1
  F  F40  1  0.24595000  0.84575500  0.15383800  1
  F  F41  1  0.25652900  0.85348500  0.64719100  1
  F  F42  1  0.00052800  0.90485300  0.90405400  1
  F  F43  1  0.49591900  0.90469300  0.40408500  1
  F  F44  1  0.99947200  0.09514700  0.09594600  1
  F  F45  1  0.50408100  0.09530700  0.59591500  1
  F  F46  1  0.75405000  0.15424500  0.84616200  1
  F  F47  1  0.74347100  0.14651500  0.35280900  1
