# generated using pymatgen
data_Mn6O5F7
_symmetry_space_group_name_H-M   'P 1'
_cell_length_a   5.13948000
_cell_length_b   5.74930642
_cell_length_c   14.55828655
_cell_angle_alpha   86.20939547
_cell_angle_beta   87.92856239
_cell_angle_gamma   89.20789212
_symmetry_Int_Tables_number   1
_chemical_formula_structural   Mn6O5F7
_chemical_formula_sum   'Mn12 O10 F14'
_cell_volume   428.92495739
_cell_formula_units_Z   2
loop_
 _symmetry_equiv_pos_site_id
 _symmetry_equiv_pos_as_xyz
  1  'x, y, z'
loop_
 _atom_site_type_symbol
 _atom_site_label
 _atom_site_symmetry_multiplicity
 _atom_site_fract_x
 _atom_site_fract_y
 _atom_site_fract_z
 _atom_site_occupancy
  Mn  Mn0  1  0.02314000  0.12451700  0.00708600  1
  Mn  Mn1  1  0.50926000  0.89317000  0.17784500  1
  Mn  Mn2  1  0.01989100  0.12514400  0.33873100  1
  Mn  Mn3  1  0.48522100  0.90726000  0.49701900  1
  Mn  Mn4  1  0.01046300  0.10906900  0.66416100  1
  Mn  Mn5  1  0.49509300  0.91710600  0.83412100  1
  Mn  Mn6  1  0.98478100  0.54735700  0.16923100  1
  Mn  Mn7  1  0.52974200  0.42408800  0.99647200  1
  Mn  Mn8  1  0.45587300  0.41976300  0.65764500  1
  Mn  Mn9  1  0.96516000  0.55710200  0.49861500  1
  Mn  Mn10  1  0.50036100  0.39441700  0.33237500  1
  Mn  Mn11  1  0.99579400  0.49525400  0.83518800  1
  O  O12  1  0.32099600  0.13980000  0.40704300  1
  O  O13  1  0.27724800  0.19095700  0.74652000  1
  O  O14  1  0.83349800  0.36280800  0.06862700  1
  O  O15  1  0.18336700  0.35902100  0.25985000  1
  O  O16  1  0.16124600  0.35209000  0.58482800  1
  O  O17  1  0.20817200  0.36817600  0.93253800  1
  O  O18  1  0.81752800  0.34464100  0.40306900  1
  O  O19  1  0.69289800  0.62304000  0.90010300  1
  O  O20  1  0.64157400  0.62225400  0.56464200  1
  O  O21  1  0.67117000  0.60720300  0.23973400  1
  F  F22  1  0.71482300  0.11547400  0.25737300  1
  F  F23  1  0.36894600  0.14995900  0.08467500  1
  F  F24  1  0.67869800  0.12127200  0.59173700  1
  F  F25  1  0.71612200  0.14132600  0.91216400  1
  F  F26  1  0.77633300  0.39977300  0.73132600  1
  F  F27  1  0.32011400  0.63284300  0.09820000  1
  F  F28  1  0.29911500  0.63193600  0.42263900  1
  F  F29  1  0.29947300  0.66738700  0.75799600  1
  F  F30  1  0.83835100  0.87013700  0.41874700  1
  F  F31  1  0.85443400  0.87237200  0.09076100  1
  F  F32  1  0.83167100  0.89104400  0.75081800  1
  F  F33  1  0.15142300  0.84995500  0.57665700  1
  F  F34  1  0.20052700  0.89167300  0.93440200  1
  F  F35  1  0.16749200  0.88061400  0.25706200  1
