# generated using pymatgen
data_Co(PO3)3
_symmetry_space_group_name_H-M   'P 1'
_cell_length_a   6.35198800
_cell_length_b   9.95800500
_cell_length_c   10.80575600
_cell_angle_alpha   90.00000000
_cell_angle_beta   90.00000000
_cell_angle_gamma   90.00000000
_symmetry_Int_Tables_number   1
_chemical_formula_structural   Co(PO3)3
_chemical_formula_sum   'Co4 P12 O36'
_cell_volume   683.49787026
_cell_formula_units_Z   4
loop_
 _symmetry_equiv_pos_site_id
 _symmetry_equiv_pos_as_xyz
  1  'x, y, z'
loop_
 _atom_site_type_symbol
 _atom_site_label
 _atom_site_symmetry_multiplicity
 _atom_site_fract_x
 _atom_site_fract_y
 _atom_site_fract_z
 _atom_site_occupancy
  Co  Co0  1  0.00000000  0.00000000  0.00000000  1
  Co  Co1  1  0.50000000  0.00000000  0.50000000  1
  Co  Co2  1  0.00000000  0.50000000  0.50000000  1
  Co  Co3  1  0.50000000  0.50000000  0.00000000  1
  P  P4  1  0.75000000  0.91810700  0.75000000  1
  P  P5  1  0.36128100  0.78924900  0.86805000  1
  P  P6  1  0.13871900  0.78924900  0.63195000  1
  P  P7  1  0.86128100  0.71075100  0.13195000  1
  P  P8  1  0.63871900  0.71075100  0.36805000  1
  P  P9  1  0.25000000  0.58189300  0.25000000  1
  P  P10  1  0.75000000  0.41810700  0.75000000  1
  P  P11  1  0.36128100  0.28924900  0.63195000  1
  P  P12  1  0.13871900  0.28924900  0.86805000  1
  P  P13  1  0.63871900  0.21075100  0.13195000  1
  P  P14  1  0.86128100  0.21075100  0.36805000  1
  P  P15  1  0.25000000  0.08189300  0.25000000  1
  O  O16  1  0.14956600  0.99547600  0.15189500  1
  O  O17  1  0.35043400  0.99547600  0.34810500  1
  O  O18  1  0.24206200  0.91950100  0.59685300  1
  O  O19  1  0.25793800  0.91950100  0.90314700  1
  O  O20  1  0.61279400  0.81490700  0.46683100  1
  O  O21  1  0.88720600  0.81490700  0.03316900  1
  O  O22  1  0.59150100  0.81518200  0.80994300  1
  O  O23  1  0.90849900  0.81518200  0.69005700  1
  O  O24  1  0.75000000  0.78029000  0.25000000  1
  O  O25  1  0.25000000  0.71971000  0.75000000  1
  O  O26  1  0.09150100  0.68481800  0.19005700  1
  O  O27  1  0.40849900  0.68481800  0.30994300  1
  O  O28  1  0.11279400  0.68509300  0.53316900  1
  O  O29  1  0.38720600  0.68509300  0.96683100  1
  O  O30  1  0.75793800  0.58049900  0.09685300  1
  O  O31  1  0.74206200  0.58049900  0.40314700  1
  O  O32  1  0.85043400  0.50452400  0.65189500  1
  O  O33  1  0.64956600  0.50452400  0.84810500  1
  O  O34  1  0.35043400  0.49547600  0.15189500  1
  O  O35  1  0.14956600  0.49547600  0.34810500  1
  O  O36  1  0.25793800  0.41950100  0.59685300  1
  O  O37  1  0.24206200  0.41950100  0.90314700  1
  O  O38  1  0.61279400  0.31490700  0.03316900  1
  O  O39  1  0.88720600  0.31490700  0.46683100  1
  O  O40  1  0.59150100  0.31518200  0.69005700  1
  O  O41  1  0.90849900  0.31518200  0.80994300  1
  O  O42  1  0.75000000  0.28029000  0.25000000  1
  O  O43  1  0.25000000  0.21971000  0.75000000  1
  O  O44  1  0.40849900  0.18481800  0.19005700  1
  O  O45  1  0.09150100  0.18481800  0.30994300  1
  O  O46  1  0.38720600  0.18509300  0.53316900  1
  O  O47  1  0.11279400  0.18509300  0.96683100  1
  O  O48  1  0.74206200  0.08049900  0.09685300  1
  O  O49  1  0.75793800  0.08049900  0.40314700  1
  O  O50  1  0.64956600  0.00452400  0.65189500  1
  O  O51  1  0.85043400  0.00452400  0.84810500  1
