# generated using pymatgen
data_AgC3N3O2
_symmetry_space_group_name_H-M   'P 1'
_cell_length_a   7.90028019
_cell_length_b   15.43591906
_cell_length_c   19.26077055
_cell_angle_alpha   70.95628730
_cell_angle_beta   78.12626653
_cell_angle_gamma   75.16838750
_symmetry_Int_Tables_number   1
_chemical_formula_structural   AgC3N3O2
_chemical_formula_sum   'Ag16 C48 N48 O32'
_cell_volume   2127.00036190
_cell_formula_units_Z   16
loop_
 _symmetry_equiv_pos_site_id
 _symmetry_equiv_pos_as_xyz
  1  'x, y, z'
loop_
 _atom_site_type_symbol
 _atom_site_label
 _atom_site_symmetry_multiplicity
 _atom_site_fract_x
 _atom_site_fract_y
 _atom_site_fract_z
 _atom_site_occupancy
  Ag  Ag0  1  0.63792475  0.43205923  0.78523021  1
  Ag  Ag1  1  0.85355988  0.06694755  0.71487313  1
  Ag  Ag2  1  0.09023847  0.14590590  0.07450180  1
  Ag  Ag3  1  0.14490440  0.42631042  0.94917740  1
  Ag  Ag4  1  0.90925534  0.85324468  0.92646819  1
  Ag  Ag5  1  0.48226360  0.92728191  0.44876520  1
  Ag  Ag6  1  0.77122225  0.45390223  0.32238633  1
  Ag  Ag7  1  0.22466271  0.54586177  0.67813576  1
  Ag  Ag8  1  0.68872026  0.64821372  0.57372403  1
  Ag  Ag9  1  0.45068523  0.95379855  0.82204210  1
  Ag  Ag10  1  0.85572411  0.57375249  0.05158507  1
  Ag  Ag11  1  0.36411873  0.56648773  0.21403254  1
  Ag  Ag12  1  0.14603153  0.93314322  0.28581069  1
  Ag  Ag13  1  0.31034815  0.35367246  0.42566376  1
  Ag  Ag14  1  0.54965027  0.04658458  0.17847741  1
  Ag  Ag15  1  0.52010001  0.07278852  0.55153364  1
  C  C16  1  0.19453611  0.32489702  0.21536557  1
  C  C17  1  0.09393249  0.08205974  0.38920223  1
  C  C18  1  0.63270350  0.11300748  0.33263107  1
  C  C19  1  0.80445371  0.67482725  0.78536787  1
  C  C20  1  0.75700867  0.39235994  0.54092094  1
  C  C21  1  0.28251791  0.58242357  0.39292420  1
  C  C22  1  0.51471381  0.12140973  0.99221598  1
  C  C23  1  0.30819625  0.89272653  0.04111300  1
  C  C24  1  0.69642550  0.75404855  0.33910020  1
  C  C25  1  0.36566262  0.88719425  0.66726845  1
  C  C26  1  0.81902784  0.84724084  0.53083672  1
  C  C27  1  0.30391620  0.24519632  0.66111833  1
  C  C28  1  0.27393473  0.16004885  0.84327455  1
  C  C29  1  0.48432137  0.87935936  0.00786107  1
  C  C30  1  0.96687454  0.70051781  0.16552891  1
  C  C31  1  0.78931009  0.74598496  0.16139993  1
  C  C32  1  0.56442546  0.41728516  0.11083033  1
  C  C33  1  0.90877094  0.91857346  0.61090602  1
  C  C34  1  0.71796146  0.41739828  0.60706981  1
  C  C35  1  0.74240662  0.08293806  0.89285245  1
  C  C36  1  0.24251849  0.60727767  0.45925130  1
  C  C37  1  0.37168108  0.62126942  0.49239801  1
  C  C38  1  0.25451628  0.74075603  0.70432700  1
  C  C39  1  0.83327627  0.79934337  0.33405474  1
  C  C40  1  0.72311101  0.65947696  0.34377509  1
  C  C41  1  0.19681557  0.65279792  0.96919416  1
  C  C42  1  0.94718104  0.87411445  0.55485008  1
  C  C43  1  0.25671763  0.91802136  0.10711764  1
  C  C44  1  0.03398246  0.29972358  0.83484473  1
  C  C45  1  0.80576370  0.34602336  0.03062257  1
  C  C46  1  0.92186373  0.61179879  0.83325588  1
  C  C47  1  0.62686841  0.37914727  0.50792098  1
  C  C48  1  0.69107445  0.10767831  0.95914873  1
  C  C49  1  0.07729025  0.38750020  0.16704666  1
  C  C50  1  0.43736562  0.58154767  0.88876413  1
  C  C51  1  0.72777527  0.84074651  0.15705475  1
  C  C52  1  0.16807769  0.19965037  0.66495769  1
  C  C53  1  0.37559127  0.62555382  0.94509494  1
  C  C54  1  0.70159119  0.75836058  0.79694493  1
  C  C55  1  0.27524408  0.33997909  0.65652175  1
  C  C56  1  0.26308068  0.82443003  0.71540753  1
  C  C57  1  0.21159051  0.25469020  0.83896878  1
  C  C58  1  0.62694813  0.37291353  0.05476543  1
  C  C59  1  0.73564193  0.17558575  0.28459335  1
  C  C60  1  0.18319013  0.15338919  0.46937307  1
  C  C61  1  0.29780357  0.24116837  0.20408457  1
  C  C62  1  0.05561658  0.12658038  0.44508134  1
  C  C63  1  0.74315595  0.25942506  0.29564103  1
  N  N64  1  0.50912493  0.45568627  0.15668730  1
  N  N65  1  0.02098278  0.55871591  0.87254845  1
  N  N66  1  0.67940307  0.44099529  0.66127342  1
  N  N67  1  0.97822328  0.44038213  0.12759387  1
  N  N68  1  0.94684067  0.83857176  0.32743762  1
  N  N69  1  0.06789273  0.61735149  0.49383435  1
  N  N70  1  0.11357273  0.66136369  0.17111115  1
  N  N71  1  0.25474028  0.41881601  0.65368548  1
  N  N72  1  0.48056964  0.63162777  0.52042332  1
  N  N73  1  0.32141321  0.55921627  0.33852241  1
  N  N74  1  0.75114439  0.32888022  0.30575643  1
  N  N75  1  0.33690944  0.30906010  0.82996981  1
  N  N76  1  0.70814067  0.82643511  0.51067850  1
  N  N77  1  0.45083724  0.94046684  0.62808408  1
  N  N78  1  0.54727686  0.05992291  0.37188760  1
  N  N79  1  0.05546377  0.16023796  0.67039472  1
  N  N80  1  0.61283613  0.82761201  0.80706961  1
  N  N81  1  0.67209690  0.91945245  0.15457260  1
  N  N82  1  0.63190080  0.86964096  0.98009866  1
  N  N83  1  0.49953053  0.63366556  0.98426899  1
  N  N84  1  0.93170472  0.38118919  0.50630332  1
  N  N85  1  0.84487513  0.14843213  0.22506792  1
  N  N86  1  0.82055986  0.11782641  0.99386038  1
  N  N87  1  0.88403214  0.13474218  0.48431818  1
  N  N88  1  0.24552822  0.67133946  0.69440138  1
  N  N89  1  0.87853485  0.95696127  0.65681240  1
  N  N90  1  0.11832541  0.86587752  0.51537918  1
  N  N91  1  0.21667272  0.35170672  0.27502788  1
  N  N92  1  0.49174153  0.54371453  0.84249305  1
  N  N93  1  0.36721455  0.13127471  0.02007827  1
  N  N94  1  0.74198429  0.58080489  0.34652048  1
  N  N95  1  0.12345344  0.04349899  0.34342297  1
  N  N96  1  0.95788657  0.32527108  0.01059304  1
  N  N97  1  0.52543962  0.80830865  0.33070068  1
  N  N98  1  0.15538902  0.85125077  0.77537197  1
  N  N99  1  0.21846490  0.94175644  0.16126023  1
  N  N100  1  0.78226148  0.64901766  0.72518028  1
  N  N101  1  0.47507395  0.19148609  0.67017850  1
  N  N102  1  0.29445087  0.17378551  0.48950659  1
  N  N103  1  0.32940934  0.08131517  0.84578211  1
  N  N104  1  0.17842105  0.88233719  0.00654095  1
  N  N105  1  0.78091020  0.05981353  0.83843472  1
  N  N106  1  0.04476670  0.67363114  0.98929564  1
  N  N107  1  0.51724839  0.36915461  0.48010364  1
  N  N108  1  0.66303989  0.69241321  0.16999172  1
  N  N109  1  0.50307990  0.36517604  0.01526969  1
  N  N110  1  0.38599287  0.17165756  0.19423432  1
  N  N111  1  0.88710384  0.33847618  0.82923929  1
  O  O112  1  0.95108941  0.60609843  0.46404547  1
  O  O113  1  0.49764618  0.27191797  0.82582536  1
  O  O114  1  0.96692964  0.36195221  0.44499425  1
  O  O115  1  0.12967585  0.42872014  0.28350583  1
  O  O116  1  0.59304222  0.22907659  0.67506225  1
  O  O117  1  0.84441402  0.07102077  0.21699455  1
  O  O118  1  0.77351388  0.10222201  0.46474317  1
  O  O119  1  0.04960375  0.39096050  0.53641296  1
  O  O120  1  0.34037501  0.39695966  0.03538237  1
  O  O121  1  0.94286950  0.20276224  0.18110637  1
  O  O122  1  0.22267667  0.86283117  0.94540731  1
  O  O123  1  0.50262804  0.73002252  0.17453416  1
  O  O124  1  0.15668228  0.92842779  0.78352263  1
  O  O125  1  0.50276320  0.10489462  0.67432866  1
  O  O126  1  0.49917187  0.89477866  0.32614729  1
  O  O127  1  0.86721523  0.57184062  0.71648206  1
  O  O128  1  0.28066280  0.39554326  0.82579159  1
  O  O129  1  0.03136028  0.63735770  0.55488554  1
  O  O130  1  0.05802193  0.79677067  0.81970534  1
  O  O131  1  0.71797479  0.60592718  0.17400704  1
  O  O132  1  0.22943294  0.89759167  0.53529431  1
  O  O133  1  0.32460730  0.29701301  0.31900183  1
  O  O134  1  0.02063298  0.89255622  0.03681772  1
  O  O135  1  0.55273016  0.32978042  0.96324743  1
  O  O136  1  0.45010387  0.66971524  0.03594775  1
  O  O137  1  0.67464259  0.70429618  0.68130476  1
  O  O138  1  0.77567528  0.13720313  0.05511340  1
  O  O139  1  0.97849842  0.10690871  0.96412772  1
  O  O140  1  0.15543647  0.83039181  0.46343604  1
  O  O141  1  0.84543148  0.17076130  0.53597445  1
  O  O142  1  0.66215723  0.60127761  0.96465287  1
  O  O143  1  0.40578275  0.77126811  0.32650457  1
