# generated using pymatgen
data_Na7(WO3)9
_symmetry_space_group_name_H-M   'P 1'
_cell_length_a   6.75247800
_cell_length_b   8.72452608
_cell_length_c   9.55180927
_cell_angle_alpha   100.51632018
_cell_angle_beta   89.96217995
_cell_angle_gamma   104.99007721
_symmetry_Int_Tables_number   1
_chemical_formula_structural   Na7(WO3)9
_chemical_formula_sum   'Na7 W9 O27'
_cell_volume   533.79627178
_cell_formula_units_Z   1
loop_
 _symmetry_equiv_pos_site_id
 _symmetry_equiv_pos_as_xyz
  1  'x, y, z'
loop_
 _atom_site_type_symbol
 _atom_site_label
 _atom_site_symmetry_multiplicity
 _atom_site_fract_x
 _atom_site_fract_y
 _atom_site_fract_z
 _atom_site_occupancy
  Na  Na0  1  0.00000000  0.50000000  0.00000000  1
  Na  Na1  1  0.66635200  0.50054100  0.33308300  1
  Na  Na2  1  0.22297900  0.16597300  0.11074100  1
  Na  Na3  1  0.33364800  0.49945900  0.66691700  1
  Na  Na4  1  0.11223900  0.83404100  0.55561900  1
  Na  Na5  1  0.88776100  0.16595900  0.44438100  1
  Na  Na6  1  0.77702100  0.83402700  0.88925900  1
  W  W7  1  0.50000000  0.50000000  0.00000000  1
  W  W8  1  0.71975900  0.16502100  0.10976300  1
  W  W9  1  0.38935600  0.16416700  0.44462400  1
  W  W10  1  0.61064400  0.83583300  0.55537600  1
  W  W11  1  0.16843300  0.50190900  0.33255900  1
  W  W12  1  0.94382400  0.83372300  0.22196300  1
  W  W13  1  0.05617600  0.16627700  0.77803700  1
  W  W14  1  0.28024100  0.83497900  0.89023700  1
  W  W15  1  0.83156700  0.49809100  0.66744100  1
  O  O16  1  0.38881100  0.66512900  0.94170500  1
  O  O17  1  0.61118900  0.33487100  0.05829500  1
  O  O18  1  0.50000000  0.00000000  0.00000000  1
  O  O19  1  0.72499300  0.66482400  0.10992300  1
  O  O20  1  0.89198500  0.16633900  0.94600500  1
  O  O21  1  0.33215500  0.49685400  0.16621400  1
  O  O22  1  0.10801500  0.83366100  0.05399500  1
  O  O23  1  0.55647300  0.16952600  0.27830400  1
  O  O24  1  0.72199900  0.66633300  0.61122400  1
  O  O25  1  0.05178100  0.66499400  0.27834800  1
  O  O26  1  0.50000000  0.00000000  0.50000000  1
  O  O27  1  0.27800100  0.33366700  0.38877600  1
  O  O28  1  0.61196800  0.33455200  0.55357700  1
  O  O29  1  0.83690600  0.00157800  0.16581300  1
  O  O30  1  0.16388500  0.00121500  0.33456600  1
  O  O31  1  0.38803200  0.66544800  0.44642300  1
  O  O32  1  0.94465200  0.33370900  0.22217900  1
  O  O33  1  0.21888300  0.16628200  0.60933100  1
  O  O34  1  0.00000000  0.50000000  0.50000000  1
  O  O35  1  0.44352700  0.83047400  0.72169600  1
  O  O36  1  0.66784500  0.50314600  0.83378600  1
  O  O37  1  0.78111700  0.83371800  0.39066900  1
  O  O38  1  0.16309400  0.99842200  0.83418700  1
  O  O39  1  0.94821900  0.33500600  0.72165200  1
  O  O40  1  0.27500700  0.33517600  0.89007700  1
  O  O41  1  0.05534800  0.66629100  0.77782100  1
  O  O42  1  0.83611500  0.99878500  0.66543400  1
