# generated using pymatgen
data_Mn3OF8
_symmetry_space_group_name_H-M   'P 1'
_cell_length_a   5.08076700
_cell_length_b   5.11958250
_cell_length_c   26.71345391
_cell_angle_alpha   90.89694443
_cell_angle_beta   90.15371147
_cell_angle_gamma   119.67167803
_symmetry_Int_Tables_number   1
_chemical_formula_structural   Mn3OF8
_chemical_formula_sum   'Mn12 O4 F32'
_cell_volume   603.62511332
_cell_formula_units_Z   4
loop_
 _symmetry_equiv_pos_site_id
 _symmetry_equiv_pos_as_xyz
  1  'x, y, z'
loop_
 _atom_site_type_symbol
 _atom_site_label
 _atom_site_symmetry_multiplicity
 _atom_site_fract_x
 _atom_site_fract_y
 _atom_site_fract_z
 _atom_site_occupancy
  Mn  Mn0  1  0.19547900  0.84295900  0.83656400  1
  Mn  Mn1  1  0.15418600  0.84115400  0.58648600  1
  Mn  Mn2  1  0.18921000  0.84789600  0.08648000  1
  Mn  Mn3  1  0.15403900  0.84893900  0.33663700  1
  Mn  Mn4  1  0.80452100  0.15704100  0.16343600  1
  Mn  Mn5  1  0.84596100  0.15106100  0.66336300  1
  Mn  Mn6  1  0.84581400  0.15884600  0.41351400  1
  Mn  Mn7  1  0.81079000  0.15210400  0.91352000  1
  Mn  Mn8  1  0.48380400  0.49768300  0.24999800  1
  Mn  Mn9  1  0.51619600  0.50231700  0.75000200  1
  Mn  Mn10  1  0.50000000  0.50000000  0.00000000  1
  Mn  Mn11  1  0.50000000  0.50000000  0.50000000  1
  O  O12  1  0.88425200  0.88127900  0.62410700  1
  O  O13  1  0.11574800  0.11872100  0.37589300  1
  O  O14  1  0.50450100  0.88294300  0.87531500  1
  O  O15  1  0.49549900  0.11705700  0.12468500  1
  F  F16  1  0.88154900  0.88554600  0.12439900  1
  F  F17  1  0.76759800  0.84034400  0.95790400  1
  F  F18  1  0.77605100  0.84131400  0.45848400  1
  F  F19  1  0.11845100  0.11445400  0.87560100  1
  F  F20  1  0.14848900  0.22190400  0.20715700  1
  F  F21  1  0.18129000  0.22953900  0.70796800  1
  F  F22  1  0.50076700  0.89108300  0.37577600  1
  F  F23  1  0.49923300  0.10891700  0.62422400  1
  F  F24  1  0.15928700  0.42888800  0.95874700  1
  F  F25  1  0.16812800  0.44120700  0.45808600  1
  F  F26  1  0.10712100  0.50047500  0.12476500  1
  F  F27  1  0.10879600  0.49617200  0.62513100  1
  F  F28  1  0.42579700  0.16483200  0.29293700  1
  F  F29  1  0.44808400  0.17262800  0.79350300  1
  F  F30  1  0.56002700  0.22894100  0.95687900  1
  F  F31  1  0.57420400  0.23793700  0.45791000  1
  F  F32  1  0.76012500  0.42607300  0.20911300  1
  F  F33  1  0.78196000  0.42236600  0.70833400  1
  F  F34  1  0.89287900  0.49952500  0.87523500  1
  F  F35  1  0.89120400  0.50382800  0.37486900  1
  F  F36  1  0.23240200  0.15965600  0.04209600  1
  F  F37  1  0.22394900  0.15868600  0.54151600  1
  F  F38  1  0.83187200  0.55879300  0.54191400  1
  F  F39  1  0.84071300  0.57111200  0.04125300  1
  F  F40  1  0.85151100  0.77809600  0.79284300  1
  F  F41  1  0.81871000  0.77046100  0.29203200  1
  F  F42  1  0.21804000  0.57763400  0.29166600  1
  F  F43  1  0.23987500  0.57392700  0.79088700  1
  F  F44  1  0.55191600  0.82737200  0.20649700  1
  F  F45  1  0.57420300  0.83516800  0.70706300  1
  F  F46  1  0.42579600  0.76206300  0.54209000  1
  F  F47  1  0.43997300  0.77105900  0.04312100  1
