# generated using pymatgen
data_Li14Cr9(P2O7)8
_symmetry_space_group_name_H-M   'P 1'
_cell_length_a   11.22371600
_cell_length_b   9.67784154
_cell_length_c   12.75737650
_cell_angle_alpha   68.74513866
_cell_angle_beta   116.50700603
_cell_angle_gamma   105.79913447
_symmetry_Int_Tables_number   1
_chemical_formula_structural   Li14Cr9(P2O7)8
_chemical_formula_sum   'Li14 Cr9 P16 O56'
_cell_volume   1145.52020616
_cell_formula_units_Z   1
loop_
 _symmetry_equiv_pos_site_id
 _symmetry_equiv_pos_as_xyz
  1  'x, y, z'
loop_
 _atom_site_type_symbol
 _atom_site_label
 _atom_site_symmetry_multiplicity
 _atom_site_fract_x
 _atom_site_fract_y
 _atom_site_fract_z
 _atom_site_occupancy
  Li  Li0  1  0.13189300  0.93543600  0.59319500  1
  Li  Li1  1  0.02371500  0.64547000  0.39467500  1
  Li  Li2  1  0.37669400  0.04231000  0.91302300  1
  Li  Li3  1  0.12694100  0.43963600  0.08228800  1
  Li  Li4  1  0.37399000  0.54345400  0.40975000  1
  Li  Li5  1  0.49265000  0.35417900  0.82703800  1
  Li  Li6  1  0.50172100  0.85574800  0.31779900  1
  Li  Li7  1  0.49827900  0.14425200  0.68220100  1
  Li  Li8  1  0.50735000  0.64582100  0.17296200  1
  Li  Li9  1  0.62601000  0.45654600  0.59025000  1
  Li  Li10  1  0.87305900  0.56036400  0.91771200  1
  Li  Li11  1  0.62330600  0.95769000  0.08697700  1
  Li  Li12  1  0.97628500  0.35453000  0.60532500  1
  Li  Li13  1  0.86810700  0.06456400  0.40680500  1
  Cr  Cr14  1  0.22036200  0.69899000  0.92078500  1
  Cr  Cr15  1  0.25534800  0.56712300  0.70219300  1
  Cr  Cr16  1  0.22249200  0.19662200  0.42261700  1
  Cr  Cr17  1  0.00000000  0.00000000  0.00000000  1
  Cr  Cr18  1  0.72967200  0.92731700  0.79099600  1
  Cr  Cr19  1  0.27032800  0.07268300  0.20900400  1
  Cr  Cr20  1  0.77750800  0.80337800  0.57738300  1
  Cr  Cr21  1  0.74465200  0.43287700  0.29780700  1
  Cr  Cr22  1  0.77963800  0.30101000  0.07921500  1
  P  P23  1  0.06243300  0.97652000  0.77694100  1
  P  P24  1  0.30503400  0.36035300  0.99320100  1
  P  P25  1  0.06209900  0.47556700  0.27277800  1
  P  P26  1  0.46089800  0.80791800  0.86746000  1
  P  P27  1  0.20951400  0.23576000  0.66153500  1
  P  P28  1  0.30083100  0.85790100  0.49165500  1
  P  P29  1  0.20579600  0.73985900  0.15897800  1
  P  P30  1  0.53470900  0.68547300  0.63093000  1
  P  P31  1  0.46529100  0.31452700  0.36907000  1
  P  P32  1  0.79420400  0.26014100  0.84102200  1
  P  P33  1  0.69916900  0.14209900  0.50834500  1
  P  P34  1  0.79048600  0.76424000  0.33846500  1
  P  P35  1  0.53910200  0.19208200  0.13254000  1
  P  P36  1  0.93790100  0.52443300  0.72722200  1
  P  P37  1  0.69496600  0.63964700  0.00679900  1
  P  P38  1  0.93756700  0.02348000  0.22305900  1
  O  O39  1  0.00095200  0.58193900  0.83995500  1
  O  O40  1  0.19940500  0.92222600  0.86307200  1
  O  O41  1  0.02932400  0.53752500  0.66456400  1
  O  O42  1  0.10035300  0.15805300  0.72827400  1
  O  O43  1  0.31406100  0.74136200  0.79671900  1
  O  O44  1  0.46759500  0.84101000  0.98000600  1
  O  O45  1  0.20407500  0.71539100  0.51925900  1
  O  O46  1  0.27814800  0.98452400  0.52382200  1
  O  O47  1  0.30171900  0.39767900  0.86584100  1
  O  O48  1  0.18390000  0.39789800  0.61367700  1
  O  O49  1  0.10513100  0.65827300  0.23077800  1
  O  O50  1  0.00390400  0.08584500  0.33295900  1
  O  O51  1  0.15841100  0.15909400  0.56013300  1
  O  O52  1  0.30225600  0.90070300  0.36562100  1
  O  O53  1  0.19822400  0.41826000  0.36021100  1
  O  O54  1  0.18108700  0.90515600  0.11003700  1
  O  O55  1  0.51949900  0.94108100  0.78885800  1
  O  O56  1  0.54037200  0.66694500  0.91408300  1
  O  O57  1  0.35151900  0.20241100  0.75260100  1
  O  O58  1  0.02914600  0.04349000  0.15747900  1
  O  O59  1  0.15456900  0.66580400  0.05627900  1
  O  O60  1  0.45073300  0.82226300  0.58763400  1
  O  O61  1  0.48000200  0.55093800  0.71075000  1
  O  O62  1  0.34985600  0.71448700  0.24684900  1
  O  O63  1  0.71988200  0.51082600  0.97846300  1
  O  O64  1  0.78297300  0.78405400  0.96809300  1
  O  O65  1  0.31998300  0.24213600  0.30137200  1
  O  O66  1  0.47139700  0.34345600  0.48278000  1
  O  O67  1  0.52860300  0.65654400  0.51722000  1
  O  O68  1  0.68001700  0.75786400  0.69862800  1
  O  O69  1  0.21702700  0.21594600  0.03190700  1
  O  O70  1  0.28011800  0.48917400  0.02153700  1
  O  O71  1  0.65014400  0.28551300  0.75315100  1
  O  O72  1  0.51999800  0.44906200  0.28925000  1
  O  O73  1  0.54926700  0.17773700  0.41236600  1
  O  O74  1  0.84543000  0.33419600  0.94372100  1
  O  O75  1  0.97085400  0.95651000  0.84252100  1
  O  O76  1  0.64848100  0.79758900  0.24739900  1
  O  O77  1  0.45962800  0.33305500  0.08591700  1
  O  O78  1  0.48050100  0.05891900  0.21114200  1
  O  O79  1  0.81891300  0.09484400  0.88996300  1
  O  O80  1  0.80177600  0.58174000  0.63978900  1
  O  O81  1  0.69774400  0.09929700  0.63437900  1
  O  O82  1  0.84158900  0.84090600  0.43986700  1
  O  O83  1  0.99609600  0.91415500  0.66704100  1
  O  O84  1  0.89486900  0.34172700  0.76922200  1
  O  O85  1  0.81610000  0.60210200  0.38632300  1
  O  O86  1  0.69828100  0.60232100  0.13415900  1
  O  O87  1  0.72185200  0.01547600  0.47617800  1
  O  O88  1  0.79592500  0.28460900  0.48074100  1
  O  O89  1  0.53240500  0.15899000  0.01999400  1
  O  O90  1  0.68593900  0.25863800  0.20328100  1
  O  O91  1  0.89964700  0.84194700  0.27172600  1
  O  O92  1  0.97067600  0.46247500  0.33543600  1
  O  O93  1  0.80059500  0.07777400  0.13692800  1
  O  O94  1  0.99904800  0.41806100  0.16004500  1
