# generated using pymatgen
data_AgS8N9(ClO6)2
_symmetry_space_group_name_H-M   'P 1'
_cell_length_a   12.47709066
_cell_length_b   12.47709066
_cell_length_c   12.47709066
_cell_angle_alpha   109.69349857
_cell_angle_beta   109.69349857
_cell_angle_gamma   109.02757358
_symmetry_Int_Tables_number   1
_chemical_formula_structural   AgS8N9(ClO6)2
_chemical_formula_sum   'Ag2 S16 N18 Cl4 O24'
_cell_volume   1495.19759816
_cell_formula_units_Z   2
loop_
 _symmetry_equiv_pos_site_id
 _symmetry_equiv_pos_as_xyz
  1  'x, y, z'
loop_
 _atom_site_type_symbol
 _atom_site_label
 _atom_site_symmetry_multiplicity
 _atom_site_fract_x
 _atom_site_fract_y
 _atom_site_fract_z
 _atom_site_occupancy
  Ag  Ag0  1  0.75000000  0.25000000  0.50000000  1
  Ag  Ag1  1  0.00000000  0.00000000  0.00000000  1
  S  S2  1  0.50586100  0.13089000  0.19105900  1
  S  S3  1  0.81016900  0.11911000  0.87497100  1
  S  S4  1  0.93983100  0.31480200  0.80894100  1
  S  S5  1  0.24413900  0.93519800  0.12502900  1
  S  S6  1  0.68519800  0.49413900  0.62502900  1
  S  S7  1  0.88089000  0.75586100  0.69105900  1
  S  S8  1  0.86911000  0.06016900  0.37497100  1
  S  S9  1  0.06480200  0.18983100  0.30894100  1
  S  S10  1  0.57858800  0.45003900  0.29864400  1
  S  S11  1  0.59860500  0.79996100  0.62854900  1
  S  S12  1  0.15139500  0.27994400  0.70135600  1
  S  S13  1  0.17141200  0.97005600  0.37145100  1
  S  S14  1  0.72005600  0.42141200  0.87145100  1
  S  S15  1  0.20003900  0.82858800  0.79864400  1
  S  S16  1  0.54996100  0.84860500  0.12854900  1
  S  S17  1  0.02994400  0.40139500  0.20135600  1
  N  N18  1  0.25000000  0.75000000  0.50000000  1
  N  N19  1  0.50000000  0.50000000  0.00000000  1
  N  N20  1  0.89423500  0.39423500  0.50000000  1
  N  N21  1  0.85576500  0.85576500  0.00000000  1
  N  N22  1  0.60576500  0.10576500  0.50000000  1
  N  N23  1  0.14423500  0.14423500  0.00000000  1
  N  N24  1  0.78612400  0.62500000  0.66112400  1
  N  N25  1  0.96387600  0.12500000  0.33887600  1
  N  N26  1  0.87500000  0.21387600  0.83887600  1
  N  N27  1  0.37500000  0.03612400  0.16112400  1
  N  N28  1  0.28286200  0.74146100  0.75567600  1
  N  N29  1  0.76421500  0.50853900  0.04140200  1
  N  N30  1  0.98578500  0.52718600  0.24432400  1
  N  N31  1  0.46713800  0.72281400  0.95859800  1
  N  N32  1  0.47281400  0.71713800  0.45859800  1
  N  N33  1  0.49146100  0.53286200  0.25567600  1
  N  N34  1  0.25853900  0.01421500  0.54140200  1
  N  N35  1  0.27718600  0.23578500  0.74432400  1
  Cl  Cl36  1  0.30336800  0.12500000  0.67836800  1
  Cl  Cl37  1  0.44663200  0.62500000  0.32163200  1
  Cl  Cl38  1  0.37500000  0.69663200  0.82163200  1
  Cl  Cl39  1  0.87500000  0.55336800  0.17836800  1
  O  O40  1  0.71565300  0.54900000  0.38321000  1
  O  O41  1  0.58421000  0.70100000  0.66665200  1
  O  O42  1  0.16579000  0.33244200  0.61679000  1
  O  O43  1  0.03434700  0.91755800  0.33334800  1
  O  O44  1  0.66755800  0.28434700  0.83334800  1
  O  O45  1  0.29900000  0.96565300  0.88321000  1
  O  O46  1  0.45100000  0.83421000  0.16665200  1
  O  O47  1  0.08244200  0.41579000  0.11679000  1
  O  O48  1  0.51420600  0.39453700  0.36056800  1
  O  O49  1  0.71603100  0.85546400  0.61966900  1
  O  O50  1  0.03396900  0.15363800  0.63943200  1
  O  O51  1  0.23579400  0.09636200  0.38033100  1
  O  O52  1  0.84636200  0.48579400  0.88033100  1
  O  O53  1  0.14453700  0.76420600  0.86056800  1
  O  O54  1  0.60546300  0.96603100  0.11966900  1
  O  O55  1  0.90363800  0.28396900  0.13943200  1
  O  O56  1  0.54104600  0.35687400  0.16687400  1
  O  O57  1  0.56000000  0.89312600  0.68417200  1
  O  O58  1  0.19000000  0.37417200  0.83312600  1
  O  O59  1  0.20895400  0.87582800  0.31582800  1
  O  O60  1  0.62582800  0.45895400  0.81582800  1
  O  O61  1  0.10687400  0.79104600  0.66687400  1
  O  O62  1  0.64312600  0.81000000  0.18417200  1
  O  O63  1  0.12417200  0.44000000  0.33312600  1
