# generated using pymatgen
data_LiSn2(PO4)3
_symmetry_space_group_name_H-M   'P 1'
_cell_length_a   8.58668574
_cell_length_b   8.51124660
_cell_length_c   9.13736524
_cell_angle_alpha   61.88708418
_cell_angle_beta   118.40000232
_cell_angle_gamma   120.28062064
_symmetry_Int_Tables_number   1
_chemical_formula_structural   LiSn2(PO4)3
_chemical_formula_sum   'Li2 Sn4 P6 O24'
_cell_volume   483.17081097
_cell_formula_units_Z   2
loop_
 _symmetry_equiv_pos_site_id
 _symmetry_equiv_pos_as_xyz
  1  'x, y, z'
loop_
 _atom_site_type_symbol
 _atom_site_label
 _atom_site_symmetry_multiplicity
 _atom_site_fract_x
 _atom_site_fract_y
 _atom_site_fract_z
 _atom_site_occupancy
  Li  Li0  1  0.93101000  0.31550600  0.86871200  1
  Li  Li1  1  0.06899000  0.68449400  0.13128800  1
  Sn  Sn2  1  0.64181800  0.35024100  0.94713300  1
  Sn  Sn3  1  0.85013900  0.13696500  0.56799400  1
  Sn  Sn4  1  0.14986100  0.86303500  0.43200600  1
  Sn  Sn5  1  0.35818100  0.64975900  0.05286700  1
  P  P6  1  0.96263600  0.74910200  0.75379100  1
  P  P7  1  0.54170800  0.03937900  0.75159800  1
  P  P8  1  0.24599700  0.46032500  0.74585300  1
  P  P9  1  0.75400300  0.53967500  0.25414700  1
  P  P10  1  0.45829200  0.96062100  0.24840200  1
  P  P11  1  0.03736400  0.25089800  0.24620900  1
  O  O12  1  0.82460300  0.53569100  0.79332700  1
  O  O13  1  0.87171300  0.87712600  0.73329800  1
  O  O14  1  0.52365900  0.84512400  0.89679200  1
  O  O15  1  0.74741700  0.12692300  0.74121900  1
  O  O16  1  0.45487600  0.48800500  0.79854400  1
  O  O17  1  0.51469800  0.17847600  0.79282800  1
  O  O18  1  0.20575300  0.47502500  0.89003700  1
  O  O19  1  0.14457900  0.76881300  0.91803400  1
  O  O20  1  0.99187300  0.19565400  0.40967600  1
  O  O21  1  0.11062200  0.25841800  0.73092100  1
  O  O22  1  0.40002900  0.01751400  0.57349700  1
  O  O23  1  0.80068700  0.38803100  0.42864800  1
  O  O24  1  0.19931300  0.61196900  0.57135200  1
  O  O25  1  0.59997100  0.98248600  0.42650300  1
  O  O26  1  0.88937800  0.74158200  0.26907900  1
  O  O27  1  0.00812700  0.80434600  0.59032400  1
  O  O28  1  0.85542100  0.23118700  0.08196600  1
  O  O29  1  0.79424700  0.52497500  0.10996300  1
  O  O30  1  0.48530200  0.82152400  0.20717200  1
  O  O31  1  0.54512400  0.51199500  0.20145600  1
  O  O32  1  0.25258300  0.87307700  0.25878100  1
  O  O33  1  0.47634100  0.15487600  0.10320800  1
  O  O34  1  0.12828700  0.12287400  0.26670200  1
  O  O35  1  0.17539700  0.46430900  0.20667300  1
