# generated using pymatgen
data_V3CoNi2(PO4)6
_symmetry_space_group_name_H-M   'P 1'
_cell_length_a   8.44793180
_cell_length_b   8.44793180
_cell_length_c   8.44793109
_cell_angle_alpha   61.25952773
_cell_angle_beta   61.25952773
_cell_angle_gamma   61.25952841
_symmetry_Int_Tables_number   1
_chemical_formula_structural   V3CoNi2(PO4)6
_chemical_formula_sum   'V3 Co1 Ni2 P6 O24'
_cell_volume   438.39403962
_cell_formula_units_Z   1
loop_
 _symmetry_equiv_pos_site_id
 _symmetry_equiv_pos_as_xyz
  1  'x, y, z'
loop_
 _atom_site_type_symbol
 _atom_site_label
 _atom_site_symmetry_multiplicity
 _atom_site_fract_x
 _atom_site_fract_y
 _atom_site_fract_z
 _atom_site_occupancy
  V  V0  1  0.64311400  0.64311400  0.64311400  1
  V  V1  1  0.85835800  0.85835800  0.85835800  1
  V  V2  1  0.35750200  0.35750200  0.35750200  1
  Co  Co3  1  0.14287100  0.14287100  0.14287100  1
  Ni  Ni4  1  0.00190400  0.00190400  0.00190400  1
  Ni  Ni5  1  0.50061900  0.50061900  0.50061900  1
  P  P6  1  0.95657300  0.24903000  0.54164800  1
  P  P7  1  0.54164800  0.95657300  0.24903000  1
  P  P8  1  0.24903000  0.54164800  0.95657300  1
  P  P9  1  0.75159000  0.45463800  0.04398600  1
  P  P10  1  0.45463800  0.04398600  0.75159000  1
  P  P11  1  0.04398600  0.75159000  0.45463800  1
  O  O12  1  0.50201100  0.11669800  0.31656000  1
  O  O13  1  0.31656000  0.50201100  0.11669800  1
  O  O14  1  0.11669800  0.31656000  0.50201100  1
  O  O15  1  0.94324400  0.08930700  0.74163900  1
  O  O16  1  0.99011100  0.18437300  0.38671400  1
  O  O17  1  0.75802500  0.41233400  0.56055200  1
  O  O18  1  0.74163900  0.94324400  0.08930700  1
  O  O19  1  0.56055200  0.75802500  0.41233400  1
  O  O20  1  0.81510200  0.61624600  0.00495800  1
  O  O21  1  0.41233400  0.56055200  0.75802500  1
  O  O22  1  0.90894100  0.25877800  0.05451600  1
  O  O23  1  0.61624600  0.00495800  0.81510200  1
  O  O24  1  0.38671400  0.99011100  0.18437300  1
  O  O25  1  0.08930700  0.74163900  0.94324400  1
  O  O26  1  0.58895300  0.44112600  0.24268000  1
  O  O27  1  0.18437300  0.38671400  0.99011100  1
  O  O28  1  0.44112600  0.24268000  0.58895300  1
  O  O29  1  0.25877800  0.05451600  0.90894100  1
  O  O30  1  0.24268000  0.58895300  0.44112600  1
  O  O31  1  0.00495800  0.81510200  0.61624600  1
  O  O32  1  0.05451600  0.90894100  0.25877800  1
  O  O33  1  0.88514300  0.67960700  0.50056300  1
  O  O34  1  0.67960700  0.50056300  0.88514300  1
  O  O35  1  0.50056300  0.88514300  0.67960700  1
