# generated using pymatgen
data_AgSO4
_symmetry_space_group_name_H-M   'P 1'
_cell_length_a   7.87921000
_cell_length_b   10.67746700
_cell_length_c   15.20665156
_cell_angle_alpha   88.62847647
_cell_angle_beta   90.00000000
_cell_angle_gamma   90.00000000
_symmetry_Int_Tables_number   1
_chemical_formula_structural   AgSO4
_chemical_formula_sum   'Ag16 S16 O64'
_cell_volume   1278.96915073
_cell_formula_units_Z   16
loop_
 _symmetry_equiv_pos_site_id
 _symmetry_equiv_pos_as_xyz
  1  'x, y, z'
loop_
 _atom_site_type_symbol
 _atom_site_label
 _atom_site_symmetry_multiplicity
 _atom_site_fract_x
 _atom_site_fract_y
 _atom_site_fract_z
 _atom_site_occupancy
  Ag  Ag0  1  0.49019400  0.34555500  0.88960200  1
  Ag  Ag1  1  0.99019400  0.15444500  0.11039800  1
  Ag  Ag2  1  0.50980600  0.65444500  0.11039800  1
  Ag  Ag3  1  0.00980600  0.84555500  0.88960200  1
  Ag  Ag4  1  0.01066800  0.34705700  0.89389400  1
  Ag  Ag5  1  0.51066800  0.15294300  0.10610600  1
  Ag  Ag6  1  0.98933200  0.65294300  0.10610600  1
  Ag  Ag7  1  0.48933200  0.84705700  0.89389400  1
  Ag  Ag8  1  0.51089800  0.59485200  0.60882800  1
  Ag  Ag9  1  0.01089800  0.90514800  0.39117200  1
  Ag  Ag10  1  0.48910200  0.40514800  0.39117200  1
  Ag  Ag11  1  0.98910200  0.09485200  0.60882800  1
  Ag  Ag12  1  0.99668600  0.59778800  0.61354200  1
  Ag  Ag13  1  0.49668600  0.90221200  0.38645800  1
  Ag  Ag14  1  0.00331400  0.40221200  0.38645800  1
  Ag  Ag15  1  0.50331400  0.09778800  0.61354200  1
  S  S16  1  0.76729400  0.35912900  0.70458600  1
  S  S17  1  0.26729400  0.14087100  0.29541400  1
  S  S18  1  0.23270600  0.64087100  0.29541400  1
  S  S19  1  0.73270600  0.85912900  0.70458600  1
  S  S20  1  0.26156500  0.59951600  0.79762600  1
  S  S21  1  0.76156500  0.90048400  0.20237400  1
  S  S22  1  0.73843500  0.40048400  0.20237400  1
  S  S23  1  0.23843500  0.09951600  0.79762600  1
  S  S24  1  0.75741400  0.59262600  0.92736100  1
  S  S25  1  0.25741400  0.90737400  0.07263900  1
  S  S26  1  0.24258600  0.40737400  0.07263900  1
  S  S27  1  0.74258600  0.09262600  0.92736100  1
  S  S28  1  0.25696800  0.33625600  0.57185700  1
  S  S29  1  0.75696800  0.16374400  0.42814300  1
  S  S30  1  0.74303200  0.66374400  0.42814300  1
  S  S31  1  0.24303200  0.83625600  0.57185700  1
  O  O32  1  0.77200300  0.48293800  0.65150800  1
  O  O33  1  0.27200300  0.01706200  0.34849200  1
  O  O34  1  0.22799700  0.51706200  0.34849200  1
  O  O35  1  0.72799700  0.98293800  0.65150800  1
  O  O36  1  0.76532400  0.25343300  0.64360400  1
  O  O37  1  0.26532400  0.24656700  0.35639600  1
  O  O38  1  0.23467600  0.74656700  0.35639600  1
  O  O39  1  0.73467600  0.75343300  0.64360400  1
  O  O40  1  0.60773200  0.36432600  0.75555300  1
  O  O41  1  0.10773200  0.13567400  0.24444700  1
  O  O42  1  0.39226800  0.63567400  0.24444700  1
  O  O43  1  0.89226800  0.86432600  0.75555300  1
  O  O44  1  0.92452400  0.35136600  0.75814200  1
  O  O45  1  0.42452400  0.14863400  0.24185800  1
  O  O46  1  0.07547600  0.64863400  0.24185800  1
  O  O47  1  0.57547600  0.85136600  0.75814200  1
  O  O48  1  0.26051800  0.71084400  0.85653400  1
  O  O49  1  0.76051800  0.78915600  0.14346600  1
  O  O50  1  0.73948200  0.28915600  0.14346600  1
  O  O51  1  0.23948200  0.21084400  0.85653400  1
  O  O52  1  0.09785800  0.59957000  0.74906100  1
  O  O53  1  0.59785800  0.90043000  0.25093900  1
  O  O54  1  0.90214200  0.40043000  0.25093900  1
  O  O55  1  0.40214200  0.09957000  0.74906100  1
  O  O56  1  0.26795400  0.48088900  0.85231800  1
  O  O57  1  0.76795400  0.01911100  0.14768200  1
  O  O58  1  0.73204600  0.51911100  0.14768200  1
  O  O59  1  0.23204600  0.98088900  0.85231800  1
  O  O60  1  0.41512100  0.61040100  0.74226400  1
  O  O61  1  0.91512100  0.88959900  0.25773600  1
  O  O62  1  0.58487900  0.38959900  0.25773600  1
  O  O63  1  0.08487900  0.11040100  0.74226400  1
  O  O64  1  0.75529200  0.62264700  0.83415400  1
  O  O65  1  0.25529200  0.87735300  0.16584600  1
  O  O66  1  0.24470800  0.37735300  0.16584600  1
  O  O67  1  0.74470800  0.12264700  0.83415400  1
  O  O68  1  0.77586900  0.45508300  0.94777500  1
  O  O69  1  0.27586900  0.04491700  0.05222500  1
  O  O70  1  0.22413100  0.54491700  0.05222500  1
  O  O71  1  0.72413100  0.95508300  0.94777500  1
  O  O72  1  0.90860100  0.66146100  0.96693000  1
  O  O73  1  0.40860100  0.83853900  0.03307000  1
  O  O74  1  0.09139900  0.33853900  0.03307000  1
  O  O75  1  0.59139900  0.16146100  0.96693000  1
  O  O76  1  0.59700600  0.63780100  0.96924900  1
  O  O77  1  0.09700600  0.86219900  0.03075100  1
  O  O78  1  0.40299400  0.36219900  0.03075100  1
  O  O79  1  0.90299400  0.13780100  0.96924900  1
  O  O80  1  0.25371400  0.37203600  0.66300300  1
  O  O81  1  0.75371400  0.12796400  0.33699700  1
  O  O82  1  0.74628600  0.62796400  0.33699700  1
  O  O83  1  0.24628600  0.87203600  0.66300300  1
  O  O84  1  0.09814700  0.37869400  0.52638800  1
  O  O85  1  0.59814700  0.12130600  0.47361200  1
  O  O86  1  0.90185300  0.62130600  0.47361200  1
  O  O87  1  0.40185300  0.87869400  0.52638800  1
  O  O88  1  0.41193300  0.39552500  0.52936400  1
  O  O89  1  0.91193300  0.10447500  0.47063600  1
  O  O90  1  0.58806700  0.60447500  0.47063600  1
  O  O91  1  0.08806700  0.89552500  0.52936400  1
  O  O92  1  0.26844200  0.19467700  0.56260300  1
  O  O93  1  0.76844200  0.30532300  0.43739700  1
  O  O94  1  0.73155800  0.80532300  0.43739700  1
  O  O95  1  0.23155800  0.69467700  0.56260300  1
