# generated using pymatgen
data_NaMnO2
_symmetry_space_group_name_H-M   'P 1'
_cell_length_a   6.05423503
_cell_length_b   6.49788198
_cell_length_c   6.05423203
_cell_angle_alpha   62.29409919
_cell_angle_beta   90.11473858
_cell_angle_gamma   62.29416932
_symmetry_Int_Tables_number   1
_chemical_formula_structural   NaMnO2
_chemical_formula_sum   'Na4 Mn4 O8'
_cell_volume   179.31109247
_cell_formula_units_Z   4
loop_
 _symmetry_equiv_pos_site_id
 _symmetry_equiv_pos_as_xyz
  1  'x, y, z'
loop_
 _atom_site_type_symbol
 _atom_site_label
 _atom_site_symmetry_multiplicity
 _atom_site_fract_x
 _atom_site_fract_y
 _atom_site_fract_z
 _atom_site_occupancy
  Na  Na0  1  0.99999500  0.50002400  0.99998800  1
  Na  Na1  1  0.99999700  0.00002200  0.49998700  1
  Na  Na2  1  0.49999400  0.00002200  0.49998800  1
  Na  Na3  1  0.99999300  0.50002300  0.49998600  1
  Mn  Mn4  1  0.50001000  0.99989700  0.00009400  1
  Mn  Mn5  1  0.49985100  0.50019400  0.49990000  1
  Mn  Mn6  1  0.00011700  0.99978400  0.00010300  1
  Mn  Mn7  1  0.50007900  0.49982900  0.00007200  1
  O  O8  1  0.25161400  0.99611900  0.21301600  1
  O  O9  1  0.28696200  0.50393500  0.24836800  1
  O  O10  1  0.70912100  0.50393200  0.24769600  1
  O  O11  1  0.74770300  0.00393500  0.20910900  1
  O  O12  1  0.25228700  0.99611700  0.79086200  1
  O  O13  1  0.29087000  0.49611900  0.75227500  1
  O  O14  1  0.71302900  0.49611700  0.75160400  1
  O  O15  1  0.74837800  0.00393200  0.78695400  1
