# generated using pymatgen
data_Zr9VO20
_symmetry_space_group_name_H-M   'P 1'
_cell_length_a   6.47493000
_cell_length_b   7.35918996
_cell_length_c   8.11095422
_cell_angle_alpha   77.07398252
_cell_angle_beta   75.49552544
_cell_angle_gamma   71.40747640
_symmetry_Int_Tables_number   1
_chemical_formula_structural   Zr9VO20
_chemical_formula_sum   'Zr9 V1 O20'
_cell_volume   350.25854725
_cell_formula_units_Z   1
loop_
 _symmetry_equiv_pos_site_id
 _symmetry_equiv_pos_as_xyz
  1  'x, y, z'
loop_
 _atom_site_type_symbol
 _atom_site_label
 _atom_site_symmetry_multiplicity
 _atom_site_fract_x
 _atom_site_fract_y
 _atom_site_fract_z
 _atom_site_occupancy
  Zr  Zr0  1  0.30315600  0.95068200  0.40577200  1
  Zr  Zr1  1  0.30911200  0.44945500  0.39689500  1
  Zr  Zr2  1  0.09782300  0.65339300  0.80428300  1
  Zr  Zr3  1  0.89652000  0.84518300  0.20215500  1
  Zr  Zr4  1  0.49206800  0.75667900  0.99973800  1
  Zr  Zr5  1  0.90441000  0.35031400  0.19410400  1
  Zr  Zr6  1  0.71115400  0.53876100  0.60408900  1
  Zr  Zr7  1  0.49149500  0.25613200  0.99622800  1
  Zr  Zr8  1  0.69860100  0.05171800  0.59463300  1
  V  V9  1  0.09402800  0.14390800  0.80461700  1
  O  O10  1  0.08289400  0.98812000  0.65132500  1
  O  O11  1  0.29014400  0.76926600  0.24200100  1
  O  O12  1  0.58503300  0.97657300  0.13153500  1
  O  O13  1  0.21561000  0.22734400  0.26130900  1
  O  O14  1  0.52784900  0.42141400  0.15829200  1
  O  O15  1  0.29937100  0.63603500  0.56248000  1
  O  O16  1  0.80909000  0.63393500  0.06691000  1
  O  O17  1  0.02626000  0.40034700  0.67338800  1
  O  O18  1  0.12536200  0.81478300  0.97109600  1
  O  O19  1  0.62088600  0.81869400  0.45729500  1
  O  O20  1  0.39911300  0.16536300  0.51879300  1
  O  O21  1  0.78515500  0.77400500  0.73736900  1
  O  O22  1  0.48614900  0.57495400  0.83670000  1
  O  O23  1  0.90354400  0.16642700  0.02269700  1
  O  O24  1  0.68055800  0.37912700  0.43452800  1
  O  O25  1  0.17414500  0.38546000  0.95368600  1
  O  O26  1  0.98770000  0.56902200  0.34631500  1
  O  O27  1  0.69630100  0.23470600  0.75588300  1
  O  O28  1  0.91822700  0.02881300  0.35916400  1
  O  O29  1  0.38824200  0.03938900  0.85672300  1
