# generated using pymatgen
data_NaCo3O4
_symmetry_space_group_name_H-M   'P 1'
_cell_length_a   6.06528600
_cell_length_b   6.06528600
_cell_length_c   8.64866400
_cell_angle_alpha   90.00000000
_cell_angle_beta   90.00000000
_cell_angle_gamma   90.00000000
_symmetry_Int_Tables_number   1
_chemical_formula_structural   NaCo3O4
_chemical_formula_sum   'Na4 Co12 O16'
_cell_volume   318.16440701
_cell_formula_units_Z   4
loop_
 _symmetry_equiv_pos_site_id
 _symmetry_equiv_pos_as_xyz
  1  'x, y, z'
loop_
 _atom_site_type_symbol
 _atom_site_label
 _atom_site_symmetry_multiplicity
 _atom_site_fract_x
 _atom_site_fract_y
 _atom_site_fract_z
 _atom_site_occupancy
  Na  Na0  1  0.75572600  0.00000000  0.75000000  1
  Na  Na1  1  0.00000000  0.75572600  0.00000000  1
  Na  Na2  1  0.00000000  0.24427400  0.50000000  1
  Na  Na3  1  0.24427400  0.00000000  0.25000000  1
  Co  Co4  1  0.50000000  0.75147200  0.00000000  1
  Co  Co5  1  0.50000000  0.25093900  0.00000000  1
  Co  Co6  1  0.50000000  0.74906100  0.50000000  1
  Co  Co7  1  0.50000000  0.24852800  0.50000000  1
  Co  Co8  1  0.73909700  0.00000000  0.25000000  1
  Co  Co9  1  0.75147200  0.50000000  0.75000000  1
  Co  Co10  1  0.74906100  0.50000000  0.25000000  1
  Co  Co11  1  0.00000000  0.73909700  0.50000000  1
  Co  Co12  1  0.00000000  0.26090300  0.00000000  1
  Co  Co13  1  0.25093900  0.50000000  0.75000000  1
  Co  Co14  1  0.24852800  0.50000000  0.25000000  1
  Co  Co15  1  0.26090300  0.00000000  0.75000000  1
  O  O16  1  0.47729500  0.72904900  0.75695800  1
  O  O17  1  0.47729500  0.27095100  0.74304200  1
  O  O18  1  0.72465800  0.02199100  0.02012000  1
  O  O19  1  0.72465800  0.97800900  0.47988000  1
  O  O20  1  0.72904900  0.47729500  0.99304200  1
  O  O21  1  0.72904900  0.52270500  0.50695800  1
  O  O22  1  0.02199100  0.72465800  0.72988000  1
  O  O23  1  0.02199100  0.27534200  0.77012000  1
  O  O24  1  0.97800900  0.72465800  0.27012000  1
  O  O25  1  0.97800900  0.27534200  0.22988000  1
  O  O26  1  0.27095100  0.52270500  0.49304200  1
  O  O27  1  0.27095100  0.47729500  0.00695800  1
  O  O28  1  0.27534200  0.02199100  0.97988000  1
  O  O29  1  0.27534200  0.97800900  0.52012000  1
  O  O30  1  0.52270500  0.72904900  0.24304200  1
  O  O31  1  0.52270500  0.27095100  0.25695800  1
