# generated using pymatgen
data_Cr4OF11
_symmetry_space_group_name_H-M   'P 1'
_cell_length_a   5.09968716
_cell_length_b   5.32902652
_cell_length_c   16.89029560
_cell_angle_alpha   92.42630040
_cell_angle_beta   98.66549536
_cell_angle_gamma   61.38974598
_symmetry_Int_Tables_number   1
_chemical_formula_structural   Cr4OF11
_chemical_formula_sum   'Cr8 O2 F22'
_cell_volume   398.13461096
_cell_formula_units_Z   2
loop_
 _symmetry_equiv_pos_site_id
 _symmetry_equiv_pos_as_xyz
  1  'x, y, z'
loop_
 _atom_site_type_symbol
 _atom_site_label
 _atom_site_symmetry_multiplicity
 _atom_site_fract_x
 _atom_site_fract_y
 _atom_site_fract_z
 _atom_site_occupancy
  Cr  Cr0  1  0.75437900  0.60856800  0.12153200  1
  Cr  Cr1  1  0.75095900  0.12045400  0.62421700  1
  Cr  Cr2  1  0.50000000  0.75000000  0.75000000  1
  Cr  Cr3  1  0.50000000  0.25000000  0.25000000  1
  Cr  Cr4  1  0.24562100  0.89143200  0.37846800  1
  Cr  Cr5  1  0.24904100  0.37954600  0.87578300  1
  Cr  Cr6  1  0.00940800  0.48196800  0.49627400  1
  Cr  Cr7  1  0.99059200  0.01803200  0.00372600  1
  O  O8  1  0.75191400  0.31292000  0.06253400  1
  O  O9  1  0.24808600  0.18708000  0.43746600  1
  F  F10  1  0.81805600  0.78206100  0.03266400  1
  F  F11  1  0.74166300  0.93258700  0.18620200  1
  F  F12  1  0.76071700  0.80540600  0.56074600  1
  F  F13  1  0.68433600  0.96825800  0.71754300  1
  F  F14  1  0.68303000  0.65714300  0.40765800  1
  F  F15  1  0.68601300  0.46710400  0.21675800  1
  F  F16  1  0.81384200  0.59382500  0.84295000  1
  F  F17  1  0.81346700  0.09274700  0.34316400  1
  F  F18  1  0.81323000  0.28147300  0.53155300  1
  F  F19  1  0.31697000  0.84285700  0.09234200  1
  F  F20  1  0.74890900  0.43543700  0.68721600  1
  F  F21  1  0.25833700  0.56741300  0.31379800  1
  F  F22  1  0.68600100  0.15806500  0.90836700  1
  F  F23  1  0.18615800  0.90617500  0.65705000  1
  F  F24  1  0.18653300  0.40725300  0.15683600  1
  F  F25  1  0.18194400  0.71793900  0.46733600  1
  F  F26  1  0.31566400  0.53174200  0.78245700  1
  F  F27  1  0.31399900  0.34193500  0.59163300  1
  F  F28  1  0.31398700  0.03289600  0.28324200  1
  F  F29  1  0.23928300  0.69459400  0.93925400  1
  F  F30  1  0.25109100  0.06456300  0.81278400  1
  F  F31  1  0.18677000  0.21852700  0.96844700  1
