# generated using pymatgen
data_MnFeCo(PO4)3
_symmetry_space_group_name_H-M   'P 1'
_cell_length_a   5.95645700
_cell_length_b   9.85938100
_cell_length_c   14.54896480
_cell_angle_alpha   89.87649213
_cell_angle_beta   90.00000000
_cell_angle_gamma   90.00000000
_symmetry_Int_Tables_number   1
_chemical_formula_structural   MnFeCo(PO4)3
_chemical_formula_sum   'Mn4 Fe4 Co4 P12 O48'
_cell_volume   854.41476492
_cell_formula_units_Z   4
loop_
 _symmetry_equiv_pos_site_id
 _symmetry_equiv_pos_as_xyz
  1  'x, y, z'
loop_
 _atom_site_type_symbol
 _atom_site_label
 _atom_site_symmetry_multiplicity
 _atom_site_fract_x
 _atom_site_fract_y
 _atom_site_fract_z
 _atom_site_occupancy
  Mn  Mn0  1  0.50000000  0.78257600  0.14741300  1
  Mn  Mn1  1  0.50000000  0.78426100  0.48063800  1
  Mn  Mn2  1  0.00000000  0.71625300  0.31396900  1
  Mn  Mn3  1  0.00000000  0.71542800  0.64653900  1
  Fe  Fe4  1  0.50000000  0.77698700  0.82069300  1
  Fe  Fe5  1  0.00000000  0.72562300  0.98778100  1
  Fe  Fe6  1  0.50000000  0.27146300  0.00968400  1
  Fe  Fe7  1  0.50000000  0.27301100  0.34542200  1
  Co  Co8  1  0.50000000  0.27706900  0.68076100  1
  Co  Co9  1  0.00000000  0.22084200  0.51765300  1
  Co  Co10  1  0.00000000  0.22762400  0.17991200  1
  Co  Co11  1  0.00000000  0.22653700  0.84285500  1
  P  P12  1  0.00000000  0.90169500  0.47253600  1
  P  P13  1  0.00000000  0.90378400  0.13967900  1
  P  P14  1  0.00000000  0.90204800  0.80552100  1
  P  P15  1  0.50000000  0.59924900  0.97346000  1
  P  P16  1  0.50000000  0.59965000  0.30647000  1
  P  P17  1  0.50000000  0.59795200  0.63926600  1
  P  P18  1  0.00000000  0.39932300  0.02791700  1
  P  P19  1  0.00000000  0.40123500  0.36285200  1
  P  P20  1  0.00000000  0.40242400  0.69413700  1
  P  P21  1  0.50000000  0.09667000  0.19329700  1
  P  P22  1  0.50000000  0.09756400  0.52876000  1
  P  P23  1  0.50000000  0.09825100  0.86036100  1
  O  O24  1  0.50000000  0.94433200  0.21747900  1
  O  O25  1  0.50000000  0.94602900  0.55240800  1
  O  O26  1  0.50000000  0.94774700  0.88457000  1
  O  O27  1  0.00000000  0.88064700  0.24352800  1
  O  O28  1  0.00000000  0.87989900  0.57725100  1
  O  O29  1  0.00000000  0.88257800  0.91009400  1
  O  O30  1  0.20163100  0.82878400  0.42461200  1
  O  O31  1  0.79836900  0.82878400  0.42461200  1
  O  O32  1  0.19934400  0.82862700  0.09032800  1
  O  O33  1  0.80065600  0.82862700  0.09032800  1
  O  O34  1  0.20406300  0.83040000  0.75892600  1
  O  O35  1  0.79593700  0.83040000  0.75892600  1
  O  O36  1  0.70143500  0.67371100  0.92534700  1
  O  O37  1  0.29856500  0.67371100  0.92534700  1
  O  O38  1  0.70173300  0.67199700  0.25779700  1
  O  O39  1  0.29826700  0.67199700  0.25779700  1
  O  O40  1  0.70143800  0.67014900  0.59088600  1
  O  O41  1  0.29856200  0.67014900  0.59088600  1
  O  O42  1  0.50000000  0.61780000  0.74321000  1
  O  O43  1  0.50000000  0.62007000  0.07820900  1
  O  O44  1  0.50000000  0.62104200  0.41094600  1
  O  O45  1  0.00000000  0.55101200  0.04922400  1
  O  O46  1  0.00000000  0.55348600  0.38493900  1
  O  O47  1  0.00000000  0.55416900  0.71849900  1
  O  O48  1  0.50000000  0.44874800  0.95230000  1
  O  O49  1  0.50000000  0.44813000  0.28563400  1
  O  O50  1  0.50000000  0.44421300  0.61644600  1
  O  O51  1  0.00000000  0.38221700  0.25707400  1
  O  O52  1  0.00000000  0.38591400  0.58945800  1
  O  O53  1  0.00000000  0.37785200  0.92333100  1
  O  O54  1  0.20305500  0.32603400  0.07591500  1
  O  O55  1  0.79694500  0.32603400  0.07591500  1
  O  O56  1  0.20192600  0.32949100  0.74307600  1
  O  O57  1  0.79807400  0.32949100  0.74307600  1
  O  O58  1  0.20258800  0.32797900  0.40965300  1
  O  O59  1  0.79741200  0.32797900  0.40965300  1
  O  O60  1  0.70057400  0.17035600  0.24222600  1
  O  O61  1  0.29942600  0.17035600  0.24222600  1
  O  O62  1  0.70408200  0.17123900  0.57651000  1
  O  O63  1  0.29591800  0.17123900  0.57651000  1
  O  O64  1  0.70028100  0.17248300  0.90863800  1
  O  O65  1  0.29971900  0.17248300  0.90863800  1
  O  O66  1  0.50000000  0.11793400  0.75500300  1
  O  O67  1  0.50000000  0.11417100  0.08931500  1
  O  O68  1  0.50000000  0.11709800  0.42495900  1
  O  O69  1  0.00000000  0.05341800  0.44960400  1
  O  O70  1  0.00000000  0.05505000  0.11632100  1
  O  O71  1  0.00000000  0.05629900  0.78416600  1
