# generated using pymatgen
data_MnH8(NF3)2
_symmetry_space_group_name_H-M   'P 1'
_cell_length_a   5.94802050
_cell_length_b   5.94802050
_cell_length_c   9.53639000
_cell_angle_alpha   90.00000000
_cell_angle_beta   90.00000000
_cell_angle_gamma   120.00000557
_symmetry_Int_Tables_number   1
_chemical_formula_structural   MnH8(NF3)2
_chemical_formula_sum   'Mn2 H16 N4 F12'
_cell_volume   292.18608165
_cell_formula_units_Z   2
loop_
 _symmetry_equiv_pos_site_id
 _symmetry_equiv_pos_as_xyz
  1  'x, y, z'
loop_
 _atom_site_type_symbol
 _atom_site_label
 _atom_site_symmetry_multiplicity
 _atom_site_fract_x
 _atom_site_fract_y
 _atom_site_fract_z
 _atom_site_occupancy
  Mn  Mn0  1  0.33333300  0.66666700  0.25079700  1
  Mn  Mn1  1  0.66666700  0.33333300  0.75079700  1
  H  H2  1  0.09430800  0.90569200  0.55625700  1
  H  H3  1  0.14505800  0.57252900  0.91227100  1
  H  H4  1  0.33333300  0.66666700  0.76804800  1
  H  H5  1  0.00000000  0.00000000  0.20056500  1
  H  H6  1  0.00000000  0.00000000  0.70056500  1
  H  H7  1  0.09430800  0.18861600  0.55625700  1
  H  H8  1  0.42747100  0.85494200  0.91227100  1
  H  H9  1  0.18861600  0.09430800  0.05625700  1
  H  H10  1  0.42747100  0.57252900  0.91227100  1
  H  H11  1  0.57252900  0.42747100  0.41227100  1
  H  H12  1  0.81138400  0.90569200  0.55625700  1
  H  H13  1  0.57252900  0.14505800  0.41227100  1
  H  H14  1  0.66666700  0.33333300  0.26804800  1
  H  H15  1  0.90569200  0.81138400  0.05625700  1
  H  H16  1  0.85494200  0.42747100  0.41227100  1
  H  H17  1  0.90569200  0.09430800  0.05625700  1
  N  N18  1  0.33333300  0.66666700  0.87587300  1
  N  N19  1  0.00000000  0.00000000  0.09272200  1
  N  N20  1  0.00000000  0.00000000  0.59272200  1
  N  N21  1  0.66666700  0.33333300  0.37587300  1
  F  F22  1  0.18561300  0.81438700  0.36216700  1
  F  F23  1  0.04003900  0.52002000  0.13939700  1
  F  F24  1  0.18561300  0.37122600  0.36216700  1
  F  F25  1  0.47998000  0.95996100  0.13939700  1
  F  F26  1  0.47998000  0.52002000  0.13939700  1
  F  F27  1  0.62877400  0.81438700  0.36216700  1
  F  F28  1  0.37122600  0.18561300  0.86216700  1
  F  F29  1  0.52002000  0.47998000  0.63939700  1
  F  F30  1  0.52002000  0.04003900  0.63939700  1
  F  F31  1  0.81438700  0.62877400  0.86216700  1
  F  F32  1  0.95996100  0.47998000  0.63939700  1
  F  F33  1  0.81438700  0.18561300  0.86216700  1
