# generated using pymatgen
data_Ti4(Fe2O5)3
_symmetry_space_group_name_H-M   'P 1'
_cell_length_a   7.64729500
_cell_length_b   8.91544853
_cell_length_c   9.16157580
_cell_angle_alpha   80.67705073
_cell_angle_beta   71.48277811
_cell_angle_gamma   66.50588503
_symmetry_Int_Tables_number   1
_chemical_formula_structural   Ti4(Fe2O5)3
_chemical_formula_sum   'Ti8 Fe12 O30'
_cell_volume   542.73939718
_cell_formula_units_Z   2
loop_
 _symmetry_equiv_pos_site_id
 _symmetry_equiv_pos_as_xyz
  1  'x, y, z'
loop_
 _atom_site_type_symbol
 _atom_site_label
 _atom_site_symmetry_multiplicity
 _atom_site_fract_x
 _atom_site_fract_y
 _atom_site_fract_z
 _atom_site_occupancy
  Ti  Ti0  1  0.75962300  0.94351000  0.32580900  1
  Ti  Ti1  1  0.64309800  0.85540200  0.07498000  1
  Ti  Ti2  1  0.24037700  0.05649000  0.67419100  1
  Ti  Ti3  1  0.35690200  0.14459800  0.92502000  1
  Ti  Ti4  1  0.96309700  0.33920000  0.52189700  1
  Ti  Ti5  1  0.43178100  0.46070000  0.87276200  1
  Ti  Ti6  1  0.56821900  0.53930000  0.12723800  1
  Ti  Ti7  1  0.03690300  0.66080000  0.47810300  1
  Fe  Fe8  1  0.74293800  0.05504600  0.67729800  1
  Fe  Fe9  1  0.13903000  0.85714100  0.07422800  1
  Fe  Fe10  1  0.25706200  0.94495400  0.32270200  1
  Fe  Fe11  1  0.83385800  0.26097300  0.27638500  1
  Fe  Fe12  1  0.93825500  0.45925400  0.87281500  1
  Fe  Fe13  1  0.33739800  0.25593300  0.27603300  1
  Fe  Fe14  1  0.46327900  0.34012300  0.52320200  1
  Fe  Fe15  1  0.86097000  0.14285900  0.92577200  1
  Fe  Fe16  1  0.16614200  0.73902700  0.72361500  1
  Fe  Fe17  1  0.06174500  0.54074600  0.12718500  1
  Fe  Fe18  1  0.53672100  0.65987700  0.47679800  1
  Fe  Fe19  1  0.66260200  0.74406700  0.72396700  1
  O  O20  1  0.92361200  0.81499000  0.65544800  1
  O  O21  1  0.10664800  0.91897900  0.86151100  1
  O  O22  1  0.28983600  0.88788900  0.55208000  1
  O  O23  1  0.06363600  0.82677300  0.31798800  1
  O  O24  1  0.47140800  0.99015800  0.73851100  1
  O  O25  1  0.52859200  0.00984200  0.26148900  1
  O  O26  1  0.12222900  0.20948300  0.86762700  1
  O  O27  1  0.33037600  0.96752000  0.06622300  1
  O  O28  1  0.93636400  0.17322700  0.68201200  1
  O  O29  1  0.71016400  0.11211100  0.44792000  1
  O  O30  1  0.49049200  0.28182400  0.75316000  1
  O  O31  1  0.89335200  0.08102100  0.13848900  1
  O  O32  1  0.66962400  0.03248000  0.93377700  1
  O  O33  1  0.26596600  0.22616400  0.53000300  1
  O  O34  1  0.07638800  0.18501000  0.34455200  1
  O  O35  1  0.72491400  0.41400600  0.46732100  1
  O  O36  1  0.53075200  0.37515700  0.27036200  1
  O  O37  1  0.14305700  0.56145100  0.87844000  1
  O  O38  1  0.31263400  0.30821200  0.05161000  1
  O  O39  1  0.91642900  0.51034200  0.64875300  1
  O  O40  1  0.08357100  0.48965800  0.35124700  1
  O  O41  1  0.46924800  0.62484300  0.72963800  1
  O  O42  1  0.85694300  0.43854900  0.12156000  1
  O  O43  1  0.67274000  0.37752800  0.94087600  1
  O  O44  1  0.27508600  0.58599400  0.53267900  1
  O  O45  1  0.32726000  0.62247200  0.05912400  1
  O  O46  1  0.73403400  0.77383600  0.46999700  1
  O  O47  1  0.50950800  0.71817600  0.24684000  1
  O  O48  1  0.68736600  0.69178800  0.94839000  1
  O  O49  1  0.87777100  0.79051700  0.13237300  1
