# generated using pymatgen
data_NaCo2P3O10
_symmetry_space_group_name_H-M   'P 1'
_cell_length_a   8.63821800
_cell_length_b   4.73018800
_cell_length_c   9.11612046
_cell_angle_alpha   82.34067248
_cell_angle_beta   90.00000000
_cell_angle_gamma   90.00000000
_symmetry_Int_Tables_number   1
_chemical_formula_structural   NaCo2P3O10
_chemical_formula_sum   'Na2 Co4 P6 O20'
_cell_volume   369.16496669
_cell_formula_units_Z   2
loop_
 _symmetry_equiv_pos_site_id
 _symmetry_equiv_pos_as_xyz
  1  'x, y, z'
loop_
 _atom_site_type_symbol
 _atom_site_label
 _atom_site_symmetry_multiplicity
 _atom_site_fract_x
 _atom_site_fract_y
 _atom_site_fract_z
 _atom_site_occupancy
  Na  Na0  1  0.00000000  0.00000000  0.00000000  1
  Na  Na1  1  0.50000000  0.00000000  0.00000000  1
  Co  Co2  1  0.92924500  0.95455400  0.34130000  1
  Co  Co3  1  0.57075500  0.95455400  0.34130000  1
  Co  Co4  1  0.42924500  0.04544600  0.65870000  1
  Co  Co5  1  0.07075500  0.04544600  0.65870000  1
  P  P6  1  0.75000000  0.66591000  0.81707900  1
  P  P7  1  0.25000000  0.61005100  0.46033000  1
  P  P8  1  0.25000000  0.47311700  0.84902300  1
  P  P9  1  0.75000000  0.52688300  0.15097700  1
  P  P10  1  0.75000000  0.38994900  0.53967000  1
  P  P11  1  0.25000000  0.33409000  0.18292100  1
  O  O12  1  0.89906900  0.83351100  0.80076600  1
  O  O13  1  0.60093100  0.83351100  0.80076600  1
  O  O14  1  0.25000000  0.78036200  0.76591000  1
  O  O15  1  0.39918600  0.77633600  0.48480000  1
  O  O16  1  0.10081400  0.77633600  0.48480000  1
  O  O17  1  0.75000000  0.69094700  0.45297500  1
  O  O18  1  0.89805500  0.68949400  0.17379700  1
  O  O19  1  0.60194500  0.68949400  0.17379700  1
  O  O20  1  0.75000000  0.46305100  0.97578800  1
  O  O21  1  0.25000000  0.58005000  0.28614900  1
  O  O22  1  0.75000000  0.41995000  0.71385100  1
  O  O23  1  0.25000000  0.53694900  0.02421200  1
  O  O24  1  0.39805500  0.31050600  0.82620300  1
  O  O25  1  0.10194500  0.31050600  0.82620300  1
  O  O26  1  0.25000000  0.30905300  0.54702500  1
  O  O27  1  0.89918600  0.22366400  0.51520000  1
  O  O28  1  0.60081400  0.22366400  0.51520000  1
  O  O29  1  0.75000000  0.21963800  0.23409000  1
  O  O30  1  0.39906900  0.16648900  0.19923400  1
  O  O31  1  0.10093100  0.16648900  0.19923400  1
