# generated using pymatgen
data_V3OF11
_symmetry_space_group_name_H-M   'P 1'
_cell_length_a   5.26240100
_cell_length_b   5.45794300
_cell_length_c   14.89432485
_cell_angle_alpha   79.78131110
_cell_angle_beta   90.00000000
_cell_angle_gamma   90.00000000
_symmetry_Int_Tables_number   1
_chemical_formula_structural   V3OF11
_chemical_formula_sum   'V6 O2 F22'
_cell_volume   421.00733904
_cell_formula_units_Z   2
loop_
 _symmetry_equiv_pos_site_id
 _symmetry_equiv_pos_as_xyz
  1  'x, y, z'
loop_
 _atom_site_type_symbol
 _atom_site_label
 _atom_site_symmetry_multiplicity
 _atom_site_fract_x
 _atom_site_fract_y
 _atom_site_fract_z
 _atom_site_occupancy
  V  V0  1  0.02461200  0.37702300  0.66967500  1
  V  V1  1  0.50015600  0.25005700  0.99996200  1
  V  V2  1  0.00789300  0.09372700  0.33416200  1
  V  V3  1  0.50789300  0.90627300  0.66583800  1
  V  V4  1  0.00015600  0.74994300  0.00003800  1
  V  V5  1  0.52461200  0.62297700  0.33032500  1
  O  O6  1  0.70556200  0.87418300  0.31135400  1
  O  O7  1  0.20556200  0.12581700  0.68864600  1
  F  F8  1  0.79026900  0.39279100  0.30893000  1
  F  F9  1  0.71332200  0.22029400  0.64280600  1
  F  F10  1  0.29310300  0.27777200  0.35660100  1
  F  F11  1  0.90761500  0.38541400  0.78060200  1
  F  F12  1  0.58569400  0.20810600  0.11642300  1
  F  F13  1  0.91217900  0.03550000  0.44993900  1
  F  F14  1  0.41292500  0.29108600  0.88366100  1
  F  F15  1  0.07597700  0.12058600  0.21644400  1
  F  F16  1  0.41217900  0.96450000  0.55006100  1
  F  F17  1  0.80202600  0.06038600  0.97539000  1
  F  F18  1  0.79310300  0.72222800  0.64339900  1
  F  F19  1  0.30202600  0.93961400  0.02461000  1
  F  F20  1  0.21332200  0.77970600  0.35719400  1
  F  F21  1  0.57597700  0.87941400  0.78355600  1
  F  F22  1  0.91292500  0.70891400  0.11633900  1
  F  F23  1  0.57070500  0.52244300  0.44880200  1
  F  F24  1  0.08569400  0.79189400  0.88357700  1
  F  F25  1  0.40761500  0.61458600  0.21939800  1
  F  F26  1  0.07070500  0.47755700  0.55119800  1
  F  F27  1  0.69796400  0.56005500  0.97552800  1
  F  F28  1  0.29026900  0.60720900  0.69107000  1
  F  F29  1  0.19796400  0.43994500  0.02447200  1
