# generated using pymatgen
data_V2OF5
_symmetry_space_group_name_H-M   'P 1'
_cell_length_a   8.44599678
_cell_length_b   8.44599678
_cell_length_c   4.56238000
_cell_angle_alpha   90.00000000
_cell_angle_beta   90.00000000
_cell_angle_gamma   120.00000613
_symmetry_Int_Tables_number   1
_chemical_formula_structural   V2OF5
_chemical_formula_sum   'V6 O3 F15'
_cell_volume   281.85379255
_cell_formula_units_Z   3
loop_
 _symmetry_equiv_pos_site_id
 _symmetry_equiv_pos_as_xyz
  1  'x, y, z'
loop_
 _atom_site_type_symbol
 _atom_site_label
 _atom_site_symmetry_multiplicity
 _atom_site_fract_x
 _atom_site_fract_y
 _atom_site_fract_z
 _atom_site_occupancy
  V  V0  1  0.32418100  0.33070700  0.23474200  1
  V  V1  1  0.00652600  0.33070700  0.76525800  1
  V  V2  1  0.66929300  0.67581900  0.76525800  1
  V  V3  1  0.00652600  0.67581900  0.23474200  1
  V  V4  1  0.66929300  0.99347400  0.23474200  1
  V  V5  1  0.32418100  0.99347400  0.76525800  1
  O  O6  1  0.12792600  0.25585300  0.00000000  1
  O  O7  1  0.74414700  0.87207400  0.00000000  1
  O  O8  1  0.12792600  0.87207400  0.00000000  1
  F  F9  1  0.88188100  0.11811900  0.50000000  1
  F  F10  1  0.54131300  0.08262500  0.50000000  1
  F  F11  1  0.78439700  0.21560300  0.00000000  1
  F  F12  1  0.91737500  0.45868700  0.50000000  1
  F  F13  1  0.23623800  0.11811900  0.50000000  1
  F  F14  1  0.43120700  0.21560300  0.00000000  1
  F  F15  1  0.78439700  0.56879300  0.00000000  1
  F  F16  1  0.54131300  0.45868700  0.50000000  1
  F  F17  1  0.88188100  0.76376200  0.50000000  1
  F  F18  1  0.21629700  0.43259500  0.50000000  1
  F  F19  1  0.45161400  0.54838600  0.00000000  1
  F  F20  1  0.09677100  0.54838600  0.00000000  1
  F  F21  1  0.56740500  0.78370300  0.50000000  1
  F  F22  1  0.21629700  0.78370300  0.50000000  1
  F  F23  1  0.45161400  0.90322900  0.00000000  1
