data_image0
_chemical_formula_structural       As4Mo4
_chemical_formula_sum              "As4 Mo4"
_cell_length_a       6.03367
_cell_length_b       3.37602
_cell_length_c       6.44168
_cell_angle_alpha    90
_cell_angle_beta     90
_cell_angle_gamma    90

_space_group_name_H-M_alt    "P 1"
_space_group_IT_number       1

loop_
  _space_group_symop_operation_xyz
  'x, y, z'

loop_
  _atom_site_type_symbol
  _atom_site_label
  _atom_site_symmetry_multiplicity
  _atom_site_fract_x
  _atom_site_fract_y
  _atom_site_fract_z
  _atom_site_occupancy
  As  As1       1.0  0.31200  0.75000  0.06760  1.0000
  As  As2       1.0  0.81200  0.75000  0.43200  1.0000
  As  As3       1.0  0.18800  0.25000  0.56800  1.0000
  As  As4       1.0  0.68800  0.25000  0.93200  1.0000
  Mo  Mo1       1.0  0.01370  0.25000  0.18400  1.0000
  Mo  Mo2       1.0  0.51400  0.25000  0.31600  1.0000
  Mo  Mo3       1.0  0.48600  0.75000  0.68400  1.0000
  Mo  Mo4       1.0  0.98600  0.75000  0.81600  1.0000
