# generated using pymatgen
data_Ac
_symmetry_space_group_name_H-M   'P 1'
_cell_length_a   9.93634478
_cell_length_b   9.93634478
_cell_length_c   9.93634438
_cell_angle_alpha   23.29943661
_cell_angle_beta   23.29943661
_cell_angle_gamma   23.29943736
_symmetry_Int_Tables_number   1
_chemical_formula_structural   Ac
_chemical_formula_sum   Ac3
_cell_volume   134.74868275
_cell_formula_units_Z   3
loop_
 _symmetry_equiv_pos_site_id
 _symmetry_equiv_pos_as_xyz
  1  'x, y, z'
loop_
 _atom_site_type_symbol
 _atom_site_label
 _atom_site_symmetry_multiplicity
 _atom_site_fract_x
 _atom_site_fract_y
 _atom_site_fract_z
 _atom_site_occupancy
  Ac  Ac0  1  0.00000000  0.00000000  0.00000000  1
  Ac  Ac1  1  0.77739900  0.77739900  0.77739900  1
  Ac  Ac2  1  0.22260100  0.22260100  0.22260100  1
