# generated using pymatgen
data_FeOF
_symmetry_space_group_name_H-M   'P 1'
_cell_length_a   3.10311900
_cell_length_b   14.22939400
_cell_length_c   14.29474106
_cell_angle_alpha   89.74455836
_cell_angle_beta   90.00000000
_cell_angle_gamma   90.00000000
_symmetry_Int_Tables_number   1
_chemical_formula_structural   FeOF
_chemical_formula_sum   'Fe18 O18 F18'
_cell_volume   631.18520731
_cell_formula_units_Z   18
loop_
 _symmetry_equiv_pos_site_id
 _symmetry_equiv_pos_as_xyz
  1  'x, y, z'
loop_
 _atom_site_type_symbol
 _atom_site_label
 _atom_site_symmetry_multiplicity
 _atom_site_fract_x
 _atom_site_fract_y
 _atom_site_fract_z
 _atom_site_occupancy
  Fe  Fe0  1  0.00000000  0.98512400  0.99959200  1
  Fe  Fe1  1  0.00000000  0.99697500  0.33333500  1
  Fe  Fe2  1  0.00000000  0.98609100  0.66446900  1
  Fe  Fe3  1  0.50000000  0.82782800  0.14682800  1
  Fe  Fe4  1  0.50000000  0.84747400  0.49585500  1
  Fe  Fe5  1  0.50000000  0.84587100  0.83186400  1
  Fe  Fe6  1  0.00000000  0.66070800  0.00340700  1
  Fe  Fe7  1  0.00000000  0.65431900  0.33037000  1
  Fe  Fe8  1  0.00000000  0.65387000  0.66497600  1
  Fe  Fe9  1  0.50000000  0.51424700  0.49805600  1
  Fe  Fe10  1  0.50000000  0.51508500  0.16429400  1
  Fe  Fe11  1  0.50000000  0.52031900  0.83468600  1
  Fe  Fe12  1  0.00000000  0.32532200  0.99358200  1
  Fe  Fe13  1  0.00000000  0.32149400  0.33004000  1
  Fe  Fe14  1  0.00000000  0.32384000  0.66701900  1
  Fe  Fe15  1  0.50000000  0.15992800  0.18355400  1
  Fe  Fe16  1  0.50000000  0.18374500  0.50107900  1
  Fe  Fe17  1  0.50000000  0.17813100  0.83102600  1
  O  O18  1  0.50000000  0.93582700  0.59953800  1
  O  O19  1  0.50000000  0.93533400  0.93588200  1
  O  O20  1  0.00000000  0.89982300  0.10464100  1
  O  O21  1  0.00000000  0.90173900  0.43014000  1
  O  O22  1  0.00000000  0.89930100  0.76826700  1
  O  O23  1  0.50000000  0.72835700  0.06280800  1
  O  O24  1  0.50000000  0.60317900  0.26900200  1
  O  O25  1  0.50000000  0.60282200  0.60146900  1
  O  O26  1  0.50000000  0.60226900  0.93656100  1
  O  O27  1  0.00000000  0.55968500  0.10130300  1
  O  O28  1  0.00000000  0.56494400  0.43490900  1
  O  O29  1  0.00000000  0.56744200  0.76884300  1
  O  O30  1  0.50000000  0.26844500  0.26610800  1
  O  O31  1  0.50000000  0.27052100  0.60403300  1
  O  O32  1  0.50000000  0.26640600  0.93882800  1
  O  O33  1  0.00000000  0.23164200  0.43489800  1
  O  O34  1  0.00000000  0.23237100  0.77026000  1
  O  O35  1  0.00000000  0.09475500  0.23685800  1
  F  F36  1  0.50000000  0.93187500  0.26943800  1
  F  F37  1  0.00000000  0.76942500  0.23513300  1
  F  F38  1  0.00000000  0.77055700  0.56296700  1
  F  F39  1  0.00000000  0.76919200  0.89420600  1
  F  F40  1  0.50000000  0.73400000  0.73060400  1
  F  F41  1  0.50000000  0.73411400  0.40033800  1
  F  F42  1  0.00000000  0.43340200  0.23430200  1
  F  F43  1  0.00000000  0.43453700  0.56618000  1
  F  F44  1  0.00000000  0.43343300  0.90115200  1
  F  F45  1  0.50000000  0.39319500  0.06695000  1
  F  F46  1  0.50000000  0.39797300  0.39911400  1
  F  F47  1  0.50000000  0.39996100  0.73343000  1
  F  F48  1  0.00000000  0.22887600  0.10454800  1
  F  F49  1  0.00000000  0.10227500  0.56624900  1
  F  F50  1  0.00000000  0.10110900  0.89850700  1
  F  F51  1  0.50000000  0.07003700  0.06490400  1
  F  F52  1  0.50000000  0.06464300  0.40168500  1
  F  F53  1  0.50000000  0.06615800  0.73191100  1
