# generated using pymatgen
data_VF4
_symmetry_space_group_name_H-M   'P 1'
_cell_length_a   3.09121000
_cell_length_b   4.98019300
_cell_length_c   10.46949104
_cell_angle_alpha   65.97806456
_cell_angle_beta   90.00000000
_cell_angle_gamma   90.00000000
_symmetry_Int_Tables_number   1
_chemical_formula_structural   VF4
_chemical_formula_sum   'V2 F8'
_cell_volume   147.21645307
_cell_formula_units_Z   2
loop_
 _symmetry_equiv_pos_site_id
 _symmetry_equiv_pos_as_xyz
  1  'x, y, z'
loop_
 _atom_site_type_symbol
 _atom_site_label
 _atom_site_symmetry_multiplicity
 _atom_site_fract_x
 _atom_site_fract_y
 _atom_site_fract_z
 _atom_site_occupancy
  V  V0  1  0.65384000  0.98629300  0.25361200  1
  V  V1  1  0.34616000  0.98629300  0.75361200  1
  F  F2  1  0.33897700  0.17058900  0.86676800  1
  F  F3  1  0.15427100  0.74971800  0.35888600  1
  F  F4  1  0.34328800  0.78067400  0.64995400  1
  F  F5  1  0.15818100  0.22415300  0.14725100  1
  F  F6  1  0.66102300  0.17058900  0.36676800  1
  F  F7  1  0.84572900  0.74971800  0.85888600  1
  F  F8  1  0.65671200  0.78067400  0.14995400  1
  F  F9  1  0.84181900  0.22415300  0.64725100  1
