# generated using pymatgen
data_VF4
_symmetry_space_group_name_H-M   'P 1'
_cell_length_a   6.27461093
_cell_length_b   6.27461093
_cell_length_c   5.47520179
_cell_angle_alpha   86.62531188
_cell_angle_beta   86.62531188
_cell_angle_gamma   48.95051772
_symmetry_Int_Tables_number   1
_chemical_formula_structural   VF4
_chemical_formula_sum   'V2 F8'
_cell_volume   162.22470931
_cell_formula_units_Z   2
loop_
 _symmetry_equiv_pos_site_id
 _symmetry_equiv_pos_as_xyz
  1  'x, y, z'
loop_
 _atom_site_type_symbol
 _atom_site_label
 _atom_site_symmetry_multiplicity
 _atom_site_fract_x
 _atom_site_fract_y
 _atom_site_fract_z
 _atom_site_occupancy
  V  V0  1  0.00000000  0.50000000  0.00000000  1
  V  V1  1  0.50000000  0.00000000  0.50000000  1
  F  F2  1  0.95557400  0.25190200  0.00024200  1
  F  F3  1  0.75362300  0.66546100  0.29719400  1
  F  F4  1  0.66546100  0.75362300  0.79719300  1
  F  F5  1  0.74809800  0.04442600  0.49975800  1
  F  F6  1  0.25190200  0.95557400  0.50024200  1
  F  F7  1  0.33453900  0.24637700  0.20280600  1
  F  F8  1  0.24637700  0.33453900  0.70280600  1
  F  F9  1  0.04442600  0.74809800  0.99975800  1
