# generated using pymatgen
data_Li3MnFeCo(PO4)3
_symmetry_space_group_name_H-M   'P 1'
_cell_length_a   6.08500400
_cell_length_b   10.47267200
_cell_length_c   14.29319900
_cell_angle_alpha   90.00000000
_cell_angle_beta   90.00000000
_cell_angle_gamma   90.00000000
_symmetry_Int_Tables_number   1
_chemical_formula_structural   Li3MnFeCo(PO4)3
_chemical_formula_sum   'Li12 Mn4 Fe4 Co4 P12 O48'
_cell_volume   910.85198722
_cell_formula_units_Z   4
loop_
 _symmetry_equiv_pos_site_id
 _symmetry_equiv_pos_as_xyz
  1  'x, y, z'
loop_
 _atom_site_type_symbol
 _atom_site_label
 _atom_site_symmetry_multiplicity
 _atom_site_fract_x
 _atom_site_fract_y
 _atom_site_fract_z
 _atom_site_occupancy
  Li  Li0  1  0.74878500  0.24897000  0.00068500  1
  Li  Li1  1  0.75101300  0.25115600  0.33305000  1
  Li  Li2  1  0.74940400  0.24951600  0.66648800  1
  Li  Li3  1  0.25121500  0.24897000  0.00068500  1
  Li  Li4  1  0.24898700  0.25115600  0.33305000  1
  Li  Li5  1  0.25059600  0.24951600  0.66648800  1
  Li  Li6  1  0.75059600  0.75048400  0.16648800  1
  Li  Li7  1  0.75121500  0.75103000  0.50068500  1
  Li  Li8  1  0.74898700  0.74884400  0.83305000  1
  Li  Li9  1  0.24940400  0.75048400  0.16648800  1
  Li  Li10  1  0.24878500  0.75103000  0.50068500  1
  Li  Li11  1  0.25101300  0.74884400  0.83305000  1
  Mn  Mn12  1  0.50000000  0.46836800  0.49384000  1
  Mn  Mn13  1  0.00000000  0.53163200  0.99384000  1
  Mn  Mn14  1  0.50000000  0.96931600  0.34029100  1
  Mn  Mn15  1  0.00000000  0.03068400  0.84029100  1
  Fe  Fe16  1  0.50000000  0.46990600  0.82518000  1
  Fe  Fe17  1  0.00000000  0.53009400  0.32518000  1
  Fe  Fe18  1  0.50000000  0.96807900  0.67418200  1
  Fe  Fe19  1  0.00000000  0.03192100  0.17418200  1
  Co  Co20  1  0.50000000  0.47056600  0.15888800  1
  Co  Co21  1  0.00000000  0.52943400  0.65888800  1
  Co  Co22  1  0.50000000  0.97156000  0.00698400  1
  Co  Co23  1  0.00000000  0.02844000  0.50698400  1
  P  P24  1  0.00000000  0.34349000  0.14081400  1
  P  P25  1  0.00000000  0.34378200  0.47190300  1
  P  P26  1  0.00000000  0.34560700  0.80521700  1
  P  P27  1  0.50000000  0.65439300  0.30521700  1
  P  P28  1  0.50000000  0.65651000  0.64081400  1
  P  P29  1  0.50000000  0.65621800  0.97190300  1
  P  P30  1  0.00000000  0.84610900  0.02816900  1
  P  P31  1  0.00000000  0.84429700  0.36168000  1
  P  P32  1  0.00000000  0.84280300  0.69252800  1
  P  P33  1  0.50000000  0.15719700  0.19252800  1
  P  P34  1  0.50000000  0.15389100  0.52816900  1
  P  P35  1  0.50000000  0.15570300  0.86168000  1
  O  O36  1  0.50000000  0.29463300  0.23355300  1
  O  O37  1  0.50000000  0.29116100  0.57058900  1
  O  O38  1  0.50000000  0.29452200  0.90104600  1
  O  O39  1  0.00000000  0.34643100  0.24794600  1
  O  O40  1  0.00000000  0.35099000  0.57960200  1
  O  O41  1  0.00000000  0.34643000  0.91253700  1
  O  O42  1  0.79539800  0.41382600  0.09682700  1
  O  O43  1  0.79799900  0.41362500  0.42624600  1
  O  O44  1  0.79777900  0.41768700  0.76122200  1
  O  O45  1  0.20460200  0.41382600  0.09682700  1
  O  O46  1  0.20200100  0.41362500  0.42624600  1
  O  O47  1  0.20222100  0.41768700  0.76122200  1
  O  O48  1  0.29777900  0.58231300  0.26122200  1
  O  O49  1  0.29539800  0.58617400  0.59682700  1
  O  O50  1  0.29799900  0.58637500  0.92624600  1
  O  O51  1  0.70222100  0.58231300  0.26122200  1
  O  O52  1  0.70460200  0.58617400  0.59682700  1
  O  O53  1  0.70200100  0.58637500  0.92624600  1
  O  O54  1  0.50000000  0.64901000  0.07960200  1
  O  O55  1  0.50000000  0.65357000  0.41253700  1
  O  O56  1  0.50000000  0.65356900  0.74794600  1
  O  O57  1  0.00000000  0.70883900  0.07058900  1
  O  O58  1  0.00000000  0.70547800  0.40104600  1
  O  O59  1  0.00000000  0.70536700  0.73355300  1
  O  O60  1  0.50000000  0.79098100  0.26285200  1
  O  O61  1  0.50000000  0.79341200  0.59860200  1
  O  O62  1  0.50000000  0.79479400  0.93321800  1
  O  O63  1  0.00000000  0.84880100  0.25413000  1
  O  O64  1  0.00000000  0.84761500  0.58497000  1
  O  O65  1  0.00000000  0.84637000  0.92072000  1
  O  O66  1  0.79589800  0.91657100  0.07171400  1
  O  O67  1  0.79849600  0.91439300  0.40720200  1
  O  O68  1  0.79704500  0.91360500  0.73684700  1
  O  O69  1  0.20410200  0.91657100  0.07171400  1
  O  O70  1  0.20150400  0.91439300  0.40720200  1
  O  O71  1  0.20295500  0.91360500  0.73684700  1
  O  O72  1  0.29704500  0.08639500  0.23684700  1
  O  O73  1  0.29589800  0.08342900  0.57171400  1
  O  O74  1  0.29849600  0.08560700  0.90720200  1
  O  O75  1  0.70295500  0.08639500  0.23684700  1
  O  O76  1  0.70410200  0.08342900  0.57171400  1
  O  O77  1  0.70150400  0.08560700  0.90720200  1
  O  O78  1  0.50000000  0.15238500  0.08497000  1
  O  O79  1  0.50000000  0.15363000  0.42072000  1
  O  O80  1  0.50000000  0.15119900  0.75413000  1
  O  O81  1  0.00000000  0.20658800  0.09860200  1
  O  O82  1  0.00000000  0.20520600  0.43321800  1
  O  O83  1  0.00000000  0.20901900  0.76285200  1
