# generated using pymatgen
data_AsH3C(SF2)3
_symmetry_space_group_name_H-M   'P 1'
_cell_length_a   8.21289300
_cell_length_b   11.82474968
_cell_length_c   15.19635469
_cell_angle_alpha   107.95864225
_cell_angle_beta   99.23478878
_cell_angle_gamma   104.06891479
_symmetry_Int_Tables_number   1
_chemical_formula_structural   AsH3C(SF2)3
_chemical_formula_sum   'As6 H18 C6 S18 F36'
_cell_volume   1316.71614382
_cell_formula_units_Z   6
loop_
 _symmetry_equiv_pos_site_id
 _symmetry_equiv_pos_as_xyz
  1  'x, y, z'
loop_
 _atom_site_type_symbol
 _atom_site_label
 _atom_site_symmetry_multiplicity
 _atom_site_fract_x
 _atom_site_fract_y
 _atom_site_fract_z
 _atom_site_occupancy
  As  As0  1  0.00000000  0.50000000  0.00000000  1
  As  As1  1  0.35205700  0.80971700  0.69038600  1
  As  As2  1  0.00000000  0.00000000  0.00000000  1
  As  As3  1  0.34084000  0.29239700  0.64750400  1
  As  As4  1  0.65916000  0.70760300  0.35249600  1
  As  As5  1  0.64794300  0.19028300  0.30961400  1
  H  H6  1  0.99787900  0.53076800  0.26017500  1
  H  H7  1  0.14110900  0.83267500  0.16945800  1
  H  H8  1  0.33319400  0.78804400  0.90387300  1
  H  H9  1  0.35240900  0.85076100  0.43290800  1
  H  H10  1  0.06622600  0.06887300  0.40052700  1
  H  H11  1  0.25929100  0.50444800  0.49923200  1
  H  H12  1  0.25486600  0.28136700  0.24002400  1
  H  H13  1  0.37589800  0.14270800  0.83453300  1
  H  H14  1  0.61562400  0.56312000  0.93929900  1
  H  H15  1  0.38437600  0.43688000  0.06070100  1
  H  H16  1  0.62410200  0.85729200  0.16546700  1
  H  H17  1  0.74513400  0.71863300  0.75997600  1
  H  H18  1  0.74070900  0.49555200  0.50076800  1
  H  H19  1  0.93377400  0.93112700  0.59947300  1
  H  H20  1  0.64759100  0.14923900  0.56709200  1
  H  H21  1  0.66680600  0.21195600  0.09612700  1
  H  H22  1  0.85889100  0.16732500  0.83054200  1
  H  H23  1  0.00212100  0.46923200  0.73982500  1
  C  C24  1  0.18525800  0.91701700  0.33341100  1
  C  C25  1  0.16362600  0.43632700  0.33309500  1
  C  C26  1  0.47772200  0.26499500  0.99660300  1
  C  C27  1  0.52227800  0.73500500  0.00339700  1
  C  C28  1  0.83637400  0.56367300  0.66690500  1
  C  C29  1  0.81474200  0.08298300  0.66658900  1
  S  S30  1  0.06188200  0.54837100  0.35319700  1
  S  S31  1  0.25929700  0.93212300  0.44905800  1
  S  S32  1  0.40812400  0.83657700  0.99967400  1
  S  S33  1  0.23021500  0.81170600  0.24309500  1
  S  S34  1  0.14620900  0.34479200  0.21881200  1
  S  S35  1  0.06147500  0.00523100  0.30854200  1
  S  S36  1  0.34401500  0.24470800  0.89090200  1
  S  S37  1  0.27403300  0.41018000  0.42577700  1
  S  S38  1  0.49839200  0.61096500  0.90266600  1
  S  S39  1  0.50160800  0.38903500  0.09733400  1
  S  S40  1  0.72596700  0.58982000  0.57422300  1
  S  S41  1  0.65598500  0.75529200  0.10909800  1
  S  S42  1  0.93852500  0.99476900  0.69145800  1
  S  S43  1  0.85379100  0.65520800  0.78118800  1
  S  S44  1  0.76978500  0.18829400  0.75690500  1
  S  S45  1  0.59187600  0.16342300  0.00032600  1
  S  S46  1  0.74070300  0.06787700  0.55094200  1
  S  S47  1  0.93811800  0.45162900  0.64680300  1
  F  F48  1  0.13411500  0.94592400  0.92706400  1
  F  F49  1  0.06389600  0.50999700  0.89524500  1
  F  F50  1  0.04296800  0.35557000  0.97851500  1
  F  F51  1  0.14435200  0.82952000  0.66631800  1
  F  F52  1  0.07710600  0.93383000  0.08231600  1
  F  F53  1  0.28197600  0.72244200  0.76222200  1
  F  F54  1  0.42518700  0.94939100  0.79294500  1
  F  F55  1  0.27562400  0.66912100  0.58796100  1
  F  F56  1  0.18716600  0.31220700  0.71663100  1
  F  F57  1  0.42340800  0.89572400  0.61929900  1
  F  F58  1  0.16627300  0.20441900  0.54319800  1
  F  F59  1  0.21827400  0.58043400  0.06890800  1
  F  F60  1  0.34108500  0.43203200  0.62718300  1
  F  F61  1  0.55852300  0.78728800  0.71385300  1
  F  F62  1  0.34087000  0.15286600  0.66838300  1
  F  F63  1  0.17139100  0.14212100  0.06392200  1
  F  F64  1  0.50724000  0.72889100  0.42267400  1
  F  F65  1  0.51423800  0.38057300  0.75134400  1
  F  F66  1  0.48576200  0.61942700  0.24865600  1
  F  F67  1  0.49276000  0.27110900  0.57732600  1
  F  F68  1  0.82860900  0.85787900  0.93607800  1
  F  F69  1  0.65913000  0.84713400  0.33161700  1
  F  F70  1  0.44147700  0.21271200  0.28614700  1
  F  F71  1  0.65891500  0.56796800  0.37281700  1
  F  F72  1  0.78172600  0.41956600  0.93109200  1
  F  F73  1  0.83372700  0.79558100  0.45680200  1
  F  F74  1  0.57659200  0.10427600  0.38070100  1
  F  F75  1  0.81283400  0.68779300  0.28336900  1
  F  F76  1  0.72437600  0.33087900  0.41203900  1
  F  F77  1  0.57481300  0.05060900  0.20705500  1
  F  F78  1  0.71802400  0.27755800  0.23777800  1
  F  F79  1  0.92289400  0.06617000  0.91768400  1
  F  F80  1  0.85564800  0.17048000  0.33368200  1
  F  F81  1  0.95703200  0.64443000  0.02148500  1
  F  F82  1  0.93610400  0.49000300  0.10475500  1
  F  F83  1  0.86588500  0.05407600  0.07293600  1
