# generated using pymatgen
data_Na3(NiO2)5
_symmetry_space_group_name_H-M   'P 1'
_cell_length_a   6.39499756
_cell_length_b   9.24179561
_cell_length_c   7.63988986
_cell_angle_alpha   106.49180851
_cell_angle_beta   110.07872865
_cell_angle_gamma   97.14276814
_symmetry_Int_Tables_number   1
_chemical_formula_structural   Na3(NiO2)5
_chemical_formula_sum   'Na6 Ni10 O20'
_cell_volume   394.11186767
_cell_formula_units_Z   2
loop_
 _symmetry_equiv_pos_site_id
 _symmetry_equiv_pos_as_xyz
  1  'x, y, z'
loop_
 _atom_site_type_symbol
 _atom_site_label
 _atom_site_symmetry_multiplicity
 _atom_site_fract_x
 _atom_site_fract_y
 _atom_site_fract_z
 _atom_site_occupancy
  Na  Na0  1  0.19999100  0.69998500  0.89996900  1
  Na  Na1  1  0.69999100  0.19998500  0.39996900  1
  Na  Na2  1  0.80312100  0.29950400  0.10449200  1
  Na  Na3  1  0.30312500  0.79950700  0.60449700  1
  Na  Na4  1  0.09690000  0.60048900  0.19550100  1
  Na  Na5  1  0.59690400  0.10049200  0.69550700  1
  Ni  Ni6  1  0.69996800  0.69999800  0.89999700  1
  Ni  Ni7  1  0.50092200  0.50311200  0.50051800  1
  Ni  Ni8  1  0.89907500  0.89688500  0.29949100  1
  Ni  Ni9  1  0.29721100  0.30198400  0.09768200  1
  Ni  Ni10  1  0.10280900  0.09802400  0.70233000  1
  Ni  Ni11  1  0.19996900  0.19999800  0.39999700  1
  Ni  Ni12  1  0.00092400  0.00311200  0.00052000  1
  Ni  Ni13  1  0.39907300  0.39688400  0.79948800  1
  Ni  Ni14  1  0.79720500  0.80197100  0.59768200  1
  Ni  Ni15  1  0.60281400  0.59803600  0.20233000  1
  O  O16  1  0.00448800  0.19395500  0.90407000  1
  O  O17  1  0.50449800  0.69395300  0.40407200  1
  O  O18  1  0.39552600  0.20604600  0.89593300  1
  O  O19  1  0.89551500  0.70604800  0.39593000  1
  O  O20  1  0.59543700  0.41883100  0.28621400  1
  O  O21  1  0.09542500  0.91882900  0.78621700  1
  O  O22  1  0.30459700  0.48117800  0.01379400  1
  O  O23  1  0.80458600  0.98117600  0.51379800  1
  O  O24  1  0.20104100  0.39384000  0.30045900  1
  O  O25  1  0.70104700  0.89383600  0.80045800  1
  O  O26  1  0.69896300  0.50616900  0.99954200  1
  O  O27  1  0.19897000  0.00616400  0.49954100  1
  O  O28  1  0.80143700  0.63153000  0.68688800  1
  O  O29  1  0.30143700  0.13153300  0.18689000  1
  O  O30  1  0.59855400  0.76847300  0.11312200  1
  O  O31  1  0.09855500  0.26847000  0.61312000  1
  O  O32  1  0.40183600  0.59086700  0.70679600  1
  O  O33  1  0.90184200  0.09086300  0.20679800  1
  O  O34  1  0.99812300  0.80913500  0.09319400  1
  O  O35  1  0.49811700  0.30913800  0.59319200  1
