# generated using pymatgen
data_Na4Mn5O12
_symmetry_space_group_name_H-M   'P 1'
_cell_length_a   6.10301220
_cell_length_b   6.10301220
_cell_length_c   13.63440269
_cell_angle_alpha   79.18221493
_cell_angle_beta   79.18221493
_cell_angle_gamma   89.53970541
_symmetry_Int_Tables_number   1
_chemical_formula_structural   Na4Mn5O12
_chemical_formula_sum   'Na8 Mn10 O24'
_cell_volume   489.75351120
_cell_formula_units_Z   2
loop_
 _symmetry_equiv_pos_site_id
 _symmetry_equiv_pos_as_xyz
  1  'x, y, z'
loop_
 _atom_site_type_symbol
 _atom_site_label
 _atom_site_symmetry_multiplicity
 _atom_site_fract_x
 _atom_site_fract_y
 _atom_site_fract_z
 _atom_site_occupancy
  Na  Na0  1  0.46947700  0.19507300  0.57736600  1
  Na  Na1  1  0.88819200  0.11180800  0.75000000  1
  Na  Na2  1  0.80492700  0.53052300  0.92263400  1
  Na  Na3  1  0.00000000  0.00000000  0.00000000  1
  Na  Na4  1  0.19507300  0.46947700  0.07736600  1
  Na  Na5  1  0.11180800  0.88819200  0.25000000  1
  Na  Na6  1  0.53052300  0.80492700  0.42263400  1
  Na  Na7  1  0.00000000  0.00000000  0.50000000  1
  Mn  Mn8  1  0.67521000  0.64366500  0.66806200  1
  Mn  Mn9  1  0.17032300  0.64395100  0.66894700  1
  Mn  Mn10  1  0.35633500  0.32479000  0.83193800  1
  Mn  Mn11  1  0.35604900  0.82967700  0.83105300  1
  Mn  Mn12  1  0.50000000  0.00000000  0.00000000  1
  Mn  Mn13  1  0.64366500  0.67521000  0.16806200  1
  Mn  Mn14  1  0.64395100  0.17032300  0.16894700  1
  Mn  Mn15  1  0.32479000  0.35633500  0.33193800  1
  Mn  Mn16  1  0.82967700  0.35604900  0.33105300  1
  Mn  Mn17  1  0.00000000  0.50000000  0.50000000  1
  O  O18  1  0.93301600  0.43695700  0.65175900  1
  O  O19  1  0.91796500  0.82817500  0.67845000  1
  O  O20  1  0.42146100  0.43037200  0.68160400  1
  O  O21  1  0.42020300  0.84940300  0.67780000  1
  O  O22  1  0.56962800  0.57853900  0.81839600  1
  O  O23  1  0.15059700  0.57979700  0.82220000  1
  O  O24  1  0.56304300  0.06698400  0.84824100  1
  O  O25  1  0.17182500  0.08203500  0.82155000  1
  O  O26  1  0.29803900  0.23966500  0.97414200  1
  O  O27  1  0.29921000  0.78674600  0.97251100  1
  O  O28  1  0.70079000  0.21325400  0.02748900  1
  O  O29  1  0.70196100  0.76033500  0.02585800  1
  O  O30  1  0.82817500  0.91796500  0.17845000  1
  O  O31  1  0.43695700  0.93301600  0.15175900  1
  O  O32  1  0.84940300  0.42020300  0.17780000  1
  O  O33  1  0.43037200  0.42146100  0.18160400  1
  O  O34  1  0.57853900  0.56962800  0.31839600  1
  O  O35  1  0.57979700  0.15059700  0.32220000  1
  O  O36  1  0.06698400  0.56304300  0.34824100  1
  O  O37  1  0.08203500  0.17182500  0.32155000  1
  O  O38  1  0.23966500  0.29803900  0.47414200  1
  O  O39  1  0.78674600  0.29921000  0.47251100  1
  O  O40  1  0.76033500  0.70196100  0.52585800  1
  O  O41  1  0.21325400  0.70079000  0.52748900  1
