# generated using pymatgen
data_FeOF
_symmetry_space_group_name_H-M   'P 1'
_cell_length_a   9.46413626
_cell_length_b   14.21879794
_cell_length_c   3.11168400
_cell_angle_alpha   90.00000000
_cell_angle_beta   90.00000000
_cell_angle_gamma   89.94057321
_symmetry_Int_Tables_number   1
_chemical_formula_structural   FeOF
_chemical_formula_sum   'Fe12 O12 F12'
_cell_volume   418.73486210
_cell_formula_units_Z   12
loop_
 _symmetry_equiv_pos_site_id
 _symmetry_equiv_pos_as_xyz
  1  'x, y, z'
loop_
 _atom_site_type_symbol
 _atom_site_label
 _atom_site_symmetry_multiplicity
 _atom_site_fract_x
 _atom_site_fract_y
 _atom_site_fract_z
 _atom_site_occupancy
  Fe  Fe0  1  0.01509500  0.99872300  0.00000000  1
  Fe  Fe1  1  0.02633400  0.32605700  0.00000000  1
  Fe  Fe2  1  0.99994400  0.67451100  0.00000000  1
  Fe  Fe3  1  0.23535000  0.15935000  0.50000000  1
  Fe  Fe4  1  0.21841300  0.50407000  0.50000000  1
  Fe  Fe5  1  0.25603400  0.85628700  0.50000000  1
  Fe  Fe6  1  0.51301200  0.32990200  0.00000000  1
  Fe  Fe7  1  0.52241000  0.98818100  0.00000000  1
  Fe  Fe8  1  0.50441400  0.67482800  0.00000000  1
  Fe  Fe9  1  0.72622700  0.16180000  0.50000000  1
  Fe  Fe10  1  0.74093100  0.48768400  0.50000000  1
  Fe  Fe11  1  0.74760400  0.82509200  0.50000000  1
  O  O12  1  0.10223200  0.26615000  0.50000000  1
  O  O13  1  0.09441100  0.60770700  0.50000000  1
  O  O14  1  0.09057000  0.93461100  0.50000000  1
  O  O15  1  0.15296300  0.10021800  0.00000000  1
  O  O16  1  0.14822400  0.43714300  0.00000000  1
  O  O17  1  0.35500200  0.90099100  0.00000000  1
  O  O18  1  0.59581900  0.26990400  0.50000000  1
  O  O19  1  0.60796300  0.92947900  0.50000000  1
  O  O20  1  0.65144600  0.09965000  0.00000000  1
  O  O21  1  0.64951100  0.43727100  0.00000000  1
  O  O22  1  0.64688800  0.76271400  0.00000000  1
  O  O23  1  0.90034800  0.73497700  0.50000000  1
  F  F24  1  0.16156700  0.77261700  0.00000000  1
  F  F25  1  0.34807600  0.23249800  0.00000000  1
  F  F26  1  0.35445200  0.56970400  0.00000000  1
  F  F27  1  0.40409700  0.06816200  0.50000000  1
  F  F28  1  0.40043600  0.40028600  0.50000000  1
  F  F29  1  0.39423100  0.72815800  0.50000000  1
  F  F30  1  0.59462600  0.60104900  0.50000000  1
  F  F31  1  0.84848600  0.23284000  0.00000000  1
  F  F32  1  0.84774100  0.90146300  0.00000000  1
  F  F33  1  0.84114200  0.56203100  0.00000000  1
  F  F34  1  0.90128600  0.06713500  0.50000000  1
  F  F35  1  0.90271300  0.39675800  0.50000000  1
