# generated using pymatgen
data_Li4V3P8O29
_symmetry_space_group_name_H-M   'P 1'
_cell_length_a   9.75458600
_cell_length_b   9.80057422
_cell_length_c   14.07098586
_cell_angle_alpha   90.08413274
_cell_angle_beta   90.01648716
_cell_angle_gamma   119.82963932
_symmetry_Int_Tables_number   1
_chemical_formula_structural   Li4V3P8O29
_chemical_formula_sum   'Li8 V6 P16 O58'
_cell_volume   1166.96474906
_cell_formula_units_Z   2
loop_
 _symmetry_equiv_pos_site_id
 _symmetry_equiv_pos_as_xyz
  1  'x, y, z'
loop_
 _atom_site_type_symbol
 _atom_site_label
 _atom_site_symmetry_multiplicity
 _atom_site_fract_x
 _atom_site_fract_y
 _atom_site_fract_z
 _atom_site_occupancy
  Li  Li0  1  0.68844200  0.91124700  0.55412600  1
  Li  Li1  1  0.22743300  0.32245300  0.55651200  1
  Li  Li2  1  0.09505100  0.32258800  0.06028900  1
  Li  Li3  1  0.22547300  0.91292900  0.06102100  1
  Li  Li4  1  0.08575700  0.77617200  0.55704400  1
  Li  Li5  1  0.77514000  0.08621800  0.94254200  1
  Li  Li6  1  0.90768600  0.68236900  0.94654000  1
  Li  Li7  1  0.31940600  0.09371200  0.43817600  1
  V  V8  1  0.99743900  0.43051600  0.25716400  1
  V  V9  1  0.99999700  0.56515200  0.74696000  1
  V  V10  1  0.56751200  0.99863800  0.75119700  1
  V  V11  1  0.43351200  0.99918000  0.24610100  1
  V  V12  1  0.56991900  0.57016100  0.24814700  1
  V  V13  1  0.43638300  0.43356200  0.75422200  1
  P  P14  1  0.68505100  0.76802100  0.84318700  1
  P  P15  1  0.68045700  0.90960500  0.34001700  1
  P  P16  1  0.23399600  0.31944000  0.34191100  1
  P  P17  1  0.32808200  0.66055200  0.12962300  1
  P  P18  1  0.33342900  0.66350400  0.62936200  1
  P  P19  1  0.08824400  0.31994500  0.84108500  1
  P  P20  1  0.91335400  0.22940800  0.65877400  1
  P  P21  1  0.22893800  0.90905900  0.84125600  1
  P  P22  1  0.77339600  0.09137300  0.15957700  1
  P  P23  1  0.08972900  0.77043500  0.34235300  1
  P  P24  1  0.91193400  0.67901400  0.16077700  1
  P  P25  1  0.66275000  0.33510700  0.37102700  1
  P  P26  1  0.67086100  0.33636400  0.87035600  1
  P  P27  1  0.76759000  0.68324200  0.65722700  1
  P  P28  1  0.32059100  0.09039700  0.66053200  1
  P  P29  1  0.31666000  0.23228300  0.15768600  1
  O  O30  1  0.75982700  0.76568800  0.57118500  1
  O  O31  1  0.65923400  0.74250600  0.32884900  1
  O  O32  1  0.76740700  0.01348700  0.06810600  1
  O  O33  1  0.66344600  0.91492300  0.84096700  1
  O  O34  1  0.52268000  0.61725500  0.82332900  1
  O  O35  1  0.47621100  0.66211300  0.17513100  1
  O  O36  1  0.38468500  0.47826900  0.32446800  1
  O  O37  1  0.22765600  0.23899100  0.07444100  1
  O  O38  1  0.25568100  0.34293600  0.83404700  1
  O  O39  1  0.48563500  0.81331700  0.66867600  1
  O  O40  1  0.51950500  0.90033900  0.32007300  1
  O  O41  1  0.32979800  0.51347100  0.67184900  1
  O  O42  1  0.32467500  0.65460700  0.02383300  1
  O  O43  1  0.32355400  0.65789600  0.52352400  1
  O  O44  1  0.17948800  0.51173400  0.17239300  1
  O  O45  1  0.38232200  0.90104800  0.82106200  1
  O  O46  1  0.32553300  0.81426800  0.16728000  1
  O  O47  1  0.08752300  0.34192000  0.33591500  1
  O  O48  1  0.99138500  0.20511200  0.75483300  1
  O  O49  1  0.00958000  0.24190400  0.57466400  1
  O  O50  1  0.00298200  0.24923000  0.93215300  1
  O  O51  1  0.09628300  0.47951200  0.82001700  1
  O  O52  1  0.18336300  0.66863500  0.67114000  1
  O  O53  1  0.91998100  0.25888500  0.16524500  1
  O  O54  1  0.09981800  0.61901500  0.32214900  1
  O  O55  1  0.25716000  0.91900900  0.33664300  1
  O  O56  1  0.79196100  0.00275300  0.25014600  1
  O  O57  1  0.75574400  0.98706600  0.43052100  1
  O  O58  1  0.24146600  0.00350000  0.57072600  1
  O  O59  1  0.74484400  0.08345900  0.66019600  1
  O  O60  1  0.90271900  0.38076500  0.67753200  1
  O  O61  1  0.08123800  0.74228300  0.83385400  1
  O  O62  1  0.81492200  0.33624700  0.32647300  1
  O  O63  1  0.90562700  0.52089400  0.17941600  1
  O  O64  1  0.00100900  0.75664900  0.07176300  1
  O  O65  1  0.00847200  0.76103500  0.43288200  1
  O  O66  1  0.00100300  0.78995800  0.25115900  1
  O  O67  1  0.91467000  0.66039800  0.65988600  1
  O  O68  1  0.67380700  0.18551100  0.83233900  1
  O  O69  1  0.61894300  0.09999200  0.17861800  1
  O  O70  1  0.81908400  0.48700700  0.82683800  1
  O  O71  1  0.67385400  0.34659400  0.97581100  1
  O  O72  1  0.66882900  0.34130700  0.47636400  1
  O  O73  1  0.66350700  0.48060900  0.32321700  1
  O  O74  1  0.48173500  0.10126700  0.67869000  1
  O  O75  1  0.51148000  0.18380300  0.33239700  1
  O  O76  1  0.74438600  0.65711600  0.16357200  1
  O  O77  1  0.79041100  0.78966000  0.75022500  1
  O  O78  1  0.76527600  0.75576700  0.92911800  1
  O  O79  1  0.61625100  0.52338000  0.67734000  1
  O  O80  1  0.52189400  0.33534400  0.82455700  1
  O  O81  1  0.47634500  0.38292100  0.17558200  1
  O  O82  1  0.33796900  0.08467800  0.15767500  1
  O  O83  1  0.23301900  0.98589200  0.93288100  1
  O  O84  1  0.21048000  0.00036400  0.75093600  1
  O  O85  1  0.33752400  0.25584000  0.66296300  1
  O  O86  1  0.24135500  0.24293600  0.43248300  1
  O  O87  1  0.21414900  0.20543400  0.25487000  1
