# generated using pymatgen
data_Mn11Cu7O24
_symmetry_space_group_name_H-M   'P 1'
_cell_length_a   6.07268955
_cell_length_b   10.43242065
_cell_length_c   8.30860434
_cell_angle_alpha   113.41592395
_cell_angle_beta   89.84096346
_cell_angle_gamma   73.14542026
_symmetry_Int_Tables_number   1
_chemical_formula_structural   Mn11Cu7O24
_chemical_formula_sum   'Mn11 Cu7 O24'
_cell_volume   458.08318822
_cell_formula_units_Z   1
loop_
 _symmetry_equiv_pos_site_id
 _symmetry_equiv_pos_as_xyz
  1  'x, y, z'
loop_
 _atom_site_type_symbol
 _atom_site_label
 _atom_site_symmetry_multiplicity
 _atom_site_fract_x
 _atom_site_fract_y
 _atom_site_fract_z
 _atom_site_occupancy
  Mn  Mn0  1  0.25247300  0.49884900  0.12519600  1
  Mn  Mn1  1  0.08333300  0.83333300  0.29166700  1
  Mn  Mn2  1  0.58333300  0.33333300  0.29166700  1
  Mn  Mn3  1  0.74867900  0.49884900  0.62365400  1
  Mn  Mn4  1  0.91419400  0.16781700  0.45813800  1
  Mn  Mn5  1  0.58333300  0.83333300  0.79166700  1
  Mn  Mn6  1  0.74906200  0.00187500  0.62593800  1
  Mn  Mn7  1  0.24969500  0.00061100  0.62530500  1
  Mn  Mn8  1  0.41760500  0.66479100  0.95739500  1
  Mn  Mn9  1  0.91697200  0.66605600  0.95802800  1
  Mn  Mn10  1  0.41798800  0.16781700  0.95968000  1
  Cu  Cu11  1  0.99909100  0.00191900  0.00118700  1
  Cu  Cu12  1  0.66767600  0.66474800  0.33260300  1
  Cu  Cu13  1  0.08333300  0.33333300  0.29166700  1
  Cu  Cu14  1  0.49899000  0.00191900  0.25073100  1
  Cu  Cu15  1  0.16757600  0.66474800  0.58214700  1
  Cu  Cu16  1  0.32722800  0.33333300  0.66342500  1
  Cu  Cu17  1  0.83943900  0.33333300  0.91990800  1
  O  O18  1  0.58268500  0.81948600  0.02209700  1
  O  O19  1  0.09782800  0.81948600  0.04738900  1
  O  O20  1  0.93954800  0.66507300  0.19441700  1
  O  O21  1  0.39871400  0.66185900  0.19427000  1
  O  O22  1  0.11530300  0.33333300  0.04677000  1
  O  O23  1  0.56558300  0.33333300  0.05376300  1
  O  O24  1  0.42065000  0.18118300  0.20275900  1
  O  O25  1  0.06883900  0.84718000  0.53594400  1
  O  O26  1  0.26849800  0.48548400  0.35490900  1
  O  O27  1  0.89816800  0.18118300  0.22842400  1
  O  O28  1  0.74601700  0.48548400  0.38057500  1
  O  O29  1  0.58398100  0.84718000  0.56123600  1
  O  O30  1  0.60108300  0.33333300  0.52957100  1
  O  O31  1  0.05136400  0.33333300  0.53656300  1
  O  O32  1  0.22711800  0.00159400  0.38891600  1
  O  O33  1  0.43942800  0.66185900  0.71758900  1
  O  O34  1  0.76795300  0.00480800  0.38906400  1
  O  O35  1  0.89537900  0.66507300  0.72065600  1
  O  O36  1  0.91741800  0.15319900  0.68944200  1
  O  O37  1  0.73728300  0.51346800  0.86957700  1
  O  O38  1  0.42938400  0.15319900  0.71375600  1
  O  O39  1  0.24924800  0.51346800  0.89389200  1
  O  O40  1  0.72723900  0.00480800  0.86574400  1
  O  O41  1  0.27128800  0.00159400  0.86267800  1
