# generated using pymatgen
data_W7(OF5)6
_symmetry_space_group_name_H-M   'P 1'
_cell_length_a   9.27907700
_cell_length_b   9.49051299
_cell_length_c   9.53198780
_cell_angle_alpha   115.50566228
_cell_angle_beta   100.21306047
_cell_angle_gamma   99.91020791
_symmetry_Int_Tables_number   1
_chemical_formula_structural   W7(OF5)6
_chemical_formula_sum   'W7 O6 F30'
_cell_volume   715.84374928
_cell_formula_units_Z   1
loop_
 _symmetry_equiv_pos_site_id
 _symmetry_equiv_pos_as_xyz
  1  'x, y, z'
loop_
 _atom_site_type_symbol
 _atom_site_label
 _atom_site_symmetry_multiplicity
 _atom_site_fract_x
 _atom_site_fract_y
 _atom_site_fract_z
 _atom_site_occupancy
  W  W0  1  0.24466700  0.07564300  0.39455800  1
  W  W1  1  0.00000000  0.00000000  0.00000000  1
  W  W2  1  0.77172100  0.24212600  0.24111000  1
  W  W3  1  0.75156700  0.60299500  0.91635700  1
  W  W4  1  0.24843300  0.39700500  0.08364300  1
  W  W5  1  0.22827900  0.75787400  0.75889000  1
  W  W6  1  0.75533300  0.92435700  0.60544200  1
  O  O7  1  0.88194000  0.08819200  0.14867000  1
  O  O8  1  0.16892800  0.04724300  0.18063400  1
  O  O9  1  0.92003100  0.78635900  0.97736000  1
  O  O10  1  0.07996900  0.21364100  0.02264000  1
  O  O11  1  0.83107200  0.95275700  0.81936600  1
  O  O12  1  0.11806000  0.91180800  0.85133000  1
  F  F13  1  0.93954200  0.07695200  0.64809400  1
  F  F14  1  0.66177000  0.09290800  0.68035800  1
  F  F15  1  0.30127700  0.09869200  0.60435000  1
  F  F16  1  0.59176400  0.07492800  0.17114300  1
  F  F17  1  0.81930300  0.24187800  0.44128100  1
  F  F18  1  0.87047500  0.45601800  0.86133000  1
  F  F19  1  0.20318100  0.37127400  0.87207400  1
  F  F20  1  0.42865200  0.22596400  0.43664800  1
  F  F21  1  0.57516700  0.43382600  0.85294100  1
  F  F22  1  0.15285100  0.24610000  0.47404500  1
  F  F23  1  0.72390500  0.24408300  0.04086300  1
  F  F24  1  0.95240500  0.41126200  0.31407900  1
  F  F25  1  0.66637700  0.39885700  0.31839900  1
  F  F26  1  0.70563300  0.57308400  0.70276500  1
  F  F27  1  0.36865300  0.25020300  0.02918300  1
  F  F28  1  0.63134700  0.74979700  0.97081700  1
  F  F29  1  0.29436700  0.42691600  0.29723500  1
  F  F30  1  0.33362300  0.60114300  0.68160100  1
  F  F31  1  0.04759500  0.58873800  0.68592100  1
  F  F32  1  0.27609500  0.75591700  0.95913700  1
  F  F33  1  0.84714900  0.75390000  0.52595500  1
  F  F34  1  0.42483300  0.56617400  0.14705900  1
  F  F35  1  0.57134800  0.77403600  0.56335200  1
  F  F36  1  0.79681900  0.62872600  0.12792600  1
  F  F37  1  0.12952500  0.54398200  0.13867000  1
  F  F38  1  0.18069700  0.75812200  0.55871900  1
  F  F39  1  0.40823600  0.92507200  0.82885700  1
  F  F40  1  0.69872300  0.90130800  0.39565000  1
  F  F41  1  0.33823000  0.90709200  0.31964200  1
  F  F42  1  0.06045800  0.92304800  0.35190600  1
