# generated using pymatgen
data_Na4CoO4
_symmetry_space_group_name_H-M   'P 1'
_cell_length_a   6.06736400
_cell_length_b   10.06936042
_cell_length_c   17.84961047
_cell_angle_alpha   92.44344196
_cell_angle_beta   90.17019008
_cell_angle_gamma   90.01651270
_symmetry_Int_Tables_number   1
_chemical_formula_structural   Na4CoO4
_chemical_formula_sum   'Na32 Co8 O32'
_cell_volume   1089.51617625
_cell_formula_units_Z   8
loop_
 _symmetry_equiv_pos_site_id
 _symmetry_equiv_pos_as_xyz
  1  'x, y, z'
loop_
 _atom_site_type_symbol
 _atom_site_label
 _atom_site_symmetry_multiplicity
 _atom_site_fract_x
 _atom_site_fract_y
 _atom_site_fract_z
 _atom_site_occupancy
  Na  Na0  1  0.81671500  0.86162600  0.13860100  1
  Na  Na1  1  0.66656800  0.85169900  0.63924400  1
  Na  Na2  1  0.35893400  0.79640700  0.85986400  1
  Na  Na3  1  0.49196800  0.72851200  0.38950500  1
  Na  Na4  1  0.42631300  0.76050000  0.21792600  1
  Na  Na5  1  0.06229900  0.74845200  0.71268700  1
  Na  Na6  1  0.59754300  0.67101100  0.99557500  1
  Na  Na7  1  0.93809600  0.68577300  0.49723100  1
  Na  Na8  1  0.65742200  0.60936700  0.76466100  1
  Na  Na9  1  0.88511200  0.63210200  0.26295900  1
  Na  Na10  1  0.13869000  0.64704400  0.08155600  1
  Na  Na11  1  0.37789300  0.62751300  0.58615300  1
  Na  Na12  1  0.93220600  0.45219900  0.94361100  1
  Na  Na13  1  0.57728700  0.43735700  0.44340900  1
  Na  Na14  1  0.13063400  0.40517300  0.74400100  1
  Na  Na15  1  0.38133300  0.41032400  0.24539800  1
  Na  Na16  1  0.40816100  0.34816900  0.99628700  1
  Na  Na17  1  0.08950300  0.33071300  0.49315500  1
  Na  Na18  1  0.90151200  0.31665100  0.31512400  1
  Na  Na19  1  0.60947400  0.31234900  0.82094200  1
  Na  Na20  1  0.44439900  0.30102000  0.62591600  1
  Na  Na21  1  0.05923900  0.31142800  0.12585200  1
  Na  Na22  1  0.91090500  0.19449600  0.63292400  1
  Na  Na23  1  0.58989100  0.20209100  0.13490700  1
  Na  Na24  1  0.41024400  0.15854500  0.32631000  1
  Na  Na25  1  0.08196000  0.15205500  0.82517400  1
  Na  Na26  1  0.59153500  0.08472600  0.49603900  1
  Na  Na27  1  0.91295500  0.09524900  0.99360100  1
  Na  Na28  1  0.99181900  0.02546000  0.25957300  1
  Na  Na29  1  0.54600800  0.04464800  0.75415300  1
  Na  Na30  1  0.41193700  0.02464800  0.95202400  1
  Na  Na31  1  0.10205400  0.98669800  0.45339200  1
  Co  Co32  1  0.81508100  0.92996800  0.86518600  1
  Co  Co33  1  0.68759500  0.94769600  0.36347900  1
  Co  Co34  1  0.33099200  0.52357700  0.87517400  1
  Co  Co35  1  0.16836600  0.52794000  0.37863200  1
  Co  Co36  1  0.84849200  0.46731200  0.62132500  1
  Co  Co37  1  0.66084100  0.47650700  0.12242600  1
  Co  Co38  1  0.30398400  0.04063000  0.62490100  1
  Co  Co39  1  0.18994400  0.05105900  0.12598700  1
  O  O40  1  0.10437000  0.95551900  0.88315300  1
  O  O41  1  0.39532000  0.95957300  0.37888200  1
  O  O42  1  0.73437300  0.84574600  0.77680000  1
  O  O43  1  0.74273600  0.85007200  0.27750100  1
  O  O44  1  0.78589200  0.87117000  0.44697900  1
  O  O45  1  0.66796600  0.86446400  0.94165900  1
  O  O46  1  0.26256900  0.86391000  0.62614100  1
  O  O47  1  0.22744000  0.87485900  0.13267400  1
  O  O48  1  0.76555200  0.63960400  0.62009500  1
  O  O49  1  0.75484100  0.64614700  0.11926500  1
  O  O50  1  0.22899400  0.60256100  0.95905600  1
  O  O51  1  0.29237100  0.59841500  0.46294800  1
  O  O52  1  0.26353000  0.61238800  0.29788400  1
  O  O53  1  0.26770600  0.60889600  0.78989900  1
  O  O54  1  0.62597500  0.51662400  0.88478000  1
  O  O55  1  0.87242800  0.52944200  0.38515700  1
  O  O56  1  0.14430700  0.45064900  0.61670600  1
  O  O57  1  0.36308200  0.46436900  0.11861300  1
  O  O58  1  0.75559800  0.39218500  0.70772400  1
  O  O59  1  0.75486100  0.40023900  0.20762500  1
  O  O60  1  0.76767400  0.36937500  0.04623300  1
  O  O61  1  0.73430300  0.35939100  0.54689500  1
  O  O62  1  0.22731300  0.35215400  0.86859200  1
  O  O63  1  0.26467200  0.35509100  0.37030400  1
  O  O64  1  0.79347000  0.11735300  0.36154400  1
  O  O65  1  0.71066700  0.10676900  0.86479500  1
  O  O66  1  0.20688700  0.13112700  0.54569300  1
  O  O67  1  0.28805000  0.14457800  0.04779100  1
  O  O68  1  0.27633700  0.15428300  0.20806200  1
  O  O69  1  0.21922400  0.14290200  0.70714100  1
  O  O70  1  0.60265900  0.06795900  0.62565800  1
  O  O71  1  0.89292400  0.07495800  0.12477000  1
