# generated using pymatgen
data_NaV24O58
_symmetry_space_group_name_H-M   'P 1'
_cell_length_a   7.34823100
_cell_length_b   10.97179882
_cell_length_c   14.39602173
_cell_angle_alpha   97.24425892
_cell_angle_beta   97.35712609
_cell_angle_gamma   109.55812515
_symmetry_Int_Tables_number   1
_chemical_formula_structural   NaV24O58
_chemical_formula_sum   'Na1 V24 O58'
_cell_volume   1066.80783406
_cell_formula_units_Z   1
loop_
 _symmetry_equiv_pos_site_id
 _symmetry_equiv_pos_as_xyz
  1  'x, y, z'
loop_
 _atom_site_type_symbol
 _atom_site_label
 _atom_site_symmetry_multiplicity
 _atom_site_fract_x
 _atom_site_fract_y
 _atom_site_fract_z
 _atom_site_occupancy
  Na  Na0  1  0.40445900  0.55771600  0.50598800  1
  V  V1  1  0.27281800  0.13263700  0.82566800  1
  V  V2  1  0.77146900  0.13018800  0.82573100  1
  V  V3  1  0.42270300  0.90731700  0.87844000  1
  V  V4  1  0.92372000  0.90711100  0.87847500  1
  V  V5  1  0.92395500  0.45545700  0.78462300  1
  V  V6  1  0.42315300  0.45463600  0.78342100  1
  V  V7  1  0.25340100  0.65521200  0.71056500  1
  V  V8  1  0.75708500  0.65519000  0.71038400  1
  V  V9  1  0.25575800  0.20892700  0.60429100  1
  V  V10  1  0.75417200  0.20562200  0.60708300  1
  V  V11  1  0.39678700  0.97093900  0.64350500  1
  V  V12  1  0.89608600  0.97140900  0.64308100  1
  V  V13  1  0.10322000  0.02956200  0.35703800  1
  V  V14  1  0.60560900  0.03320700  0.35462900  1
  V  V15  1  0.74674700  0.79795200  0.39640700  1
  V  V16  1  0.24543200  0.79276500  0.39573200  1
  V  V17  1  0.24164500  0.34063600  0.28666900  1
  V  V18  1  0.74816300  0.34878400  0.29336100  1
  V  V19  1  0.07708300  0.54561100  0.21637400  1
  V  V20  1  0.57618000  0.54465500  0.21587900  1
  V  V21  1  0.07637500  0.09205500  0.12032200  1
  V  V22  1  0.57548500  0.09145600  0.12000100  1
  V  V23  1  0.22713200  0.86704600  0.17348700  1
  V  V24  1  0.72713700  0.86792500  0.17351000  1
  O  O25  1  0.34191400  0.21837400  0.93089100  1
  O  O26  1  0.84189200  0.21841400  0.93021400  1
  O  O27  1  0.00003600  0.99996500  0.99992800  1
  O  O28  1  0.49974000  0.99959100  0.00004700  1
  O  O29  1  0.46517300  0.48196600  0.89675100  1
  O  O30  1  0.96461100  0.48016600  0.89795400  1
  O  O31  1  0.34959600  0.75352800  0.89018900  1
  O  O32  1  0.84890200  0.75339100  0.89024100  1
  O  O33  1  0.49388700  0.08767100  0.79985600  1
  O  O34  1  0.99327500  0.08711800  0.79909100  1
  O  O35  1  0.19066400  0.95166300  0.85907200  1
  O  O36  1  0.69035400  0.95129700  0.85911500  1
  O  O37  1  0.32327400  0.27006200  0.75273200  1
  O  O38  1  0.82179800  0.26850200  0.75016500  1
  O  O39  1  0.17622800  0.47768900  0.75272600  1
  O  O40  1  0.67788700  0.47771300  0.75274100  1
  O  O41  1  0.17408500  0.01552800  0.66554800  1
  O  O42  1  0.67180700  0.00902100  0.66827500  1
  O  O43  1  0.00122000  0.62985900  0.74510900  1
  O  O44  1  0.49968800  0.62892800  0.74066000  1
  O  O45  1  0.34636900  0.83344100  0.72657200  1
  O  O46  1  0.85014400  0.83312000  0.72656400  1
  O  O47  1  0.48763600  0.15204400  0.61067800  1
  O  O48  1  0.96947200  0.15141300  0.61066800  1
  O  O49  1  0.33117600  0.36485700  0.59452200  1
  O  O50  1  0.82640200  0.35686100  0.59270300  1
  O  O51  1  0.20074600  0.61470100  0.59594900  1
  O  O52  1  0.71186200  0.61486400  0.59568500  1
  O  O53  1  0.17818300  0.12249900  0.46734500  1
  O  O54  1  0.67726200  0.12207000  0.46524200  1
  O  O55  1  0.81964400  0.87619000  0.53097600  1
  O  O56  1  0.32321300  0.87816000  0.53280900  1
  O  O57  1  0.28763000  0.37432700  0.40135100  1
  O  O58  1  0.79587600  0.38813600  0.40697600  1
  O  O59  1  0.18352100  0.63826800  0.40727400  1
  O  O60  1  0.66303100  0.64386700  0.40743600  1
  O  O61  1  0.01203500  0.84803000  0.38812400  1
  O  O62  1  0.53031800  0.85038000  0.38826800  1
  O  O63  1  0.14923300  0.16350900  0.27054700  1
  O  O64  1  0.65227500  0.16520400  0.27656600  1
  O  O65  1  0.99797600  0.37005700  0.25713100  1
  O  O66  1  0.50065100  0.36992900  0.25714100  1
  O  O67  1  0.33562600  0.98715900  0.33475000  1
  O  O68  1  0.82033700  0.98887700  0.33362800  1
  O  O69  1  0.32293500  0.52117800  0.24759200  1
  O  O70  1  0.82376600  0.52341800  0.24957300  1
  O  O71  1  0.67779000  0.73088600  0.24926200  1
  O  O72  1  0.17664100  0.73022600  0.24739400  1
  O  O73  1  0.80880200  0.04783700  0.14105700  1
  O  O74  1  0.30970500  0.04791000  0.14124000  1
  O  O75  1  0.00619600  0.91182300  0.20101000  1
  O  O76  1  0.50585100  0.91164100  0.19965700  1
  O  O77  1  0.15101800  0.24692600  0.11017000  1
  O  O78  1  0.65011800  0.24538400  0.10943000  1
  O  O79  1  0.03433100  0.51844100  0.10315200  1
  O  O80  1  0.53550800  0.51833600  0.10270600  1
  O  O81  1  0.15795100  0.78068100  0.06852400  1
  O  O82  1  0.65696100  0.78059100  0.06895800  1
