# generated using pymatgen
data_Li2VCr(P2O7)2
_symmetry_space_group_name_H-M   'P 1'
_cell_length_a   9.55738390
_cell_length_b   9.55914211
_cell_length_c   7.15166995
_cell_angle_alpha   79.27265676
_cell_angle_beta   79.29855112
_cell_angle_gamma   118.75547636
_symmetry_Int_Tables_number   1
_chemical_formula_structural   Li2VCr(P2O7)2
_chemical_formula_sum   'Li4 V2 Cr2 P8 O28'
_cell_volume   533.28968590
_cell_formula_units_Z   2
loop_
 _symmetry_equiv_pos_site_id
 _symmetry_equiv_pos_as_xyz
  1  'x, y, z'
loop_
 _atom_site_type_symbol
 _atom_site_label
 _atom_site_symmetry_multiplicity
 _atom_site_fract_x
 _atom_site_fract_y
 _atom_site_fract_z
 _atom_site_occupancy
  Li  Li0  1  0.06761400  0.43048600  0.32399100  1
  Li  Li1  1  0.31876800  0.18163200  0.67644200  1
  Li  Li2  1  0.56924100  0.93199600  0.32324100  1
  Li  Li3  1  0.81872100  0.68155400  0.67651900  1
  V  V4  1  0.75682300  0.75651600  0.27079400  1
  V  V5  1  0.49382000  0.99311500  0.72917100  1
  Cr  Cr6  1  0.25672000  0.25663100  0.27228600  1
  Cr  Cr7  1  0.99314300  0.49351500  0.72790900  1
  P  P8  1  0.34760000  0.52822100  0.52309700  1
  P  P9  1  0.85003400  0.02968600  0.52133500  1
  P  P10  1  0.67139600  0.45430300  0.08588000  1
  P  P11  1  0.17169700  0.95657000  0.08592100  1
  P  P12  1  0.29366400  0.57676200  0.91475200  1
  P  P13  1  0.79567600  0.08015000  0.91325000  1
  P  P14  1  0.22072400  0.90126800  0.47711700  1
  P  P15  1  0.72133900  0.40109900  0.47839200  1
  O  O16  1  0.19055700  0.12540000  0.08425500  1
  O  O17  1  0.01575900  0.19380600  0.39321100  1
  O  O18  1  0.20755300  0.05356500  0.49006400  1
  O  O19  1  0.27929500  0.47277600  0.11617800  1
  O  O20  1  0.48866200  0.31209000  0.14552600  1
  O  O21  1  0.33281700  0.37104400  0.48138500  1
  O  O22  1  0.19600400  0.54245600  0.50983400  1
  O  O23  1  0.69936400  0.04333800  0.50505400  1
  O  O24  1  0.55651000  0.23459500  0.60567700  1
  O  O25  1  0.05657600  0.73619800  0.60664300  1
  O  O26  1  0.62527800  0.06004800  0.91723700  1
  O  O27  1  0.12490100  0.55842000  0.91712600  1
  O  O28  1  0.34478300  0.49591600  0.75343300  1
  O  O29  1  0.75362300  0.40524400  0.24712300  1
  O  O30  1  0.25347000  0.90520700  0.24628800  1
  O  O31  1  0.69108100  0.62446100  0.08096600  1
  O  O32  1  0.51335700  0.69308400  0.39440800  1
  O  O33  1  0.70668300  0.55104600  0.49505100  1
  O  O34  1  0.87910400  0.41611300  0.51892300  1
  O  O35  1  0.37901400  0.91745200  0.51806100  1
  O  O36  1  0.93820500  0.26281500  0.85264800  1
  O  O37  1  0.43732400  0.75983700  0.85314700  1
  O  O38  1  0.27400500  0.97132500  0.88443300  1
  O  O39  1  0.77738400  0.47016100  0.88474400  1
  O  O40  1  0.77911000  0.97561500  0.11449100  1
  O  O41  1  0.98863400  0.81224600  0.14881000  1
  O  O42  1  0.83358500  0.87078300  0.48203000  1
  O  O43  1  0.84480300  0.99703000  0.75315200  1
