# generated using pymatgen
data_Na3Ni2O5
_symmetry_space_group_name_H-M   'P 1'
_cell_length_a   5.27970100
_cell_length_b   6.30534305
_cell_length_c   6.90540695
_cell_angle_alpha   107.61089347
_cell_angle_beta   96.48226080
_cell_angle_gamma   107.23584858
_symmetry_Int_Tables_number   1
_chemical_formula_structural   Na3Ni2O5
_chemical_formula_sum   'Na6 Ni4 O10'
_cell_volume   204.02429174
_cell_formula_units_Z   2
loop_
 _symmetry_equiv_pos_site_id
 _symmetry_equiv_pos_as_xyz
  1  'x, y, z'
loop_
 _atom_site_type_symbol
 _atom_site_label
 _atom_site_symmetry_multiplicity
 _atom_site_fract_x
 _atom_site_fract_y
 _atom_site_fract_z
 _atom_site_occupancy
  Na  Na0  1  0.61992800  0.71152300  0.20146800  1
  Na  Na1  1  0.38007200  0.28847700  0.79853200  1
  Na  Na2  1  0.20530300  0.90290100  0.38869800  1
  Na  Na3  1  0.00000000  0.50000000  0.00000000  1
  Na  Na4  1  0.00000000  0.00000000  0.00000000  1
  Na  Na5  1  0.79469700  0.09709900  0.61130200  1
  Ni  Ni6  1  0.60242200  0.20484200  0.20394200  1
  Ni  Ni7  1  0.39757800  0.79515800  0.79605800  1
  Ni  Ni8  1  0.20243900  0.40524900  0.40557900  1
  Ni  Ni9  1  0.79756100  0.59475100  0.59442100  1
  O  O10  1  0.65089200  0.12114800  0.92021300  1
  O  O11  1  0.67001200  0.65580000  0.85118000  1
  O  O12  1  0.47605800  0.71947300  0.52446900  1
  O  O13  1  0.52394200  0.28052700  0.47553100  1
  O  O14  1  0.34910800  0.87885200  0.07978700  1
  O  O15  1  0.32998800  0.34420000  0.14882000  1
  O  O16  1  0.87707500  0.51553100  0.31766600  1
  O  O17  1  0.89810200  0.10993500  0.30583400  1
  O  O18  1  0.10189800  0.89006500  0.69416600  1
  O  O19  1  0.12292500  0.48446900  0.68233400  1
