# generated using pymatgen
data_Ca19(Cu12O23)2
_symmetry_space_group_name_H-M   'P 1'
_cell_length_a   6.47113300
_cell_length_b   10.93000575
_cell_length_c   16.95170460
_cell_angle_alpha   74.92642451
_cell_angle_beta   89.87280930
_cell_angle_gamma   89.85760445
_symmetry_Int_Tables_number   1
_chemical_formula_structural   Ca19(Cu12O23)2
_chemical_formula_sum   'Ca19 Cu24 O46'
_cell_volume   1157.72692960
_cell_formula_units_Z   1
loop_
 _symmetry_equiv_pos_site_id
 _symmetry_equiv_pos_as_xyz
  1  'x, y, z'
loop_
 _atom_site_type_symbol
 _atom_site_label
 _atom_site_symmetry_multiplicity
 _atom_site_fract_x
 _atom_site_fract_y
 _atom_site_fract_z
 _atom_site_occupancy
  Ca  Ca0  1  0.25134000  0.74841200  0.95517300  1
  Ca  Ca1  1  0.25047800  0.74627100  0.75930100  1
  Ca  Ca2  1  0.74493200  0.75485900  0.64949700  1
  Ca  Ca3  1  0.24991600  0.75091400  0.55456900  1
  Ca  Ca4  1  0.74819000  0.74749200  0.45551100  1
  Ca  Ca5  1  0.25085500  0.74494600  0.36037600  1
  Ca  Ca6  1  0.75347400  0.74911600  0.25493500  1
  Ca  Ca7  1  0.25446400  0.75568300  0.14953900  1
  Ca  Ca8  1  0.75074400  0.75131500  0.03674400  1
  Ca  Ca9  1  0.25174300  0.25159900  0.94747800  1
  Ca  Ca10  1  0.74088300  0.24812300  0.84851500  1
  Ca  Ca11  1  0.24431000  0.25065100  0.73849300  1
  Ca  Ca12  1  0.75117100  0.25101900  0.63908900  1
  Ca  Ca13  1  0.25222700  0.25294700  0.54177000  1
  Ca  Ca14  1  0.75072300  0.24832000  0.44609800  1
  Ca  Ca15  1  0.25417000  0.24403400  0.34850500  1
  Ca  Ca16  1  0.75391400  0.25207100  0.24145500  1
  Ca  Ca17  1  0.24850300  0.25282600  0.14150300  1
  Ca  Ca18  1  0.75095600  0.25158500  0.04294100  1
  Cu  Cu19  1  0.48131400  0.99498700  0.91669600  1
  Cu  Cu20  1  0.97400800  0.99711700  0.83432400  1
  Cu  Cu21  1  0.47530600  0.99932300  0.74993400  1
  Cu  Cu22  1  0.99949200  0.99871100  0.50382500  1
  Cu  Cu23  1  0.51418400  0.99603500  0.41860200  1
  Cu  Cu24  1  0.01704400  0.99607900  0.33498200  1
  Cu  Cu25  1  0.52070000  0.00014800  0.24981300  1
  Cu  Cu26  1  0.00530600  0.00304600  0.99905000  1
  Cu  Cu27  1  0.50022600  0.49908700  0.91950000  1
  Cu  Cu28  1  0.99563300  0.50143000  0.83369700  1
  Cu  Cu29  1  0.47837000  0.49826400  0.75422700  1
  Cu  Cu30  1  0.99339800  0.50229000  0.66674000  1
  Cu  Cu31  1  0.49579300  0.50247600  0.58640300  1
  Cu  Cu32  1  0.99935900  0.49930600  0.50122300  1
  Cu  Cu33  1  0.50463300  0.49875100  0.41834500  1
  Cu  Cu34  1  0.00691300  0.49856500  0.33404800  1
  Cu  Cu35  1  0.50307500  0.50086100  0.24984500  1
  Cu  Cu36  1  0.00432500  0.50223000  0.16529100  1
  Cu  Cu37  1  0.49856900  0.49897200  0.08301100  1
  Cu  Cu38  1  0.00523600  0.50279100  0.99757200  1
  Cu  Cu39  1  0.99962800  0.00521300  0.66739600  1
  Cu  Cu40  1  0.48595800  0.00256100  0.58195700  1
  Cu  Cu41  1  0.01626700  0.00231400  0.16614900  1
  Cu  Cu42  1  0.51568200  0.00322300  0.08082900  1
  O  O43  1  0.95710100  0.88202700  0.93878300  1
  O  O44  1  0.42000900  0.87617800  0.84603100  1
  O  O45  1  0.49734600  0.88216200  0.68907100  1
  O  O46  1  0.04142300  0.87748600  0.61308700  1
  O  O47  1  0.55880800  0.87428100  0.52421500  1
  O  O48  1  0.05616400  0.87349800  0.43749400  1
  O  O49  1  0.54852800  0.87458200  0.34913600  1
  O  O50  1  0.54715100  0.61615900  0.98211500  1
  O  O51  1  0.02957800  0.87897900  0.26963000  1
  O  O52  1  0.08993100  0.61673600  0.88977400  1
  O  O53  1  0.50112800  0.88448100  0.18720700  1
  O  O54  1  0.96556600  0.88314500  0.10261900  1
  O  O55  1  0.98662200  0.62230900  0.73178900  1
  O  O56  1  0.44555300  0.87500400  0.02329900  1
  O  O57  1  0.45055400  0.63000600  0.65845800  1
  O  O58  1  0.94312900  0.62482100  0.56538600  1
  O  O59  1  0.43885100  0.62378200  0.48038000  1
  O  O60  1  0.94991400  0.61938100  0.39316200  1
  O  O61  1  0.94743600  0.37964500  0.93389600  1
  O  O62  1  0.47875400  0.61867900  0.31132000  1
  O  O63  1  0.46885400  0.38736700  0.85478000  1
  O  O64  1  0.01397600  0.61906200  0.23080600  1
  O  O65  1  0.98807500  0.38135600  0.77077100  1
  O  O66  1  0.53601200  0.62056300  0.14715100  1
  O  O67  1  0.53000300  0.37665900  0.68803400  1
  O  O68  1  0.05280000  0.62387100  0.06427600  1
  O  O69  1  0.05402000  0.37814000  0.60842300  1
  O  O70  1  0.56262200  0.37617800  0.52057900  1
  O  O71  1  0.05277000  0.37677100  0.43413800  1
  O  O72  1  0.53421000  0.37830000  0.34934500  1
  O  O73  1  0.55758200  0.12450100  0.97504200  1
  O  O74  1  0.01162900  0.38114200  0.26914400  1
  O  O75  1  0.03461300  0.12541500  0.89772800  1
  O  O76  1  0.47571500  0.38287100  0.18834900  1
  O  O77  1  0.49501000  0.11633000  0.81189800  1
  O  O78  1  0.94639200  0.38028300  0.10638800  1
  O  O79  1  0.96987800  0.11156500  0.73406500  1
  O  O80  1  0.43774100  0.36912500  0.02895000  1
  O  O81  1  0.45035700  0.12443200  0.65022900  1
  O  O82  1  0.93728900  0.13238800  0.55817600  1
  O  O83  1  0.44335400  0.12465100  0.47570200  1
  O  O84  1  0.96786500  0.11637800  0.39382000  1
  O  O85  1  0.50416900  0.11638700  0.31224400  1
  O  O86  1  0.02961900  0.11953800  0.23344700  1
  O  O87  1  0.54968900  0.12531400  0.15058600  1
  O  O88  1  0.05744800  0.12587200  0.06239600  1
