# generated using pymatgen
data_H9PbC3I
_symmetry_space_group_name_H-M   'P 1'
_cell_length_a   6.70095000
_cell_length_b   10.59445400
_cell_length_c   11.54124400
_cell_angle_alpha   90.00000000
_cell_angle_beta   90.00000000
_cell_angle_gamma   90.00000000
_symmetry_Int_Tables_number   1
_chemical_formula_structural   H9PbC3I
_chemical_formula_sum   'H36 Pb4 C12 I4'
_cell_volume   819.34645655
_cell_formula_units_Z   4
loop_
 _symmetry_equiv_pos_site_id
 _symmetry_equiv_pos_as_xyz
  1  'x, y, z'
loop_
 _atom_site_type_symbol
 _atom_site_label
 _atom_site_symmetry_multiplicity
 _atom_site_fract_x
 _atom_site_fract_y
 _atom_site_fract_z
 _atom_site_occupancy
  H  H0  1  0.05689600  0.02412700  0.44512400  1
  H  H1  1  0.07749300  0.21944900  0.02105700  1
  H  H2  1  0.12165300  0.33892800  0.67985900  1
  H  H3  1  0.13614000  0.23003100  0.80001000  1
  H  H4  1  0.18982000  0.17641900  0.65454300  1
  H  H5  1  0.19499500  0.83818900  0.58534000  1
  H  H6  1  0.21436600  0.88668500  0.93293000  1
  H  H7  1  0.23862100  0.98411800  0.33500100  1
  H  H8  1  0.24223300  0.32744300  0.09559700  1
  H  H9  1  0.25776700  0.67255700  0.59559700  1
  H  H10  1  0.26137900  0.01588200  0.83500100  1
  H  H11  1  0.28563400  0.11331500  0.43293000  1
  H  H12  1  0.30500500  0.16181100  0.08534000  1
  H  H13  1  0.31018000  0.82358100  0.15454300  1
  H  H14  1  0.36386000  0.76996900  0.30001000  1
  H  H15  1  0.37834700  0.66107200  0.17985900  1
  H  H16  1  0.42250700  0.78055100  0.52105700  1
  H  H17  1  0.44310400  0.97587300  0.94512400  1
  H  H18  1  0.55689600  0.47587300  0.55487600  1
  H  H19  1  0.57749300  0.28055100  0.97894300  1
  H  H20  1  0.62165300  0.16107200  0.32014100  1
  H  H21  1  0.63614000  0.26996900  0.19999000  1
  H  H22  1  0.68982000  0.32358100  0.34545700  1
  H  H23  1  0.69499500  0.66181100  0.41466000  1
  H  H24  1  0.71436600  0.61331500  0.06707000  1
  H  H25  1  0.73862100  0.51588200  0.66499900  1
  H  H26  1  0.74223300  0.17255700  0.90440300  1
  H  H27  1  0.75776700  0.82744300  0.40440300  1
  H  H28  1  0.76137900  0.48411800  0.16499900  1
  H  H29  1  0.78563400  0.38668500  0.56707000  1
  H  H30  1  0.80500500  0.33818900  0.91466000  1
  H  H31  1  0.81018000  0.67641900  0.84545700  1
  H  H32  1  0.86386000  0.73003100  0.69999000  1
  H  H33  1  0.87834700  0.83892800  0.82014100  1
  H  H34  1  0.92250700  0.71944900  0.47894300  1
  H  H35  1  0.94310400  0.52412700  0.05487600  1
  Pb  Pb36  1  0.02144600  0.19334400  0.26065600  1
  Pb  Pb37  1  0.47855400  0.80665600  0.76065600  1
  Pb  Pb38  1  0.52144600  0.30665600  0.73934400  1
  Pb  Pb39  1  0.97855400  0.69334400  0.23934400  1
  C  C40  1  0.17135100  0.06002800  0.38586000  1
  C  C41  1  0.18424800  0.23113400  0.09219300  1
  C  C42  1  0.19678700  0.25567100  0.71505900  1
  C  C43  1  0.30321300  0.74432800  0.21505900  1
  C  C44  1  0.31575200  0.76886600  0.59219300  1
  C  C45  1  0.32864900  0.93997200  0.88586000  1
  C  C46  1  0.67135100  0.43997200  0.61414000  1
  C  C47  1  0.68424800  0.26886600  0.90780700  1
  C  C48  1  0.69678700  0.24432900  0.28494100  1
  C  C49  1  0.80321300  0.75567200  0.78494100  1
  C  C50  1  0.81575200  0.73113400  0.40780700  1
  C  C51  1  0.82864900  0.56002800  0.11414000  1
  I  I52  1  0.17894500  0.43613000  0.37929400  1
  I  I53  1  0.32105500  0.56387000  0.87929400  1
  I  I54  1  0.67894500  0.06387000  0.62070600  1
  I  I55  1  0.82105500  0.93613000  0.12070600  1
