# generated using pymatgen
data_V6O5F19
_symmetry_space_group_name_H-M   'P 1'
_cell_length_a   5.32856400
_cell_length_b   5.55107122
_cell_length_c   14.72219411
_cell_angle_alpha   100.39211147
_cell_angle_beta   89.70356056
_cell_angle_gamma   92.18668097
_symmetry_Int_Tables_number   1
_chemical_formula_structural   V6O5F19
_chemical_formula_sum   'V6 O5 F19'
_cell_volume   428.01540394
_cell_formula_units_Z   1
loop_
 _symmetry_equiv_pos_site_id
 _symmetry_equiv_pos_as_xyz
  1  'x, y, z'
loop_
 _atom_site_type_symbol
 _atom_site_label
 _atom_site_symmetry_multiplicity
 _atom_site_fract_x
 _atom_site_fract_y
 _atom_site_fract_z
 _atom_site_occupancy
  V  V0  1  0.03403500  0.95537800  0.99597200  1
  V  V1  1  0.51740800  0.88814700  0.66840000  1
  V  V2  1  0.96611400  0.71835300  0.33743400  1
  V  V3  1  0.54270200  0.46657200  0.00386200  1
  V  V4  1  0.97096100  0.39722700  0.67023700  1
  V  V5  1  0.48680700  0.18097300  0.33177300  1
  O  O6  1  0.79762100  0.96284300  0.35757300  1
  O  O7  1  0.79235200  0.63622400  0.69174200  1
  O  O8  1  0.77363900  0.30211900  0.02178000  1
  O  O9  1  0.20550600  0.71871800  0.97782700  1
  O  O10  1  0.70803300  0.13438100  0.69025900  1
  F  F11  1  0.72471000  0.78594500  0.02683300  1
  F  F12  1  0.28289400  0.86601000  0.30916300  1
  F  F13  1  0.90293800  0.95829800  0.88543600  1
  F  F14  1  0.58875100  0.76372300  0.55219200  1
  F  F15  1  0.92672200  0.60888300  0.21788400  1
  F  F16  1  0.41694000  0.85511300  0.78061800  1
  F  F17  1  0.09046800  0.69208900  0.44632100  1
  F  F18  1  0.40620400  0.54826500  0.11476900  1
  F  F19  1  0.70203700  0.48177000  0.35705000  1
  F  F20  1  0.27482800  0.52713400  0.64268600  1
  F  F21  1  0.21308600  0.35064600  0.30808000  1
  F  F22  1  0.56453700  0.47549300  0.88414000  1
  F  F23  1  0.91696900  0.26846200  0.55267800  1
  F  F24  1  0.59566200  0.11324400  0.21672100  1
  F  F25  1  0.07760900  0.35538900  0.77990700  1
  F  F26  1  0.43013000  0.19830100  0.45107000  1
  F  F27  1  0.07243900  0.07110100  0.11552000  1
  F  F28  1  0.28700200  0.20265800  0.97259500  1
  F  F29  1  0.23089500  0.01653900  0.63947900  1
