# generated using pymatgen
data_Ti3Fe9O16
_symmetry_space_group_name_H-M   'P 1'
_cell_length_a   6.12874300
_cell_length_b   8.64499500
_cell_length_c   12.19073600
_cell_angle_alpha   90.00000000
_cell_angle_beta   90.00000000
_cell_angle_gamma   90.00000000
_symmetry_Int_Tables_number   1
_chemical_formula_structural   Ti3Fe9O16
_chemical_formula_sum   'Ti6 Fe18 O32'
_cell_volume   645.90118754
_cell_formula_units_Z   2
loop_
 _symmetry_equiv_pos_site_id
 _symmetry_equiv_pos_as_xyz
  1  'x, y, z'
loop_
 _atom_site_type_symbol
 _atom_site_label
 _atom_site_symmetry_multiplicity
 _atom_site_fract_x
 _atom_site_fract_y
 _atom_site_fract_z
 _atom_site_occupancy
  Ti  Ti0  1  0.50000000  0.50056000  0.25206300  1
  Ti  Ti1  1  0.50000000  0.50000000  0.00000000  1
  Ti  Ti2  1  0.50000000  0.49944000  0.74793700  1
  Ti  Ti3  1  0.00000000  0.00000000  0.50000000  1
  Ti  Ti4  1  0.00000000  0.99944000  0.75206300  1
  Ti  Ti5  1  0.00000000  0.00056000  0.24793700  1
  Fe  Fe6  1  0.75065700  0.24861000  0.87604200  1
  Fe  Fe7  1  0.74934300  0.25139000  0.37604200  1
  Fe  Fe8  1  0.24934300  0.24861000  0.87604200  1
  Fe  Fe9  1  0.25065700  0.25139000  0.37604200  1
  Fe  Fe10  1  0.00000000  0.36591100  0.12416800  1
  Fe  Fe11  1  0.00000000  0.36820200  0.62764600  1
  Fe  Fe12  1  0.50000000  0.50000000  0.50000000  1
  Fe  Fe13  1  0.00000000  0.63408900  0.87583200  1
  Fe  Fe14  1  0.00000000  0.63179800  0.37235400  1
  Fe  Fe15  1  0.25065700  0.74861000  0.62395800  1
  Fe  Fe16  1  0.75065700  0.75139000  0.12395800  1
  Fe  Fe17  1  0.24934300  0.75139000  0.12395800  1
  Fe  Fe18  1  0.74934300  0.74861000  0.62395800  1
  Fe  Fe19  1  0.50000000  0.86820200  0.87235400  1
  Fe  Fe20  1  0.50000000  0.86591100  0.37583200  1
  Fe  Fe21  1  0.00000000  0.00000000  0.00000000  1
  Fe  Fe22  1  0.50000000  0.13408900  0.62416800  1
  Fe  Fe23  1  0.50000000  0.13179800  0.12764600  1
  O  O24  1  0.50000000  0.26566200  0.00213800  1
  O  O25  1  0.50000000  0.27077900  0.76246700  1
  O  O26  1  0.50000000  0.26408400  0.48627000  1
  O  O27  1  0.50000000  0.27275100  0.24824500  1
  O  O28  1  0.28395900  0.50114900  0.87804000  1
  O  O29  1  0.71604100  0.50114900  0.87804000  1
  O  O30  1  0.73928500  0.50664800  0.35955300  1
  O  O31  1  0.26071500  0.50664800  0.35955300  1
  O  O32  1  0.73928500  0.49335200  0.64044700  1
  O  O33  1  0.71604100  0.49885100  0.12196000  1
  O  O34  1  0.28395900  0.49885100  0.12196000  1
  O  O35  1  0.26071500  0.49335200  0.64044700  1
  O  O36  1  0.50000000  0.73433800  0.99786200  1
  O  O37  1  0.50000000  0.72922100  0.23753300  1
  O  O38  1  0.50000000  0.73591600  0.51373000  1
  O  O39  1  0.50000000  0.72724900  0.75175500  1
  O  O40  1  0.00000000  0.77077900  0.73753300  1
  O  O41  1  0.00000000  0.77275100  0.25175500  1
  O  O42  1  0.00000000  0.76408400  0.01373000  1
  O  O43  1  0.00000000  0.76566200  0.49786200  1
  O  O44  1  0.78395900  0.00114900  0.62196000  1
  O  O45  1  0.21604100  0.00114900  0.62196000  1
  O  O46  1  0.76071500  0.00664800  0.14044700  1
  O  O47  1  0.23928500  0.00664800  0.14044700  1
  O  O48  1  0.21604100  0.99885100  0.37804000  1
  O  O49  1  0.78395900  0.99885100  0.37804000  1
  O  O50  1  0.23928500  0.99335200  0.85955300  1
  O  O51  1  0.76071500  0.99335200  0.85955300  1
  O  O52  1  0.00000000  0.23591600  0.98627000  1
  O  O53  1  0.00000000  0.22724900  0.74824500  1
  O  O54  1  0.00000000  0.22922100  0.26246700  1
  O  O55  1  0.00000000  0.23433800  0.50213800  1
