# generated using pymatgen
data_Mn2F7
_symmetry_space_group_name_H-M   'P 1'
_cell_length_a   7.35369300
_cell_length_b   7.42407100
_cell_length_c   9.50791538
_cell_angle_alpha   88.49373798
_cell_angle_beta   90.00000000
_cell_angle_gamma   90.00000000
_symmetry_Int_Tables_number   1
_chemical_formula_structural   Mn2F7
_chemical_formula_sum   'Mn8 F28'
_cell_volume   518.89899176
_cell_formula_units_Z   4
loop_
 _symmetry_equiv_pos_site_id
 _symmetry_equiv_pos_as_xyz
  1  'x, y, z'
loop_
 _atom_site_type_symbol
 _atom_site_label
 _atom_site_symmetry_multiplicity
 _atom_site_fract_x
 _atom_site_fract_y
 _atom_site_fract_z
 _atom_site_occupancy
  Mn  Mn0  1  0.63712000  0.09156000  0.09907500  1
  Mn  Mn1  1  0.86288000  0.09156000  0.59907500  1
  Mn  Mn2  1  0.64054000  0.37362400  0.43377200  1
  Mn  Mn3  1  0.85946000  0.37362400  0.93377200  1
  Mn  Mn4  1  0.14054000  0.62637600  0.06622800  1
  Mn  Mn5  1  0.35946000  0.62637600  0.56622800  1
  Mn  Mn6  1  0.13712000  0.90844000  0.40092500  1
  Mn  Mn7  1  0.36288000  0.90844000  0.90092500  1
  F  F8  1  0.38571000  0.03851100  0.08764700  1
  F  F9  1  0.11429000  0.03851100  0.58764700  1
  F  F10  1  0.19229400  0.11462900  0.31795100  1
  F  F11  1  0.88830700  0.17191100  0.07050400  1
  F  F12  1  0.62353300  0.20873300  0.27925600  1
  F  F13  1  0.30770600  0.11462900  0.81795100  1
  F  F14  1  0.61169300  0.17191100  0.57050400  1
  F  F15  1  0.87646700  0.20873300  0.77925600  1
  F  F16  1  0.61064100  0.31533700  0.98688500  1
  F  F17  1  0.88935900  0.31533700  0.48688500  1
  F  F18  1  0.39018100  0.43226100  0.42150100  1
  F  F19  1  0.10981900  0.43226100  0.92150100  1
  F  F20  1  0.20358600  0.45501000  0.18644200  1
  F  F21  1  0.29641400  0.45501000  0.68644200  1
  F  F22  1  0.70358600  0.54499000  0.31355800  1
  F  F23  1  0.79641400  0.54499000  0.81355800  1
  F  F24  1  0.89018100  0.56773900  0.07849900  1
  F  F25  1  0.60981900  0.56773900  0.57849900  1
  F  F26  1  0.11064100  0.68466300  0.51311500  1
  F  F27  1  0.38935900  0.68466300  0.01311500  1
  F  F28  1  0.12353300  0.79126700  0.22074400  1
  F  F29  1  0.38830700  0.82808900  0.42949600  1
  F  F30  1  0.69229400  0.88537100  0.18204900  1
  F  F31  1  0.37646700  0.79126700  0.72074400  1
  F  F32  1  0.11169300  0.82808900  0.92949600  1
  F  F33  1  0.80770600  0.88537100  0.68204900  1
  F  F34  1  0.88571000  0.96148900  0.41235300  1
  F  F35  1  0.61429000  0.96148900  0.91235300  1
