# generated using pymatgen
data_V12PbO30
_symmetry_space_group_name_H-M   'P 1'
_cell_length_a   7.34633900
_cell_length_b   8.13168916
_cell_length_c   10.29579899
_cell_angle_alpha   108.68226838
_cell_angle_beta   89.97107330
_cell_angle_gamma   103.03508128
_symmetry_Int_Tables_number   1
_chemical_formula_structural   V12PbO30
_chemical_formula_sum   'V12 Pb1 O30'
_cell_volume   565.91335177
_cell_formula_units_Z   1
loop_
 _symmetry_equiv_pos_site_id
 _symmetry_equiv_pos_as_xyz
  1  'x, y, z'
loop_
 _atom_site_type_symbol
 _atom_site_label
 _atom_site_symmetry_multiplicity
 _atom_site_fract_x
 _atom_site_fract_y
 _atom_site_fract_z
 _atom_site_occupancy
  V  V0  1  0.83231500  0.32975200  0.90307500  1
  V  V1  1  0.33193600  0.32735600  0.90083800  1
  V  V2  1  0.85760900  0.43041600  0.59377500  1
  V  V3  1  0.35729500  0.42960000  0.59279400  1
  V  V4  1  0.55501300  0.22358800  0.11240000  1
  V  V5  1  0.05815600  0.22820900  0.11316900  1
  V  V6  1  0.94213400  0.76923400  0.88598700  1
  V  V7  1  0.43989000  0.75896000  0.88076500  1
  V  V8  1  0.14091800  0.56626000  0.40457700  1
  V  V9  1  0.64245400  0.56668600  0.40451700  1
  V  V10  1  0.66941400  0.67278600  0.10224200  1
  V  V11  1  0.16729600  0.67383100  0.10205100  1
  Pb  Pb12  1  0.49567600  0.00129200  0.60259700  1
  O  O13  1  0.77270800  0.13208000  0.78386800  1
  O  O14  1  0.29586400  0.12806200  0.78027600  1
  O  O15  1  0.60137600  0.37607000  0.94906000  1
  O  O16  1  0.08575700  0.37141800  0.94574500  1
  O  O17  1  0.79754000  0.21387500  0.53664800  1
  O  O18  1  0.30982200  0.21264700  0.53501400  1
  O  O19  1  0.00023500  0.00106200  0.00177000  1
  O  O20  1  0.50050500  0.00187200  0.00455100  1
  O  O21  1  0.55452000  0.21861100  0.26957100  1
  O  O22  1  0.05521600  0.21997000  0.26889400  1
  O  O23  1  0.86889100  0.47685700  0.77919300  1
  O  O24  1  0.36980400  0.47867300  0.77610000  1
  O  O25  1  0.62356300  0.48995500  0.57278000  1
  O  O26  1  0.12061600  0.48672000  0.57125600  1
  O  O27  1  0.31546000  0.26923600  0.07589100  1
  O  O28  1  0.81877200  0.26860500  0.07514300  1
  O  O29  1  0.69027300  0.73359100  0.92964300  1
  O  O30  1  0.17658400  0.73358200  0.92964800  1
  O  O31  1  0.87802000  0.51098800  0.42457100  1
  O  O32  1  0.37755700  0.51103700  0.42516000  1
  O  O33  1  0.63026900  0.52614800  0.22010000  1
  O  O34  1  0.13253100  0.52532300  0.21962700  1
  O  O35  1  0.94601600  0.78404800  0.73231500  1
  O  O36  1  0.44576900  0.78343700  0.72476600  1
  O  O37  1  0.69319700  0.78407600  0.46548600  1
  O  O38  1  0.19897100  0.78408900  0.46561300  1
  O  O39  1  0.90752000  0.62826000  0.05684800  1
  O  O40  1  0.40677900  0.62822400  0.04931200  1
  O  O41  1  0.71451300  0.86805900  0.21619900  1
  O  O42  1  0.21954800  0.86865500  0.21646800  1
