# generated using pymatgen
data_Co6O5F7
_symmetry_space_group_name_H-M   'P 1'
_cell_length_a   4.55021400
_cell_length_b   5.46778767
_cell_length_c   7.62441464
_cell_angle_alpha   92.95324401
_cell_angle_beta   91.35862625
_cell_angle_gamma   90.56054019
_symmetry_Int_Tables_number   1
_chemical_formula_structural   Co6O5F7
_chemical_formula_sum   'Co6 O5 F7'
_cell_volume   189.37572635
_cell_formula_units_Z   1
loop_
 _symmetry_equiv_pos_site_id
 _symmetry_equiv_pos_as_xyz
  1  'x, y, z'
loop_
 _atom_site_type_symbol
 _atom_site_label
 _atom_site_symmetry_multiplicity
 _atom_site_fract_x
 _atom_site_fract_y
 _atom_site_fract_z
 _atom_site_occupancy
  Co  Co0  1  0.55426300  0.48362000  0.99245200  1
  Co  Co1  1  0.47959000  0.18131300  0.65924800  1
  Co  Co2  1  0.45840200  0.83715200  0.34014000  1
  Co  Co3  1  0.00922000  0.31832900  0.32784900  1
  Co  Co4  1  0.01888200  0.65955400  0.65968900  1
  Co  Co5  1  0.99881100  0.01188700  0.01424800  1
  O  O6  1  0.20180800  0.36461300  0.55142500  1
  O  O7  1  0.18396200  0.04243600  0.23046600  1
  O  O8  1  0.29200400  0.88127000  0.57928800  1
  O  O9  1  0.68922300  0.46638800  0.75764200  1
  O  O10  1  0.81137600  0.29057900  0.10468500  1
  F  F11  1  0.19692100  0.71135600  0.91752900  1
  F  F12  1  0.29889900  0.52046900  0.22480000  1
  F  F13  1  0.28858200  0.20301300  0.90619100  1
  F  F14  1  0.71974700  0.12705100  0.43285600  1
  F  F15  1  0.70168100  0.80385100  0.10011900  1
  F  F16  1  0.79094000  0.97794100  0.78214400  1
  F  F17  1  0.80568800  0.61917900  0.41923300  1
