# generated using pymatgen
data_Na7Ni17O24
_symmetry_space_group_name_H-M   'P 1'
_cell_length_a   5.98799000
_cell_length_b   6.04661623
_cell_length_c   14.79504251
_cell_angle_alpha   90.08887185
_cell_angle_beta   90.21383571
_cell_angle_gamma   118.87312740
_symmetry_Int_Tables_number   1
_chemical_formula_structural   Na7Ni17O24
_chemical_formula_sum   'Na7 Ni17 O24'
_cell_volume   469.08809900
_cell_formula_units_Z   1
loop_
 _symmetry_equiv_pos_site_id
 _symmetry_equiv_pos_as_xyz
  1  'x, y, z'
loop_
 _atom_site_type_symbol
 _atom_site_label
 _atom_site_symmetry_multiplicity
 _atom_site_fract_x
 _atom_site_fract_y
 _atom_site_fract_z
 _atom_site_occupancy
  Na  Na0  1  0.17595000  0.83797500  0.33122300  1
  Na  Na1  1  0.50000000  0.50000000  0.00000000  1
  Na  Na2  1  0.66189600  0.32754500  0.83466900  1
  Na  Na3  1  0.33810400  0.67245500  0.16533100  1
  Na  Na4  1  0.32469400  0.16266800  0.66681000  1
  Na  Na5  1  0.67530600  0.83733200  0.33319000  1
  Na  Na6  1  0.82405000  0.16202500  0.66877700  1
  Ni  Ni7  1  0.83133000  0.66896900  0.16878900  1
  Ni  Ni8  1  0.50000000  0.50000000  0.50000000  1
  Ni  Ni9  1  0.16078300  0.82708000  0.83506500  1
  Ni  Ni10  1  0.82482700  0.65966400  0.66949300  1
  Ni  Ni11  1  0.00000000  0.00000000  0.50000000  1
  Ni  Ni12  1  0.00000000  0.50000000  0.50000000  1
  Ni  Ni13  1  0.33738200  0.17346900  0.16491700  1
  Ni  Ni14  1  0.66261800  0.82653100  0.83508300  1
  Ni  Ni15  1  0.00000000  0.50000000  0.00000000  1
  Ni  Ni16  1  0.66928100  0.33441700  0.33251400  1
  Ni  Ni17  1  0.33071900  0.66558300  0.66748600  1
  Ni  Ni18  1  0.00000000  0.00000000  0.00000000  1
  Ni  Ni19  1  0.16867000  0.33103100  0.83121100  1
  Ni  Ni20  1  0.50000000  0.00000000  0.50000000  1
  Ni  Ni21  1  0.83921700  0.17292000  0.16493500  1
  Ni  Ni22  1  0.17517300  0.34033600  0.33050700  1
  Ni  Ni23  1  0.50000000  0.00000000  0.00000000  1
  O  O24  1  0.86978500  0.69351700  0.91532400  1
  O  O25  1  0.83532200  0.64398700  0.42886100  1
  O  O26  1  0.49566100  0.52248100  0.74961700  1
  O  O27  1  0.15286800  0.84939100  0.07387500  1
  O  O28  1  0.15062800  0.80555600  0.57482500  1
  O  O29  1  0.50433900  0.47751900  0.25038300  1
  O  O30  1  0.65829100  0.35441400  0.57266400  1
  O  O31  1  0.00304400  0.02599000  0.23676300  1
  O  O32  1  0.31415700  0.67476800  0.91221200  1
  O  O33  1  0.02197000  0.52347500  0.75053800  1
  O  O34  1  0.97803000  0.47652500  0.24946200  1
  O  O35  1  0.65929700  0.81673700  0.57751400  1
  O  O36  1  0.29725900  0.13550700  0.91996100  1
  O  O37  1  0.34070300  0.18326300  0.42248600  1
  O  O38  1  0.70274100  0.86449300  0.08003900  1
  O  O39  1  0.99695600  0.97401000  0.76323700  1
  O  O40  1  0.68584300  0.32523200  0.08778800  1
  O  O41  1  0.34170900  0.64558600  0.42733600  1
  O  O42  1  0.16467800  0.35601300  0.57113900  1
  O  O43  1  0.54007200  0.04478100  0.23970300  1
  O  O44  1  0.45992800  0.95521900  0.76029700  1
  O  O45  1  0.13021500  0.30648300  0.08467600  1
  O  O46  1  0.84937200  0.19444400  0.42517500  1
  O  O47  1  0.84713200  0.15060900  0.92612500  1
