# generated using pymatgen
data_CrOF4
_symmetry_space_group_name_H-M   'P 1'
_cell_length_a   16.88848000
_cell_length_b   5.54828900
_cell_length_c   8.06305272
_cell_angle_alpha   89.13883818
_cell_angle_beta   90.00000000
_cell_angle_gamma   90.00000000
_symmetry_Int_Tables_number   1
_chemical_formula_structural   CrOF4
_chemical_formula_sum   'Cr8 O8 F32'
_cell_volume   755.44018260
_cell_formula_units_Z   8
loop_
 _symmetry_equiv_pos_site_id
 _symmetry_equiv_pos_as_xyz
  1  'x, y, z'
loop_
 _atom_site_type_symbol
 _atom_site_label
 _atom_site_symmetry_multiplicity
 _atom_site_fract_x
 _atom_site_fract_y
 _atom_site_fract_z
 _atom_site_occupancy
  Cr  Cr0  1  0.14183700  0.73148700  0.99089500  1
  Cr  Cr1  1  0.61111400  0.74907600  0.90757000  1
  Cr  Cr2  1  0.35816300  0.73148700  0.49089500  1
  Cr  Cr3  1  0.88888600  0.74907600  0.40757000  1
  Cr  Cr4  1  0.11111400  0.25092400  0.59243000  1
  Cr  Cr5  1  0.64183700  0.26851300  0.50910500  1
  Cr  Cr6  1  0.38888600  0.25092400  0.09243000  1
  Cr  Cr7  1  0.85816300  0.26851300  0.00910500  1
  O  O8  1  0.92076900  0.90146000  0.55475100  1
  O  O9  1  0.57923100  0.90146000  0.05475100  1
  O  O10  1  0.36358800  0.56435600  0.64841500  1
  O  O11  1  0.13641200  0.56435600  0.14841500  1
  O  O12  1  0.86358800  0.43564400  0.85158500  1
  O  O13  1  0.63641200  0.43564400  0.35158500  1
  O  O14  1  0.42076900  0.09854000  0.94524900  1
  O  O15  1  0.07923100  0.09854000  0.44524900  1
  F  F16  1  0.65052600  0.97470900  0.77129600  1
  F  F17  1  0.84947400  0.97470900  0.27129600  1
  F  F18  1  0.87169100  0.98098400  0.92603600  1
  F  F19  1  0.62830900  0.98098400  0.42603600  1
  F  F20  1  0.24264600  0.80253900  0.97041400  1
  F  F21  1  0.25735400  0.80253900  0.47041400  1
  F  F22  1  0.04457400  0.74582600  0.91540100  1
  F  F23  1  0.53028300  0.73582300  0.77067800  1
  F  F24  1  0.45542600  0.74582600  0.41540100  1
  F  F25  1  0.96971700  0.73582300  0.27067800  1
  F  F26  1  0.70980400  0.68952400  0.96158800  1
  F  F27  1  0.79019600  0.68952400  0.46158800  1
  F  F28  1  0.08850100  0.54721400  0.52801300  1
  F  F29  1  0.41149900  0.54721400  0.02801300  1
  F  F30  1  0.16028900  0.51798000  0.83120600  1
  F  F31  1  0.66028900  0.48202000  0.66879400  1
  F  F32  1  0.33971100  0.51798000  0.33120600  1
  F  F33  1  0.83971100  0.48202000  0.16879400  1
  F  F34  1  0.58850100  0.45278600  0.97198700  1
  F  F35  1  0.91149900  0.45278600  0.47198700  1
  F  F36  1  0.20980400  0.31047600  0.53841200  1
  F  F37  1  0.29019600  0.31047600  0.03841200  1
  F  F38  1  0.03028300  0.26417700  0.72932200  1
  F  F39  1  0.54457400  0.25417400  0.58459900  1
  F  F40  1  0.46971700  0.26417700  0.22932200  1
  F  F41  1  0.95542600  0.25417400  0.08459900  1
  F  F42  1  0.74264600  0.19746100  0.52958600  1
  F  F43  1  0.75735400  0.19746100  0.02958600  1
  F  F44  1  0.37169100  0.01901600  0.57396400  1
  F  F45  1  0.12830900  0.01901600  0.07396400  1
  F  F46  1  0.15052600  0.02529100  0.72870400  1
  F  F47  1  0.34947400  0.02529100  0.22870400  1
