# generated using pymatgen
data_Na11Mn24O48
_symmetry_space_group_name_H-M   'P 1'
_cell_length_a   6.18999200
_cell_length_b   12.32394714
_cell_length_c   13.54260611
_cell_angle_alpha   102.40242150
_cell_angle_beta   102.12157212
_cell_angle_gamma   94.06942058
_symmetry_Int_Tables_number   1
_chemical_formula_structural   Na11Mn24O48
_chemical_formula_sum   'Na11 Mn24 O48'
_cell_volume   979.17970447
_cell_formula_units_Z   1
loop_
 _symmetry_equiv_pos_site_id
 _symmetry_equiv_pos_as_xyz
  1  'x, y, z'
loop_
 _atom_site_type_symbol
 _atom_site_label
 _atom_site_symmetry_multiplicity
 _atom_site_fract_x
 _atom_site_fract_y
 _atom_site_fract_z
 _atom_site_occupancy
  Na  Na0  1  0.30883800  0.01799700  0.58644700  1
  Na  Na1  1  0.96825700  0.35247500  0.91110200  1
  Na  Na2  1  0.37549700  0.31303200  0.75126600  1
  Na  Na3  1  0.95343900  0.85537100  0.92102500  1
  Na  Na4  1  0.27797800  0.52590100  0.58594500  1
  Na  Na5  1  0.62806600  0.18633500  0.25347200  1
  Na  Na6  1  0.69257500  0.48088600  0.41709600  1
  Na  Na7  1  0.04001700  0.14706100  0.08575500  1
  Na  Na8  1  0.03187100  0.64233000  0.07529600  1
  Na  Na9  1  0.72363200  0.97642700  0.41695900  1
  Na  Na10  1  0.62349300  0.68625700  0.24543400  1
  Mn  Mn11  1  0.49134500  0.00006700  0.99902200  1
  Mn  Mn12  1  0.50576500  0.24741100  0.00187100  1
  Mn  Mn13  1  0.17281300  0.07804100  0.83364400  1
  Mn  Mn14  1  0.50680700  0.49935100  0.99756800  1
  Mn  Mn15  1  0.67247800  0.07825400  0.83431200  1
  Mn  Mn16  1  0.49238400  0.75289700  0.99363500  1
  Mn  Mn17  1  0.15900900  0.59170400  0.83297000  1
  Mn  Mn18  1  0.65946300  0.59131500  0.83290400  1
  Mn  Mn19  1  0.84309300  0.16132500  0.66658500  1
  Mn  Mn20  1  0.82259200  0.42156600  0.66768100  1
  Mn  Mn21  1  0.50111400  0.24984000  0.50103500  1
  Mn  Mn22  1  0.17699500  0.07934800  0.33553700  1
  Mn  Mn23  1  0.82813200  0.67396900  0.67115100  1
  Mn  Mn24  1  0.00020800  0.25013700  0.50097000  1
  Mn  Mn25  1  0.16059300  0.33829400  0.33606700  1
  Mn  Mn26  1  0.15564400  0.58629600  0.32849500  1
  Mn  Mn27  1  0.84440600  0.91195000  0.67188300  1
  Mn  Mn28  1  0.49962900  0.75112700  0.50289200  1
  Mn  Mn29  1  0.00372200  0.75045900  0.50289000  1
  Mn  Mn30  1  0.17289000  0.82776200  0.32923100  1
  Mn  Mn31  1  0.33001800  0.41553000  0.16460200  1
  Mn  Mn32  1  0.83156600  0.41598600  0.16564800  1
  Mn  Mn33  1  0.33502400  0.91218700  0.16492800  1
  Mn  Mn34  1  0.83676100  0.91528500  0.16396000  1
  O  O35  1  0.28326500  0.11385900  0.98875100  1
  O  O36  1  0.69728100  0.12366700  0.99044700  1
  O  O37  1  0.41589500  0.19613900  0.85182100  1
  O  O38  1  0.07321100  0.03703800  0.68475000  1
  O  O39  1  0.27464600  0.63279400  0.98329800  1
  O  O40  1  0.69661600  0.63999800  0.98759000  1
  O  O41  1  0.43384500  0.48187000  0.84998600  1
  O  O42  1  0.04170800  0.28214900  0.65081600  1
  O  O43  1  0.93288000  0.17708400  0.82619700  1
  O  O44  1  0.64666300  0.03553000  0.68018900  1
  O  O45  1  0.03453600  0.55308100  0.68080600  1
  O  O46  1  0.43228900  0.69713400  0.84323300  1
  O  O47  1  0.88801600  0.48682700  0.82863700  1
  O  O48  1  0.60666700  0.29393800  0.65035400  1
  O  O49  1  0.23179900  0.14499000  0.49349200  1
  O  O50  1  0.89099800  0.69477200  0.81976400  1
  O  O51  1  0.03887700  0.79619200  0.66304800  1
  O  O52  1  0.74004000  0.14907400  0.50858500  1
  O  O53  1  0.41478900  0.98018500  0.84626700  1
  O  O54  1  0.61246800  0.55495200  0.68401900  1
  O  O55  1  0.26125300  0.35188700  0.49162000  1
  O  O56  1  0.76818600  0.35418100  0.50803100  1
  O  O57  1  0.39418700  0.20422800  0.35140600  1
  O  O58  1  0.10602100  0.01529400  0.17326600  1
  O  O59  1  0.24855000  0.63607100  0.47960000  1
  O  O60  1  0.93084700  0.96660600  0.82120400  1
  O  O61  1  0.62545400  0.78535800  0.66332400  1
  O  O62  1  0.77300800  0.64639500  0.52047600  1
  O  O63  1  0.23069700  0.85478900  0.47969800  1
  O  O64  1  0.55381800  0.02300500  0.14850400  1
  O  O65  1  0.96046700  0.21769100  0.35108200  1
  O  O66  1  0.35621600  0.46614900  0.31914800  1
  O  O67  1  0.07186800  0.31882700  0.17956200  1
  O  O68  1  0.37539300  0.71501200  0.33887200  1
  O  O69  1  0.07018700  0.53118300  0.17743100  1
  O  O70  1  0.74967400  0.86328800  0.52074300  1
  O  O71  1  0.92657000  0.46553900  0.31616200  1
  O  O72  1  0.59083900  0.30004100  0.15233900  1
  O  O73  1  0.96411900  0.70533300  0.33897600  1
  O  O74  1  0.38894700  0.94422200  0.31441400  1
  O  O75  1  0.58775800  0.51403500  0.15026500  1
  O  O76  1  0.10916300  0.80490900  0.17871300  1
  O  O77  1  0.30515500  0.36375300  0.01133800  1
  O  O78  1  0.73417500  0.36725300  0.01393700  1
  O  O79  1  0.56793800  0.81033200  0.15005800  1
  O  O80  1  0.96386300  0.94481000  0.31875900  1
  O  O81  1  0.29298500  0.87260700  0.00987800  1
  O  O82  1  0.70505600  0.88926000  0.00986200  1
