# generated using pymatgen
data_Mn2F7
_symmetry_space_group_name_H-M   'P 1'
_cell_length_a   5.20996000
_cell_length_b   7.36953900
_cell_length_c   13.06846501
_cell_angle_alpha   81.75704520
_cell_angle_beta   90.00000000
_cell_angle_gamma   90.00000000
_symmetry_Int_Tables_number   1
_chemical_formula_structural   Mn2F7
_chemical_formula_sum   'Mn8 F28'
_cell_volume   496.58004881
_cell_formula_units_Z   4
loop_
 _symmetry_equiv_pos_site_id
 _symmetry_equiv_pos_as_xyz
  1  'x, y, z'
loop_
 _atom_site_type_symbol
 _atom_site_label
 _atom_site_symmetry_multiplicity
 _atom_site_fract_x
 _atom_site_fract_y
 _atom_site_fract_z
 _atom_site_occupancy
  Mn  Mn0  1  0.76618600  0.97437800  0.10899100  1
  Mn  Mn1  1  0.26355800  0.92134900  0.32049900  1
  Mn  Mn2  1  0.77002700  0.57895000  0.67977100  1
  Mn  Mn3  1  0.25628900  0.52561400  0.89005800  1
  Mn  Mn4  1  0.75628900  0.47438600  0.10994200  1
  Mn  Mn5  1  0.27002700  0.42105000  0.32022900  1
  Mn  Mn6  1  0.76355800  0.07865100  0.67950100  1
  Mn  Mn7  1  0.26618600  0.02562200  0.89100900  1
  F  F8  1  0.94287800  0.99652300  0.80366200  1
  F  F9  1  0.54012200  0.94565200  0.39260600  1
  F  F10  1  0.65810400  0.82960900  0.67883600  1
  F  F11  1  0.36524600  0.77717700  0.88286200  1
  F  F12  1  0.06863900  0.84389300  0.42655300  1
  F  F13  1  0.07903000  0.94620800  0.01035600  1
  F  F14  1  0.96353600  0.89068000  0.22841700  1
  F  F15  1  0.94993100  0.59220200  0.81398800  1
  F  F16  1  0.06165700  0.64509800  0.61926900  1
  F  F17  1  0.65618700  0.72705000  0.09916700  1
  F  F18  1  0.36764400  0.67520400  0.30325100  1
  F  F19  1  0.59946900  0.56525300  0.56637100  1
  F  F20  1  0.47451100  0.50841600  0.76094000  1
  F  F21  1  0.53796000  0.45846200  0.97435400  1
  F  F22  1  0.03796000  0.54153800  0.02564600  1
  F  F23  1  0.97451100  0.49158400  0.23906000  1
  F  F24  1  0.09946900  0.43474700  0.43362900  1
  F  F25  1  0.86764400  0.32479600  0.69674900  1
  F  F26  1  0.15618700  0.27295000  0.90083300  1
  F  F27  1  0.56165700  0.35490200  0.38073100  1
  F  F28  1  0.44993100  0.40779800  0.18601200  1
  F  F29  1  0.46353600  0.10932000  0.77158300  1
  F  F30  1  0.57903000  0.05379200  0.98964400  1
  F  F31  1  0.56863900  0.15610700  0.57344700  1
  F  F32  1  0.86524600  0.22282300  0.11713800  1
  F  F33  1  0.15810400  0.17039100  0.32116400  1
  F  F34  1  0.04012200  0.05434800  0.60739400  1
  F  F35  1  0.44287800  0.00347700  0.19633800  1
