# generated using pymatgen
data_Na6NiO4
_symmetry_space_group_name_H-M   'P 1'
_cell_length_a   5.46243319
_cell_length_b   10.59175058
_cell_length_c   10.60472666
_cell_angle_alpha   89.92756360
_cell_angle_beta   90.01718797
_cell_angle_gamma   90.02331374
_symmetry_Int_Tables_number   1
_chemical_formula_structural   Na6NiO4
_chemical_formula_sum   'Na24 Ni4 O16'
_cell_volume   613.55423756
_cell_formula_units_Z   4
loop_
 _symmetry_equiv_pos_site_id
 _symmetry_equiv_pos_as_xyz
  1  'x, y, z'
loop_
 _atom_site_type_symbol
 _atom_site_label
 _atom_site_symmetry_multiplicity
 _atom_site_fract_x
 _atom_site_fract_y
 _atom_site_fract_z
 _atom_site_occupancy
  Na  Na0  1  0.65573100  0.24842300  0.00005500  1
  Na  Na1  1  0.65657100  0.75202500  0.50027300  1
  Na  Na2  1  0.84468200  0.74813100  0.00016200  1
  Na  Na3  1  0.84348300  0.25158100  0.49941500  1
  Na  Na4  1  0.15575700  0.24865000  0.00157100  1
  Na  Na5  1  0.15648700  0.75181100  0.49876200  1
  Na  Na6  1  0.34451200  0.74849600  0.99861900  1
  Na  Na7  1  0.34360700  0.25149300  0.50117200  1
  Na  Na8  1  0.75003400  0.28701100  0.24960200  1
  Na  Na9  1  0.74920100  0.78719400  0.75053800  1
  Na  Na10  1  0.74939100  0.50136300  0.46265300  1
  Na  Na11  1  0.75046500  0.99866800  0.96296500  1
  Na  Na12  1  0.74946000  0.49876400  0.03731300  1
  Na  Na13  1  0.75048600  0.00159900  0.53717700  1
  Na  Na14  1  0.75116300  0.71285200  0.25014200  1
  Na  Na15  1  0.74913900  0.21286100  0.74977800  1
  Na  Na16  1  0.25107400  0.28720600  0.75140400  1
  Na  Na17  1  0.24905000  0.78692100  0.24846600  1
  Na  Na18  1  0.25025400  0.49856500  0.96321600  1
  Na  Na19  1  0.25016500  0.00148800  0.46267000  1
  Na  Na20  1  0.24980000  0.50133900  0.53719900  1
  Na  Na21  1  0.24996600  0.99850000  0.03732000  1
  Na  Na22  1  0.25122600  0.71300200  0.74884300  1
  Na  Na23  1  0.24884400  0.21253400  0.25102800  1
  Ni  Ni24  1  0.24759700  0.00027800  0.75011900  1
  Ni  Ni25  1  0.25158400  0.49970900  0.25053900  1
  Ni  Ni26  1  0.75407300  0.49992700  0.74976100  1
  Ni  Ni27  1  0.74590700  0.99990500  0.24968700  1
  O  O28  1  0.92688000  0.62454900  0.62558100  1
  O  O29  1  0.92847700  0.12024500  0.12899200  1
  O  O30  1  0.92608300  0.37521800  0.87417700  1
  O  O31  1  0.92904900  0.87962000  0.37080200  1
  O  O32  1  0.57089300  0.37959400  0.62889400  1
  O  O33  1  0.57379100  0.87518200  0.12567800  1
  O  O34  1  0.57167400  0.62041900  0.87073600  1
  O  O35  1  0.57336300  0.12449500  0.37424400  1
  O  O36  1  0.42540800  0.62524500  0.37416700  1
  O  O37  1  0.42959900  0.12030000  0.87173000  1
  O  O38  1  0.42555700  0.37523900  0.12665900  1
  O  O39  1  0.43008000  0.88001500  0.62907100  1
  O  O40  1  0.07091700  0.62014500  0.12827600  1
  O  O41  1  0.07505800  0.12529000  0.62616400  1
  O  O42  1  0.06885000  0.37919000  0.37055000  1
  O  O43  1  0.07461400  0.87531100  0.87382700  1
