# generated using pymatgen
data_Hf3N2O3
_symmetry_space_group_name_H-M   'P 1'
_cell_length_a   5.67983701
_cell_length_b   5.67983701
_cell_length_c   10.73597700
_cell_angle_alpha   90.00000000
_cell_angle_beta   90.00000000
_cell_angle_gamma   139.21001800
_symmetry_Int_Tables_number   1
_chemical_formula_structural   Hf3N2O3
_chemical_formula_sum   'Hf6 N4 O6'
_cell_volume   226.26540488
_cell_formula_units_Z   2
loop_
 _symmetry_equiv_pos_site_id
 _symmetry_equiv_pos_as_xyz
  1  'x, y, z'
loop_
 _atom_site_type_symbol
 _atom_site_label
 _atom_site_symmetry_multiplicity
 _atom_site_fract_x
 _atom_site_fract_y
 _atom_site_fract_z
 _atom_site_occupancy
  Hf  Hf0  1  0.13739300  0.86260700  0.93984700  1
  Hf  Hf1  1  0.13488900  0.86511100  0.55327000  1
  Hf  Hf2  1  0.18585800  0.81414200  0.24910900  1
  Hf  Hf3  1  0.81414200  0.18585800  0.74910900  1
  Hf  Hf4  1  0.86511100  0.13488900  0.05327000  1
  Hf  Hf5  1  0.86260700  0.13739300  0.43984700  1
  N  N6  1  0.04674200  0.95325800  0.38494900  1
  N  N7  1  0.70460700  0.29539300  0.57559100  1
  N  N8  1  0.29539300  0.70460700  0.07559100  1
  N  N9  1  0.95325800  0.04674200  0.88494900  1
  O  O10  1  0.04497900  0.95502100  0.11695300  1
  O  O11  1  0.69158400  0.30841600  0.91924500  1
  O  O12  1  0.75507600  0.24492400  0.26103500  1
  O  O13  1  0.24492400  0.75507600  0.76103500  1
  O  O14  1  0.30841600  0.69158400  0.41924500  1
  O  O15  1  0.95502100  0.04497900  0.61695300  1
