# generated using pymatgen
data_V6O5F19
_symmetry_space_group_name_H-M   'P 1'
_cell_length_a   5.35724500
_cell_length_b   5.49728866
_cell_length_c   14.92364534
_cell_angle_alpha   100.56613558
_cell_angle_beta   89.65687162
_cell_angle_gamma   92.05213903
_symmetry_Int_Tables_number   1
_chemical_formula_structural   V6O5F19
_chemical_formula_sum   'V6 O5 F19'
_cell_volume   431.77668324
_cell_formula_units_Z   1
loop_
 _symmetry_equiv_pos_site_id
 _symmetry_equiv_pos_as_xyz
  1  'x, y, z'
loop_
 _atom_site_type_symbol
 _atom_site_label
 _atom_site_symmetry_multiplicity
 _atom_site_fract_x
 _atom_site_fract_y
 _atom_site_fract_z
 _atom_site_occupancy
  V  V0  1  0.03227400  0.95113600  0.99569900  1
  V  V1  1  0.54001900  0.80195400  0.67027400  1
  V  V2  1  0.94958800  0.65385100  0.33818300  1
  V  V3  1  0.51514000  0.48631400  0.00170600  1
  V  V4  1  0.03308300  0.29173800  0.66359200  1
  V  V5  1  0.44290400  0.19252800  0.32748300  1
  O  O6  1  0.76955400  0.63037500  0.68604100  1
  O  O7  1  0.71947600  0.45357300  0.35168600  1
  O  O8  1  0.19742500  0.70044200  0.97471300  1
  O  O9  1  0.21835000  0.37667400  0.30979700  1
  O  O10  1  0.20868100  0.05431100  0.64821800  1
  F  F11  1  0.79344600  0.94391200  0.35972600  1
  F  F12  1  0.71470500  0.80531700  0.02437400  1
  F  F13  1  0.28800700  0.88425400  0.31219500  1
  F  F14  1  0.90469900  0.97930500  0.88912700  1
  F  F15  1  0.56374600  0.81232800  0.55261600  1
  F  F16  1  0.94412100  0.63372200  0.21861200  1
  F  F17  1  0.40558100  0.87678300  0.78040200  1
  F  F18  1  0.09384500  0.71318200  0.44709200  1
  F  F19  1  0.40096700  0.54878700  0.11448200  1
  F  F20  1  0.79289900  0.32216800  0.02690200  1
  F  F21  1  0.28316900  0.53878700  0.63838700  1
  F  F22  1  0.57231300  0.46432000  0.88386300  1
  F  F23  1  0.90906000  0.28523700  0.55322400  1
  F  F24  1  0.59239300  0.10736900  0.22045000  1
  F  F25  1  0.07032900  0.41584200  0.78116200  1
  F  F26  1  0.44005200  0.21545100  0.44716300  1
  F  F27  1  0.07731600  0.05905700  0.11330200  1
  F  F28  1  0.72481100  0.12183800  0.69459500  1
  F  F29  1  0.30204500  0.17944100  0.97494000  1
