# generated using pymatgen
data_Bi5O4F7
_symmetry_space_group_name_H-M   'P 1'
_cell_length_a   14.69083674
_cell_length_b   14.69083674
_cell_length_c   11.69791300
_cell_angle_alpha   90.00000000
_cell_angle_beta   90.00000000
_cell_angle_gamma   157.31747358
_symmetry_Int_Tables_number   1
_chemical_formula_structural   Bi5O4F7
_chemical_formula_sum   'Bi20 O16 F28'
_cell_volume   973.56795124
_cell_formula_units_Z   4
loop_
 _symmetry_equiv_pos_site_id
 _symmetry_equiv_pos_as_xyz
  1  'x, y, z'
loop_
 _atom_site_type_symbol
 _atom_site_label
 _atom_site_symmetry_multiplicity
 _atom_site_fract_x
 _atom_site_fract_y
 _atom_site_fract_z
 _atom_site_occupancy
  Bi  Bi0  1  0.80011400  0.70183400  0.60681400  1
  Bi  Bi1  1  0.20815200  0.30753700  0.60454700  1
  Bi  Bi2  1  0.02662800  0.52704700  0.61366500  1
  Bi  Bi3  1  0.32908600  0.03092500  0.60259200  1
  Bi  Bi4  1  0.56584600  0.86115700  0.60712500  1
  Bi  Bi5  1  0.86115700  0.56584600  0.39287500  1
  Bi  Bi6  1  0.03092500  0.32908600  0.39740800  1
  Bi  Bi7  1  0.52704700  0.02662800  0.38633500  1
  Bi  Bi8  1  0.70183400  0.80011400  0.39318600  1
  Bi  Bi9  1  0.30753700  0.20815200  0.39545300  1
  Bi  Bi10  1  0.20183400  0.30011400  0.10681400  1
  Bi  Bi11  1  0.80753700  0.70815200  0.10454700  1
  Bi  Bi12  1  0.02704700  0.52662800  0.11366500  1
  Bi  Bi13  1  0.36115700  0.06584600  0.10712500  1
  Bi  Bi14  1  0.53092500  0.82908600  0.10259200  1
  Bi  Bi15  1  0.82908600  0.53092500  0.89740800  1
  Bi  Bi16  1  0.06584600  0.36115700  0.89287500  1
  Bi  Bi17  1  0.52662800  0.02704700  0.88633500  1
  Bi  Bi18  1  0.70815200  0.80753700  0.89545300  1
  Bi  Bi19  1  0.30011400  0.20183400  0.89318600  1
  O  O20  1  0.86728200  0.06824400  0.51018600  1
  O  O21  1  0.57483400  0.36999300  0.50557400  1
  O  O22  1  0.78669100  0.19094300  0.51216300  1
  O  O23  1  0.50361200  0.50361200  0.50000000  1
  O  O24  1  0.00097400  0.00097400  0.50000000  1
  O  O25  1  0.19094300  0.78669100  0.48783700  1
  O  O26  1  0.36999300  0.57483400  0.49442600  1
  O  O27  1  0.06824400  0.86728200  0.48981400  1
  O  O28  1  0.56824400  0.36728200  0.01018600  1
  O  O29  1  0.86999300  0.07483400  0.00557400  1
  O  O30  1  0.69094300  0.28669100  0.01216300  1
  O  O31  1  0.50097400  0.50097400  0.00000000  1
  O  O32  1  0.00361200  0.00361200  0.00000000  1
  O  O33  1  0.28669100  0.69094300  0.98783700  1
  O  O34  1  0.36728200  0.56824400  0.98981400  1
  O  O35  1  0.07483400  0.86999300  0.99442600  1
  F  F36  1  0.91494600  0.91465800  0.75193700  1
  F  F37  1  0.41494600  0.41465800  0.74806300  1
  F  F38  1  0.51030500  0.68369400  0.72150300  1
  F  F39  1  0.16308200  0.99148500  0.71532300  1
  F  F40  1  0.17127700  0.51534200  0.69022100  1
  F  F41  1  0.99761600  0.65491100  0.69368400  1
  F  F42  1  0.39614600  0.89515000  0.68940600  1
  F  F43  1  0.69162200  0.28993000  0.51827100  1
  F  F44  1  0.28993000  0.69162200  0.48172900  1
  F  F45  1  0.89515000  0.39614600  0.31059400  1
  F  F46  1  0.65491100  0.99761600  0.30631600  1
  F  F47  1  0.51534200  0.17127700  0.30977900  1
  F  F48  1  0.99148500  0.16308200  0.28467700  1
  F  F49  1  0.68369400  0.51030500  0.27849700  1
  F  F50  1  0.91465800  0.91494600  0.24806300  1
  F  F51  1  0.41465800  0.41494600  0.25193700  1
  F  F52  1  0.18369400  0.01030500  0.22150300  1
  F  F53  1  0.49148500  0.66308200  0.21532300  1
  F  F54  1  0.15491100  0.49761600  0.19368400  1
  F  F55  1  0.01534200  0.67127700  0.19022100  1
  F  F56  1  0.39515000  0.89614600  0.18940600  1
  F  F57  1  0.78993000  0.19162200  0.01827100  1
  F  F58  1  0.19162200  0.78993000  0.98172900  1
  F  F59  1  0.89614600  0.39515000  0.81059400  1
  F  F60  1  0.67127700  0.01534200  0.80977900  1
  F  F61  1  0.49761600  0.15491100  0.80631600  1
  F  F62  1  0.66308200  0.49148500  0.78467700  1
  F  F63  1  0.01030500  0.18369400  0.77849700  1
