# generated using pymatgen
data_Ac3V
_symmetry_space_group_name_H-M   'P 1'
_cell_length_a   6.56064084
_cell_length_b   6.56064084
_cell_length_c   6.56064084
_cell_angle_alpha   133.44556149
_cell_angle_beta   133.44556149
_cell_angle_gamma   67.95528173
_symmetry_Int_Tables_number   1
_chemical_formula_structural   Ac3V
_chemical_formula_sum   'Ac3 V1'
_cell_volume   146.27760097
_cell_formula_units_Z   1
loop_
 _symmetry_equiv_pos_site_id
 _symmetry_equiv_pos_as_xyz
  1  'x, y, z'
loop_
 _atom_site_type_symbol
 _atom_site_label
 _atom_site_symmetry_multiplicity
 _atom_site_fract_x
 _atom_site_fract_y
 _atom_site_fract_z
 _atom_site_occupancy
  Ac  Ac0  1  0.75000000  0.25000000  0.50000000  1
  Ac  Ac1  1  0.25000000  0.75000000  0.50000000  1
  Ac  Ac2  1  0.50000000  0.50000000  0.00000000  1
  V  V3  1  0.00000000  0.00000000  0.00000000  1
