# generated using pymatgen
data_Li7Fe4(PO4)6
_symmetry_space_group_name_H-M   'P 1'
_cell_length_a   8.70072279
_cell_length_b   8.64547606
_cell_length_c   8.91799475
_cell_angle_alpha   61.50091523
_cell_angle_beta   118.89881261
_cell_angle_gamma   120.08955513
_symmetry_Int_Tables_number   1
_chemical_formula_structural   Li7Fe4(PO4)6
_chemical_formula_sum   'Li7 Fe4 P6 O24'
_cell_volume   483.11044674
_cell_formula_units_Z   1
loop_
 _symmetry_equiv_pos_site_id
 _symmetry_equiv_pos_as_xyz
  1  'x, y, z'
loop_
 _atom_site_type_symbol
 _atom_site_label
 _atom_site_symmetry_multiplicity
 _atom_site_fract_x
 _atom_site_fract_y
 _atom_site_fract_z
 _atom_site_occupancy
  Li  Li0  1  0.86692200  0.70383000  0.34382700  1
  Li  Li1  1  0.72149900  0.60278100  0.84447500  1
  Li  Li2  1  0.21478700  0.99146700  0.56588200  1
  Li  Li3  1  0.40179600  0.75100400  0.86610900  1
  Li  Li4  1  0.74182000  0.03578200  0.39716900  1
  Li  Li5  1  0.27162400  0.38690700  0.17205900  1
  Li  Li6  1  0.15486500  0.30404300  0.66055500  1
  Fe  Fe7  1  0.85558600  0.15523000  0.06182600  1
  Fe  Fe8  1  0.35737300  0.66869800  0.54130100  1
  Fe  Fe9  1  0.64056700  0.33391000  0.44673100  1
  Fe  Fe10  1  0.14126800  0.84915800  0.93890100  1
  P  P11  1  0.75854900  0.96379100  0.74947800  1
  P  P12  1  0.94876800  0.46025600  0.24665000  1
  P  P13  1  0.53737500  0.75064300  0.24702600  1
  P  P14  1  0.46517900  0.24681200  0.74759000  1
  P  P15  1  0.04661500  0.53727800  0.75536500  1
  P  P16  1  0.24543100  0.03883300  0.25336600  1
  O  O17  1  0.89414000  0.88769600  0.76132800  1
  O  O18  1  0.73629600  0.88424900  0.23210200  1
  O  O19  1  0.96305100  0.60225800  0.05953300  1
  O  O20  1  0.56948500  0.79208000  0.75295200  1
  O  O21  1  0.85713700  0.50612100  0.60282600  1
  O  O22  1  0.52031400  0.79489400  0.38697100  1
  O  O23  1  0.80820600  0.48615500  0.28526600  1
  O  O24  1  0.87854700  0.25632500  0.24569100  1
  O  O25  1  0.18778800  0.97103600  0.09771600  1
  O  O26  1  0.38180700  0.78323900  0.06241400  1
  O  O27  1  0.25116900  0.87215300  0.43451600  1
  O  O28  1  0.52131300  0.54540300  0.30211100  1
  O  O29  1  0.47752900  0.44968000  0.69973800  1
  O  O30  1  0.74000900  0.12217700  0.56515300  1
  O  O31  1  0.62245600  0.20662300  0.92441900  1
  O  O32  1  0.82586600  0.03686500  0.90362000  1
  O  O33  1  0.12775400  0.74668900  0.75305400  1
  O  O34  1  0.19872200  0.51441900  0.72933300  1
  O  O35  1  0.47370200  0.20885000  0.59790600  1
  O  O36  1  0.14190100  0.49183900  0.39916700  1
  O  O37  1  0.42997400  0.21017600  0.25823800  1
  O  O38  1  0.03273900  0.40438300  0.94481900  1
  O  O39  1  0.26443200  0.11044400  0.76112100  1
  O  O40  1  0.10341100  0.10838900  0.24088400  1
