# generated using pymatgen
data_V3OF11
_symmetry_space_group_name_H-M   'P 1'
_cell_length_a   5.25931900
_cell_length_b   5.46193498
_cell_length_c   14.75146385
_cell_angle_alpha   100.27448565
_cell_angle_beta   90.02948401
_cell_angle_gamma   90.25235911
_symmetry_Int_Tables_number   1
_chemical_formula_structural   V3OF11
_chemical_formula_sum   'V6 O2 F22'
_cell_volume   416.95196453
_cell_formula_units_Z   2
loop_
 _symmetry_equiv_pos_site_id
 _symmetry_equiv_pos_as_xyz
  1  'x, y, z'
loop_
 _atom_site_type_symbol
 _atom_site_label
 _atom_site_symmetry_multiplicity
 _atom_site_fract_x
 _atom_site_fract_y
 _atom_site_fract_z
 _atom_site_occupancy
  V  V0  1  0.02538800  0.79191900  0.66345100  1
  V  V1  1  0.49169800  0.67817300  0.33243100  1
  V  V2  1  0.00000000  0.50000000  0.00000000  1
  V  V3  1  0.50830200  0.32182700  0.66756900  1
  V  V4  1  0.97461200  0.20808100  0.33654900  1
  V  V5  1  0.50000000  0.00000000  0.00000000  1
  O  O6  1  0.79529400  0.45926000  0.35634000  1
  O  O7  1  0.20470600  0.54074000  0.64366000  1
  F  F8  1  0.80301900  0.81107300  0.02503100  1
  F  F9  1  0.71361500  0.63682300  0.69094700  1
  F  F10  1  0.30336300  0.68858800  0.97552300  1
  F  F11  1  0.90627200  0.80265100  0.55171700  1
  F  F12  1  0.58968500  0.61681000  0.21594800  1
  F  F13  1  0.91269700  0.46113300  0.88254700  1
  F  F14  1  0.42298000  0.70367200  0.45136100  1
  F  F15  1  0.08730300  0.53886700  0.11745300  1
  F  F16  1  0.41031500  0.38319000  0.78405200  1
  F  F17  1  0.69663700  0.31141200  0.02447700  1
  F  F18  1  0.79346800  0.14058300  0.69075500  1
  F  F19  1  0.28638500  0.36317700  0.30905300  1
  F  F20  1  0.19698100  0.18892700  0.97496900  1
  F  F21  1  0.57702000  0.29632800  0.54863900  1
  F  F22  1  0.92637700  0.10626700  0.21724200  1
  F  F23  1  0.58552100  0.95773700  0.88242700  1
  F  F24  1  0.09372800  0.19734900  0.44828300  1
  F  F25  1  0.41447900  0.04226300  0.11757300  1
  F  F26  1  0.07362300  0.89373300  0.78275800  1
  F  F27  1  0.70839800  0.97786400  0.35830300  1
  F  F28  1  0.29160200  0.02213600  0.64169700  1
  F  F29  1  0.20653200  0.85941700  0.30924500  1
