# generated using pymatgen
data_PH6NO2
_symmetry_space_group_name_H-M   'P 1'
_cell_length_a   6.94446242
_cell_length_b   6.94446242
_cell_length_c   4.04955100
_cell_angle_alpha   90.00000000
_cell_angle_beta   90.00000000
_cell_angle_gamma   113.35006993
_symmetry_Int_Tables_number   1
_chemical_formula_structural   PH6NO2
_chemical_formula_sum   'P2 H12 N2 O4'
_cell_volume   179.29752704
_cell_formula_units_Z   2
loop_
 _symmetry_equiv_pos_site_id
 _symmetry_equiv_pos_as_xyz
  1  'x, y, z'
loop_
 _atom_site_type_symbol
 _atom_site_label
 _atom_site_symmetry_multiplicity
 _atom_site_fract_x
 _atom_site_fract_y
 _atom_site_fract_z
 _atom_site_occupancy
  P  P0  1  0.75000000  0.25000000  0.03749800  1
  P  P1  1  0.25000000  0.75000000  0.96250200  1
  H  H2  1  0.22193500  0.11759600  0.35286200  1
  H  H3  1  0.11759600  0.22193500  0.64713800  1
  H  H4  1  0.27806500  0.38240400  0.35286200  1
  H  H5  1  0.38240400  0.27806500  0.64713800  1
  H  H6  1  0.60509000  0.10509000  0.25785800  1
  H  H7  1  0.10509000  0.60509000  0.74214200  1
  H  H8  1  0.89491000  0.39491000  0.25785800  1
  H  H9  1  0.39491000  0.89491000  0.74214200  1
  H  H10  1  0.61759600  0.72193500  0.35286200  1
  H  H11  1  0.72193500  0.61759600  0.64713800  1
  H  H12  1  0.77806500  0.88240400  0.64713800  1
  H  H13  1  0.88240400  0.77806500  0.35286200  1
  N  N14  1  0.25000000  0.25000000  0.50000000  1
  N  N15  1  0.75000000  0.75000000  0.50000000  1
  O  O16  1  0.86355900  0.13644100  0.84751100  1
  O  O17  1  0.13644100  0.86355900  0.15248900  1
  O  O18  1  0.63644100  0.36355900  0.84751100  1
  O  O19  1  0.36355900  0.63644100  0.15248900  1
