# generated using pymatgen
data_V2O3F
_symmetry_space_group_name_H-M   'P 1'
_cell_length_a   9.82000188
_cell_length_b   9.82000188
_cell_length_c   10.78065641
_cell_angle_alpha   30.67410352
_cell_angle_beta   30.67410352
_cell_angle_gamma   34.33768659
_symmetry_Int_Tables_number   1
_chemical_formula_structural   V2O3F
_chemical_formula_sum   'V8 O12 F4'
_cell_volume   255.37171401
_cell_formula_units_Z   4
loop_
 _symmetry_equiv_pos_site_id
 _symmetry_equiv_pos_as_xyz
  1  'x, y, z'
loop_
 _atom_site_type_symbol
 _atom_site_label
 _atom_site_symmetry_multiplicity
 _atom_site_fract_x
 _atom_site_fract_y
 _atom_site_fract_z
 _atom_site_occupancy
  V  V0  1  0.23363700  0.23363700  0.55996400  1
  V  V1  1  0.00000000  0.00000000  0.50000000  1
  V  V2  1  0.38731300  0.85683700  0.00850200  1
  V  V3  1  0.61268700  0.14316300  0.99149800  1
  V  V4  1  0.14316300  0.61268700  0.99149800  1
  V  V5  1  0.76636300  0.76636300  0.44003600  1
  V  V6  1  0.50000000  0.50000000  0.50000000  1
  V  V7  1  0.85683700  0.38731300  0.00850200  1
  O  O8  1  0.09267200  0.60155200  0.70476400  1
  O  O9  1  0.14733500  0.64269200  0.30687800  1
  O  O10  1  0.90732800  0.39844800  0.29523600  1
  O  O11  1  0.39844800  0.90732800  0.29523600  1
  O  O12  1  0.57052200  0.57052200  0.20965100  1
  O  O13  1  0.42947800  0.42947800  0.79034900  1
  O  O14  1  0.16627600  0.16627600  0.82500000  1
  O  O15  1  0.35730800  0.85266500  0.69312200  1
  O  O16  1  0.85266500  0.35730800  0.69312200  1
  O  O17  1  0.60155200  0.09267200  0.70476400  1
  O  O18  1  0.64269200  0.14733500  0.30687800  1
  O  O19  1  0.83372400  0.83372400  0.17500000  1
  F  F20  1  0.92578300  0.92578300  0.79567000  1
  F  F21  1  0.32724700  0.32724700  0.19837000  1
  F  F22  1  0.07421700  0.07421700  0.20433000  1
  F  F23  1  0.67275300  0.67275300  0.80163000  1
