# generated using pymatgen
data_Na9Ni7O16
_symmetry_space_group_name_H-M   'P 1'
_cell_length_a   6.89999800
_cell_length_b   6.97632201
_cell_length_c   7.92425639
_cell_angle_alpha   65.65764209
_cell_angle_beta   77.03982202
_cell_angle_gamma   69.49245447
_symmetry_Int_Tables_number   1
_chemical_formula_structural   Na9Ni7O16
_chemical_formula_sum   'Na9 Ni7 O16'
_cell_volume   324.08210077
_cell_formula_units_Z   1
loop_
 _symmetry_equiv_pos_site_id
 _symmetry_equiv_pos_as_xyz
  1  'x, y, z'
loop_
 _atom_site_type_symbol
 _atom_site_label
 _atom_site_symmetry_multiplicity
 _atom_site_fract_x
 _atom_site_fract_y
 _atom_site_fract_z
 _atom_site_occupancy
  Na  Na0  1  0.42268300  0.56117600  0.81246800  1
  Na  Na1  1  0.31393100  0.68543500  0.43154700  1
  Na  Na2  1  0.68606900  0.31456500  0.56845300  1
  Na  Na3  1  0.05394300  0.92926000  0.69144200  1
  Na  Na4  1  0.18647000  0.79676400  0.06746500  1
  Na  Na5  1  0.57731700  0.43882400  0.18753200  1
  Na  Na6  1  0.00000000  0.50000000  0.00000000  1
  Na  Na7  1  0.94605700  0.07074000  0.30855800  1
  Na  Na8  1  0.81353000  0.20323600  0.93253500  1
  Ni  Ni9  1  0.62112600  0.88248500  0.86974200  1
  Ni  Ni10  1  0.87294300  0.63338400  0.61752400  1
  Ni  Ni11  1  0.25182500  0.24374500  0.74934800  1
  Ni  Ni12  1  0.74817500  0.75625500  0.25065200  1
  Ni  Ni13  1  0.12705700  0.36661600  0.38247600  1
  Ni  Ni14  1  0.50000000  0.00000000  0.50000000  1
  Ni  Ni15  1  0.37887400  0.11751500  0.13025800  1
  O  O16  1  0.14247700  0.55332800  0.70857300  1
  O  O17  1  0.00715800  0.29602100  0.64112700  1
  O  O18  1  0.50277600  0.19058400  0.84809200  1
  O  O19  1  0.99284200  0.70397900  0.35887300  1
  O  O20  1  0.62448100  0.69167400  0.50614300  1
  O  O21  1  0.49722400  0.80941600  0.15190800  1
  O  O22  1  0.36538100  0.93962100  0.77139400  1
  O  O23  1  0.37551900  0.30832600  0.49385700  1
  O  O24  1  0.85635200  0.84457900  0.99168200  1
  O  O25  1  0.85752300  0.44667200  0.29142700  1
  O  O26  1  0.74794200  0.96260800  0.59033800  1
  O  O27  1  0.25205800  0.03739200  0.40966200  1
  O  O28  1  0.63461900  0.06037900  0.22860600  1
  O  O29  1  0.71911500  0.58650300  0.86282400  1
  O  O30  1  0.28088500  0.41349700  0.13717600  1
  O  O31  1  0.14364800  0.15542100  0.00831800  1
