# generated using pymatgen
data_V3O7
_symmetry_space_group_name_H-M   'P 1'
_cell_length_a   10.76812852
_cell_length_b   10.76812852
_cell_length_c   9.55351800
_cell_angle_alpha   90.00000000
_cell_angle_beta   90.00000000
_cell_angle_gamma   120.00000320
_symmetry_Int_Tables_number   1
_chemical_formula_structural   V3O7
_chemical_formula_sum   'V18 O42'
_cell_volume   959.34409026
_cell_formula_units_Z   6
loop_
 _symmetry_equiv_pos_site_id
 _symmetry_equiv_pos_as_xyz
  1  'x, y, z'
loop_
 _atom_site_type_symbol
 _atom_site_label
 _atom_site_symmetry_multiplicity
 _atom_site_fract_x
 _atom_site_fract_y
 _atom_site_fract_z
 _atom_site_occupancy
  V  V0  1  0.11484700  0.80289300  0.39474400  1
  V  V1  1  0.15902900  0.84097100  0.75000000  1
  V  V2  1  0.19710700  0.88515300  0.10525600  1
  V  V3  1  0.11484700  0.31195400  0.10525600  1
  V  V4  1  0.15902900  0.31805800  0.75000000  1
  V  V5  1  0.19710700  0.31195400  0.39474400  1
  V  V6  1  0.31195400  0.19710700  0.89474400  1
  V  V7  1  0.31805800  0.15902900  0.25000000  1
  V  V8  1  0.68804600  0.88515300  0.39474400  1
  V  V9  1  0.31195400  0.11484700  0.60525600  1
  V  V10  1  0.68194200  0.84097100  0.75000000  1
  V  V11  1  0.68804600  0.80289300  0.10525600  1
  V  V12  1  0.80289300  0.68804600  0.60525600  1
  V  V13  1  0.84097100  0.68194200  0.25000000  1
  V  V14  1  0.88515300  0.68804600  0.89474400  1
  V  V15  1  0.80289300  0.11484700  0.89474400  1
  V  V16  1  0.84097100  0.15902900  0.25000000  1
  V  V17  1  0.88515300  0.19710700  0.60525600  1
  O  O18  1  0.07799800  0.82395800  0.93602100  1
  O  O19  1  0.03293600  0.74244200  0.20502600  1
  O  O20  1  0.17604200  0.92200200  0.56397900  1
  O  O21  1  0.25755800  0.96706400  0.29497400  1
  O  O22  1  0.15678900  0.68546800  0.43531100  1
  O  O23  1  0.24395300  0.75604700  0.75000000  1
  O  O24  1  0.03293600  0.29049300  0.29497400  1
  O  O25  1  0.31453200  0.84321100  0.06468900  1
  O  O26  1  0.15678900  0.47132000  0.06468900  1
  O  O27  1  0.07799800  0.25404000  0.56397900  1
  O  O28  1  0.24395300  0.48790500  0.75000000  1
  O  O29  1  0.17604200  0.25404000  0.93602100  1
  O  O30  1  0.31453200  0.47132000  0.43531100  1
  O  O31  1  0.52868000  0.84321100  0.43531100  1
  O  O32  1  0.25755800  0.29049300  0.20502600  1
  O  O33  1  0.51209500  0.75604700  0.75000000  1
  O  O34  1  0.25404000  0.17604200  0.43602100  1
  O  O35  1  0.29049300  0.25755800  0.70502600  1
  O  O36  1  0.52868000  0.68546800  0.06468900  1
  O  O37  1  0.25404000  0.07799800  0.06397900  1
  O  O38  1  0.70950700  0.96706400  0.20502600  1
  O  O39  1  0.29049300  0.03293600  0.79497400  1
  O  O40  1  0.74596000  0.92200200  0.93602100  1
  O  O41  1  0.47132000  0.31453200  0.93531100  1
  O  O42  1  0.70950700  0.74244200  0.29497400  1
  O  O43  1  0.74596000  0.82395800  0.56397900  1
  O  O44  1  0.48790500  0.24395300  0.25000000  1
  O  O45  1  0.74244200  0.70950700  0.79497400  1
  O  O46  1  0.47132000  0.15678900  0.56468900  1
  O  O47  1  0.68546800  0.52868000  0.56468900  1
  O  O48  1  0.82395800  0.74596000  0.06397900  1
  O  O49  1  0.75604700  0.51209500  0.25000000  1
  O  O50  1  0.92200200  0.74596000  0.43602100  1
  O  O51  1  0.84321100  0.52868000  0.93531100  1
  O  O52  1  0.68546800  0.15678900  0.93531100  1
  O  O53  1  0.96706400  0.70950700  0.70502600  1
  O  O54  1  0.75604700  0.24395300  0.25000000  1
  O  O55  1  0.84321100  0.31453200  0.56468900  1
  O  O56  1  0.74244200  0.03293600  0.70502600  1
  O  O57  1  0.82395800  0.07799800  0.43602100  1
  O  O58  1  0.96706400  0.25755800  0.79497400  1
  O  O59  1  0.92200200  0.17604200  0.06397900  1
