# generated using pymatgen
data_Li4TiV3O8
_symmetry_space_group_name_H-M   'P 1'
_cell_length_a   5.84355111
_cell_length_b   5.84355111
_cell_length_c   8.36846308
_cell_angle_alpha   45.76171636
_cell_angle_beta   45.76171636
_cell_angle_gamma   59.88218512
_symmetry_Int_Tables_number   1
_chemical_formula_structural   Li4TiV3O8
_chemical_formula_sum   'Li4 Ti1 V3 O8'
_cell_volume   146.61463635
_cell_formula_units_Z   1
loop_
 _symmetry_equiv_pos_site_id
 _symmetry_equiv_pos_as_xyz
  1  'x, y, z'
loop_
 _atom_site_type_symbol
 _atom_site_label
 _atom_site_symmetry_multiplicity
 _atom_site_fract_x
 _atom_site_fract_y
 _atom_site_fract_z
 _atom_site_occupancy
  Li  Li0  1  0.49395400  0.50604600  0.50000000  1
  Li  Li1  1  0.49111200  0.01582300  0.49532700  1
  Li  Li2  1  0.98417700  0.50888800  0.50467300  1
  Li  Li3  1  0.99259600  0.00740400  0.50000000  1
  Ti  Ti4  1  0.99789200  0.00210800  0.00000000  1
  V  V5  1  0.49232300  0.50767700  0.00000000  1
  V  V6  1  0.49541000  0.00232900  0.00075700  1
  V  V7  1  0.99767100  0.50459000  0.99924300  1
  O  O8  1  0.00422000  0.01359400  0.23352500  1
  O  O9  1  0.00084400  0.51819700  0.23667000  1
  O  O10  1  0.51125100  0.01519800  0.23221400  1
  O  O11  1  0.48347400  0.49007300  0.76939700  1
  O  O12  1  0.50992700  0.51652600  0.23060300  1
  O  O13  1  0.48180300  0.99915600  0.76333000  1
  O  O14  1  0.98480200  0.48874900  0.76778600  1
  O  O15  1  0.98640600  0.99578000  0.76647500  1
