# generated using pymatgen
data_NdBrO2
_symmetry_space_group_name_H-M   'P 1'
_cell_length_a   4.40764700
_cell_length_b   5.20275400
_cell_length_c   6.72425237
_cell_angle_alpha   73.00287018
_cell_angle_beta   90.00000000
_cell_angle_gamma   90.00000000
_symmetry_Int_Tables_number   1
_chemical_formula_structural   NdBrO2
_chemical_formula_sum   'Nd2 Br2 O4'
_cell_volume   147.46435938
_cell_formula_units_Z   2
loop_
 _symmetry_equiv_pos_site_id
 _symmetry_equiv_pos_as_xyz
  1  'x, y, z'
loop_
 _atom_site_type_symbol
 _atom_site_label
 _atom_site_symmetry_multiplicity
 _atom_site_fract_x
 _atom_site_fract_y
 _atom_site_fract_z
 _atom_site_occupancy
  Nd  Nd0  1  0.25000000  0.19715800  0.65376800  1
  Nd  Nd1  1  0.75000000  0.80284200  0.34623200  1
  Br  Br2  1  0.25000000  0.21884800  0.09662000  1
  Br  Br3  1  0.75000000  0.78115200  0.90338000  1
  O  O4  1  0.25000000  0.74807600  0.54648300  1
  O  O5  1  0.75000000  0.25192400  0.45351700  1
  O  O6  1  0.25000000  0.61697800  0.37441800  1
  O  O7  1  0.75000000  0.38302200  0.62558200  1
