# generated using pymatgen
data_Ti11O18
_symmetry_space_group_name_H-M   'P 1'
_cell_length_a   5.52417700
_cell_length_b   7.50849091
_cell_length_c   8.79830856
_cell_angle_alpha   113.05979820
_cell_angle_beta   105.40925637
_cell_angle_gamma   96.34026000
_symmetry_Int_Tables_number   1
_chemical_formula_structural   Ti11O18
_chemical_formula_sum   'Ti11 O18'
_cell_volume   314.09983567
_cell_formula_units_Z   1
loop_
 _symmetry_equiv_pos_site_id
 _symmetry_equiv_pos_as_xyz
  1  'x, y, z'
loop_
 _atom_site_type_symbol
 _atom_site_label
 _atom_site_symmetry_multiplicity
 _atom_site_fract_x
 _atom_site_fract_y
 _atom_site_fract_z
 _atom_site_occupancy
  Ti  Ti0  1  0.69523200  0.65312800  0.99781200  1
  Ti  Ti1  1  0.32185300  0.86119700  0.00083200  1
  Ti  Ti2  1  0.63887100  0.17923600  0.68239700  1
  Ti  Ti3  1  0.02534300  0.48579700  0.66684300  1
  Ti  Ti4  1  0.31452600  0.33711500  0.00393100  1
  Ti  Ti5  1  0.96790700  0.01121400  0.32632600  1
  Ti  Ti6  1  0.36482300  0.32088600  0.33702800  1
  Ti  Ti7  1  0.64352800  0.68867900  0.67068700  1
  Ti  Ti8  1  0.02484200  0.98253800  0.66389600  1
  Ti  Ti9  1  0.36529300  0.81705000  0.33247800  1
  Ti  Ti10  1  0.96325600  0.49798700  0.31666200  1
  O  O11  1  0.39445700  0.64996100  0.79125300  1
  O  O12  1  0.94270700  0.68884900  0.87618000  1
  O  O13  1  0.59241300  0.36452500  0.89047000  1
  O  O14  1  0.06066300  0.31086200  0.43667600  1
  O  O15  1  0.71597700  0.96791900  0.74883900  1
  O  O16  1  0.04373700  0.28986400  0.77316100  1
  O  O17  1  0.62859600  0.37425900  0.56610800  1
  O  O18  1  0.26964700  0.03903900  0.89166100  1
  O  O19  1  0.27100800  0.02088600  0.53974200  1
  O  O20  1  0.73109900  0.98112300  0.45761800  1
  O  O21  1  0.69867800  0.94753900  0.11361800  1
  O  O22  1  0.37184500  0.62507200  0.44109000  1
  O  O23  1  0.96250200  0.70873200  0.22916200  1
  O  O24  1  0.27065200  0.01922800  0.22991600  1
  O  O25  1  0.93799900  0.68437900  0.55987200  1
  O  O26  1  0.39840500  0.64086600  0.10291200  1
  O  O27  1  0.09264200  0.33212000  0.13501400  1
  O  O28  1  0.60050800  0.36544800  0.21781800  1
