# generated using pymatgen
data_FeSbO4
_symmetry_space_group_name_H-M   'P 1'
_cell_length_a   5.63929707
_cell_length_b   5.63930014
_cell_length_c   5.63929875
_cell_angle_alpha   67.26209591
_cell_angle_beta   107.85943844
_cell_angle_gamma   72.13323650
_symmetry_Int_Tables_number   1
_chemical_formula_structural   FeSbO4
_chemical_formula_sum   'Fe2 Sb2 O8'
_cell_volume   137.71638762
_cell_formula_units_Z   2
loop_
 _symmetry_equiv_pos_site_id
 _symmetry_equiv_pos_as_xyz
  1  'x, y, z'
loop_
 _atom_site_type_symbol
 _atom_site_label
 _atom_site_symmetry_multiplicity
 _atom_site_fract_x
 _atom_site_fract_y
 _atom_site_fract_z
 _atom_site_occupancy
  Fe  Fe0  1  0.00000000  0.50980000  0.49020000  1
  Fe  Fe1  1  0.49999900  0.75978600  0.74021400  1
  Sb  Sb2  1  0.50000000  0.24258600  0.25741400  1
  Sb  Sb3  1  0.00000000  0.99259100  0.00741000  1
  O  O4  1  0.80344100  0.75380000  0.04964100  1
  O  O5  1  0.30344000  0.20035200  0.49620800  1
  O  O6  1  0.69656000  0.80723100  0.49620900  1
  O  O7  1  0.19656000  0.75380000  0.44276000  1
  O  O8  1  0.80837600  0.24498400  0.56339200  1
  O  O9  1  0.30838000  0.68666300  0.00495600  1
  O  O10  1  0.69162000  0.30342400  0.00495700  1
  O  O11  1  0.19162400  0.24498400  0.94664000  1
