# generated using pymatgen
data_NiP4O11
_symmetry_space_group_name_H-M   'P 1'
_cell_length_a   9.17225400
_cell_length_b   9.20584772
_cell_length_c   10.69975843
_cell_angle_alpha   108.96845522
_cell_angle_beta   108.18002872
_cell_angle_gamma   90.91766443
_symmetry_Int_Tables_number   1
_chemical_formula_structural   NiP4O11
_chemical_formula_sum   'Ni4 P16 O44'
_cell_volume   804.79509139
_cell_formula_units_Z   4
loop_
 _symmetry_equiv_pos_site_id
 _symmetry_equiv_pos_as_xyz
  1  'x, y, z'
loop_
 _atom_site_type_symbol
 _atom_site_label
 _atom_site_symmetry_multiplicity
 _atom_site_fract_x
 _atom_site_fract_y
 _atom_site_fract_z
 _atom_site_occupancy
  Ni  Ni0  1  0.75536400  0.78171800  0.01821700  1
  Ni  Ni1  1  0.26968300  0.72859100  0.49596300  1
  Ni  Ni2  1  0.73031700  0.27140900  0.50403700  1
  Ni  Ni3  1  0.24463600  0.21828200  0.98178300  1
  P  P4  1  0.94104900  0.59213300  0.22770400  1
  P  P5  1  0.76203500  0.91738600  0.55571400  1
  P  P6  1  0.93471300  0.25040900  0.07304600  1
  P  P7  1  0.40907900  0.77324400  0.08642900  1
  P  P8  1  0.73968900  0.57281500  0.39054400  1
  P  P9  1  0.59014800  0.90074300  0.75684000  1
  P  P10  1  0.91283100  0.10850400  0.28529900  1
  P  P11  1  0.40831400  0.55026400  0.24517600  1
  P  P12  1  0.59168600  0.44973600  0.75482400  1
  P  P13  1  0.08716900  0.89149600  0.71470100  1
  P  P14  1  0.40985200  0.09925700  0.24316000  1
  P  P15  1  0.26031100  0.42718500  0.60945600  1
  P  P16  1  0.59092100  0.22675600  0.91357100  1
  P  P17  1  0.06528700  0.74959100  0.92695400  1
  P  P18  1  0.23796500  0.08261400  0.44428600  1
  P  P19  1  0.05895100  0.40786700  0.77229600  1
  O  O20  1  0.99735900  0.82173100  0.03688400  1
  O  O21  1  0.79008400  0.97992100  0.18707600  1
  O  O22  1  0.93622400  0.97010400  0.65144200  1
  O  O23  1  0.81242500  0.64712300  0.13792300  1
  O  O24  1  0.97915300  0.43046400  0.13130600  1
  O  O25  1  0.53066700  0.76076700  0.02306600  1
  O  O26  1  0.76037100  0.75842600  0.43562100  1
  O  O27  1  0.43255600  0.91652400  0.22450700  1
  O  O28  1  0.87171900  0.52528900  0.32581000  1
  O  O29  1  0.67841000  0.86316000  0.64206400  1
  O  O30  1  0.98759600  0.19465600  0.20211600  1
  O  O31  1  0.75082700  0.22416100  0.02801900  1
  O  O32  1  0.70196700  0.90848300  0.89373500  1
  O  O33  1  0.58762900  0.51947100  0.25697700  1
  O  O34  1  0.37135100  0.63139500  0.12560900  1
  O  O35  1  0.30358800  0.96455100  0.50231500  1
  O  O36  1  0.74611400  0.51101900  0.50273200  1
  O  O37  1  0.88879900  0.23334100  0.40353700  1
  O  O38  1  0.41629100  0.66498300  0.38319400  1
  O  O39  1  0.44006900  0.79883100  0.68816500  1
  O  O40  1  0.90762000  0.31131900  0.68677500  1
  O  O41  1  0.69540100  0.59874100  0.82507400  1
  O  O42  1  0.30459900  0.40125900  0.17492600  1
  O  O43  1  0.09238000  0.68868100  0.31322500  1
  O  O44  1  0.55993100  0.20116900  0.31183500  1
  O  O45  1  0.58370900  0.33501700  0.61680600  1
  O  O46  1  0.11120100  0.76665900  0.59646300  1
  O  O47  1  0.25388600  0.48898100  0.49726800  1
  O  O48  1  0.69641200  0.03544900  0.49768500  1
  O  O49  1  0.62864900  0.36860500  0.87439100  1
  O  O50  1  0.41237100  0.48052900  0.74302300  1
  O  O51  1  0.29803300  0.09151700  0.10626500  1
  O  O52  1  0.24917300  0.77583900  0.97198100  1
  O  O53  1  0.01240400  0.80534400  0.79788400  1
  O  O54  1  0.32159000  0.13684000  0.35793600  1
  O  O55  1  0.12828100  0.47471100  0.67419000  1
  O  O56  1  0.56744400  0.08347600  0.77549300  1
  O  O57  1  0.23962900  0.24157400  0.56437900  1
  O  O58  1  0.46933300  0.23923300  0.97693400  1
  O  O59  1  0.02084700  0.56953600  0.86869400  1
  O  O60  1  0.18757500  0.35287700  0.86207700  1
  O  O61  1  0.06377600  0.02989600  0.34855800  1
  O  O62  1  0.20991600  0.02007900  0.81292400  1
  O  O63  1  0.00264100  0.17826900  0.96311600  1
