# generated using pymatgen
data_Li2Fe2Cu(PO4)3
_symmetry_space_group_name_H-M   'P 1'
_cell_length_a   8.49602635
_cell_length_b   8.49602635
_cell_length_c   8.50986439
_cell_angle_alpha   61.07383926
_cell_angle_beta   61.07383926
_cell_angle_gamma   61.37496546
_symmetry_Int_Tables_number   1
_chemical_formula_structural   Li2Fe2Cu(PO4)3
_chemical_formula_sum   'Li4 Fe4 Cu2 P6 O24'
_cell_volume   445.81608011
_cell_formula_units_Z   2
loop_
 _symmetry_equiv_pos_site_id
 _symmetry_equiv_pos_as_xyz
  1  'x, y, z'
loop_
 _atom_site_type_symbol
 _atom_site_label
 _atom_site_symmetry_multiplicity
 _atom_site_fract_x
 _atom_site_fract_y
 _atom_site_fract_z
 _atom_site_occupancy
  Li  Li0  1  0.64353500  0.35646500  0.50000000  1
  Li  Li1  1  0.35037200  0.64962800  0.00000000  1
  Li  Li2  1  0.74980300  0.85059300  0.39965700  1
  Li  Li3  1  0.14940700  0.25019700  0.60034300  1
  Fe  Fe4  1  0.64374900  0.14207500  0.88966000  1
  Fe  Fe5  1  0.85792500  0.35625100  0.11034000  1
  Fe  Fe6  1  0.14668700  0.65047500  0.39774600  1
  Fe  Fe7  1  0.34952500  0.85331300  0.60225400  1
  Cu  Cu8  1  0.50028500  0.99227500  0.76272200  1
  Cu  Cu9  1  0.00772500  0.49971500  0.23727800  1
  P  P10  1  0.24771200  0.44861900  0.80367700  1
  P  P11  1  0.55138100  0.75228800  0.19632300  1
  P  P12  1  0.94980400  0.05019600  0.50000000  1
  P  P13  1  0.03280900  0.96719100  0.00000000  1
  P  P14  1  0.46606700  0.25041500  0.28590800  1
  P  P15  1  0.74958500  0.53393300  0.71409200  1
  O  O16  1  0.79979900  0.49566800  0.88033600  1
  O  O17  1  0.00293700  0.12629000  0.05700400  1
  O  O18  1  0.42514400  0.26480700  0.80200000  1
  O  O19  1  0.62452000  0.30326500  0.26946400  1
  O  O20  1  0.30210700  0.61133700  0.77399800  1
  O  O21  1  0.08234900  0.42925700  0.99530100  1
  O  O22  1  0.57074300  0.91765100  0.00469900  1
  O  O23  1  0.73519300  0.57485600  0.19800000  1
  O  O24  1  0.87371000  0.99706300  0.94299600  1
  O  O25  1  0.92562100  0.24626800  0.33765600  1
  O  O26  1  0.23114500  0.94334700  0.83972800  1
  O  O27  1  0.50433200  0.20020100  0.11966400  1
  O  O28  1  0.52028000  0.80637500  0.35953200  1
  O  O29  1  0.75373200  0.07437900  0.66234400  1
  O  O30  1  0.05665300  0.76885500  0.16027200  1
  O  O31  1  0.10881100  0.02447400  0.55525500  1
  O  O32  1  0.26969400  0.41079600  0.30793900  1
  O  O33  1  0.44001200  0.08990500  0.48305000  1
  O  O34  1  0.91009500  0.55998800  0.51695000  1
  O  O35  1  0.69673500  0.37548000  0.73053600  1
  O  O36  1  0.38866300  0.69789300  0.22600200  1
  O  O37  1  0.58920400  0.73030600  0.69206100  1
  O  O38  1  0.97552600  0.89118900  0.44474500  1
  O  O39  1  0.19362500  0.47972000  0.64046800  1
