# generated using pymatgen
data_Li3VO3F2
_symmetry_space_group_name_H-M   'P 1'
_cell_length_a   3.90375596
_cell_length_b   5.19348672
_cell_length_c   6.04385254
_cell_angle_alpha   67.41381581
_cell_angle_beta   90.52705366
_cell_angle_gamma   67.88955611
_symmetry_Int_Tables_number   1
_chemical_formula_structural   Li3VO3F2
_chemical_formula_sum   'Li3 V1 O3 F2'
_cell_volume   103.10846274
_cell_formula_units_Z   1
loop_
 _symmetry_equiv_pos_site_id
 _symmetry_equiv_pos_as_xyz
  1  'x, y, z'
loop_
 _atom_site_type_symbol
 _atom_site_label
 _atom_site_symmetry_multiplicity
 _atom_site_fract_x
 _atom_site_fract_y
 _atom_site_fract_z
 _atom_site_occupancy
  Li  Li0  1  0.25435200  0.49189100  0.67587400  1
  Li  Li1  1  0.67709900  0.64063600  0.89682600  1
  Li  Li2  1  0.73855400  0.51971200  0.35357400  1
  V  V3  1  0.03671500  0.01533400  0.97837000  1
  O  O4  1  0.11142700  0.76084500  0.84890200  1
  O  O5  1  0.49456400  0.98350500  0.02112500  1
  O  O6  1  0.81745800  0.36694500  0.72079700  1
  F  F7  1  0.16180900  0.66115600  0.33083300  1
  F  F8  1  0.85428400  0.26745100  0.17995300  1
