# generated using pymatgen
data_Na2VPO6
_symmetry_space_group_name_H-M   'P 1'
_cell_length_a   4.93044900
_cell_length_b   9.02752100
_cell_length_c   11.46692300
_cell_angle_alpha   90.00000000
_cell_angle_beta   90.00000000
_cell_angle_gamma   90.00000000
_symmetry_Int_Tables_number   1
_chemical_formula_structural   Na2VPO6
_chemical_formula_sum   'Na8 V4 P4 O24'
_cell_volume   510.38966830
_cell_formula_units_Z   4
loop_
 _symmetry_equiv_pos_site_id
 _symmetry_equiv_pos_as_xyz
  1  'x, y, z'
loop_
 _atom_site_type_symbol
 _atom_site_label
 _atom_site_symmetry_multiplicity
 _atom_site_fract_x
 _atom_site_fract_y
 _atom_site_fract_z
 _atom_site_occupancy
  Na  Na0  1  0.01406000  0.32306500  0.08144100  1
  Na  Na1  1  0.53946800  0.62196200  0.12748900  1
  Na  Na2  1  0.03946800  0.12196200  0.37251100  1
  Na  Na3  1  0.51406000  0.82306500  0.41855900  1
  Na  Na4  1  0.48594000  0.32306500  0.58144100  1
  Na  Na5  1  0.96053200  0.62196200  0.62748900  1
  Na  Na6  1  0.46053200  0.12196200  0.87251100  1
  Na  Na7  1  0.98594000  0.82306500  0.91855900  1
  V  V8  1  0.47312200  0.00099600  0.12463800  1
  V  V9  1  0.97312200  0.50099600  0.37536200  1
  V  V10  1  0.02687800  0.00099600  0.62463800  1
  V  V11  1  0.52687800  0.50099600  0.87536200  1
  P  P12  1  0.08641300  0.80688300  0.22087100  1
  P  P13  1  0.58641300  0.30688300  0.27912900  1
  P  P14  1  0.41358700  0.80688300  0.72087100  1
  P  P15  1  0.91358700  0.30688300  0.77912900  1
  O  O16  1  0.31804200  0.47075000  0.98708900  1
  O  O17  1  0.25059700  0.11487000  0.06412900  1
  O  O18  1  0.23383000  0.81335600  0.09828800  1
  O  O19  1  0.74676000  0.43408500  0.21742900  1
  O  O20  1  0.78001000  0.82722700  0.21917800  1
  O  O21  1  0.66184100  0.15264600  0.22291400  1
  O  O22  1  0.16184100  0.65264600  0.27708600  1
  O  O23  1  0.28001000  0.32722700  0.28082200  1
  O  O24  1  0.24676000  0.93408500  0.28257100  1
  O  O25  1  0.73383000  0.31335600  0.40171200  1
  O  O26  1  0.75059700  0.61487000  0.43587100  1
  O  O27  1  0.81804200  0.97075000  0.51291100  1
  O  O28  1  0.18195800  0.47075000  0.48708900  1
  O  O29  1  0.24940300  0.11487000  0.56412900  1
  O  O30  1  0.26617000  0.81335600  0.59828800  1
  O  O31  1  0.75324000  0.43408500  0.71742900  1
  O  O32  1  0.71999000  0.82722700  0.71917800  1
  O  O33  1  0.83815900  0.15264600  0.72291400  1
  O  O34  1  0.33815900  0.65264600  0.77708600  1
  O  O35  1  0.21999000  0.32722700  0.78082200  1
  O  O36  1  0.25324000  0.93408500  0.78257100  1
  O  O37  1  0.76617000  0.31335600  0.90171200  1
  O  O38  1  0.74940300  0.61487000  0.93587100  1
  O  O39  1  0.68195800  0.97075000  0.01291100  1
