# generated using pymatgen
data_NaMn(PO3)3
_symmetry_space_group_name_H-M   'P 1'
_cell_length_a   8.79270400
_cell_length_b   8.82746000
_cell_length_c   9.06338400
_cell_angle_alpha   90.00000000
_cell_angle_beta   90.00000000
_cell_angle_gamma   90.00000000
_symmetry_Int_Tables_number   1
_chemical_formula_structural   NaMn(PO3)3
_chemical_formula_sum   'Na4 Mn4 P12 O36'
_cell_volume   703.47487699
_cell_formula_units_Z   4
loop_
 _symmetry_equiv_pos_site_id
 _symmetry_equiv_pos_as_xyz
  1  'x, y, z'
loop_
 _atom_site_type_symbol
 _atom_site_label
 _atom_site_symmetry_multiplicity
 _atom_site_fract_x
 _atom_site_fract_y
 _atom_site_fract_z
 _atom_site_occupancy
  Na  Na0  1  0.15191700  0.13189900  0.39297400  1
  Na  Na1  1  0.34808300  0.86810100  0.89297400  1
  Na  Na2  1  0.65191700  0.36810100  0.60702600  1
  Na  Na3  1  0.84808300  0.63189900  0.10702600  1
  Mn  Mn4  1  0.12660600  0.85612200  0.16267800  1
  Mn  Mn5  1  0.37339400  0.14387800  0.66267800  1
  Mn  Mn6  1  0.62660600  0.64387800  0.83732200  1
  Mn  Mn7  1  0.87339400  0.35612200  0.33732200  1
  P  P8  1  0.03209200  0.32437900  0.68788100  1
  P  P9  1  0.19512900  0.47839100  0.18981000  1
  P  P10  1  0.19654100  0.80699000  0.56177400  1
  P  P11  1  0.30345900  0.19301000  0.06177400  1
  P  P12  1  0.30487100  0.52160900  0.68981000  1
  P  P13  1  0.46790800  0.67562100  0.18788100  1
  P  P14  1  0.53209200  0.17562100  0.31211900  1
  P  P15  1  0.69512900  0.02160900  0.81019000  1
  P  P16  1  0.69654100  0.69301000  0.43822600  1
  P  P17  1  0.80345900  0.30699000  0.93822600  1
  P  P18  1  0.80487100  0.97839100  0.31019000  1
  P  P19  1  0.96790800  0.82437900  0.81211900  1
  O  O20  1  0.04133400  0.78084600  0.65521600  1
  O  O21  1  0.10623200  0.60993600  0.12959600  1
  O  O22  1  0.08826600  0.87517400  0.91851800  1
  O  O23  1  0.12317700  0.38897400  0.31333300  1
  O  O24  1  0.13275300  0.19566200  0.63936900  1
  O  O25  1  0.13777100  0.46610800  0.73983400  1
  O  O26  1  0.15335900  0.85209600  0.40804900  1
  O  O27  1  0.19652600  0.09208600  0.14655500  1
  O  O28  1  0.23606000  0.36378600  0.05525200  1
  O  O29  1  0.26394000  0.63621400  0.55525200  1
  O  O30  1  0.30347400  0.90791400  0.64655500  1
  O  O31  1  0.34664100  0.14790400  0.90804900  1
  O  O32  1  0.36222900  0.53389200  0.23983400  1
  O  O33  1  0.36724700  0.80433800  0.13936900  1
  O  O34  1  0.37682300  0.61102600  0.81333300  1
  O  O35  1  0.41173400  0.12482600  0.41851800  1
  O  O36  1  0.39376800  0.39006400  0.62959600  1
  O  O37  1  0.45866600  0.21915400  0.15521600  1
  O  O38  1  0.54133400  0.71915400  0.34478400  1
  O  O39  1  0.60623200  0.89006400  0.87040400  1
  O  O40  1  0.58826600  0.62482600  0.08148200  1
  O  O41  1  0.62317700  0.11102600  0.68666700  1
  O  O42  1  0.63275300  0.30433800  0.36063100  1
  O  O43  1  0.63777100  0.03389200  0.26016600  1
  O  O44  1  0.65335900  0.64790400  0.59195100  1
  O  O45  1  0.69652600  0.40791400  0.85344500  1
  O  O46  1  0.73606000  0.13621400  0.94474800  1
  O  O47  1  0.76394000  0.86378600  0.44474800  1
  O  O48  1  0.80347400  0.59208600  0.35344500  1
  O  O49  1  0.84664100  0.35209600  0.09195100  1
  O  O50  1  0.86222900  0.96610800  0.76016600  1
  O  O51  1  0.86724700  0.69566200  0.86063100  1
  O  O52  1  0.87682300  0.88897400  0.18666700  1
  O  O53  1  0.91173400  0.37517400  0.58148200  1
  O  O54  1  0.89376800  0.10993600  0.37040400  1
  O  O55  1  0.95866600  0.28084600  0.84478400  1
