data_image0
_chemical_formula_structural       As2C2Nb4
_chemical_formula_sum              "As2 C2 Nb4"
_cell_length_a       3.34328
_cell_length_b       3.3432
_cell_length_c       12.0385
_cell_angle_alpha    90
_cell_angle_beta     90
_cell_angle_gamma    120.001

_space_group_name_H-M_alt    "P 1"
_space_group_IT_number       1

loop_
  _space_group_symop_operation_xyz
  'x, y, z'

loop_
  _atom_site_type_symbol
  _atom_site_label
  _atom_site_symmetry_multiplicity
  _atom_site_fract_x
  _atom_site_fract_y
  _atom_site_fract_z
  _atom_site_occupancy
  As  As1       1.0  0.66700  0.33300  0.25000  1.0000
  As  As2       1.0  0.33300  0.66700  0.75000  1.0000
  C   C1        1.0  0.00000  0.00000  0.00000  1.0000
  C   C2        1.0  0.00000  0.00000  0.50000  1.0000
  Nb  Nb1       1.0  0.33300  0.66700  0.09430  1.0000
  Nb  Nb2       1.0  0.33300  0.66700  0.40600  1.0000
  Nb  Nb3       1.0  0.66700  0.33300  0.59400  1.0000
  Nb  Nb4       1.0  0.66700  0.33300  0.90600  1.0000
