# generated using pymatgen
data_Na3MnO3
_symmetry_space_group_name_H-M   'P 1'
_cell_length_a   8.28661454
_cell_length_b   8.28661454
_cell_length_c   16.93741600
_cell_angle_alpha   90.00000000
_cell_angle_beta   90.00000000
_cell_angle_gamma   93.84594465
_symmetry_Int_Tables_number   1
_chemical_formula_structural   Na3MnO3
_chemical_formula_sum   'Na36 Mn12 O36'
_cell_volume   1160.43894935
_cell_formula_units_Z   12
loop_
 _symmetry_equiv_pos_site_id
 _symmetry_equiv_pos_as_xyz
  1  'x, y, z'
loop_
 _atom_site_type_symbol
 _atom_site_label
 _atom_site_symmetry_multiplicity
 _atom_site_fract_x
 _atom_site_fract_y
 _atom_site_fract_z
 _atom_site_occupancy
  Na  Na0  1  0.02823500  0.38766100  0.57118200  1
  Na  Na1  1  0.38766100  0.02823500  0.42881800  1
  Na  Na2  1  0.18265500  0.24190800  0.08663300  1
  Na  Na3  1  0.24190800  0.18265500  0.91336700  1
  Na  Na4  1  0.33022500  0.16977500  0.25000000  1
  Na  Na5  1  0.16977500  0.33022500  0.75000000  1
  Na  Na6  1  0.25809200  0.31734500  0.41336700  1
  Na  Na7  1  0.31734500  0.25809200  0.58663300  1
  Na  Na8  1  0.11233900  0.47176500  0.92881800  1
  Na  Na9  1  0.47176500  0.11233900  0.07118200  1
  Na  Na10  1  0.15562400  0.51177000  0.19080200  1
  Na  Na11  1  0.65562400  0.01177000  0.30919800  1
  Na  Na12  1  0.01177000  0.65562400  0.69080200  1
  Na  Na13  1  0.51177000  0.15562400  0.80919800  1
  Na  Na14  1  0.97320600  0.02679400  0.22408400  1
  Na  Na15  1  0.67340000  0.32660000  0.22478600  1
  Na  Na16  1  0.82660000  0.17340000  0.72478600  1
  Na  Na17  1  0.47320600  0.52679400  0.27591600  1
  Na  Na18  1  0.32660000  0.67340000  0.77521400  1
  Na  Na19  1  0.02679400  0.97320600  0.77591600  1
  Na  Na20  1  0.52679400  0.47320600  0.72408400  1
  Na  Na21  1  0.17340000  0.82660000  0.27521400  1
  Na  Na22  1  0.98823000  0.34437600  0.30919800  1
  Na  Na23  1  0.34437600  0.98823000  0.69080200  1
  Na  Na24  1  0.84437600  0.48823000  0.80919800  1
  Na  Na25  1  0.48823000  0.84437600  0.19080200  1
  Na  Na26  1  0.88766100  0.52823500  0.07118200  1
  Na  Na27  1  0.52823500  0.88766100  0.92881800  1
  Na  Na28  1  0.68265500  0.74190800  0.41336700  1
  Na  Na29  1  0.74190800  0.68265500  0.58663300  1
  Na  Na30  1  0.83022500  0.66977500  0.25000000  1
  Na  Na31  1  0.66977500  0.83022500  0.75000000  1
  Na  Na32  1  0.75809200  0.81734500  0.08663300  1
  Na  Na33  1  0.81734500  0.75809200  0.91336700  1
  Na  Na34  1  0.97176500  0.61233900  0.42881800  1
  Na  Na35  1  0.61233900  0.97176500  0.57118200  1
  Mn  Mn36  1  0.82715600  0.17284400  0.09228300  1
  Mn  Mn37  1  0.99848900  0.00151100  0.41424200  1
  Mn  Mn38  1  0.00151100  0.99848900  0.58575800  1
  Mn  Mn39  1  0.67284400  0.32715600  0.59228300  1
  Mn  Mn40  1  0.65268500  0.34731500  0.42030500  1
  Mn  Mn41  1  0.32715600  0.67284400  0.40771700  1
  Mn  Mn42  1  0.84731500  0.15268500  0.92030500  1
  Mn  Mn43  1  0.49848900  0.50151100  0.08575800  1
  Mn  Mn44  1  0.34731500  0.65268500  0.57969500  1
  Mn  Mn45  1  0.50151100  0.49848900  0.91424200  1
  Mn  Mn46  1  0.17284400  0.82715600  0.90771700  1
  Mn  Mn47  1  0.15268500  0.84731500  0.07969500  1
  O  O48  1  0.11705600  0.11705600  0.50000000  1
  O  O49  1  0.12563800  0.11467200  0.33753800  1
  O  O50  1  0.11467200  0.12563800  0.66246200  1
  O  O51  1  0.19715300  0.55599400  0.33129300  1
  O  O52  1  0.05599400  0.69715300  0.83129300  1
  O  O53  1  0.69715300  0.05599400  0.16870700  1
  O  O54  1  0.55599400  0.19715300  0.66870700  1
  O  O55  1  0.51856700  0.23900600  0.34491800  1
  O  O56  1  0.23900600  0.51856700  0.65508200  1
  O  O57  1  0.73900600  0.01856700  0.84491800  1
  O  O58  1  0.01856700  0.73900600  0.15508200  1
  O  O59  1  0.38532800  0.37436200  0.16246200  1
  O  O60  1  0.37436200  0.38532800  0.83753800  1
  O  O61  1  0.38294400  0.38294400  0.00000000  1
  O  O62  1  0.04705400  0.72302800  0.99286800  1
  O  O63  1  0.22302800  0.54705400  0.49286800  1
  O  O64  1  0.72302800  0.04705400  0.00713200  1
  O  O65  1  0.54705400  0.22302800  0.50713200  1
  O  O66  1  0.45294600  0.77697200  0.49286800  1
  O  O67  1  0.77697200  0.45294600  0.50713200  1
  O  O68  1  0.95294600  0.27697200  0.00713200  1
  O  O69  1  0.27697200  0.95294600  0.99286800  1
  O  O70  1  0.61705600  0.61705600  0.00000000  1
  O  O71  1  0.61467200  0.62563800  0.83753800  1
  O  O72  1  0.62563800  0.61467200  0.16246200  1
  O  O73  1  0.98143300  0.26099400  0.84491800  1
  O  O74  1  0.76099400  0.48143300  0.34491800  1
  O  O75  1  0.26099400  0.98143300  0.15508200  1
  O  O76  1  0.48143300  0.76099400  0.65508200  1
  O  O77  1  0.94400600  0.30284700  0.16870700  1
  O  O78  1  0.80284700  0.44400600  0.66870700  1
  O  O79  1  0.44400600  0.80284700  0.33129300  1
  O  O80  1  0.30284700  0.94400600  0.83129300  1
  O  O81  1  0.88532800  0.87436200  0.33753800  1
  O  O82  1  0.87436200  0.88532800  0.66246200  1
  O  O83  1  0.88294400  0.88294400  0.50000000  1
