# generated using pymatgen
data_DyWO4
_symmetry_space_group_name_H-M   'P 1'
_cell_length_a   6.69303180
_cell_length_b   6.69303180
_cell_length_c   6.69303180
_cell_angle_alpha   133.58045416
_cell_angle_beta   133.58045416
_cell_angle_gamma   67.74403822
_symmetry_Int_Tables_number   1
_chemical_formula_structural   DyWO4
_chemical_formula_sum   'Dy2 W2 O8'
_cell_volume   154.65557593
_cell_formula_units_Z   2
loop_
 _symmetry_equiv_pos_site_id
 _symmetry_equiv_pos_as_xyz
  1  'x, y, z'
loop_
 _atom_site_type_symbol
 _atom_site_label
 _atom_site_symmetry_multiplicity
 _atom_site_fract_x
 _atom_site_fract_y
 _atom_site_fract_z
 _atom_site_occupancy
  Dy  Dy0  1  0.25000000  0.75000000  0.50000000  1
  Dy  Dy1  1  0.50000000  0.50000000  0.00000000  1
  W  W2  1  0.00000000  0.00000000  0.00000000  1
  W  W3  1  0.75000000  0.25000000  0.50000000  1
  O  O4  1  0.09242600  0.51571900  0.93776600  1
  O  O5  1  0.90466000  0.34242600  0.07670700  1
  O  O6  1  0.26571900  0.82795300  0.92329300  1
  O  O7  1  0.17204700  0.09534000  0.43776600  1
  O  O8  1  0.57795300  0.15466000  0.06223400  1
  O  O9  1  0.48428100  0.42204700  0.57670700  1
  O  O10  1  0.84534000  0.90757400  0.42329300  1
  O  O11  1  0.65757400  0.73428100  0.56223400  1
