# generated using pymatgen
data_Y7HoO12
_symmetry_space_group_name_H-M   'P 1'
_cell_length_a   9.25355998
_cell_length_b   9.25355998
_cell_length_c   9.25355998
_cell_angle_alpha   109.47633692
_cell_angle_beta   109.47275766
_cell_angle_gamma   109.46456755
_symmetry_Int_Tables_number   1
_chemical_formula_structural   Y7HoO12
_chemical_formula_sum   'Y14 Ho2 O24'
_cell_volume   609.96460833
_cell_formula_units_Z   2
loop_
 _symmetry_equiv_pos_site_id
 _symmetry_equiv_pos_as_xyz
  1  'x, y, z'
loop_
 _atom_site_type_symbol
 _atom_site_label
 _atom_site_symmetry_multiplicity
 _atom_site_fract_x
 _atom_site_fract_y
 _atom_site_fract_z
 _atom_site_occupancy
  Y  Y0  1  0.21734100  0.25000000  0.46734100  1
  Y  Y1  1  0.99919700  0.49985900  0.49940400  1
  Y  Y2  1  0.75000000  0.96719000  0.21719000  1
  Y  Y3  1  0.25000000  0.53281000  0.28281000  1
  Y  Y4  1  0.53327600  0.78327600  0.75000000  1
  Y  Y5  1  0.03210300  0.28210300  0.75000000  1
  Y  Y6  1  0.99954400  0.00014100  0.99933700  1
  Y  Y7  1  0.50080300  0.00020700  0.50066300  1
  Y  Y8  1  0.50045600  0.49979300  0.00059600  1
  Y  Y9  1  0.28265900  0.75000000  0.03265900  1
  Y  Y10  1  0.46789700  0.21789700  0.25000000  1
  Y  Y11  1  0.96672400  0.71672400  0.25000000  1
  Y  Y12  1  0.75000000  0.46783000  0.71783000  1
  Y  Y13  1  0.25000000  0.03217000  0.78217000  1
  Ho  Ho14  1  0.71706700  0.25000000  0.96706700  1
  Ho  Ho15  1  0.78293300  0.75000000  0.53293300  1
  O  O16  1  0.48931600  0.72811400  0.95765800  1
  O  O17  1  0.27045600  0.53165900  0.54234200  1
  O  O18  1  0.04156000  0.77026700  0.53135000  1
  O  O19  1  0.23937700  0.27076700  0.22810500  1
  O  O20  1  0.26062300  0.48872900  0.03139000  1
  O  O21  1  0.45844000  0.98979000  0.72870600  1
  O  O22  1  0.22954400  0.77188600  0.26120300  1
  O  O23  1  0.01068400  0.96834100  0.23879700  1
  O  O24  1  0.03133400  0.54235700  0.77067600  1
  O  O25  1  0.77176900  0.04382900  0.01110300  1
  O  O26  1  0.27168100  0.26065800  0.72932400  1
  O  O27  1  0.53272700  0.76066600  0.48889700  1
  O  O28  1  0.46866600  0.23934200  0.51102300  1
  O  O29  1  0.22831900  0.95764300  0.98897700  1
  O  O30  1  0.72823100  0.73933400  0.27206100  1
  O  O31  1  0.96727300  0.45617100  0.22793900  1
  O  O32  1  0.98754300  0.02972400  0.75873800  1
  O  O33  1  0.77098600  0.22880400  0.74126200  1
  O  O34  1  0.54266200  0.01127100  0.27189500  1
  O  O35  1  0.73891600  0.51021000  0.96865000  1
  O  O36  1  0.76108400  0.72973300  0.77129400  1
  O  O37  1  0.95733800  0.22923300  0.46861000  1
  O  O38  1  0.72901400  0.47027600  0.45781800  1
  O  O39  1  0.51245700  0.27119600  0.04218200  1
