# generated using pymatgen
data_Sb3H18C6N
_symmetry_space_group_name_H-M   'P 1'
_cell_length_a   6.83786200
_cell_length_b   12.40718000
_cell_length_c   17.32191951
_cell_angle_alpha   78.88735266
_cell_angle_beta   90.00000000
_cell_angle_gamma   90.00000000
_symmetry_Int_Tables_number   1
_chemical_formula_structural   Sb3H18C6N
_chemical_formula_sum   'Sb12 H72 C24 N4'
_cell_volume   1442.01296133
_cell_formula_units_Z   4
loop_
 _symmetry_equiv_pos_site_id
 _symmetry_equiv_pos_as_xyz
  1  'x, y, z'
loop_
 _atom_site_type_symbol
 _atom_site_label
 _atom_site_symmetry_multiplicity
 _atom_site_fract_x
 _atom_site_fract_y
 _atom_site_fract_z
 _atom_site_occupancy
  Sb  Sb0  1  0.38256100  0.85473400  0.74327000  1
  Sb  Sb1  1  0.29779200  0.75462300  0.94964000  1
  Sb  Sb2  1  0.11743900  0.85473400  0.24327000  1
  Sb  Sb3  1  0.20220800  0.75462300  0.44964000  1
  Sb  Sb4  1  0.18928100  0.58243600  0.80998500  1
  Sb  Sb5  1  0.31071900  0.58243600  0.30998500  1
  Sb  Sb6  1  0.68928100  0.41756400  0.69001500  1
  Sb  Sb7  1  0.81071900  0.41756400  0.19001500  1
  Sb  Sb8  1  0.79779200  0.24537700  0.55036000  1
  Sb  Sb9  1  0.88256100  0.14526600  0.75673000  1
  Sb  Sb10  1  0.70220800  0.24537700  0.05036000  1
  Sb  Sb11  1  0.61743900  0.14526600  0.25673000  1
  H  H12  1  0.19754000  0.96026600  0.97633600  1
  H  H13  1  0.21583500  0.96554800  0.87252000  1
  H  H14  1  0.00173500  0.90831700  0.92521300  1
  H  H15  1  0.60706000  0.86763200  0.99812400  1
  H  H16  1  0.62643500  0.87315800  0.89399400  1
  H  H17  1  0.30246000  0.96026600  0.47633600  1
  H  H18  1  0.00993500  0.90284000  0.68647300  1
  H  H19  1  0.28416500  0.96554800  0.37252000  1
  H  H20  1  0.16850800  0.89082500  0.60628300  1
  H  H21  1  0.49826500  0.90831700  0.42521300  1
  H  H22  1  0.69922400  0.75154000  0.96203500  1
  H  H23  1  0.89294000  0.86763200  0.49812400  1
  H  H24  1  0.87356500  0.87315800  0.39399400  1
  H  H25  1  0.56785600  0.79721200  0.61600400  1
  H  H26  1  0.08009500  0.76920600  0.66979000  1
  H  H27  1  0.49006500  0.90284000  0.18647300  1
  H  H28  1  0.70118500  0.74053200  0.70357500  1
  H  H29  1  0.33149200  0.89082500  0.10628300  1
  H  H30  1  0.80077600  0.75154000  0.46203500  1
  H  H31  1  0.47928000  0.67598100  0.67992900  1
  H  H32  1  0.94678400  0.60345800  0.93273100  1
  H  H33  1  0.80616900  0.62539800  0.84341200  1
  H  H34  1  0.93214400  0.79721200  0.11600400  1
  H  H35  1  0.41990500  0.76920600  0.16979000  1
  H  H36  1  0.79881500  0.74053200  0.20357500  1
  H  H37  1  0.77311700  0.60834400  0.58606700  1
  H  H38  1  0.35366600  0.50605600  0.95508300  1
  H  H39  1  0.86696800  0.48876000  0.89210300  1
  H  H40  1  0.02072000  0.67598100  0.17992900  1
  H  H41  1  0.55321600  0.60345800  0.43273100  1
  H  H42  1  0.69383100  0.62539800  0.34341200  1
  H  H43  1  0.99770600  0.54031800  0.61908600  1
  H  H44  1  0.49770600  0.45968200  0.88091400  1
  H  H45  1  0.36696800  0.51124000  0.60789700  1
  H  H46  1  0.85366600  0.49394400  0.54491700  1
  H  H47  1  0.27311700  0.39165600  0.91393300  1
  H  H48  1  0.72688300  0.60834400  0.08606700  1
  H  H49  1  0.14633400  0.50605600  0.45508300  1
  H  H50  1  0.63303200  0.48876000  0.39210300  1
  H  H51  1  0.50229400  0.54031800  0.11908600  1
  H  H52  1  0.00229400  0.45968200  0.38091400  1
  H  H53  1  0.30616900  0.37460200  0.65658800  1
  H  H54  1  0.44678400  0.39654200  0.56726900  1
  H  H55  1  0.97928000  0.32401900  0.82007100  1
  H  H56  1  0.13303200  0.51124000  0.10789700  1
  H  H57  1  0.64633400  0.49394400  0.04491700  1
  H  H58  1  0.22688300  0.39165600  0.41393300  1
  H  H59  1  0.20118500  0.25946800  0.79642500  1
  H  H60  1  0.58009500  0.23079400  0.83021000  1
  H  H61  1  0.06785600  0.20278800  0.88399600  1
  H  H62  1  0.19383100  0.37460200  0.15658800  1
  H  H63  1  0.05321600  0.39654200  0.06726900  1
  H  H64  1  0.52072000  0.32401900  0.32007100  1
  H  H65  1  0.19922400  0.24846000  0.53796500  1
  H  H66  1  0.66850800  0.10917500  0.89371700  1
  H  H67  1  0.29881500  0.25946800  0.29642500  1
  H  H68  1  0.50993500  0.09716000  0.81352700  1
  H  H69  1  0.91990500  0.23079400  0.33021000  1
  H  H70  1  0.43214400  0.20278800  0.38399600  1
  H  H71  1  0.12643500  0.12684200  0.60600600  1
  H  H72  1  0.10706000  0.13236800  0.50187600  1
  H  H73  1  0.30077600  0.24846000  0.03796500  1
  H  H74  1  0.50173500  0.09168300  0.57478700  1
  H  H75  1  0.83149200  0.10917500  0.39371700  1
  H  H76  1  0.71583500  0.03445200  0.62748000  1
  H  H77  1  0.99006500  0.09716000  0.31352700  1
  H  H78  1  0.69754000  0.03973400  0.52366400  1
  H  H79  1  0.37356500  0.12684200  0.10600600  1
  H  H80  1  0.39294000  0.13236800  0.00187600  1
  H  H81  1  0.99826500  0.09168300  0.07478700  1
  H  H82  1  0.78416500  0.03445200  0.12748000  1
  H  H83  1  0.80246000  0.03973400  0.02366400  1
  C  C84  1  0.16110600  0.91759800  0.92818400  1
  C  C85  1  0.59522000  0.82007900  0.95098700  1
  C  C86  1  0.33889400  0.91759800  0.42818400  1
  C  C87  1  0.12762300  0.85440400  0.66702700  1
  C  C88  1  0.90478000  0.82007900  0.45098700  1
  C  C89  1  0.55472700  0.75438600  0.67751800  1
  C  C90  1  0.37237700  0.85440400  0.16702700  1
  C  C91  1  0.91841800  0.57418000  0.87797800  1
  C  C92  1  0.94527300  0.75438600  0.17751800  1
  C  C93  1  0.34869400  0.47103000  0.90159000  1
  C  C94  1  0.84869400  0.52897000  0.59841000  1
  C  C95  1  0.58158200  0.57418000  0.37797800  1
  C  C96  1  0.41841800  0.42582000  0.62202200  1
  C  C97  1  0.15130600  0.47103000  0.40159000  1
  C  C98  1  0.65130600  0.52897000  0.09841000  1
  C  C99  1  0.05472700  0.24561400  0.82248200  1
  C  C100  1  0.08158200  0.42582000  0.12202200  1
  C  C101  1  0.62762300  0.14559600  0.83297300  1
  C  C102  1  0.44527300  0.24561400  0.32248200  1
  C  C103  1  0.09522000  0.17992100  0.54901300  1
  C  C104  1  0.87237700  0.14559600  0.33297300  1
  C  C105  1  0.66110600  0.08240200  0.57181600  1
  C  C106  1  0.40478000  0.17992100  0.04901300  1
  C  C107  1  0.83889400  0.08240200  0.07181600  1
  N  N108  1  0.29548900  0.72960800  0.83441300  1
  N  N109  1  0.20451100  0.72960800  0.33441300  1
  N  N110  1  0.79548900  0.27039200  0.66558700  1
  N  N111  1  0.70451100  0.27039200  0.16558700  1
