# generated using pymatgen
data_SrCrO3
_symmetry_space_group_name_H-M   'P 1'
_cell_length_a   5.53153800
_cell_length_b   5.55258124
_cell_length_c   13.68560731
_cell_angle_alpha   89.99368284
_cell_angle_beta   89.98776684
_cell_angle_gamma   60.19202419
_symmetry_Int_Tables_number   1
_chemical_formula_structural   SrCrO3
_chemical_formula_sum   'Sr6 Cr6 O18'
_cell_volume   364.73094671
_cell_formula_units_Z   6
loop_
 _symmetry_equiv_pos_site_id
 _symmetry_equiv_pos_as_xyz
  1  'x, y, z'
loop_
 _atom_site_type_symbol
 _atom_site_label
 _atom_site_symmetry_multiplicity
 _atom_site_fract_x
 _atom_site_fract_y
 _atom_site_fract_z
 _atom_site_occupancy
  Sr  Sr0  1  0.33268600  0.33384900  0.90738800  1
  Sr  Sr1  1  0.00311900  0.00021300  0.75006000  1
  Sr  Sr2  1  0.00433200  0.00048100  0.25004200  1
  Sr  Sr3  1  0.33264000  0.33368400  0.59338500  1
  Sr  Sr4  1  0.66638900  0.66622300  0.40688600  1
  Sr  Sr5  1  0.66651700  0.66656600  0.09336500  1
  Cr  Cr6  1  0.33911600  0.33718900  0.15546400  1
  Cr  Cr7  1  0.00563600  0.99930300  0.00000500  1
  Cr  Cr8  1  0.00507000  0.99914400  0.49987600  1
  Cr  Cr9  1  0.33869500  0.33717700  0.34474700  1
  Cr  Cr10  1  0.67647300  0.66305400  0.84455800  1
  Cr  Cr11  1  0.67619300  0.66291600  0.65533400  1
  O  O12  1  0.15894700  0.16027700  0.41928300  1
  O  O13  1  0.16004200  0.16064700  0.08032700  1
  O  O14  1  0.03013700  0.48271300  0.24983100  1
  O  O15  1  0.16385000  0.66131500  0.41795800  1
  O  O16  1  0.16504100  0.66148900  0.08190300  1
  O  O17  1  0.48531700  0.02863600  0.24990900  1
  O  O18  1  0.49414400  0.49081000  0.25004300  1
  O  O19  1  0.66721200  0.16120800  0.41896400  1
  O  O20  1  0.66809700  0.16120200  0.08107700  1
  O  O21  1  0.32115100  0.83909100  0.92039300  1
  O  O22  1  0.32018300  0.83880700  0.57964100  1
  O  O23  1  0.51206800  0.51754300  0.75006800  1
  O  O24  1  0.51302700  0.97189800  0.74998100  1
  O  O25  1  0.82732100  0.33835500  0.91789700  1
  O  O26  1  0.82601400  0.33870000  0.58204600  1
  O  O27  1  0.98383200  0.50990800  0.74981800  1
  O  O28  1  0.82782200  0.83863600  0.58101000  1
  O  O29  1  0.82915600  0.83853900  0.91873600  1
