# generated using pymatgen
data_V(TeO3)4
_symmetry_space_group_name_H-M   'P 1'
_cell_length_a   5.15272677
_cell_length_b   10.87583417
_cell_length_c   9.08058651
_cell_angle_alpha   108.97754133
_cell_angle_beta   90.56167924
_cell_angle_gamma   91.46900436
_symmetry_Int_Tables_number   1
_chemical_formula_structural   V(TeO3)4
_chemical_formula_sum   'V2 Te8 O24'
_cell_volume   480.97168074
_cell_formula_units_Z   2
loop_
 _symmetry_equiv_pos_site_id
 _symmetry_equiv_pos_as_xyz
  1  'x, y, z'
loop_
 _atom_site_type_symbol
 _atom_site_label
 _atom_site_symmetry_multiplicity
 _atom_site_fract_x
 _atom_site_fract_y
 _atom_site_fract_z
 _atom_site_occupancy
  V  V0  1  0.01590000  0.96648700  0.67167900  1
  V  V1  1  0.01615000  0.46658000  0.17192100  1
  Te  Te2  1  0.97516800  0.46118500  0.49425400  1
  Te  Te3  1  0.97514900  0.96119800  0.99413500  1
  Te  Te4  1  0.51620500  0.99235400  0.48910200  1
  Te  Te5  1  0.51615900  0.49237800  0.98917600  1
  Te  Te6  1  0.95795800  0.77646800  0.25497300  1
  Te  Te7  1  0.95794000  0.27645600  0.75509000  1
  Te  Te8  1  0.50801600  0.18912000  0.23358600  1
  Te  Te9  1  0.50804500  0.68914000  0.73358000  1
  O  O10  1  0.31814600  0.57658800  0.17556800  1
  O  O11  1  0.31806100  0.07655600  0.67547400  1
  O  O12  1  0.12445900  0.85755900  0.12264900  1
  O  O13  1  0.12444200  0.35759700  0.62286000  1
  O  O14  1  0.29381300  0.06647500  0.05455000  1
  O  O15  1  0.29382500  0.56648400  0.55460200  1
  O  O16  1  0.20308100  0.87879000  0.45230600  1
  O  O17  1  0.20289100  0.37877700  0.95240600  1
  O  O18  1  0.81920300  0.08854200  0.17815900  1
  O  O19  1  0.81922400  0.58852800  0.67819700  1
  O  O20  1  0.37865800  0.10817900  0.38439500  1
  O  O21  1  0.37867100  0.60819000  0.88441600  1
  O  O22  1  0.70690800  0.37508000  0.07770500  1
  O  O23  1  0.70677300  0.87502400  0.57761900  1
  O  O24  1  0.13200100  0.36218000  0.28636000  1
  O  O25  1  0.13179000  0.86212300  0.78614100  1
  O  O26  1  0.82785500  0.59816400  0.06393900  1
  O  O27  1  0.82804900  0.09800100  0.56363200  1
  O  O28  1  0.68960200  0.33962000  0.44269800  1
  O  O29  1  0.68963000  0.83959200  0.94268500  1
  O  O30  1  0.88036100  0.56682700  0.36148800  1
  O  O31  1  0.88029400  0.06682600  0.86138300  1
  O  O32  1  0.65279200  0.88542800  0.28624600  1
  O  O33  1  0.65277500  0.38540500  0.78633000  1
