# generated using pymatgen
data_VOF
_symmetry_space_group_name_H-M   'P 1'
_cell_length_a   4.65302000
_cell_length_b   10.55471637
_cell_length_c   5.66199515
_cell_angle_alpha   83.63060821
_cell_angle_beta   90.00235914
_cell_angle_gamma   89.99588036
_symmetry_Int_Tables_number   1
_chemical_formula_structural   VOF
_chemical_formula_sum   'V8 O8 F8'
_cell_volume   276.35155488
_cell_formula_units_Z   8
loop_
 _symmetry_equiv_pos_site_id
 _symmetry_equiv_pos_as_xyz
  1  'x, y, z'
loop_
 _atom_site_type_symbol
 _atom_site_label
 _atom_site_symmetry_multiplicity
 _atom_site_fract_x
 _atom_site_fract_y
 _atom_site_fract_z
 _atom_site_occupancy
  V  V0  1  0.52220000  0.98673700  0.50362300  1
  V  V1  1  0.02176000  0.76424100  0.74472900  1
  V  V2  1  0.97905900  0.23755300  0.25240800  1
  V  V3  1  0.02117400  0.01281800  0.99756900  1
  V  V4  1  0.47821500  0.26404500  0.74471700  1
  V  V5  1  0.97789200  0.48663000  0.50384200  1
  V  V6  1  0.52097000  0.73760700  0.25243300  1
  V  V7  1  0.47879800  0.51274400  0.99764700  1
  O  O8  1  0.80107100  0.31793700  0.52376500  1
  O  O9  1  0.69880700  0.81806300  0.52385900  1
  O  O10  1  0.30210700  0.43112500  0.72629300  1
  O  O11  1  0.19792700  0.93127600  0.72618500  1
  O  O12  1  0.79177500  0.07006000  0.26477200  1
  O  O13  1  0.70812900  0.57006700  0.26499900  1
  O  O14  1  0.29322900  0.67924900  0.98641400  1
  O  O15  1  0.20683800  0.17917200  0.98638300  1
  F  F16  1  0.80153800  0.58249500  0.77091000  1
  F  F17  1  0.69849800  0.08255600  0.77073600  1
  F  F18  1  0.29882300  0.16726500  0.47982700  1
  F  F19  1  0.20111000  0.66727600  0.47994100  1
  F  F20  1  0.80186900  0.83521500  0.02140400  1
  F  F21  1  0.69824200  0.33508100  0.02129800  1
  F  F22  1  0.30286500  0.91546200  0.22809300  1
  F  F23  1  0.19710400  0.41532700  0.22815400  1
