# generated using pymatgen
data_Zr4MnO9
_symmetry_space_group_name_H-M   'P 1'
_cell_length_a   6.40778444
_cell_length_b   9.46627633
_cell_length_c   12.83243184
_cell_angle_alpha   110.22143060
_cell_angle_beta   101.89986384
_cell_angle_gamma   71.82744527
_symmetry_Int_Tables_number   1
_chemical_formula_structural   Zr4MnO9
_chemical_formula_sum   'Zr16 Mn4 O36'
_cell_volume   689.73943538
_cell_formula_units_Z   4
loop_
 _symmetry_equiv_pos_site_id
 _symmetry_equiv_pos_as_xyz
  1  'x, y, z'
loop_
 _atom_site_type_symbol
 _atom_site_label
 _atom_site_symmetry_multiplicity
 _atom_site_fract_x
 _atom_site_fract_y
 _atom_site_fract_z
 _atom_site_occupancy
  Zr  Zr0  1  0.47979400  0.31938800  0.45329900  1
  Zr  Zr1  1  0.97995300  0.81940300  0.70329600  1
  Zr  Zr2  1  0.48003600  0.31948700  0.95334100  1
  Zr  Zr3  1  0.97975800  0.81940200  0.20334000  1
  Zr  Zr4  1  0.53968100  0.49194600  0.74224800  1
  Zr  Zr5  1  0.03953100  0.99199700  0.99223400  1
  Zr  Zr6  1  0.53935100  0.49193900  0.24225900  1
  Zr  Zr7  1  0.03937000  0.99189100  0.49224700  1
  Zr  Zr8  1  0.01443800  0.20872700  0.28705100  1
  Zr  Zr9  1  0.51450800  0.70875400  0.53715400  1
  Zr  Zr10  1  0.01474500  0.20883200  0.78716500  1
  Zr  Zr11  1  0.51449200  0.70877900  0.03709000  1
  Zr  Zr12  1  0.50275400  0.10597500  0.16824100  1
  Zr  Zr13  1  0.00270300  0.60591300  0.41820200  1
  Zr  Zr14  1  0.50282100  0.10599200  0.66819500  1
  Zr  Zr15  1  0.00285000  0.60604500  0.91826700  1
  Mn  Mn16  1  0.97858900  0.38364100  0.58667100  1
  Mn  Mn17  1  0.47799900  0.88388500  0.83654200  1
  Mn  Mn18  1  0.97780000  0.38413700  0.08645300  1
  Mn  Mn19  1  0.47806100  0.88403200  0.33665900  1
  O  O20  1  0.41356200  0.30833100  0.61047000  1
  O  O21  1  0.91368600  0.80832900  0.86042600  1
  O  O22  1  0.41373700  0.30829100  0.11042800  1
  O  O23  1  0.91354000  0.80829700  0.36044000  1
  O  O24  1  0.66709600  0.28215800  0.29841800  1
  O  O25  1  0.16711900  0.78211700  0.54836600  1
  O  O26  1  0.66746900  0.28213900  0.79841800  1
  O  O27  1  0.16717300  0.78214000  0.04836300  1
  O  O28  1  0.10405000  0.36549500  0.43819300  1
  O  O29  1  0.60407600  0.86559500  0.68821400  1
  O  O30  1  0.10417500  0.36563000  0.93824400  1
  O  O31  1  0.60403900  0.86554100  0.18820900  1
  O  O32  1  0.79750600  0.19496900  0.48961900  1
  O  O33  1  0.29821300  0.69533400  0.73968100  1
  O  O34  1  0.79823800  0.19537400  0.98970400  1
  O  O35  1  0.29747600  0.69500000  0.23960200  1
  O  O36  1  0.08789000  0.00853200  0.33462300  1
  O  O37  1  0.58792300  0.50852000  0.58461800  1
  O  O38  1  0.08802200  0.00862600  0.83464100  1
  O  O39  1  0.58796400  0.50865100  0.08466700  1
  O  O40  1  0.39986700  0.13255600  0.32171700  1
  O  O41  1  0.89991200  0.63255900  0.57172500  1
  O  O42  1  0.39964800  0.13297200  0.82167100  1
  O  O43  1  0.89987700  0.63258000  0.07171700  1
  O  O44  1  0.84255700  0.01554700  0.13586400  1
  O  O45  1  0.34251300  0.51552300  0.38587300  1
  O  O46  1  0.84256300  0.01549300  0.63586400  1
  O  O47  1  0.34261000  0.51555600  0.88584000  1
  O  O48  1  0.14627200  0.16115500  0.14202600  1
  O  O49  1  0.64615400  0.66122600  0.39204000  1
  O  O50  1  0.14610500  0.16119000  0.64193500  1
  O  O51  1  0.64633100  0.66117500  0.89202100  1
  O  O52  1  0.90081400  0.44578400  0.25408000  1
  O  O53  1  0.40078800  0.94579700  0.50413000  1
  O  O54  1  0.90095600  0.44583900  0.75410200  1
  O  O55  1  0.40085000  0.94581500  0.00409400  1
