# generated using pymatgen
data_Mn(SbO3)2
_symmetry_space_group_name_H-M   'P 1'
_cell_length_a   6.78661432
_cell_length_b   6.77811277
_cell_length_c   10.67967498
_cell_angle_alpha   108.50221559
_cell_angle_beta   71.47659425
_cell_angle_gamma   89.99581258
_symmetry_Int_Tables_number   1
_chemical_formula_structural   Mn(SbO3)2
_chemical_formula_sum   'Mn4 Sb8 O24'
_cell_volume   438.95204011
_cell_formula_units_Z   4
loop_
 _symmetry_equiv_pos_site_id
 _symmetry_equiv_pos_as_xyz
  1  'x, y, z'
loop_
 _atom_site_type_symbol
 _atom_site_label
 _atom_site_symmetry_multiplicity
 _atom_site_fract_x
 _atom_site_fract_y
 _atom_site_fract_z
 _atom_site_occupancy
  Mn  Mn0  1  0.33340700  0.66660400  0.33343400  1
  Mn  Mn1  1  0.08318000  0.41696900  0.83331000  1
  Mn  Mn2  1  0.83347000  0.16655000  0.33332900  1
  Mn  Mn3  1  0.58311600  0.91700400  0.83339700  1
  Sb  Sb4  1  0.99945700  0.00050900  0.00097000  1
  Sb  Sb5  1  0.49948200  0.50048900  0.00092400  1
  Sb  Sb6  1  0.66708200  0.33291600  0.66573600  1
  Sb  Sb7  1  0.16707400  0.83292500  0.66575200  1
  Sb  Sb8  1  0.41719200  0.08277500  0.16570500  1
  Sb  Sb9  1  0.91720800  0.58275900  0.16567200  1
  Sb  Sb10  1  0.24950900  0.25046200  0.50100800  1
  Sb  Sb11  1  0.74953700  0.75043900  0.50096100  1
  O  O12  1  0.39796300  0.41661600  0.83332400  1
  O  O13  1  0.89804600  0.91661100  0.83331500  1
  O  O14  1  0.33337700  0.35181300  0.33330700  1
  O  O15  1  0.83337500  0.85190400  0.33331300  1
  O  O16  1  0.33336800  0.98134900  0.33331100  1
  O  O17  1  0.83336500  0.48126600  0.33331700  1
  O  O18  1  0.76852400  0.41662100  0.83332600  1
  O  O19  1  0.26844800  0.91661600  0.83331700  1
  O  O20  1  0.72054000  0.07867400  0.15739200  1
  O  O21  1  0.22066500  0.57872800  0.15749400  1
  O  O22  1  0.54463200  0.25462300  0.50929100  1
  O  O23  1  0.04473900  0.75454900  0.50913900  1
  O  O24  1  0.49533700  0.20556300  0.00937200  1
  O  O25  1  0.99526500  0.70564800  0.00951600  1
  O  O26  1  0.17143100  0.52954100  0.65718000  1
  O  O27  1  0.67139300  0.02940800  0.65725400  1
  O  O28  1  0.49537700  0.80383800  0.00927800  1
  O  O29  1  0.99530400  0.30389400  0.00942300  1
  O  O30  1  0.17138800  0.12777900  0.65727400  1
  O  O31  1  0.67135300  0.62798000  0.65734400  1
  O  O32  1  0.12217300  0.07864900  0.15733100  1
  O  O33  1  0.62194500  0.57870000  0.15743500  1
  O  O34  1  0.94611700  0.25465200  0.50934900  1
  O  O35  1  0.44616300  0.75457700  0.50919700  1
