# generated using pymatgen
data_KFeH2S2O9
_symmetry_space_group_name_H-M   'P 1'
_cell_length_a   8.14637305
_cell_length_b   10.34980907
_cell_length_c   9.36371721
_cell_angle_alpha   89.99255933
_cell_angle_beta   102.96141592
_cell_angle_gamma   90.01257168
_symmetry_Int_Tables_number   1
_chemical_formula_structural   KFeH2S2O9
_chemical_formula_sum   'K4 Fe4 H8 S8 O36'
_cell_volume   769.37179176
_cell_formula_units_Z   4
loop_
 _symmetry_equiv_pos_site_id
 _symmetry_equiv_pos_as_xyz
  1  'x, y, z'
loop_
 _atom_site_type_symbol
 _atom_site_label
 _atom_site_symmetry_multiplicity
 _atom_site_fract_x
 _atom_site_fract_y
 _atom_site_fract_z
 _atom_site_occupancy
  K  K0  1  0.42673500  0.37500400  0.78347800  1
  K  K1  1  0.42673300  0.87500800  0.78347200  1
  K  K2  1  0.57326600  0.12499600  0.21652300  1
  K  K3  1  0.57326900  0.62499700  0.21652500  1
  Fe  Fe4  1  0.08716400  0.62498700  0.22349700  1
  Fe  Fe5  1  0.91284300  0.87500900  0.77652600  1
  Fe  Fe6  1  0.08716300  0.12499400  0.22347600  1
  Fe  Fe7  1  0.91284100  0.37500800  0.77652300  1
  H  H8  1  0.16570500  0.04701900  0.49268500  1
  H  H9  1  0.16570700  0.54701100  0.49269200  1
  H  H10  1  0.16572300  0.20299100  0.49268000  1
  H  H11  1  0.16572200  0.70299100  0.49268800  1
  H  H12  1  0.83427300  0.29700800  0.50731900  1
  H  H13  1  0.83427700  0.79701300  0.50731200  1
  H  H14  1  0.83429100  0.45298200  0.50731300  1
  H  H15  1  0.83429400  0.95298300  0.50730600  1
  S  S16  1  0.15698100  0.12500100  0.88575000  1
  S  S17  1  0.15697900  0.62499400  0.88574900  1
  S  S18  1  0.84301800  0.37500000  0.11424700  1
  S  S19  1  0.84302000  0.87500500  0.11425300  1
  S  S20  1  0.33173900  0.37499700  0.34476100  1
  S  S21  1  0.33173700  0.87500600  0.34476100  1
  S  S22  1  0.66826200  0.12500200  0.65523900  1
  S  S23  1  0.66826300  0.62499400  0.65523800  1
  O  O24  1  0.10459200  0.12499900  0.44833600  1
  O  O25  1  0.10459200  0.62499600  0.44835100  1
  O  O26  1  0.89540600  0.37500100  0.55166000  1
  O  O27  1  0.89540700  0.87500300  0.55165900  1
  O  O28  1  0.06696800  0.12496300  0.00755300  1
  O  O29  1  0.06697500  0.62495900  0.00756200  1
  O  O30  1  0.93302800  0.37503600  0.99244400  1
  O  O31  1  0.93303000  0.87504200  0.99244200  1
  O  O32  1  0.33984800  0.12494500  0.93508200  1
  O  O33  1  0.33984700  0.62493900  0.93507700  1
  O  O34  1  0.66015000  0.37506000  0.06491700  1
  O  O35  1  0.66015200  0.87505700  0.06492200  1
  O  O36  1  0.25710800  0.37497100  0.47516800  1
  O  O37  1  0.25710400  0.87497900  0.47516800  1
  O  O38  1  0.74288900  0.12503300  0.52482900  1
  O  O39  1  0.74289200  0.62501800  0.52482900  1
  O  O40  1  0.48489100  0.12499600  0.62372800  1
  O  O41  1  0.48489200  0.62499200  0.62372700  1
  O  O42  1  0.51511000  0.37500000  0.37627100  1
  O  O43  1  0.51510800  0.87501300  0.37627400  1
  O  O44  1  0.10177300  0.00765200  0.79204800  1
  O  O45  1  0.10176300  0.50765200  0.79204300  1
  O  O46  1  0.10193200  0.24236600  0.79206300  1
  O  O47  1  0.10192800  0.74236300  0.79206500  1
  O  O48  1  0.89806900  0.25763500  0.20793400  1
  O  O49  1  0.89807100  0.75763500  0.20793300  1
  O  O50  1  0.89822600  0.49234800  0.20795100  1
  O  O51  1  0.89823700  0.99234900  0.20795400  1
  O  O52  1  0.26919300  0.25799300  0.25032900  1
  O  O53  1  0.26918900  0.75799500  0.25033500  1
  O  O54  1  0.26922300  0.49201400  0.25035100  1
  O  O55  1  0.26922600  0.99201800  0.25034500  1
  O  O56  1  0.73077800  0.00798500  0.74964900  1
  O  O57  1  0.73077700  0.50798300  0.74965400  1
  O  O58  1  0.73080800  0.24200700  0.74967100  1
  O  O59  1  0.73081000  0.74200500  0.74966500  1
