# generated using pymatgen
data_Na3(NiO2)2
_symmetry_space_group_name_H-M   'P 1'
_cell_length_a   4.88586396
_cell_length_b   4.88586396
_cell_length_c   10.48284900
_cell_angle_alpha   90.00000000
_cell_angle_beta   90.00000000
_cell_angle_gamma   109.35032666
_symmetry_Int_Tables_number   1
_chemical_formula_structural   Na3(NiO2)2
_chemical_formula_sum   'Na6 Ni4 O8'
_cell_volume   236.10691414
_cell_formula_units_Z   2
loop_
 _symmetry_equiv_pos_site_id
 _symmetry_equiv_pos_as_xyz
  1  'x, y, z'
loop_
 _atom_site_type_symbol
 _atom_site_label
 _atom_site_symmetry_multiplicity
 _atom_site_fract_x
 _atom_site_fract_y
 _atom_site_fract_z
 _atom_site_occupancy
  Na  Na0  1  0.64873300  0.35126700  0.06474800  1
  Na  Na1  1  0.64873300  0.35126700  0.43525200  1
  Na  Na2  1  0.35126700  0.64873300  0.56474800  1
  Na  Na3  1  0.31415700  0.68584300  0.25000000  1
  Na  Na4  1  0.68584300  0.31415700  0.75000000  1
  Na  Na5  1  0.35126700  0.64873300  0.93525200  1
  Ni  Ni6  1  0.00000000  0.00000000  0.00000000  1
  Ni  Ni7  1  0.92814100  0.07185900  0.25000000  1
  Ni  Ni8  1  0.00000000  0.00000000  0.50000000  1
  Ni  Ni9  1  0.07185900  0.92814100  0.75000000  1
  O  O10  1  0.13988700  0.29629600  0.11937400  1
  O  O11  1  0.13988700  0.29629600  0.38062600  1
  O  O12  1  0.29629600  0.13988700  0.88062600  1
  O  O13  1  0.29629600  0.13988700  0.61937400  1
  O  O14  1  0.70370400  0.86011300  0.38062600  1
  O  O15  1  0.70370400  0.86011300  0.11937400  1
  O  O16  1  0.86011300  0.70370400  0.61937400  1
  O  O17  1  0.86011300  0.70370400  0.88062600  1
