data_image0
_chemical_formula_structural       As4Ba2Pd2
_chemical_formula_sum              "As4 Ba2 Pd2"
_cell_length_a       4.62645
_cell_length_b       4.72937
_cell_length_c       9.06352
_cell_angle_alpha    74.8764
_cell_angle_beta     90
_cell_angle_gamma    90

_space_group_name_H-M_alt    "P 1"
_space_group_IT_number       1

loop_
  _space_group_symop_operation_xyz
  'x, y, z'

loop_
  _atom_site_type_symbol
  _atom_site_label
  _atom_site_symmetry_multiplicity
  _atom_site_fract_x
  _atom_site_fract_y
  _atom_site_fract_z
  _atom_site_occupancy
  As  As1       1.0  0.25000  0.96200  0.07600  1.0000
  As  As2       1.0  0.25000  0.25000  0.49900  1.0000
  As  As3       1.0  0.75000  0.75000  0.50100  1.0000
  As  As4       1.0  0.75000  0.03800  0.92400  1.0000
  Ba  Ba1       1.0  0.75000  0.39400  0.21200  1.0000
  Ba  Ba2       1.0  0.25000  0.60600  0.78800  1.0000
  Pd  Pd1       1.0  0.25000  0.81400  0.37300  1.0000
  Pd  Pd2       1.0  0.75000  0.18600  0.62700  1.0000
