# generated using pymatgen
data_Ni3OF5
_symmetry_space_group_name_H-M   'P 1'
_cell_length_a   4.69481400
_cell_length_b   5.62311200
_cell_length_c   7.75943501
_cell_angle_alpha   86.15385816
_cell_angle_beta   90.00000000
_cell_angle_gamma   90.00000000
_symmetry_Int_Tables_number   1
_chemical_formula_structural   Ni3OF5
_chemical_formula_sum   'Ni6 O2 F10'
_cell_volume   204.38357520
_cell_formula_units_Z   2
loop_
 _symmetry_equiv_pos_site_id
 _symmetry_equiv_pos_as_xyz
  1  'x, y, z'
loop_
 _atom_site_type_symbol
 _atom_site_label
 _atom_site_symmetry_multiplicity
 _atom_site_fract_x
 _atom_site_fract_y
 _atom_site_fract_z
 _atom_site_occupancy
  Ni  Ni0  1  0.50949700  0.74812900  0.99237400  1
  Ni  Ni1  1  0.48677800  0.41225100  0.33208300  1
  Ni  Ni2  1  0.50861300  0.07676300  0.66970600  1
  Ni  Ni3  1  0.00861300  0.92323700  0.33029400  1
  Ni  Ni4  1  0.98677800  0.58774900  0.66791700  1
  Ni  Ni5  1  0.00949700  0.25187100  0.00762600  1
  O  O6  1  0.19502400  0.21361100  0.23379000  1
  O  O7  1  0.69502400  0.78638900  0.76621000  1
  F  F8  1  0.19685400  0.87983000  0.56517300  1
  F  F9  1  0.19531100  0.54968000  0.89777800  1
  F  F10  1  0.30589200  0.71512900  0.22634300  1
  F  F11  1  0.29991500  0.04549600  0.89840300  1
  F  F12  1  0.30211500  0.38160500  0.57088700  1
  F  F13  1  0.69685400  0.12017000  0.43482700  1
  F  F14  1  0.69531100  0.45032000  0.10222200  1
  F  F15  1  0.80589200  0.28487100  0.77365700  1
  F  F16  1  0.80211500  0.61839500  0.42911300  1
  F  F17  1  0.79991500  0.95450400  0.10159700  1
