# generated using pymatgen
data_LaAs2Au
_symmetry_space_group_name_H-M   'P 1'
_cell_length_a   10.85551699
_cell_length_b   10.85551699
_cell_length_c   10.85551699
_cell_angle_alpha   157.88158288
_cell_angle_beta   157.88158288
_cell_angle_gamma   31.48078990
_symmetry_Int_Tables_number   1
_chemical_formula_structural   LaAs2Au
_chemical_formula_sum   'La2 As4 Au2'
_cell_volume   181.22381538
_cell_formula_units_Z   2
loop_
 _symmetry_equiv_pos_site_id
 _symmetry_equiv_pos_as_xyz
  1  'x, y, z'
loop_
 _atom_site_type_symbol
 _atom_site_label
 _atom_site_symmetry_multiplicity
 _atom_site_fract_x
 _atom_site_fract_y
 _atom_site_fract_z
 _atom_site_occupancy
  La  La0  1  0.11682400  0.11682400  0.00000000  1
  La  La1  1  0.88317600  0.88317600  0.00000000  1
  As  As2  1  0.33777000  0.33777000  0.00000000  1
  As  As3  1  0.66223000  0.66223000  0.00000000  1
  As  As4  1  0.50000000  0.00000000  0.50000000  1
  As  As5  1  0.00000000  0.50000000  0.50000000  1
  Au  Au6  1  0.75000000  0.25000000  0.50000000  1
  Au  Au7  1  0.25000000  0.75000000  0.50000000  1
