# generated using pymatgen
data_Na6W10O33
_symmetry_space_group_name_H-M   'P 1'
_cell_length_a   7.73855300
_cell_length_b   8.24552044
_cell_length_c   12.32350962
_cell_angle_alpha   71.12206430
_cell_angle_beta   72.80241400
_cell_angle_gamma   79.14608025
_symmetry_Int_Tables_number   1
_chemical_formula_structural   Na6W10O33
_chemical_formula_sum   'Na6 W10 O33'
_cell_volume   707.03736347
_cell_formula_units_Z   1
loop_
 _symmetry_equiv_pos_site_id
 _symmetry_equiv_pos_as_xyz
  1  'x, y, z'
loop_
 _atom_site_type_symbol
 _atom_site_label
 _atom_site_symmetry_multiplicity
 _atom_site_fract_x
 _atom_site_fract_y
 _atom_site_fract_z
 _atom_site_occupancy
  Na  Na0  1  0.14350300  0.84432400  0.77154000  1
  Na  Na1  1  0.89619400  0.65687800  0.21481000  1
  Na  Na2  1  0.63316200  0.38706800  0.75979700  1
  Na  Na3  1  0.36683800  0.61293200  0.24020300  1
  Na  Na4  1  0.10380600  0.34312200  0.78519000  1
  Na  Na5  1  0.85649700  0.15567600  0.22846000  1
  W  W6  1  0.67736400  0.93243900  0.68091300  1
  W  W7  1  0.71136100  0.60995900  0.98036200  1
  W  W8  1  0.55395400  0.77343200  0.50026900  1
  W  W9  1  0.28092400  0.98293000  0.02767700  1
  W  W10  1  0.05124000  0.77039500  0.50740100  1
  W  W11  1  0.94876000  0.22960500  0.49259900  1
  W  W12  1  0.71907600  0.01707000  0.97232300  1
  W  W13  1  0.44604600  0.22656800  0.49973100  1
  W  W14  1  0.28863900  0.39004100  0.01963800  1
  W  W15  1  0.32263600  0.06756100  0.31908700  1
  O  O16  1  0.93923400  0.96585300  0.61976700  1
  O  O17  1  0.85414000  0.81460800  0.92517200  1
  O  O18  1  0.46450200  0.94097400  0.62182900  1
  O  O19  1  0.67170700  0.72450300  0.79050500  1
  O  O20  1  0.78152200  0.81278100  0.53032300  1
  O  O21  1  0.77893100  0.99173100  0.10529200  1
  O  O22  1  0.30149200  0.83739800  0.47838900  1
  O  O23  1  0.38826000  0.92545800  0.22943000  1
  O  O24  1  0.88797000  0.47081100  0.92085500  1
  O  O25  1  0.50000000  0.50000000  0.00000000  1
  O  O26  1  0.66741100  0.71316700  0.37087900  1
  O  O27  1  0.51328500  0.57928300  0.61275800  1
  O  O28  1  0.06259400  0.61476300  0.64294600  1
  O  O29  1  0.51872500  0.84359700  0.00695800  1
  O  O30  1  0.29052500  0.45708000  0.86663900  1
  O  O31  1  0.15124100  0.82115000  0.13676800  1
  O  O32  1  0.10157400  0.65637600  0.40158700  1
  O  O33  1  0.89842600  0.34362400  0.59841300  1
  O  O34  1  0.84875900  0.17885000  0.86323200  1
  O  O35  1  0.70947500  0.54292000  0.13336100  1
  O  O36  1  0.48127500  0.15640300  0.99304200  1
  O  O37  1  0.93740600  0.38523700  0.35705400  1
  O  O38  1  0.48671500  0.42071700  0.38724200  1
  O  O39  1  0.33258900  0.28683300  0.62912100  1
  O  O40  1  0.11203000  0.52918900  0.07914500  1
  O  O41  1  0.61174000  0.07454200  0.77057000  1
  O  O42  1  0.69850800  0.16260200  0.52161100  1
  O  O43  1  0.22106900  0.00826900  0.89470800  1
  O  O44  1  0.21847800  0.18721900  0.46967700  1
  O  O45  1  0.32829300  0.27549700  0.20949500  1
  O  O46  1  0.53549800  0.05902600  0.37817100  1
  O  O47  1  0.14586000  0.18539200  0.07482800  1
  O  O48  1  0.06076600  0.03414700  0.38023300  1
