# generated using pymatgen
data_FeOF
_symmetry_space_group_name_H-M   'P 1'
_cell_length_a   9.46097354
_cell_length_b   14.24752991
_cell_length_c   3.08523300
_cell_angle_alpha   90.00000000
_cell_angle_beta   90.00000000
_cell_angle_gamma   90.29495693
_symmetry_Int_Tables_number   1
_chemical_formula_structural   FeOF
_chemical_formula_sum   'Fe12 O12 F12'
_cell_volume   415.87002464
_cell_formula_units_Z   12
loop_
 _symmetry_equiv_pos_site_id
 _symmetry_equiv_pos_as_xyz
  1  'x, y, z'
loop_
 _atom_site_type_symbol
 _atom_site_label
 _atom_site_symmetry_multiplicity
 _atom_site_fract_x
 _atom_site_fract_y
 _atom_site_fract_z
 _atom_site_occupancy
  Fe  Fe0  1  0.00041700  0.00076100  0.00000000  1
  Fe  Fe1  1  0.01939100  0.33172400  0.00000000  1
  Fe  Fe2  1  0.00317700  0.66701200  0.00000000  1
  Fe  Fe3  1  0.25659100  0.18226200  0.50000000  1
  Fe  Fe4  1  0.25175500  0.48348000  0.50000000  1
  Fe  Fe5  1  0.22175000  0.83302300  0.50000000  1
  Fe  Fe6  1  0.48836900  0.33721600  0.00000000  1
  Fe  Fe7  1  0.51534500  0.00125500  0.00000000  1
  Fe  Fe8  1  0.51446000  0.66180300  0.00000000  1
  Fe  Fe9  1  0.75266000  0.15185000  0.50000000  1
  Fe  Fe10  1  0.75799900  0.51567800  0.50000000  1
  Fe  Fe11  1  0.71941000  0.83212400  0.50000000  1
  O  O12  1  0.09596700  0.26710700  0.50000000  1
  O  O13  1  0.09490500  0.93594500  0.50000000  1
  O  O14  1  0.14643900  0.76216800  0.00000000  1
  O  O15  1  0.15170100  0.43500100  0.00000000  1
  O  O16  1  0.35644600  0.23217600  0.00000000  1
  O  O17  1  0.40944500  0.40308400  0.50000000  1
  O  O18  1  0.59176100  0.93651200  0.50000000  1
  O  O19  1  0.59232600  0.59606600  0.50000000  1
  O  O20  1  0.64553000  0.10669400  0.00000000  1
  O  O21  1  0.64874900  0.76527800  0.00000000  1
  O  O22  1  0.85736400  0.56964000  0.00000000  1
  O  O23  1  0.90554100  0.06454700  0.50000000  1
  F  F24  1  0.10313800  0.59993100  0.50000000  1
  F  F25  1  0.16173200  0.10367100  0.00000000  1
  F  F26  1  0.34287300  0.56760700  0.00000000  1
  F  F27  1  0.34458900  0.89487500  0.00000000  1
  F  F28  1  0.39330400  0.06187700  0.50000000  1
  F  F29  1  0.39751500  0.72828600  0.50000000  1
  F  F30  1  0.60470100  0.27681200  0.50000000  1
  F  F31  1  0.66394000  0.43518000  0.00000000  1
  F  F32  1  0.84462300  0.23598700  0.00000000  1
  F  F33  1  0.84241800  0.89199800  0.00000000  1
  F  F34  1  0.90086700  0.39949800  0.50000000  1
  F  F35  1  0.90280200  0.73187000  0.50000000  1
