# generated using pymatgen
data_Co3(PO4)2
_symmetry_space_group_name_H-M   'P 1'
_cell_length_a   9.92592200
_cell_length_b   8.80000600
_cell_length_c   20.70569712
_cell_angle_alpha   80.89597300
_cell_angle_beta   90.00000000
_cell_angle_gamma   90.00000000
_symmetry_Int_Tables_number   1
_chemical_formula_structural   Co3(PO4)2
_chemical_formula_sum   'Co36 P24 O96'
_cell_volume   1785.82125877
_cell_formula_units_Z   12
loop_
 _symmetry_equiv_pos_site_id
 _symmetry_equiv_pos_as_xyz
  1  'x, y, z'
loop_
 _atom_site_type_symbol
 _atom_site_label
 _atom_site_symmetry_multiplicity
 _atom_site_fract_x
 _atom_site_fract_y
 _atom_site_fract_z
 _atom_site_occupancy
  Co  Co0  1  0.90600400  0.93034600  0.94056000  1
  Co  Co1  1  0.39332100  0.90903800  0.89196100  1
  Co  Co2  1  0.21848800  0.96257600  0.54494900  1
  Co  Co3  1  0.61468700  0.88858600  0.58276800  1
  Co  Co4  1  0.58062900  0.78768400  0.78373800  1
  Co  Co5  1  0.11293900  0.96076900  0.24442000  1
  Co  Co6  1  0.70507500  0.89615000  0.29652600  1
  Co  Co7  1  0.08062900  0.71231600  0.71626200  1
  Co  Co8  1  0.11468700  0.61141400  0.91723200  1
  Co  Co9  1  0.71848800  0.53742400  0.95505100  1
  Co  Co10  1  0.27772200  0.76394100  0.35979300  1
  Co  Co11  1  0.88178900  0.71883000  0.42343600  1
  Co  Co12  1  0.89332100  0.59096200  0.60803900  1
  Co  Co13  1  0.38178900  0.78117000  0.07656400  1
  Co  Co14  1  0.77772200  0.73605900  0.14020700  1
  Co  Co15  1  0.40600400  0.56965400  0.55944000  1
  Co  Co16  1  0.38706100  0.46076900  0.74442000  1
  Co  Co17  1  0.79492500  0.39615000  0.79652600  1
  Co  Co18  1  0.20507500  0.60385000  0.20347400  1
  Co  Co19  1  0.61293900  0.53923100  0.25558000  1
  Co  Co20  1  0.59399600  0.43034600  0.44056000  1
  Co  Co21  1  0.22227800  0.26394100  0.85979300  1
  Co  Co22  1  0.61821100  0.21883000  0.92343600  1
  Co  Co23  1  0.10667900  0.40903800  0.39196100  1
  Co  Co24  1  0.11821100  0.28117000  0.57656400  1
  Co  Co25  1  0.72227800  0.23605900  0.64020700  1
  Co  Co26  1  0.28151200  0.46257600  0.04494900  1
  Co  Co27  1  0.88531300  0.38858600  0.08276800  1
  Co  Co28  1  0.91937100  0.28768400  0.28373800  1
  Co  Co29  1  0.29492500  0.10385000  0.70347400  1
  Co  Co30  1  0.88706100  0.03923100  0.75558000  1
  Co  Co31  1  0.41937100  0.21231600  0.21626200  1
  Co  Co32  1  0.38531300  0.11141400  0.41723200  1
  Co  Co33  1  0.78151200  0.03742400  0.45505100  1
  Co  Co34  1  0.60667900  0.09096200  0.10803900  1
  Co  Co35  1  0.09399600  0.06965400  0.05944000  1
  P  P36  1  0.12995000  0.95022900  0.82837200  1
  P  P37  1  0.64497100  0.86978900  0.99800100  1
  P  P38  1  0.92514000  0.96755700  0.60538400  1
  P  P39  1  0.35754300  0.80726900  0.67010700  1
  P  P40  1  0.85754300  0.69273100  0.82989300  1
  P  P41  1  0.55423400  0.80126800  0.43905500  1
  P  P42  1  0.43221000  0.84971400  0.21875200  1
  P  P43  1  0.42514000  0.53244300  0.89461600  1
  P  P44  1  0.14497100  0.63021100  0.50199900  1
  P  P45  1  0.62995000  0.54977100  0.67162800  1
  P  P46  1  0.93221000  0.65028600  0.28124800  1
  P  P47  1  0.05423400  0.69873200  0.06094500  1
  P  P48  1  0.94576600  0.30126800  0.93905500  1
  P  P49  1  0.06779000  0.34971400  0.71875200  1
  P  P50  1  0.37005000  0.45022900  0.32837200  1
  P  P51  1  0.85502900  0.36978900  0.49800100  1
  P  P52  1  0.57486000  0.46755700  0.10538400  1
  P  P53  1  0.56779000  0.15028600  0.78124800  1
  P  P54  1  0.44576600  0.19873200  0.56094500  1
  P  P55  1  0.14245700  0.30726900  0.17010700  1
  P  P56  1  0.64245700  0.19273100  0.32989300  1
  P  P57  1  0.07486000  0.03244300  0.39461600  1
  P  P58  1  0.35502900  0.13021100  0.00199900  1
  P  P59  1  0.87005000  0.04977100  0.17162800  1
  O  O60  1  0.53535900  0.99453400  0.82519600  1
  O  O61  1  0.49544300  0.84307100  0.98166300  1
  O  O62  1  0.07284000  0.89996200  0.76514700  1
  O  O63  1  0.24198300  0.92179100  0.64651600  1
  O  O64  1  0.44336100  0.88985700  0.71631900  1
  O  O65  1  0.20251700  0.81869700  0.87550700  1
  O  O66  1  0.81245000  0.95064900  0.55603900  1
  O  O67  1  0.78719800  0.84225900  0.79439700  1
  O  O68  1  0.74141600  0.74271000  0.98371600  1
  O  O69  1  0.95548100  0.93913800  0.43079300  1
  O  O70  1  0.60966700  0.91387800  0.48415700  1
  O  O71  1  0.13255500  0.93956500  0.34264900  1
  O  O72  1  0.93853700  0.72670100  0.89017400  1
  O  O73  1  0.96906100  0.80368800  0.63793500  1
  O  O74  1  0.42671600  0.87897500  0.40289900  1
  O  O75  1  0.98676500  0.97220900  0.13945400  1
  O  O76  1  0.46906100  0.69631200  0.86206500  1
  O  O77  1  0.43853700  0.77329900  0.60982600  1
  O  O78  1  0.29271600  0.98296600  0.04453400  1
  O  O79  1  0.75681700  0.92908300  0.19241300  1
  O  O80  1  0.31783300  0.87840500  0.26583500  1
  O  O81  1  0.24141600  0.75729000  0.51628400  1
  O  O82  1  0.66925000  0.78161900  0.39114400  1
  O  O83  1  0.28719800  0.65774100  0.70560300  1
  O  O84  1  0.31245000  0.54935100  0.94396100  1
  O  O85  1  0.70251700  0.68130300  0.62449300  1
  O  O86  1  0.94336100  0.61014300  0.78368100  1
  O  O87  1  0.65355900  0.88282100  0.07302800  1
  O  O88  1  0.74198300  0.57820900  0.85348400  1
  O  O89  1  0.88058500  0.76620200  0.32549500  1
  O  O90  1  0.57284000  0.60003800  0.73485300  1
  O  O91  1  0.55524100  0.77188600  0.25753600  1
  O  O92  1  0.02138400  0.85677700  0.02017400  1
  O  O93  1  0.99544300  0.65692900  0.51833700  1
  O  O94  1  0.52138400  0.64322300  0.47982600  1
  O  O95  1  0.05524100  0.72811400  0.24246400  1
  O  O96  1  0.38058500  0.73379800  0.17450500  1
  O  O97  1  0.54451900  0.43913800  0.93079300  1
  O  O98  1  0.89033300  0.41387800  0.98415700  1
  O  O99  1  0.15355900  0.61717900  0.42697200  1
  O  O100  1  0.36744500  0.43956500  0.84264900  1
  O  O101  1  0.16925000  0.71838100  0.10885600  1
  O  O102  1  0.03535900  0.50546600  0.67480400  1
  O  O103  1  0.07328400  0.37897500  0.90289900  1
  O  O104  1  0.51323500  0.47220900  0.63945400  1
  O  O105  1  0.81783300  0.62159500  0.23416500  1
  O  O106  1  0.20728400  0.48296600  0.54453400  1
  O  O107  1  0.74318300  0.42908300  0.69241300  1
  O  O108  1  0.25681700  0.57091700  0.30758700  1
  O  O109  1  0.79271600  0.51703400  0.45546600  1
  O  O110  1  0.18216700  0.37840500  0.76583500  1
  O  O111  1  0.48676500  0.52779100  0.36054600  1
  O  O112  1  0.92671600  0.62102500  0.09710100  1
  O  O113  1  0.96464100  0.49453400  0.32519600  1
  O  O114  1  0.83075000  0.28161900  0.89114400  1
  O  O115  1  0.63255500  0.56043500  0.15735100  1
  O  O116  1  0.84644100  0.38282100  0.57302800  1
  O  O117  1  0.10966700  0.58612200  0.01584300  1
  O  O118  1  0.45548100  0.56086200  0.06920700  1
  O  O119  1  0.61941500  0.26620200  0.82549500  1
  O  O120  1  0.94475900  0.27188600  0.75753600  1
  O  O121  1  0.47861600  0.35677700  0.52017400  1
  O  O122  1  0.00455700  0.34307100  0.48166300  1
  O  O123  1  0.97861600  0.14322300  0.97982600  1
  O  O124  1  0.44475900  0.22811400  0.74246400  1
  O  O125  1  0.42716000  0.39996200  0.26514700  1
  O  O126  1  0.11941500  0.23379800  0.67450500  1
  O  O127  1  0.25801700  0.42179100  0.14651600  1
  O  O128  1  0.34644100  0.11717900  0.92697200  1
  O  O129  1  0.05663900  0.38985700  0.21631900  1
  O  O130  1  0.29748300  0.31869700  0.37550700  1
  O  O131  1  0.68755000  0.45064900  0.05603900  1
  O  O132  1  0.71280200  0.34225900  0.29439700  1
  O  O133  1  0.33075000  0.21838100  0.60885600  1
  O  O134  1  0.75858400  0.24271000  0.48371600  1
  O  O135  1  0.68216700  0.12159500  0.73416500  1
  O  O136  1  0.24318300  0.07091700  0.80758700  1
  O  O137  1  0.70728400  0.01703400  0.95546600  1
  O  O138  1  0.56146300  0.22670100  0.39017400  1
  O  O139  1  0.53093900  0.30368800  0.13793500  1
  O  O140  1  0.01323500  0.02779100  0.86054600  1
  O  O141  1  0.57328400  0.12102500  0.59710100  1
  O  O142  1  0.03093900  0.19631200  0.36206500  1
  O  O143  1  0.06146300  0.27329900  0.10982600  1
  O  O144  1  0.86744500  0.06043500  0.65735100  1
  O  O145  1  0.39033300  0.08612200  0.51584300  1
  O  O146  1  0.04451900  0.06086200  0.56920700  1
  O  O147  1  0.25858400  0.25729000  0.01628400  1
  O  O148  1  0.21280200  0.15774100  0.20560300  1
  O  O149  1  0.18755000  0.04935100  0.44396100  1
  O  O150  1  0.79748300  0.18130300  0.12449300  1
  O  O151  1  0.55663900  0.11014300  0.28368100  1
  O  O152  1  0.75801700  0.07820900  0.35348400  1
  O  O153  1  0.92716000  0.10003800  0.23485300  1
  O  O154  1  0.50455700  0.15692900  0.01833700  1
  O  O155  1  0.46464100  0.00546600  0.17480400  1
