# generated using pymatgen
data_Mn3VSb2(PO4)6
_symmetry_space_group_name_H-M   'P 1'
_cell_length_a   8.90960229
_cell_length_b   8.75118259
_cell_length_c   8.75118263
_cell_angle_alpha   59.99999896
_cell_angle_beta   60.58646386
_cell_angle_gamma   60.58646519
_symmetry_Int_Tables_number   1
_chemical_formula_structural   Mn3VSb2(PO4)6
_chemical_formula_sum   'Mn3 V1 Sb2 P6 O24'
_cell_volume   486.70995204
_cell_formula_units_Z   1
loop_
 _symmetry_equiv_pos_site_id
 _symmetry_equiv_pos_as_xyz
  1  'x, y, z'
loop_
 _atom_site_type_symbol
 _atom_site_label
 _atom_site_symmetry_multiplicity
 _atom_site_fract_x
 _atom_site_fract_y
 _atom_site_fract_z
 _atom_site_occupancy
  Mn  Mn0  1  0.04778700  0.65073700  0.65073700  1
  Mn  Mn1  1  0.46339400  0.84553600  0.84553600  1
  Mn  Mn2  1  0.94061600  0.35312800  0.35312800  1
  V  V3  1  0.56365600  0.14544800  0.14544800  1
  Sb  Sb4  1  0.03935900  0.98688100  0.98688100  1
  Sb  Sb5  1  0.49816800  0.50061100  0.50061100  1
  P  P6  1  0.25037900  0.24922000  0.53707500  1
  P  P7  1  0.25037900  0.96332600  0.24922000  1
  P  P8  1  0.25037900  0.53707500  0.96332600  1
  P  P9  1  0.74690900  0.45168500  0.04861700  1
  P  P10  1  0.74690900  0.04861700  0.75278900  1
  P  P11  1  0.74690900  0.75278900  0.45168500  1
  O  O12  1  0.07286200  0.11093900  0.30834600  1
  O  O13  1  0.07286200  0.50785400  0.11093900  1
  O  O14  1  0.07286200  0.30834600  0.50785400  1
  O  O15  1  0.24254200  0.08210500  0.73271600  1
  O  O16  1  0.42307200  0.17986800  0.38542900  1
  O  O17  1  0.27089900  0.40726100  0.55212200  1
  O  O18  1  0.24254200  0.94263800  0.08210500  1
  O  O19  1  0.27089900  0.76971800  0.40726100  1
  O  O20  1  0.57236900  0.61293800  0.02179500  1
  O  O21  1  0.27089900  0.55212200  0.76971800  1
  O  O22  1  0.73640600  0.26400100  0.07798600  1
  O  O23  1  0.57236900  0.02179500  0.79289800  1
  O  O24  1  0.42307200  0.01163000  0.17986800  1
  O  O25  1  0.24254200  0.73271600  0.94263800  1
  O  O26  1  0.74313500  0.42654100  0.24168800  1
  O  O27  1  0.42307200  0.38542900  0.01163000  1
  O  O28  1  0.74313500  0.24168800  0.58863500  1
  O  O29  1  0.73640600  0.07798600  0.92160700  1
  O  O30  1  0.74313500  0.58863500  0.42654100  1
  O  O31  1  0.57236900  0.79289800  0.61293800  1
  O  O32  1  0.73640600  0.92160700  0.26400100  1
  O  O33  1  0.92376700  0.70925300  0.47242200  1
  O  O34  1  0.92376700  0.47242200  0.89455800  1
  O  O35  1  0.92376700  0.89455800  0.70925300  1
