# generated using pymatgen
data_Mn6O5F7
_symmetry_space_group_name_H-M   'P 1'
_cell_length_a   4.75080900
_cell_length_b   5.66489501
_cell_length_c   7.91963311
_cell_angle_alpha   86.80633176
_cell_angle_beta   88.19775389
_cell_angle_gamma   88.34048584
_symmetry_Int_Tables_number   1
_chemical_formula_structural   Mn6O5F7
_chemical_formula_sum   'Mn6 O5 F7'
_cell_volume   212.62441417
_cell_formula_units_Z   1
loop_
 _symmetry_equiv_pos_site_id
 _symmetry_equiv_pos_as_xyz
  1  'x, y, z'
loop_
 _atom_site_type_symbol
 _atom_site_label
 _atom_site_symmetry_multiplicity
 _atom_site_fract_x
 _atom_site_fract_y
 _atom_site_fract_z
 _atom_site_occupancy
  Mn  Mn0  1  0.48753100  0.48752100  0.00370300  1
  Mn  Mn1  1  0.49234000  0.16718700  0.33527900  1
  Mn  Mn2  1  0.53421600  0.83620200  0.65586700  1
  Mn  Mn3  1  0.00321100  0.66698600  0.32906600  1
  Mn  Mn4  1  0.94458500  0.33404500  0.67026900  1
  Mn  Mn5  1  0.02601200  0.01328300  0.00739900  1
  O  O6  1  0.80935700  0.63920600  0.55103500  1
  O  O7  1  0.80361600  0.28621800  0.90792000  1
  O  O8  1  0.67614500  0.12044700  0.55033900  1
  O  O9  1  0.30990300  0.21596000  0.11728300  1
  O  O10  1  0.19534500  0.71011400  0.10548100  1
  F  F11  1  0.79104000  0.97035000  0.23276100  1
  F  F12  1  0.70320100  0.78619000  0.90842600  1
  F  F13  1  0.70794500  0.47086100  0.24113000  1
  F  F14  1  0.28911900  0.85985200  0.42655900  1
  F  F15  1  0.32252200  0.54950000  0.75465700  1
  F  F16  1  0.19244700  0.35652300  0.44333000  1
  F  F17  1  0.21146800  0.02955600  0.75949500  1
