# generated using pymatgen
data_Fe2CuAs2(HO5)2
_symmetry_space_group_name_H-M   'P 1'
_cell_length_a   7.85708600
_cell_length_b   13.64525000
_cell_length_c   14.51344300
_cell_angle_alpha   90.00000000
_cell_angle_beta   90.00000000
_cell_angle_gamma   90.00000000
_symmetry_Int_Tables_number   1
_chemical_formula_structural   Fe2CuAs2(HO5)2
_chemical_formula_sum   'Fe16 Cu8 As16 H16 O80'
_cell_volume   1556.01383936
_cell_formula_units_Z   8
loop_
 _symmetry_equiv_pos_site_id
 _symmetry_equiv_pos_as_xyz
  1  'x, y, z'
loop_
 _atom_site_type_symbol
 _atom_site_label
 _atom_site_symmetry_multiplicity
 _atom_site_fract_x
 _atom_site_fract_y
 _atom_site_fract_z
 _atom_site_occupancy
  Fe  Fe0  1  0.04207600  0.50525500  0.23827600  1
  Fe  Fe1  1  0.04207600  0.99474500  0.73827600  1
  Fe  Fe2  1  0.21774500  0.25672900  0.49577500  1
  Fe  Fe3  1  0.21774500  0.24327100  0.99577500  1
  Fe  Fe4  1  0.28225500  0.75672900  0.49577500  1
  Fe  Fe5  1  0.28225500  0.74327100  0.99577500  1
  Fe  Fe6  1  0.45792400  0.00525500  0.23827600  1
  Fe  Fe7  1  0.45792400  0.49474500  0.73827600  1
  Fe  Fe8  1  0.54207600  0.50525500  0.26172400  1
  Fe  Fe9  1  0.54207600  0.99474500  0.76172400  1
  Fe  Fe10  1  0.71774500  0.25672900  0.00422500  1
  Fe  Fe11  1  0.71774500  0.24327100  0.50422500  1
  Fe  Fe12  1  0.78225500  0.75672900  0.00422500  1
  Fe  Fe13  1  0.78225500  0.74327100  0.50422500  1
  Fe  Fe14  1  0.95792400  0.00525500  0.26172400  1
  Fe  Fe15  1  0.95792400  0.49474500  0.76172400  1
  Cu  Cu16  1  0.13887400  0.87787300  0.13170100  1
  Cu  Cu17  1  0.13887400  0.62212700  0.63170100  1
  Cu  Cu18  1  0.36112600  0.12212700  0.63170100  1
  Cu  Cu19  1  0.36112600  0.37787300  0.13170100  1
  Cu  Cu20  1  0.63887400  0.87787300  0.36829900  1
  Cu  Cu21  1  0.63887400  0.62212700  0.86829900  1
  Cu  Cu22  1  0.86112600  0.37787300  0.36829900  1
  Cu  Cu23  1  0.86112600  0.12212700  0.86829900  1
  As  As24  1  0.01854000  0.74723000  0.30524600  1
  As  As25  1  0.01854000  0.75277000  0.80524600  1
  As  As26  1  0.23736700  0.00898200  0.44163600  1
  As  As27  1  0.23736700  0.49101800  0.94163600  1
  As  As28  1  0.26263300  0.50898200  0.44163600  1
  As  As29  1  0.26263300  0.99101800  0.94163600  1
  As  As30  1  0.48146000  0.24723000  0.30524600  1
  As  As31  1  0.48146000  0.25277000  0.80524600  1
  As  As32  1  0.51854000  0.75277000  0.69475400  1
  As  As33  1  0.51854000  0.74723000  0.19475400  1
  As  As34  1  0.73736700  0.00898200  0.05836400  1
  As  As35  1  0.73736700  0.49101800  0.55836400  1
  As  As36  1  0.76263300  0.50898200  0.05836400  1
  As  As37  1  0.76263300  0.99101800  0.55836400  1
  As  As38  1  0.98146000  0.24723000  0.19475400  1
  As  As39  1  0.98146000  0.25277000  0.69475400  1
  H  H40  1  0.02206100  0.71248600  0.11075100  1
  H  H41  1  0.02206100  0.78751400  0.61075100  1
  H  H42  1  0.23017400  0.06408800  0.08822100  1
  H  H43  1  0.23017400  0.43591200  0.58822100  1
  H  H44  1  0.26982600  0.56408800  0.08822100  1
  H  H45  1  0.26982600  0.93591200  0.58822100  1
  H  H46  1  0.47793900  0.21248600  0.11075100  1
  H  H47  1  0.47793900  0.28751400  0.61075100  1
  H  H48  1  0.52206100  0.71248600  0.38924900  1
  H  H49  1  0.52206100  0.78751400  0.88924900  1
  H  H50  1  0.73017400  0.06408800  0.41177900  1
  H  H51  1  0.73017400  0.43591200  0.91177900  1
  H  H52  1  0.76982600  0.56408800  0.41177900  1
  H  H53  1  0.76982600  0.93591200  0.91177900  1
  H  H54  1  0.97793900  0.21248600  0.38924900  1
  H  H55  1  0.97793900  0.28751400  0.88924900  1
  O  O56  1  0.99944200  0.85347500  0.23998600  1
  O  O57  1  0.99944200  0.64652500  0.73998600  1
  O  O58  1  0.02510700  0.65293600  0.22738800  1
  O  O59  1  0.02510700  0.84706400  0.72738800  1
  O  O60  1  0.02663200  0.75834100  0.05729200  1
  O  O61  1  0.02663200  0.74165900  0.55729200  1
  O  O62  1  0.04848800  0.50650900  0.88931000  1
  O  O63  1  0.04848800  0.99349100  0.38931000  1
  O  O64  1  0.08404800  0.50749200  0.37631700  1
  O  O65  1  0.08404800  0.99250800  0.87631700  1
  O  O66  1  0.16092700  0.24295000  0.12791200  1
  O  O67  1  0.16092700  0.25705000  0.62791200  1
  O  O68  1  0.19820700  0.75427700  0.37190100  1
  O  O69  1  0.19820700  0.74572300  0.87190100  1
  O  O70  1  0.22421300  0.99426700  0.19329500  1
  O  O71  1  0.22421300  0.50573300  0.69329500  1
  O  O72  1  0.23551900  0.09024700  0.02159300  1
  O  O73  1  0.23551900  0.40975300  0.52159300  1
  O  O74  1  0.23461700  0.39102500  0.01444300  1
  O  O75  1  0.23461700  0.10897500  0.51444300  1
  O  O76  1  0.26538300  0.89102500  0.01444300  1
  O  O77  1  0.26538300  0.60897500  0.51444300  1
  O  O78  1  0.26448100  0.59024700  0.02159300  1
  O  O79  1  0.26448100  0.90975300  0.52159300  1
  O  O80  1  0.27578700  0.49426700  0.19329500  1
  O  O81  1  0.27578700  0.00573300  0.69329500  1
  O  O82  1  0.30179300  0.25427700  0.37190100  1
  O  O83  1  0.30179300  0.24572300  0.87190100  1
  O  O84  1  0.33907300  0.74295000  0.12791200  1
  O  O85  1  0.33907300  0.75705000  0.62791200  1
  O  O86  1  0.41595200  0.00749200  0.37631700  1
  O  O87  1  0.41595200  0.49250800  0.87631700  1
  O  O88  1  0.45151200  0.00650900  0.88931000  1
  O  O89  1  0.45151200  0.49349100  0.38931000  1
  O  O90  1  0.47336800  0.25834100  0.05729200  1
  O  O91  1  0.47336800  0.24165900  0.55729200  1
  O  O92  1  0.47489300  0.15293600  0.22738800  1
  O  O93  1  0.47489300  0.34706400  0.72738800  1
  O  O94  1  0.50055800  0.14652500  0.73998600  1
  O  O95  1  0.50055800  0.35347500  0.23998600  1
  O  O96  1  0.49944200  0.64652500  0.76001400  1
  O  O97  1  0.49944200  0.85347500  0.26001400  1
  O  O98  1  0.52510700  0.65293600  0.27261200  1
  O  O99  1  0.52510700  0.84706400  0.77261200  1
  O  O100  1  0.52663200  0.75834100  0.44270800  1
  O  O101  1  0.52663200  0.74165900  0.94270800  1
  O  O102  1  0.54848800  0.50650900  0.61069000  1
  O  O103  1  0.54848800  0.99349100  0.11069000  1
  O  O104  1  0.58404800  0.50749200  0.12368300  1
  O  O105  1  0.58404800  0.99250800  0.62368300  1
  O  O106  1  0.66092700  0.24295000  0.37208800  1
  O  O107  1  0.66092700  0.25705000  0.87208800  1
  O  O108  1  0.69820600  0.75427700  0.12809900  1
  O  O109  1  0.69820600  0.74572300  0.62809900  1
  O  O110  1  0.72421300  0.99426700  0.30670500  1
  O  O111  1  0.72421300  0.50573300  0.80670500  1
  O  O112  1  0.73551900  0.09024700  0.47840700  1
  O  O113  1  0.73551900  0.40975300  0.97840700  1
  O  O114  1  0.73461700  0.39102500  0.48555700  1
  O  O115  1  0.73461700  0.10897500  0.98555700  1
  O  O116  1  0.76538300  0.89102500  0.48555700  1
  O  O117  1  0.76538300  0.60897500  0.98555700  1
  O  O118  1  0.76448100  0.59024700  0.47840700  1
  O  O119  1  0.76448100  0.90975300  0.97840700  1
  O  O120  1  0.77578700  0.49426700  0.30670500  1
  O  O121  1  0.77578700  0.00573300  0.80670500  1
  O  O122  1  0.80179400  0.25427700  0.12809900  1
  O  O123  1  0.80179400  0.24572300  0.62809900  1
  O  O124  1  0.83907300  0.74295000  0.37208800  1
  O  O125  1  0.83907300  0.75705000  0.87208800  1
  O  O126  1  0.91595200  0.00749200  0.12368300  1
  O  O127  1  0.91595200  0.49250800  0.62368300  1
  O  O128  1  0.95151200  0.49349100  0.11069000  1
  O  O129  1  0.95151200  0.00650900  0.61069000  1
  O  O130  1  0.97336800  0.25834100  0.44270800  1
  O  O131  1  0.97336800  0.24165900  0.94270800  1
  O  O132  1  0.97489300  0.15293600  0.27261200  1
  O  O133  1  0.97489300  0.34706400  0.77261200  1
  O  O134  1  0.00055800  0.35347500  0.26001400  1
  O  O135  1  0.00055800  0.14652500  0.76001400  1
