# generated using pymatgen
data_Sn(PO3)3
_symmetry_space_group_name_H-M   'P 1'
_cell_length_a   8.78637500
_cell_length_b   8.79166400
_cell_length_c   9.34282800
_cell_angle_alpha   90.00000000
_cell_angle_beta   90.00000000
_cell_angle_gamma   90.00000000
_symmetry_Int_Tables_number   1
_chemical_formula_structural   Sn(PO3)3
_chemical_formula_sum   'Sn4 P12 O36'
_cell_volume   721.70409642
_cell_formula_units_Z   4
loop_
 _symmetry_equiv_pos_site_id
 _symmetry_equiv_pos_as_xyz
  1  'x, y, z'
loop_
 _atom_site_type_symbol
 _atom_site_label
 _atom_site_symmetry_multiplicity
 _atom_site_fract_x
 _atom_site_fract_y
 _atom_site_fract_z
 _atom_site_occupancy
  Sn  Sn0  1  0.65387300  0.62891900  0.60734400  1
  Sn  Sn1  1  0.84612700  0.37108100  0.10734400  1
  Sn  Sn2  1  0.34612700  0.12891900  0.89265600  1
  Sn  Sn3  1  0.15387300  0.87108100  0.39265600  1
  P  P4  1  0.80597500  0.69428200  0.92671000  1
  P  P5  1  0.03335000  0.68141400  0.69031000  1
  P  P6  1  0.19505300  0.52593600  0.19342800  1
  P  P7  1  0.30494700  0.47406400  0.69342800  1
  P  P8  1  0.46665000  0.31858600  0.19031000  1
  P  P9  1  0.69402500  0.30571800  0.42671000  1
  P  P10  1  0.19402500  0.19428200  0.57329000  1
  P  P11  1  0.96665000  0.18141400  0.80969000  1
  P  P12  1  0.80494700  0.02593600  0.30657200  1
  P  P13  1  0.69505300  0.97406400  0.80657200  1
  P  P14  1  0.53335000  0.81858600  0.30969000  1
  P  P15  1  0.30597500  0.80571800  0.07329000  1
  O  O16  1  0.96572800  0.72757000  0.84487900  1
  O  O17  1  0.62721000  0.68856100  0.36658200  1
  O  O18  1  0.84050300  0.63174700  0.07279200  1
  O  O19  1  0.90789100  0.62220500  0.59504100  1
  O  O20  1  0.24054600  0.63497100  0.05794400  1
  O  O21  1  0.40341600  0.59987800  0.63565700  1
  O  O22  1  0.13975700  0.62023800  0.31703600  1
  O  O23  1  0.69903700  0.59939500  0.83626300  1
  O  O24  1  0.14208200  0.54306500  0.73880600  1
  O  O25  1  0.35791800  0.45693500  0.23880600  1
  O  O26  1  0.80096300  0.40060500  0.33626300  1
  O  O27  1  0.36024300  0.37976200  0.81703600  1
  O  O28  1  0.09658400  0.40012200  0.13565700  1
  O  O29  1  0.25945400  0.36502900  0.55794400  1
  O  O30  1  0.59210900  0.37779500  0.09504100  1
  O  O31  1  0.65949700  0.36825300  0.57279200  1
  O  O32  1  0.87279000  0.31143900  0.86658200  1
  O  O33  1  0.53427200  0.27243000  0.34487900  1
  O  O34  1  0.03427200  0.22757000  0.65512100  1
  O  O35  1  0.37279000  0.18856100  0.13341800  1
  O  O36  1  0.15949700  0.13174700  0.42720800  1
  O  O37  1  0.09210900  0.12220500  0.90495900  1
  O  O38  1  0.75945400  0.13497100  0.44205600  1
  O  O39  1  0.59658400  0.09987800  0.86434300  1
  O  O40  1  0.86024300  0.12023800  0.18296400  1
  O  O41  1  0.30096300  0.09939500  0.66373700  1
  O  O42  1  0.85791800  0.04306500  0.76119400  1
  O  O43  1  0.64208200  0.95693500  0.26119400  1
  O  O44  1  0.19903700  0.90060500  0.16373700  1
  O  O45  1  0.63975700  0.87976200  0.68296400  1
  O  O46  1  0.90341600  0.90012200  0.36434300  1
  O  O47  1  0.74054600  0.86502900  0.94205600  1
  O  O48  1  0.40789100  0.87779500  0.40495900  1
  O  O49  1  0.34050300  0.86825300  0.92720800  1
  O  O50  1  0.12721000  0.81143900  0.63341800  1
  O  O51  1  0.46572800  0.77243000  0.15512100  1
