data_image0
_chemical_formula_structural       Er2Li2O4
_chemical_formula_sum              "Er2 Li2 O4"
_cell_length_a       4.39252
_cell_length_b       4.39252
_cell_length_c       5.95521
_cell_angle_alpha    111.641
_cell_angle_beta     111.641
_cell_angle_gamma    90

_space_group_name_H-M_alt    "P 1"
_space_group_IT_number       1

loop_
  _space_group_symop_operation_xyz
  'x, y, z'

loop_
  _atom_site_type_symbol
  _atom_site_label
  _atom_site_symmetry_multiplicity
  _atom_site_fract_x
  _atom_site_fract_y
  _atom_site_fract_z
  _atom_site_occupancy
  Er  Er1       1.0  0.00000  0.00000  0.00000  1.0000
  Er  Er2       1.0  0.25000  0.75000  0.50000  1.0000
  Li  Li1       1.0  0.50000  0.50000  0.00000  1.0000
  Li  Li2       1.0  0.75000  0.25000  0.50000  1.0000
  O   O1        1.0  0.02660  0.52700  0.05320  1.0000
  O   O2        1.0  0.22300  0.22300  0.44700  1.0000
  O   O3        1.0  0.77700  0.77700  0.55300  1.0000
  O   O4        1.0  0.47300  0.97300  0.94700  1.0000
