# generated using pymatgen
data_WO2F
_symmetry_space_group_name_H-M   'P 1'
_cell_length_a   5.68910552
_cell_length_b   5.68910552
_cell_length_c   5.50667323
_cell_angle_alpha   61.16204310
_cell_angle_beta   61.16204310
_cell_angle_gamma   57.86752719
_symmetry_Int_Tables_number   1
_chemical_formula_structural   WO2F
_chemical_formula_sum   'W2 O4 F2'
_cell_volume   125.93734029
_cell_formula_units_Z   2
loop_
 _symmetry_equiv_pos_site_id
 _symmetry_equiv_pos_as_xyz
  1  'x, y, z'
loop_
 _atom_site_type_symbol
 _atom_site_label
 _atom_site_symmetry_multiplicity
 _atom_site_fract_x
 _atom_site_fract_y
 _atom_site_fract_z
 _atom_site_occupancy
  W  W0  1  0.50000000  0.00000000  0.50000000  1
  W  W1  1  0.00000000  0.50000000  0.00000000  1
  O  O2  1  0.25682800  0.22908900  0.26247200  1
  O  O3  1  0.77091100  0.74317200  0.23752800  1
  O  O4  1  0.22908900  0.25682800  0.76247200  1
  O  O5  1  0.74317200  0.77091100  0.73752800  1
  F  F6  1  0.26885300  0.73114700  0.75000000  1
  F  F7  1  0.73114700  0.26885300  0.25000000  1
