# generated using pymatgen
data_Fe3(OF)2
_symmetry_space_group_name_H-M   'P 1'
_cell_length_a   6.44475400
_cell_length_b   6.39906700
_cell_length_c   8.59487683
_cell_angle_alpha   89.91335844
_cell_angle_beta   90.00000000
_cell_angle_gamma   90.00000000
_symmetry_Int_Tables_number   1
_chemical_formula_structural   Fe3(OF)2
_chemical_formula_sum   'Fe12 O8 F8'
_cell_volume   354.45586170
_cell_formula_units_Z   4
loop_
 _symmetry_equiv_pos_site_id
 _symmetry_equiv_pos_as_xyz
  1  'x, y, z'
loop_
 _atom_site_type_symbol
 _atom_site_label
 _atom_site_symmetry_multiplicity
 _atom_site_fract_x
 _atom_site_fract_y
 _atom_site_fract_z
 _atom_site_occupancy
  Fe  Fe0  1  0.75214800  0.74992700  0.81906100  1
  Fe  Fe1  1  0.24785200  0.74992700  0.81906100  1
  Fe  Fe2  1  0.00000000  0.24977400  0.77942800  1
  Fe  Fe3  1  0.50000000  0.24987800  0.76959400  1
  Fe  Fe4  1  0.75256800  0.00005700  0.49991700  1
  Fe  Fe5  1  0.75248200  0.49984100  0.49969800  1
  Fe  Fe6  1  0.24743200  0.00005700  0.49991700  1
  Fe  Fe7  1  0.24751800  0.49984100  0.49969800  1
  Fe  Fe8  1  0.50000000  0.75008700  0.22101100  1
  Fe  Fe9  1  0.00000000  0.75007600  0.22110200  1
  Fe  Fe10  1  0.25440500  0.25129700  0.18072500  1
  Fe  Fe11  1  0.74559500  0.25129700  0.18072500  1
  O  O12  1  0.25120000  0.46799600  0.73020600  1
  O  O13  1  0.25581800  0.03375000  0.72989300  1
  O  O14  1  0.74418200  0.03375000  0.72989300  1
  O  O15  1  0.74880000  0.46799600  0.73020600  1
  O  O16  1  0.75427400  0.96625700  0.27116200  1
  O  O17  1  0.24572600  0.96625700  0.27116200  1
  O  O18  1  0.75223200  0.53231900  0.27077600  1
  O  O19  1  0.24776800  0.53231900  0.27077600  1
  F  F20  1  0.50000000  0.74424900  0.98173500  1
  F  F21  1  0.00000000  0.75563300  0.98101700  1
  F  F22  1  0.00000000  0.74983600  0.51285200  1
  F  F23  1  0.50000000  0.75003000  0.51176500  1
  F  F24  1  0.50000000  0.25013200  0.48625900  1
  F  F25  1  0.00000000  0.24993200  0.49208300  1
  F  F26  1  0.50000000  0.24406700  0.02188600  1
  F  F27  1  0.00000000  0.25673500  0.01837200  1
