# generated using pymatgen
data_VF5
_symmetry_space_group_name_H-M   'P 1'
_cell_length_a   6.22254100
_cell_length_b   6.33210400
_cell_length_c   9.40883800
_cell_angle_alpha   90.00000000
_cell_angle_beta   90.00000000
_cell_angle_gamma   90.00000000
_symmetry_Int_Tables_number   1
_chemical_formula_structural   VF5
_chemical_formula_sum   'V4 F20'
_cell_volume   370.72493441
_cell_formula_units_Z   4
loop_
 _symmetry_equiv_pos_site_id
 _symmetry_equiv_pos_as_xyz
  1  'x, y, z'
loop_
 _atom_site_type_symbol
 _atom_site_label
 _atom_site_symmetry_multiplicity
 _atom_site_fract_x
 _atom_site_fract_y
 _atom_site_fract_z
 _atom_site_occupancy
  V  V0  1  0.25000000  0.40152200  0.49553000  1
  V  V1  1  0.75000000  0.90152200  0.00447000  1
  V  V2  1  0.25000000  0.09847800  0.99553000  1
  V  V3  1  0.75000000  0.59847800  0.50447000  1
  F  F4  1  0.25000000  0.12583500  0.48305900  1
  F  F5  1  0.44188500  0.66666000  0.51362800  1
  F  F6  1  0.05811500  0.66666000  0.51362800  1
  F  F7  1  0.75000000  0.52702000  0.68592300  1
  F  F8  1  0.25000000  0.41846500  0.68264200  1
  F  F9  1  0.75000000  0.91846500  0.81735800  1
  F  F10  1  0.25000000  0.02702000  0.81407700  1
  F  F11  1  0.55811500  0.16666000  0.98637200  1
  F  F12  1  0.94188500  0.16666000  0.98637200  1
  F  F13  1  0.75000000  0.62583500  0.01694100  1
  F  F14  1  0.25000000  0.37416500  0.98305900  1
  F  F15  1  0.44188500  0.83334000  0.01362800  1
  F  F16  1  0.05811500  0.83334000  0.01362800  1
  F  F17  1  0.75000000  0.97298000  0.18592300  1
  F  F18  1  0.25000000  0.08153500  0.18264200  1
  F  F19  1  0.75000000  0.58153500  0.31735800  1
  F  F20  1  0.25000000  0.47298000  0.31407700  1
  F  F21  1  0.55811500  0.33334000  0.48637200  1
  F  F22  1  0.94188500  0.33334000  0.48637200  1
  F  F23  1  0.75000000  0.87416500  0.51694100  1
