# generated using pymatgen
data_MnF3
_symmetry_space_group_name_H-M   'P 1'
_cell_length_a   8.53169782
_cell_length_b   8.53169782
_cell_length_c   4.65400200
_cell_angle_alpha   90.00000000
_cell_angle_beta   90.00000000
_cell_angle_gamma   119.99999862
_symmetry_Int_Tables_number   1
_chemical_formula_structural   MnF3
_chemical_formula_sum   'Mn6 F18'
_cell_volume   293.37839850
_cell_formula_units_Z   6
loop_
 _symmetry_equiv_pos_site_id
 _symmetry_equiv_pos_as_xyz
  1  'x, y, z'
loop_
 _atom_site_type_symbol
 _atom_site_label
 _atom_site_symmetry_multiplicity
 _atom_site_fract_x
 _atom_site_fract_y
 _atom_site_fract_z
 _atom_site_occupancy
  Mn  Mn0  1  0.66668400  0.66668400  0.00000000  1
  Mn  Mn1  1  0.00000000  0.66482200  0.50000000  1
  Mn  Mn2  1  0.33517800  0.33517800  0.50000000  1
  Mn  Mn3  1  0.00000000  0.33331600  0.00000000  1
  Mn  Mn4  1  0.33331600  0.00000000  0.00000000  1
  Mn  Mn5  1  0.66482200  0.00000000  0.50000000  1
  F  F6  1  0.11945200  0.87612200  0.25769100  1
  F  F7  1  0.88054800  0.75666900  0.74230900  1
  F  F8  1  0.21755800  0.79050400  0.75962300  1
  F  F9  1  0.78244200  0.57294600  0.24037700  1
  F  F10  1  0.45599700  0.90710900  0.25371500  1
  F  F11  1  0.54400300  0.45111200  0.74628500  1
  F  F12  1  0.09289100  0.54888800  0.25371500  1
  F  F13  1  0.90710900  0.45599700  0.74628500  1
  F  F14  1  0.75666900  0.88054800  0.25769100  1
  F  F15  1  0.24333100  0.12387800  0.74230900  1
  F  F16  1  0.57294600  0.78244200  0.75962300  1
  F  F17  1  0.42705400  0.20949600  0.24037700  1
  F  F18  1  0.20949600  0.42705400  0.75962300  1
  F  F19  1  0.79050400  0.21755800  0.24037700  1
  F  F20  1  0.54888800  0.09289100  0.74628500  1
  F  F21  1  0.45111200  0.54400300  0.25371500  1
  F  F22  1  0.12387800  0.24333100  0.25769100  1
  F  F23  1  0.87612200  0.11945200  0.74230900  1
