# generated using pymatgen
data_Ag3F
_symmetry_space_group_name_H-M   'P 1'
_cell_length_a   5.80948870
_cell_length_b   5.80948870
_cell_length_c   4.57633500
_cell_angle_alpha   90.00000000
_cell_angle_beta   90.00000000
_cell_angle_gamma   120.00000798
_symmetry_Int_Tables_number   1
_chemical_formula_structural   Ag3F
_chemical_formula_sum   'Ag6 F2'
_cell_volume   133.75937411
_cell_formula_units_Z   2
loop_
 _symmetry_equiv_pos_site_id
 _symmetry_equiv_pos_as_xyz
  1  'x, y, z'
loop_
 _atom_site_type_symbol
 _atom_site_label
 _atom_site_symmetry_multiplicity
 _atom_site_fract_x
 _atom_site_fract_y
 _atom_site_fract_z
 _atom_site_occupancy
  Ag  Ag0  1  0.16733500  0.33467000  0.25000000  1
  Ag  Ag1  1  0.66533000  0.83266500  0.25000000  1
  Ag  Ag2  1  0.16733500  0.83266500  0.25000000  1
  Ag  Ag3  1  0.83266500  0.66533000  0.75000000  1
  Ag  Ag4  1  0.33467000  0.16733500  0.75000000  1
  Ag  Ag5  1  0.83266500  0.16733500  0.75000000  1
  F  F6  1  0.33333300  0.66666700  0.75000000  1
  F  F7  1  0.66666700  0.33333300  0.25000000  1
