# generated using pymatgen
data_Na3Mn8O16
_symmetry_space_group_name_H-M   'P 1'
_cell_length_a   6.16774207
_cell_length_b   12.37360853
_cell_length_c   8.43208646
_cell_angle_alpha   89.99793121
_cell_angle_beta   89.96210886
_cell_angle_gamma   90.00239689
_symmetry_Int_Tables_number   1
_chemical_formula_structural   Na3Mn8O16
_chemical_formula_sum   'Na6 Mn16 O32'
_cell_volume   643.51330543
_cell_formula_units_Z   2
loop_
 _symmetry_equiv_pos_site_id
 _symmetry_equiv_pos_as_xyz
  1  'x, y, z'
loop_
 _atom_site_type_symbol
 _atom_site_label
 _atom_site_symmetry_multiplicity
 _atom_site_fract_x
 _atom_site_fract_y
 _atom_site_fract_z
 _atom_site_occupancy
  Na  Na0  1  0.75014100  0.00001100  0.12149000  1
  Na  Na1  1  0.74990700  0.74915600  0.37320700  1
  Na  Na2  1  0.74990300  0.25081300  0.37315900  1
  Na  Na3  1  0.25006600  0.75083600  0.62680900  1
  Na  Na4  1  0.25007100  0.24917000  0.62684500  1
  Na  Na5  1  0.24986800  0.49997300  0.87852200  1
  Mn  Mn6  1  0.49980900  0.24987700  0.00011300  1
  Mn  Mn7  1  0.49985800  0.75013000  0.99997500  1
  Mn  Mn8  1  0.00012900  0.75012800  0.00000000  1
  Mn  Mn9  1  0.00011800  0.24985400  0.00012200  1
  Mn  Mn10  1  0.24999200  0.62317400  0.24792900  1
  Mn  Mn11  1  0.25006900  0.37710900  0.24773500  1
  Mn  Mn12  1  0.24994800  0.87555300  0.24771600  1
  Mn  Mn13  1  0.24995000  0.12436600  0.24773200  1
  Mn  Mn14  1  0.00163300  0.99999800  0.50254100  1
  Mn  Mn15  1  0.49822300  0.00000100  0.50255400  1
  Mn  Mn16  1  0.50176600  0.49998000  0.49696600  1
  Mn  Mn17  1  0.99847300  0.49998100  0.49700700  1
  Mn  Mn18  1  0.75005400  0.62438400  0.75274000  1
  Mn  Mn19  1  0.74998100  0.87750100  0.75214400  1
  Mn  Mn20  1  0.75009700  0.37551200  0.75274400  1
  Mn  Mn21  1  0.75003800  0.12262000  0.75210900  1
  O  O22  1  0.25028800  0.85585600  0.01679900  1
  O  O23  1  0.25030200  0.64740400  0.01411200  1
  O  O24  1  0.25028900  0.14411600  0.01682300  1
  O  O25  1  0.25032600  0.35260100  0.01419100  1
  O  O26  1  0.45969700  0.74710400  0.22894000  1
  O  O27  1  0.04030300  0.74712800  0.22891800  1
  O  O28  1  0.45969600  0.25287200  0.22893300  1
  O  O29  1  0.04027700  0.25286300  0.22890400  1
  O  O30  1  0.03872100  0.50005000  0.26325900  1
  O  O31  1  0.46133200  0.50004300  0.26328800  1
  O  O32  1  0.03370900  0.99996000  0.27278100  1
  O  O33  1  0.46626700  0.99995500  0.27276500  1
  O  O34  1  0.24945500  0.39368800  0.47601000  1
  O  O35  1  0.24964200  0.89315400  0.47866500  1
  O  O36  1  0.24947000  0.60630300  0.47603100  1
  O  O37  1  0.24964500  0.10683200  0.47866800  1
  O  O38  1  0.75061600  0.60684200  0.52128600  1
  O  O39  1  0.75030000  0.89370400  0.52397400  1
  O  O40  1  0.75060900  0.39311900  0.52129000  1
  O  O41  1  0.75031800  0.10628400  0.52397200  1
  O  O42  1  0.53869100  0.99996000  0.73668200  1
  O  O43  1  0.96122100  0.99995000  0.73668200  1
  O  O44  1  0.53368100  0.49993800  0.72724000  1
  O  O45  1  0.96638600  0.49992700  0.72721900  1
  O  O46  1  0.54027300  0.75296200  0.77105100  1
  O  O47  1  0.95968100  0.75293600  0.77107200  1
  O  O48  1  0.54031300  0.24715200  0.77107200  1
  O  O49  1  0.95967800  0.24715800  0.77110400  1
  O  O50  1  0.74969400  0.35586600  0.98320200  1
  O  O51  1  0.74968800  0.64415700  0.98319500  1
  O  O52  1  0.74967800  0.85261300  0.98587800  1
  O  O53  1  0.74966100  0.14737800  0.98583500  1
