# generated using pymatgen
data_V2Bi4O11
_symmetry_space_group_name_H-M   'P 1'
_cell_length_a   8.11459037
_cell_length_b   8.11459037
_cell_length_c   11.10758401
_cell_angle_alpha   89.91474800
_cell_angle_beta   89.91474800
_cell_angle_gamma   40.98818869
_symmetry_Int_Tables_number   1
_chemical_formula_structural   V2Bi4O11
_chemical_formula_sum   'V4 Bi8 O22'
_cell_volume   479.72479563
_cell_formula_units_Z   2
loop_
 _symmetry_equiv_pos_site_id
 _symmetry_equiv_pos_as_xyz
  1  'x, y, z'
loop_
 _atom_site_type_symbol
 _atom_site_label
 _atom_site_symmetry_multiplicity
 _atom_site_fract_x
 _atom_site_fract_y
 _atom_site_fract_z
 _atom_site_occupancy
  V  V0  1  0.99065200  0.00934800  0.00000000  1
  V  V1  1  0.44607400  0.56575900  0.75329100  1
  V  V2  1  0.99832700  0.00167300  0.50000000  1
  V  V3  1  0.43424100  0.55392600  0.24670900  1
  Bi  Bi4  1  0.66912900  0.66041600  0.00882400  1
  Bi  Bi5  1  0.09626300  0.22370600  0.74843500  1
  Bi  Bi6  1  0.75806700  0.88221200  0.75025300  1
  Bi  Bi7  1  0.33314200  0.33680100  0.50795700  1
  Bi  Bi8  1  0.66319900  0.66685800  0.49204300  1
  Bi  Bi9  1  0.11778800  0.24193300  0.24974700  1
  Bi  Bi10  1  0.77629400  0.90373700  0.25156500  1
  Bi  Bi11  1  0.33958400  0.33087100  0.99117600  1
  O  O12  1  0.77491700  0.01728900  0.95606600  1
  O  O13  1  0.93826300  0.54369600  0.87131300  1
  O  O14  1  0.19210600  0.85759400  0.87293100  1
  O  O15  1  0.65998400  0.42974400  0.87023400  1
  O  O16  1  0.43888600  0.03279100  0.87152500  1
  O  O17  1  0.37913300  0.40976200  0.74854100  1
  O  O18  1  0.94314200  0.54264100  0.62540700  1
  O  O19  1  0.66407500  0.44191100  0.64077300  1
  O  O20  1  0.19541700  0.85577200  0.62802300  1
  O  O21  1  0.43981300  0.03181500  0.62780800  1
  O  O22  1  0.97088600  0.22950200  0.45555100  1
  O  O23  1  0.77049800  0.02911400  0.54444900  1
  O  O24  1  0.96818500  0.56018700  0.37219200  1
  O  O25  1  0.14422800  0.80458300  0.37197700  1
  O  O26  1  0.55808900  0.33592500  0.35922700  1
  O  O27  1  0.45735900  0.05685800  0.37459300  1
  O  O28  1  0.59023800  0.62086700  0.25145900  1
  O  O29  1  0.96720900  0.56111400  0.12847500  1
  O  O30  1  0.57025600  0.34001600  0.12976600  1
  O  O31  1  0.14240600  0.80789400  0.12706900  1
  O  O32  1  0.45630400  0.06173700  0.12868700  1
  O  O33  1  0.98271100  0.22508300  0.04393400  1
