# generated using pymatgen
data_Al2Si2H4O9
_symmetry_space_group_name_H-M   'P 1'
_cell_length_a   5.21745143
_cell_length_b   5.21745143
_cell_length_c   7.13750952
_cell_angle_alpha   89.07518436
_cell_angle_beta   89.07518436
_cell_angle_gamma   119.61166746
_symmetry_Int_Tables_number   1
_chemical_formula_structural   Al2Si2H4O9
_chemical_formula_sum   'Al2 Si2 H4 O9'
_cell_volume   168.83270198
_cell_formula_units_Z   1
loop_
 _symmetry_equiv_pos_site_id
 _symmetry_equiv_pos_as_xyz
  1  'x, y, z'
loop_
 _atom_site_type_symbol
 _atom_site_label
 _atom_site_symmetry_multiplicity
 _atom_site_fract_x
 _atom_site_fract_y
 _atom_site_fract_z
 _atom_site_occupancy
  Al  Al0  1  0.34114000  0.01211800  0.51776000  1
  Al  Al1  1  0.01211800  0.34114000  0.51776000  1
  Si  Si2  1  0.32199700  0.66331300  0.12908700  1
  Si  Si3  1  0.66331300  0.32199700  0.12908700  1
  H  H4  1  0.88331600  0.88331600  0.35425800  1
  H  H5  1  0.39619800  0.39619800  0.76032500  1
  H  H6  1  0.65850200  0.01303500  0.77861900  1
  H  H7  1  0.01303500  0.65850200  0.77861900  1
  O  O8  1  0.50749900  0.99668900  0.03391900  1
  O  O9  1  0.99668900  0.50749900  0.03391900  1
  O  O10  1  0.49413000  0.49413000  0.05148400  1
  O  O11  1  0.67504000  0.29735900  0.35495500  1
  O  O12  1  0.29735900  0.67504000  0.35495500  1
  O  O13  1  0.06769200  0.06769200  0.36462600  1
  O  O14  1  0.66951000  0.05341700  0.64383000  1
  O  O15  1  0.05341700  0.66951000  0.64383000  1
  O  O16  1  0.28234500  0.28234500  0.65536600  1
