# generated using pymatgen
data_SnP2O7
_symmetry_space_group_name_H-M   'P 1'
_cell_length_a   5.24463700
_cell_length_b   8.42124300
_cell_length_c   13.74449634
_cell_angle_alpha   70.85126883
_cell_angle_beta   90.00000000
_cell_angle_gamma   90.00000000
_symmetry_Int_Tables_number   1
_chemical_formula_structural   SnP2O7
_chemical_formula_sum   'Sn4 P8 O28'
_cell_volume   573.45680314
_cell_formula_units_Z   4
loop_
 _symmetry_equiv_pos_site_id
 _symmetry_equiv_pos_as_xyz
  1  'x, y, z'
loop_
 _atom_site_type_symbol
 _atom_site_label
 _atom_site_symmetry_multiplicity
 _atom_site_fract_x
 _atom_site_fract_y
 _atom_site_fract_z
 _atom_site_occupancy
  Sn  Sn0  1  0.25301900  0.26411200  0.14270500  1
  Sn  Sn1  1  0.24698100  0.26411200  0.64270500  1
  Sn  Sn2  1  0.75301900  0.73588800  0.35729500  1
  Sn  Sn3  1  0.74698100  0.73588800  0.85729500  1
  P  P4  1  0.26535000  0.82361200  0.70120400  1
  P  P5  1  0.26473700  0.69618300  0.52277900  1
  P  P6  1  0.76473700  0.30381700  0.97722100  1
  P  P7  1  0.76535000  0.17638800  0.79879600  1
  P  P8  1  0.23465000  0.82361200  0.20120400  1
  P  P9  1  0.23526300  0.69618300  0.02277900  1
  P  P10  1  0.73526300  0.30381700  0.47722100  1
  P  P11  1  0.73465000  0.17638800  0.29879600  1
  O  O12  1  0.52731400  0.74152500  0.73210200  1
  O  O13  1  0.21550900  0.82285200  0.58616000  1
  O  O14  1  0.05282500  0.71900400  0.76878000  1
  O  O15  1  0.70506000  0.47945500  0.90435400  1
  O  O16  1  0.54446500  0.72000000  0.48761500  1
  O  O17  1  0.04446500  0.28000000  0.01238500  1
  O  O18  1  0.20506000  0.52054500  0.59564600  1
  O  O19  1  0.58481900  0.24076600  0.06876100  1
  O  O20  1  0.73773100  0.99310700  0.30575500  1
  O  O21  1  0.55282500  0.28099600  0.73122000  1
  O  O22  1  0.71550900  0.17714800  0.91384000  1
  O  O23  1  0.02731400  0.25847500  0.76789800  1
  O  O24  1  0.23773100  0.00689300  0.19424500  1
  O  O25  1  0.08481900  0.75923400  0.43123900  1
  O  O26  1  0.91518100  0.24076600  0.56876100  1
  O  O27  1  0.76226900  0.99310700  0.80575500  1
  O  O28  1  0.97268600  0.74152500  0.23210200  1
  O  O29  1  0.28449100  0.82285200  0.08616000  1
  O  O30  1  0.44717500  0.71900400  0.26878000  1
  O  O31  1  0.26226900  0.00689300  0.69424500  1
  O  O32  1  0.41518100  0.75923400  0.93123900  1
  O  O33  1  0.79494000  0.47945500  0.40435400  1
  O  O34  1  0.95553500  0.72000000  0.98761500  1
  O  O35  1  0.45553500  0.28000000  0.51238500  1
  O  O36  1  0.29494000  0.52054500  0.09564600  1
  O  O37  1  0.94717500  0.28099600  0.23122000  1
  O  O38  1  0.78449100  0.17714800  0.41384000  1
  O  O39  1  0.47268600  0.25847500  0.26789800  1
