# generated using pymatgen
data_Sr2Sn(HO)8
_symmetry_space_group_name_H-M   'P 1'
_cell_length_a   10.50810200
_cell_length_b   6.16959300
_cell_length_c   6.86449456
_cell_angle_alpha   67.77556757
_cell_angle_beta   90.00000000
_cell_angle_gamma   90.00000000
_symmetry_Int_Tables_number   1
_chemical_formula_structural   Sr2Sn(HO)8
_chemical_formula_sum   'Sr4 Sn2 H16 O16'
_cell_volume   411.96851328
_cell_formula_units_Z   2
loop_
 _symmetry_equiv_pos_site_id
 _symmetry_equiv_pos_as_xyz
  1  'x, y, z'
loop_
 _atom_site_type_symbol
 _atom_site_label
 _atom_site_symmetry_multiplicity
 _atom_site_fract_x
 _atom_site_fract_y
 _atom_site_fract_z
 _atom_site_occupancy
  Sr  Sr0  1  0.86638800  0.36285200  0.28337800  1
  Sr  Sr1  1  0.63361200  0.86285200  0.28337800  1
  Sr  Sr2  1  0.36638800  0.13714800  0.71662200  1
  Sr  Sr3  1  0.13361200  0.63714800  0.71662200  1
  Sn  Sn4  1  0.50000000  0.50000000  0.00000000  1
  Sn  Sn5  1  0.00000000  0.00000000  0.00000000  1
  H  H6  1  0.40870700  0.15638900  0.30428400  1
  H  H7  1  0.11528900  0.14877700  0.26577700  1
  H  H8  1  0.09129300  0.65638900  0.30428400  1
  H  H9  1  0.38471100  0.64877700  0.26577700  1
  H  H10  1  0.62514400  0.35676800  0.45732600  1
  H  H11  1  0.26354100  0.37289000  0.08337600  1
  H  H12  1  0.76354100  0.12711000  0.91662400  1
  H  H13  1  0.12514400  0.14323200  0.54267400  1
  H  H14  1  0.87485600  0.85676800  0.45732600  1
  H  H15  1  0.23645900  0.87289000  0.08337600  1
  H  H16  1  0.73645900  0.62711000  0.91662400  1
  H  H17  1  0.37485600  0.64323200  0.54267400  1
  H  H18  1  0.61528900  0.35122300  0.73422300  1
  H  H19  1  0.90870700  0.34361100  0.69571600  1
  H  H20  1  0.88471100  0.85122300  0.73422300  1
  H  H21  1  0.59129300  0.84361100  0.69571600  1
  O  O22  1  0.81283900  0.08753900  0.04706500  1
  O  O23  1  0.06182600  0.23280100  0.13350800  1
  O  O24  1  0.68716100  0.58753900  0.04706500  1
  O  O25  1  0.43817400  0.73280100  0.13350800  1
  O  O26  1  0.49610500  0.21573900  0.29740300  1
  O  O27  1  0.18725800  0.05504300  0.49522700  1
  O  O28  1  0.00389500  0.71573900  0.29740300  1
  O  O29  1  0.31274200  0.55504300  0.49522700  1
  O  O30  1  0.68725800  0.44495700  0.50477300  1
  O  O31  1  0.99610500  0.28426100  0.70259700  1
  O  O32  1  0.81274200  0.94495700  0.50477300  1
  O  O33  1  0.50389500  0.78426100  0.70259700  1
  O  O34  1  0.56182600  0.26719900  0.86649200  1
  O  O35  1  0.31283900  0.41246100  0.95293500  1
  O  O36  1  0.93817400  0.76719900  0.86649200  1
  O  O37  1  0.18716100  0.91246100  0.95293500  1
