# generated using pymatgen
data_LiMn2(PO4)2
_symmetry_space_group_name_H-M   'P 1'
_cell_length_a   8.59087446
_cell_length_b   8.47626768
_cell_length_c   7.32672207
_cell_angle_alpha   87.41360195
_cell_angle_beta   84.68124624
_cell_angle_gamma   60.26588652
_symmetry_Int_Tables_number   1
_chemical_formula_structural   LiMn2(PO4)2
_chemical_formula_sum   'Li3 Mn6 P6 O24'
_cell_volume   461.28103973
_cell_formula_units_Z   3
loop_
 _symmetry_equiv_pos_site_id
 _symmetry_equiv_pos_as_xyz
  1  'x, y, z'
loop_
 _atom_site_type_symbol
 _atom_site_label
 _atom_site_symmetry_multiplicity
 _atom_site_fract_x
 _atom_site_fract_y
 _atom_site_fract_z
 _atom_site_occupancy
  Li  Li0  1  0.02240800  0.66519500  0.93492000  1
  Li  Li1  1  0.66366200  0.30609900  0.91235600  1
  Li  Li2  1  0.98174300  0.34717900  0.40680100  1
  Mn  Mn3  1  0.02655400  0.98111300  0.25605300  1
  Mn  Mn4  1  0.00971700  0.98572700  0.72096100  1
  Mn  Mn5  1  0.34970900  0.32623600  0.20477500  1
  Mn  Mn6  1  0.32838900  0.32679700  0.78062300  1
  Mn  Mn7  1  0.64558000  0.68722700  0.28728700  1
  Mn  Mn8  1  0.67053600  0.65640400  0.69616700  1
  P  P9  1  0.31985200  0.03601700  0.49830700  1
  P  P10  1  0.03957800  0.64516600  0.50179900  1
  P  P11  1  0.35645900  0.68018300  0.00184300  1
  P  P12  1  0.65272100  0.32617200  0.49045900  1
  P  P13  1  0.95180400  0.35737200  0.01055000  1
  P  P14  1  0.67646600  0.95877400  0.98185900  1
  O  O15  1  0.03079600  0.15397100  0.04606700  1
  O  O16  1  0.09986500  0.41124700  0.97844500  1
  O  O17  1  0.25952100  0.18012900  0.33794000  1
  O  O18  1  0.28841700  0.13284300  0.67878900  1
  O  O19  1  0.14312200  0.58878000  0.67452800  1
  O  O20  1  0.15702400  0.54774000  0.32467000  1
  O  O21  1  0.48166800  0.12269900  0.01260000  1
  O  O22  1  0.14963100  0.79627800  0.99478500  1
  O  O23  1  0.40535100  0.47224400  0.00846200  1
  O  O24  1  0.19615600  0.95298200  0.49876300  1
  O  O25  1  0.57325000  0.29398800  0.32804600  1
  O  O26  1  0.57370500  0.29679100  0.67639000  1
  O  O27  1  0.41871000  0.72967900  0.16690100  1
  O  O28  1  0.44427900  0.70859500  0.81790500  1
  O  O29  1  0.80637300  0.03549100  0.93903900  1
  O  O30  1  0.61170000  0.53400600  0.49333600  1
  O  O31  1  0.86079400  0.20523700  0.48064100  1
  O  O32  1  0.52078400  0.88514000  0.46649700  1
  O  O33  1  0.82509100  0.41419000  0.85260700  1
  O  O34  1  0.83669400  0.45919800  0.19013200  1
  O  O35  1  0.73693400  0.83465100  0.15306400  1
  O  O36  1  0.70586800  0.83537600  0.81783700  1
  O  O37  1  0.88605700  0.59107500  0.52183800  1
  O  O38  1  0.95568500  0.85122700  0.47713300  1
