# generated using pymatgen
data_P4WO12
_symmetry_space_group_name_H-M   'P 1'
_cell_length_a   10.59269626
_cell_length_b   10.59269626
_cell_length_c   5.38011687
_cell_angle_alpha   81.46887580
_cell_angle_beta   81.46887580
_cell_angle_gamma   71.57630043
_symmetry_Int_Tables_number   1
_chemical_formula_structural   P4WO12
_chemical_formula_sum   'P8 W2 O24'
_cell_volume   563.07723345
_cell_formula_units_Z   2
loop_
 _symmetry_equiv_pos_site_id
 _symmetry_equiv_pos_as_xyz
  1  'x, y, z'
loop_
 _atom_site_type_symbol
 _atom_site_label
 _atom_site_symmetry_multiplicity
 _atom_site_fract_x
 _atom_site_fract_y
 _atom_site_fract_z
 _atom_site_occupancy
  P  P0  1  0.78068700  0.36726200  0.81893700  1
  P  P1  1  0.36726200  0.78068700  0.81893700  1
  P  P2  1  0.70225100  0.94583500  0.46117300  1
  P  P3  1  0.94583500  0.70225100  0.46117300  1
  P  P4  1  0.05416500  0.29774900  0.53882700  1
  P  P5  1  0.29774900  0.05416500  0.53882700  1
  P  P6  1  0.21931300  0.63273800  0.18106300  1
  P  P7  1  0.63273800  0.21931300  0.18106300  1
  W  W8  1  0.50000000  0.00000000  0.00000000  1
  W  W9  1  0.00000000  0.50000000  0.00000000  1
  O  O10  1  0.43920100  0.84039500  0.98003700  1
  O  O11  1  0.84039500  0.43920100  0.98003700  1
  O  O12  1  0.23586400  0.76413600  0.00000000  1
  O  O13  1  0.76413600  0.23586400  0.00000000  1
  O  O14  1  0.66726200  0.93084900  0.74660300  1
  O  O15  1  0.93084900  0.66726200  0.74660300  1
  O  O16  1  0.66919200  0.44434700  0.67805800  1
  O  O17  1  0.44434700  0.66919200  0.67805800  1
  O  O18  1  0.28240400  0.91156500  0.63141300  1
  O  O19  1  0.91156500  0.28240400  0.63141300  1
  O  O20  1  0.85363900  0.85363900  0.40781100  1
  O  O21  1  0.38801900  0.09110500  0.68859800  1
  O  O22  1  0.09110500  0.38801900  0.68859800  1
  O  O23  1  0.61198100  0.90889500  0.31140200  1
  O  O24  1  0.90889500  0.61198100  0.31140200  1
  O  O25  1  0.14636100  0.14636100  0.59218900  1
  O  O26  1  0.08843500  0.71759600  0.36858700  1
  O  O27  1  0.71759600  0.08843500  0.36858700  1
  O  O28  1  0.55565300  0.33080800  0.32194200  1
  O  O29  1  0.33080800  0.55565300  0.32194200  1
  O  O30  1  0.06915100  0.33273800  0.25339700  1
  O  O31  1  0.33273800  0.06915100  0.25339700  1
  O  O32  1  0.56079900  0.15960500  0.01996300  1
  O  O33  1  0.15960500  0.56079900  0.01996300  1
