# generated using pymatgen
data_P2WO8
_symmetry_space_group_name_H-M   'P 1'
_cell_length_a   12.98852100
_cell_length_b   4.99142200
_cell_length_c   11.48254762
_cell_angle_alpha   69.94557629
_cell_angle_beta   90.00000000
_cell_angle_gamma   90.00000000
_symmetry_Int_Tables_number   1
_chemical_formula_structural   P2WO8
_chemical_formula_sum   'P8 W4 O32'
_cell_volume   699.29060388
_cell_formula_units_Z   4
loop_
 _symmetry_equiv_pos_site_id
 _symmetry_equiv_pos_as_xyz
  1  'x, y, z'
loop_
 _atom_site_type_symbol
 _atom_site_label
 _atom_site_symmetry_multiplicity
 _atom_site_fract_x
 _atom_site_fract_y
 _atom_site_fract_z
 _atom_site_occupancy
  P  P0  1  0.08696000  0.30736600  0.88380300  1
  P  P1  1  0.75066600  0.40621100  0.79351900  1
  P  P2  1  0.25066600  0.59378900  0.70648100  1
  P  P3  1  0.58696000  0.69263400  0.61619700  1
  P  P4  1  0.41304000  0.30736600  0.38380300  1
  P  P5  1  0.74933400  0.40621100  0.29351900  1
  P  P6  1  0.24933400  0.59378900  0.20648100  1
  P  P7  1  0.91304000  0.69263400  0.11619700  1
  W  W8  1  0.57296800  0.90589000  0.28759100  1
  W  W9  1  0.07296800  0.09411000  0.21240900  1
  W  W10  1  0.92703200  0.90589000  0.78759100  1
  W  W11  1  0.42703200  0.09411000  0.71240900  1
  O  O12  1  0.83821400  0.23916600  0.75207800  1
  O  O13  1  0.30816100  0.35074000  0.67482800  1
  O  O14  1  0.67652300  0.23702300  0.88537700  1
  O  O15  1  0.51624200  0.43273400  0.63746300  1
  O  O16  1  0.55418200  0.92469700  0.13709700  1
  O  O17  1  0.95039300  0.85976000  0.20008200  1
  O  O18  1  0.19988100  0.41742500  0.84137400  1
  O  O19  1  0.69988100  0.58257500  0.65862600  1
  O  O20  1  0.09459600  0.12644700  0.01852500  1
  O  O21  1  0.01624200  0.56726600  0.86253700  1
  O  O22  1  0.17652300  0.76297700  0.61462300  1
  O  O23  1  0.59459600  0.87355300  0.48147500  1
  O  O24  1  0.80816100  0.64926000  0.82517200  1
  O  O25  1  0.33821400  0.76083400  0.74792200  1
  O  O26  1  0.45039300  0.14024000  0.29991800  1
  O  O27  1  0.05418200  0.07530300  0.36290300  1
  O  O28  1  0.94581800  0.92469700  0.63709700  1
  O  O29  1  0.54960700  0.85976000  0.70008200  1
  O  O30  1  0.66178600  0.23916600  0.25207800  1
  O  O31  1  0.19183900  0.35074000  0.17482800  1
  O  O32  1  0.40540400  0.12644700  0.51852500  1
  O  O33  1  0.82347700  0.23702300  0.38537700  1
  O  O34  1  0.98375800  0.43273400  0.13746300  1
  O  O35  1  0.90540400  0.87355300  0.98147500  1
  O  O36  1  0.30011900  0.41742500  0.34137400  1
  O  O37  1  0.80011900  0.58257500  0.15862600  1
  O  O38  1  0.04960700  0.14024000  0.79991800  1
  O  O39  1  0.44581800  0.07530300  0.86290300  1
  O  O40  1  0.48375800  0.56726600  0.36253700  1
  O  O41  1  0.32347700  0.76297700  0.11462300  1
  O  O42  1  0.69183900  0.64926000  0.32517200  1
  O  O43  1  0.16178600  0.76083400  0.24792200  1
