# generated using pymatgen
data_Ba2In2O5
_symmetry_space_group_name_H-M   'P 1'
_cell_length_a   9.66237649
_cell_length_b   9.66237649
_cell_length_c   8.69514300
_cell_angle_alpha   90.00000000
_cell_angle_beta   90.00000000
_cell_angle_gamma   130.01063515
_symmetry_Int_Tables_number   1
_chemical_formula_structural   Ba2In2O5
_chemical_formula_sum   'Ba8 In8 O20'
_cell_volume   621.77169992
_cell_formula_units_Z   4
loop_
 _symmetry_equiv_pos_site_id
 _symmetry_equiv_pos_as_xyz
  1  'x, y, z'
loop_
 _atom_site_type_symbol
 _atom_site_label
 _atom_site_symmetry_multiplicity
 _atom_site_fract_x
 _atom_site_fract_y
 _atom_site_fract_z
 _atom_site_occupancy
  Ba  Ba0  1  0.37232600  0.12767400  0.25268500  1
  Ba  Ba1  1  0.13837400  0.36162600  0.25485800  1
  Ba  Ba2  1  0.86810700  0.63189300  0.25690100  1
  Ba  Ba3  1  0.36810700  0.13189300  0.74309900  1
  Ba  Ba4  1  0.13301900  0.36698100  0.74319000  1
  Ba  Ba5  1  0.63301900  0.86698100  0.25681000  1
  Ba  Ba6  1  0.87232600  0.62767400  0.74731500  1
  Ba  Ba7  1  0.63837400  0.86162600  0.74514200  1
  In  In8  1  0.99543100  0.00456900  0.00000000  1
  In  In9  1  0.75592400  0.24407600  0.00000000  1
  In  In10  1  0.74918300  0.25081700  0.50000000  1
  In  In11  1  0.00244300  0.99755700  0.50000000  1
  In  In12  1  0.25592400  0.74407600  0.00000000  1
  In  In13  1  0.49543100  0.50456900  0.00000000  1
  In  In14  1  0.50244300  0.49755700  0.50000000  1
  In  In15  1  0.24918300  0.75081700  0.50000000  1
  O  O16  1  0.87481300  0.12518700  0.00000000  1
  O  O17  1  0.72799500  0.23766200  0.25519700  1
  O  O18  1  0.50365800  0.49488200  0.24574400  1
  O  O19  1  0.23886100  0.26113900  0.50086800  1
  O  O20  1  0.78130900  0.71869100  0.00002700  1
  O  O21  1  0.96526400  0.53473600  0.01341000  1
  O  O22  1  0.63008500  0.36991500  0.50000000  1
  O  O23  1  0.86711100  0.13288900  0.50000000  1
  O  O24  1  0.37481300  0.62518700  0.00000000  1
  O  O25  1  0.73886100  0.76113900  0.49913200  1
  O  O26  1  0.28130900  0.21869100  0.99997300  1
  O  O27  1  0.00511800  0.99634200  0.24574400  1
  O  O28  1  0.50511800  0.49634200  0.75425600  1
  O  O29  1  0.76233800  0.27200500  0.74480300  1
  O  O30  1  0.26233800  0.77200500  0.25519700  1
  O  O31  1  0.13008500  0.86991500  0.50000000  1
  O  O32  1  0.36711100  0.63288900  0.50000000  1
  O  O33  1  0.22799500  0.73766200  0.74480300  1
  O  O34  1  0.00365800  0.99488200  0.75425600  1
  O  O35  1  0.46526400  0.03473600  0.98659000  1
