# generated using pymatgen
data_Mn3Fe(PO4)4
_symmetry_space_group_name_H-M   'P 1'
_cell_length_a   11.53339526
_cell_length_b   11.53339526
_cell_length_c   4.92890101
_cell_angle_alpha   89.99746045
_cell_angle_beta   89.99746045
_cell_angle_gamma   62.83675195
_symmetry_Int_Tables_number   1
_chemical_formula_structural   Mn3Fe(PO4)4
_chemical_formula_sum   'Mn6 Fe2 P8 O32'
_cell_volume   583.32773061
_cell_formula_units_Z   2
loop_
 _symmetry_equiv_pos_site_id
 _symmetry_equiv_pos_as_xyz
  1  'x, y, z'
loop_
 _atom_site_type_symbol
 _atom_site_label
 _atom_site_symmetry_multiplicity
 _atom_site_fract_x
 _atom_site_fract_y
 _atom_site_fract_z
 _atom_site_occupancy
  Mn  Mn0  1  0.51706600  0.01647000  0.93076600  1
  Mn  Mn1  1  0.01647000  0.51706600  0.93076600  1
  Mn  Mn2  1  0.26545300  0.76794100  0.56880000  1
  Mn  Mn3  1  0.76794100  0.26545300  0.56880000  1
  Mn  Mn4  1  0.73230600  0.73230600  0.42889400  1
  Mn  Mn5  1  0.98168600  0.98168600  0.07379400  1
  Fe  Fe6  1  0.23694600  0.23694600  0.45782700  1
  Fe  Fe7  1  0.48753400  0.48753400  0.04028000  1
  P  P8  1  0.82508900  0.82508900  0.91558500  1
  P  P9  1  0.32647900  0.32647900  0.91186500  1
  P  P10  1  0.57697900  0.57697900  0.58596000  1
  P  P11  1  0.07463300  0.07463300  0.58699100  1
  P  P12  1  0.92647200  0.42294900  0.41684500  1
  P  P13  1  0.42294900  0.92647200  0.41684500  1
  P  P14  1  0.67233900  0.17705100  0.08294900  1
  P  P15  1  0.17705100  0.67233900  0.08294900  1
  O  O16  1  0.90175700  0.90175700  0.85570000  1
  O  O17  1  0.40207900  0.40207900  0.84331500  1
  O  O18  1  0.38777100  0.18990700  0.76407000  1
  O  O19  1  0.88974900  0.68926100  0.77259900  1
  O  O20  1  0.68926100  0.88974900  0.77259900  1
  O  O21  1  0.18990700  0.38777100  0.76407000  1
  O  O22  1  0.68338200  0.18508600  0.77210200  1
  O  O23  1  0.18508600  0.68338200  0.77210200  1
  O  O24  1  0.43403900  0.93454300  0.72774000  1
  O  O25  1  0.93454300  0.43403900  0.72774000  1
  O  O26  1  0.63912000  0.44124800  0.73516600  1
  O  O27  1  0.44124800  0.63912000  0.73516600  1
  O  O28  1  0.13844100  0.93797400  0.72847200  1
  O  O29  1  0.93797400  0.13844100  0.72847200  1
  O  O30  1  0.15062900  0.15062900  0.64814600  1
  O  O31  1  0.65322500  0.65322500  0.65303700  1
  O  O32  1  0.84730700  0.34839000  0.35752600  1
  O  O33  1  0.34839000  0.84730700  0.35752600  1
  O  O34  1  0.55928700  0.86243500  0.27456400  1
  O  O35  1  0.06276000  0.35662200  0.27766800  1
  O  O36  1  0.35662200  0.06276000  0.27766800  1
  O  O37  1  0.86243500  0.55928700  0.27456400  1
  O  O38  1  0.06421500  0.06421500  0.27684000  1
  O  O39  1  0.56617300  0.56617300  0.28052400  1
  O  O40  1  0.81502400  0.81502400  0.22549300  1
  O  O41  1  0.31508200  0.31508200  0.21721100  1
  O  O42  1  0.31379500  0.60683100  0.22153700  1
  O  O43  1  0.80835700  0.11230600  0.22594600  1
  O  O44  1  0.60683100  0.31379500  0.22153700  1
  O  O45  1  0.11230600  0.80835700  0.22594600  1
  O  O46  1  0.59526300  0.10044300  0.14250400  1
  O  O47  1  0.10044300  0.59526300  0.14250400  1
