# generated using pymatgen
data_BaV8O21
_symmetry_space_group_name_H-M   'P 1'
_cell_length_a   7.21521000
_cell_length_b   7.85129956
_cell_length_c   15.17738755
_cell_angle_alpha   90.23336440
_cell_angle_beta   89.97235512
_cell_angle_gamma   103.30319898
_symmetry_Int_Tables_number   1
_chemical_formula_structural   BaV8O21
_chemical_formula_sum   'Ba2 V16 O42'
_cell_volume   836.70205787
_cell_formula_units_Z   2
loop_
 _symmetry_equiv_pos_site_id
 _symmetry_equiv_pos_as_xyz
  1  'x, y, z'
loop_
 _atom_site_type_symbol
 _atom_site_label
 _atom_site_symmetry_multiplicity
 _atom_site_fract_x
 _atom_site_fract_y
 _atom_site_fract_z
 _atom_site_occupancy
  Ba  Ba0  1  0.26133700  0.04595100  0.31192000  1
  Ba  Ba1  1  0.73866300  0.95404900  0.68808000  1
  V  V2  1  0.54596200  0.18395300  0.92558000  1
  V  V3  1  0.04592300  0.18388000  0.92525400  1
  V  V4  1  0.58393300  0.33798000  0.52342200  1
  V  V5  1  0.08514700  0.33852200  0.52394000  1
  V  V6  1  0.84321400  0.37258200  0.07116700  1
  V  V7  1  0.34307200  0.37316200  0.07104200  1
  V  V8  1  0.59345400  0.38418500  0.73187800  1
  V  V9  1  0.09621500  0.38430700  0.73251800  1
  V  V10  1  0.90378500  0.61569300  0.26748200  1
  V  V11  1  0.40654600  0.61581500  0.26812200  1
  V  V12  1  0.65692800  0.62683800  0.92895800  1
  V  V13  1  0.15678600  0.62741800  0.92883300  1
  V  V14  1  0.41606700  0.66202000  0.47657800  1
  V  V15  1  0.91485300  0.66147800  0.47606000  1
  V  V16  1  0.95407700  0.81612000  0.07474600  1
  V  V17  1  0.45403800  0.81604700  0.07442000  1
  O  O18  1  0.00000000  0.00000000  0.00000000  1
  O  O19  1  0.50000000  0.00000000  0.00000000  1
  O  O20  1  0.52883700  0.09647100  0.82630500  1
  O  O21  1  0.01895600  0.09526400  0.82627600  1
  O  O22  1  0.54039000  0.18490700  0.44806700  1
  O  O23  1  0.05255800  0.18566600  0.44835300  1
  O  O24  1  0.80401200  0.21724200  0.14207100  1
  O  O25  1  0.30455100  0.21744300  0.14399100  1
  O  O26  1  0.80892000  0.23605000  0.95246500  1
  O  O27  1  0.30912200  0.23605900  0.95224900  1
  O  O28  1  0.05332100  0.23211800  0.62733000  1
  O  O29  1  0.56297500  0.23230300  0.62698100  1
  O  O30  1  0.33621300  0.33524600  0.74180900  1
  O  O31  1  0.83023000  0.32626100  0.74195200  1
  O  O32  1  0.59600600  0.38727200  0.03282300  1
  O  O33  1  0.09730200  0.38628500  0.03338400  1
  O  O34  1  0.35527400  0.41968300  0.52954200  1
  O  O35  1  0.85444800  0.41915200  0.52823500  1
  O  O36  1  0.85597000  0.42256200  0.31009900  1
  O  O37  1  0.35421400  0.41811500  0.30975000  1
  O  O38  1  0.60857700  0.43199700  0.86068200  1
  O  O39  1  0.10783700  0.43024100  0.86046300  1
  O  O40  1  0.39142300  0.56800300  0.13931800  1
  O  O41  1  0.89216300  0.56975900  0.13953700  1
  O  O42  1  0.14403000  0.57743800  0.68990100  1
  O  O43  1  0.64578600  0.58188500  0.69025000  1
  O  O44  1  0.64472600  0.58031700  0.47045800  1
  O  O45  1  0.14555200  0.58084800  0.47176500  1
  O  O46  1  0.40399400  0.61272800  0.96717700  1
  O  O47  1  0.90269800  0.61371500  0.96661600  1
  O  O48  1  0.66378700  0.66475400  0.25819100  1
  O  O49  1  0.16977000  0.67373900  0.25804800  1
  O  O50  1  0.43702500  0.76769700  0.37301900  1
  O  O51  1  0.94667900  0.76788200  0.37267000  1
  O  O52  1  0.19108000  0.76395000  0.04753500  1
  O  O53  1  0.69087800  0.76394100  0.04775100  1
  O  O54  1  0.19598800  0.78275800  0.85792900  1
  O  O55  1  0.69544900  0.78255700  0.85600900  1
  O  O56  1  0.94744200  0.81433400  0.55164700  1
  O  O57  1  0.45961000  0.81509300  0.55193300  1
  O  O58  1  0.98104400  0.90473600  0.17372400  1
  O  O59  1  0.47116300  0.90352900  0.17369500  1
