# generated using pymatgen
data_Ag3Cl
_symmetry_space_group_name_H-M   'P 1'
_cell_length_a   6.27020268
_cell_length_b   6.27020268
_cell_length_c   4.77309800
_cell_angle_alpha   90.00000000
_cell_angle_beta   90.00000000
_cell_angle_gamma   120.00000714
_symmetry_Int_Tables_number   1
_chemical_formula_structural   Ag3Cl
_chemical_formula_sum   'Ag6 Cl2'
_cell_volume   162.51524612
_cell_formula_units_Z   2
loop_
 _symmetry_equiv_pos_site_id
 _symmetry_equiv_pos_as_xyz
  1  'x, y, z'
loop_
 _atom_site_type_symbol
 _atom_site_label
 _atom_site_symmetry_multiplicity
 _atom_site_fract_x
 _atom_site_fract_y
 _atom_site_fract_z
 _atom_site_occupancy
  Ag  Ag0  1  0.15470700  0.30941300  0.25000000  1
  Ag  Ag1  1  0.69058700  0.84529300  0.25000000  1
  Ag  Ag2  1  0.15470700  0.84529300  0.25000000  1
  Ag  Ag3  1  0.84529300  0.69058700  0.75000000  1
  Ag  Ag4  1  0.30941300  0.15470700  0.75000000  1
  Ag  Ag5  1  0.84529300  0.15470700  0.75000000  1
  Cl  Cl6  1  0.33333300  0.66666700  0.75000000  1
  Cl  Cl7  1  0.66666700  0.33333300  0.25000000  1
