# generated using pymatgen
data_Ca2Bi10O17
_symmetry_space_group_name_H-M   'P 1'
_cell_length_a   7.87911139
_cell_length_b   7.87911139
_cell_length_c   9.87009890
_cell_angle_alpha   80.72101183
_cell_angle_beta   80.72101183
_cell_angle_gamma   61.78110690
_symmetry_Int_Tables_number   1
_chemical_formula_structural   Ca2Bi10O17
_chemical_formula_sum   'Ca2 Bi10 O17'
_cell_volume   530.29773123
_cell_formula_units_Z   1
loop_
 _symmetry_equiv_pos_site_id
 _symmetry_equiv_pos_as_xyz
  1  'x, y, z'
loop_
 _atom_site_type_symbol
 _atom_site_label
 _atom_site_symmetry_multiplicity
 _atom_site_fract_x
 _atom_site_fract_y
 _atom_site_fract_z
 _atom_site_occupancy
  Ca  Ca0  1  0.00456600  0.00456600  0.98339700  1
  Ca  Ca1  1  0.50327200  0.50327200  0.97946900  1
  Bi  Bi2  1  0.87574400  0.87574400  0.68161000  1
  Bi  Bi3  1  0.37749800  0.37749800  0.67934200  1
  Bi  Bi4  1  0.65135400  0.12334800  0.31396500  1
  Bi  Bi5  1  0.12334800  0.65135400  0.31396500  1
  Bi  Bi6  1  0.99857300  0.50046700  0.98266600  1
  Bi  Bi7  1  0.50046700  0.99857300  0.98266600  1
  Bi  Bi8  1  0.90390300  0.36860800  0.67542800  1
  Bi  Bi9  1  0.36860800  0.90390300  0.67542800  1
  Bi  Bi10  1  0.60946600  0.60946600  0.32355600  1
  Bi  Bi11  1  0.14743900  0.14743900  0.31774100  1
  O  O12  1  0.83418400  0.83418400  0.90077100  1
  O  O13  1  0.33875000  0.33875000  0.90200800  1
  O  O14  1  0.38177000  0.38177000  0.29261300  1
  O  O15  1  0.04508500  0.55635200  0.73138600  1
  O  O16  1  0.55635200  0.04508500  0.73138600  1
  O  O17  1  0.68989900  0.14372900  0.10192100  1
  O  O18  1  0.14372900  0.68989900  0.10192100  1
  O  O19  1  0.22206700  0.22206700  0.60454200  1
  O  O20  1  0.76405000  0.76405000  0.34439200  1
  O  O21  1  0.87070000  0.34651000  0.89406400  1
  O  O22  1  0.34651000  0.87070000  0.89406400  1
  O  O23  1  0.54118100  0.54118100  0.72403200  1
  O  O24  1  0.64003600  0.64003600  0.10688600  1
  O  O25  1  0.14985700  0.14985700  0.10651000  1
  O  O26  1  0.02706200  0.02706200  0.72238900  1
  O  O27  1  0.26020100  0.83562800  0.35758400  1
  O  O28  1  0.83562800  0.26020100  0.35758400  1
