# generated using pymatgen
data_Ta2MnO6
_symmetry_space_group_name_H-M   'P 1'
_cell_length_a   5.81902300
_cell_length_b   7.14587100
_cell_length_c   10.85911687
_cell_angle_alpha   75.62342569
_cell_angle_beta   90.00000000
_cell_angle_gamma   90.00000000
_symmetry_Int_Tables_number   1
_chemical_formula_structural   Ta2MnO6
_chemical_formula_sum   'Ta8 Mn4 O24'
_cell_volume   437.40346516
_cell_formula_units_Z   4
loop_
 _symmetry_equiv_pos_site_id
 _symmetry_equiv_pos_as_xyz
  1  'x, y, z'
loop_
 _atom_site_type_symbol
 _atom_site_label
 _atom_site_symmetry_multiplicity
 _atom_site_fract_x
 _atom_site_fract_y
 _atom_site_fract_z
 _atom_site_occupancy
  Ta  Ta0  1  0.33700500  0.83624300  0.57798800  1
  Ta  Ta1  1  0.66299500  0.16375700  0.42201200  1
  Ta  Ta2  1  0.14919400  0.00000000  0.25000000  1
  Ta  Ta3  1  0.32033400  0.50000000  0.25000000  1
  Ta  Ta4  1  0.66299500  0.83624300  0.07798800  1
  Ta  Ta5  1  0.33700500  0.16375700  0.92201200  1
  Ta  Ta6  1  0.85080600  0.00000000  0.75000000  1
  Ta  Ta7  1  0.67966600  0.50000000  0.75000000  1
  Mn  Mn8  1  0.17681400  0.34455700  0.58190700  1
  Mn  Mn9  1  0.82318600  0.65544300  0.41809300  1
  Mn  Mn10  1  0.82318600  0.34455700  0.08190700  1
  Mn  Mn11  1  0.17681400  0.65544300  0.91809300  1
  O  O12  1  0.86673200  0.13834200  0.56565300  1
  O  O13  1  0.39419000  0.11937700  0.54848500  1
  O  O14  1  0.39764700  0.56157800  0.62154300  1
  O  O15  1  0.60581000  0.88062300  0.45151500  1
  O  O16  1  0.87895300  0.51214800  0.61436900  1
  O  O17  1  0.13326800  0.86165800  0.43434700  1
  O  O18  1  0.12104700  0.48785200  0.38563100  1
  O  O19  1  0.88586200  0.83464100  0.21468000  1
  O  O20  1  0.13326800  0.13834200  0.06565300  1
  O  O21  1  0.60235300  0.43842200  0.37845700  1
  O  O22  1  0.37054400  0.80098700  0.21864200  1
  O  O23  1  0.60581000  0.11937700  0.04848500  1
  O  O24  1  0.37054400  0.19901300  0.28135800  1
  O  O25  1  0.60235300  0.56157800  0.12154300  1
  O  O26  1  0.39419000  0.88062300  0.95151500  1
  O  O27  1  0.88586200  0.16535900  0.28532000  1
  O  O28  1  0.12104700  0.51214800  0.11436900  1
  O  O29  1  0.86673200  0.86165800  0.93434700  1
  O  O30  1  0.87895300  0.48785200  0.88563100  1
  O  O31  1  0.11413800  0.83464100  0.71468000  1
  O  O32  1  0.39764700  0.43842200  0.87845700  1
  O  O33  1  0.62945600  0.80098700  0.71864200  1
  O  O34  1  0.62945600  0.19901300  0.78135800  1
  O  O35  1  0.11413800  0.16535900  0.78532000  1
