# generated using pymatgen
data_YZrO3
_symmetry_space_group_name_H-M   'P 1'
_cell_length_a   9.05140348
_cell_length_b   9.05140348
_cell_length_c   10.44788150
_cell_angle_alpha   54.78788823
_cell_angle_beta   54.78788823
_cell_angle_gamma   70.17659657
_symmetry_Int_Tables_number   1
_chemical_formula_structural   YZrO3
_chemical_formula_sum   'Y8 Zr8 O24'
_cell_volume   571.35645494
_cell_formula_units_Z   8
loop_
 _symmetry_equiv_pos_site_id
 _symmetry_equiv_pos_as_xyz
  1  'x, y, z'
loop_
 _atom_site_type_symbol
 _atom_site_label
 _atom_site_symmetry_multiplicity
 _atom_site_fract_x
 _atom_site_fract_y
 _atom_site_fract_z
 _atom_site_occupancy
  Y  Y0  1  0.71811800  0.23874200  0.75772400  1
  Y  Y1  1  0.76125800  0.28188200  0.24227600  1
  Y  Y2  1  0.21970100  0.73910900  0.28259200  1
  Y  Y3  1  0.52718500  0.47281500  0.00000000  1
  Y  Y4  1  0.02383400  0.97616600  0.00000000  1
  Y  Y5  1  0.74059000  0.72179700  0.53929100  1
  Y  Y6  1  0.27820300  0.25941000  0.46070900  1
  Y  Y7  1  0.26089100  0.78029900  0.71740800  1
  Zr  Zr8  1  0.50284600  0.01813000  0.71820700  1
  Zr  Zr9  1  0.77934600  0.76202100  0.99953700  1
  Zr  Zr10  1  0.23797900  0.22065400  0.00046300  1
  Zr  Zr11  1  0.49168000  0.50832000  0.50000000  1
  Zr  Zr12  1  0.99000600  0.00999400  0.50000000  1
  Zr  Zr13  1  0.47896200  0.99389000  0.23940600  1
  Zr  Zr14  1  0.00611000  0.52103800  0.76059400  1
  Zr  Zr15  1  0.98187000  0.49715400  0.28179300  1
  O  O16  1  0.98201500  0.25395500  0.51796300  1
  O  O17  1  0.45349600  0.24748800  0.00979600  1
  O  O18  1  0.74253600  0.51545400  0.27760300  1
  O  O19  1  0.48454600  0.25746400  0.72239700  1
  O  O20  1  0.24287300  0.00688000  0.46578800  1
  O  O21  1  0.99382300  0.23874400  0.99306700  1
  O  O22  1  0.22733800  0.47432500  0.54215000  1
  O  O23  1  0.04132600  0.28294700  0.21700900  1
  O  O24  1  0.71705300  0.95867400  0.78299100  1
  O  O25  1  0.23814100  0.50448200  0.78254500  1
  O  O26  1  0.49551800  0.76185900  0.21745500  1
  O  O27  1  0.74604500  0.01798500  0.48203700  1
  O  O28  1  0.79026400  0.45569500  0.75981200  1
  O  O29  1  0.54430500  0.20973600  0.24018800  1
  O  O30  1  0.28012900  0.97590800  0.00067700  1
  O  O31  1  0.75251200  0.54650400  0.99020400  1
  O  O32  1  0.25323000  0.03455800  0.72488200  1
  O  O33  1  0.96544200  0.74677000  0.27511800  1
  O  O34  1  0.99312000  0.75712700  0.53421200  1
  O  O35  1  0.76125600  0.00617700  0.00693300  1
  O  O36  1  0.26022100  0.51353500  0.21720900  1
  O  O37  1  0.48646500  0.73977900  0.78279100  1
  O  O38  1  0.52567500  0.77266200  0.45785000  1
  O  O39  1  0.02409200  0.71987100  0.99932300  1
