# generated using pymatgen
data_Na10(WO3)13
_symmetry_space_group_name_H-M   'P 1'
_cell_length_a   6.85810400
_cell_length_b   8.83482768
_cell_length_c   14.24040074
_cell_angle_alpha   75.81696353
_cell_angle_beta   80.78243727
_cell_angle_gamma   75.00971939
_symmetry_Int_Tables_number   1
_chemical_formula_structural   Na10(WO3)13
_chemical_formula_sum   'Na10 W13 O39'
_cell_volume   803.73146072
_cell_formula_units_Z   1
loop_
 _symmetry_equiv_pos_site_id
 _symmetry_equiv_pos_as_xyz
  1  'x, y, z'
loop_
 _atom_site_type_symbol
 _atom_site_label
 _atom_site_symmetry_multiplicity
 _atom_site_fract_x
 _atom_site_fract_y
 _atom_site_fract_z
 _atom_site_occupancy
  Na  Na0  1  0.69348300  0.15395900  0.76966400  1
  Na  Na1  1  0.84650500  0.07737200  0.38493600  1
  Na  Na2  1  0.22988500  0.38299800  0.92272300  1
  Na  Na3  1  0.53877000  0.22982800  0.15340100  1
  Na  Na4  1  0.38358300  0.30750300  0.53858100  1
  Na  Na5  1  0.30651700  0.84604100  0.23033600  1
  Na  Na6  1  0.46123000  0.77017200  0.84659900  1
  Na  Na7  1  0.77011500  0.61700200  0.07727700  1
  Na  Na8  1  0.61641700  0.69249700  0.46141900  1
  Na  Na9  1  0.15349500  0.92262800  0.61506400  1
  W  W10  1  0.88769000  0.31152900  0.53892800  1
  W  W11  1  0.57757300  0.45980900  0.30806900  1
  W  W12  1  0.73031700  0.38411100  0.92229000  1
  W  W13  1  0.65605400  0.92284300  0.61549600  1
  W  W14  1  0.50000000  0.00000000  0.00000000  1
  W  W15  1  0.80995000  0.84572000  0.22913800  1
  W  W16  1  0.34394600  0.07715700  0.38450400  1
  W  W17  1  0.19005000  0.15428000  0.77086200  1
  W  W18  1  0.03876600  0.23049400  0.15338600  1
  W  W19  1  0.26968300  0.61588900  0.07771000  1
  W  W20  1  0.96123400  0.76950600  0.84661400  1
  W  W21  1  0.42242700  0.54019100  0.69193100  1
  W  W22  1  0.11231000  0.68847100  0.46107200  1
  O  O23  1  0.72524300  0.38653900  0.42314200  1
  O  O24  1  0.64634600  0.42359200  0.61481400  1
  O  O25  1  0.88608800  0.31105200  0.04097500  1
  O  O26  1  0.79957500  0.34816200  0.23188500  1
  O  O27  1  0.50000000  0.50000000  0.00000000  1
  O  O28  1  0.57070300  0.46163800  0.80721100  1
  O  O29  1  0.00000000  0.50000000  0.50000000  1
  O  O30  1  0.46749800  0.27213000  0.34527100  1
  O  O31  1  0.31147500  0.34378200  0.73103300  1
  O  O32  1  0.15851900  0.42725400  0.11102200  1
  O  O33  1  0.61350900  0.20097500  0.96004100  1
  O  O34  1  0.77054600  0.11763000  0.57645100  1
  O  O35  1  0.91900900  0.03488100  0.19556100  1
  O  O36  1  0.81413500  0.84573900  0.73446800  1
  O  O37  1  0.64912200  0.92047200  0.11729100  1
  O  O38  1  0.50000000  0.00000000  0.50000000  1
  O  O39  1  0.88342500  0.81012600  0.53902000  1
  O  O40  1  0.27616300  0.11536400  0.07567900  1
  O  O41  1  0.95779100  0.27195200  0.84709100  1
  O  O42  1  0.42841400  0.03527800  0.69034900  1
  O  O43  1  0.11657500  0.18987400  0.46098000  1
  O  O44  1  0.57158600  0.96472200  0.30965100  1
  O  O45  1  0.72383700  0.88463600  0.92432100  1
  O  O46  1  0.18586500  0.15426100  0.26553200  1
  O  O47  1  0.35087800  0.07952800  0.88270900  1
  O  O48  1  0.03819500  0.22938100  0.65144000  1
  O  O49  1  0.22945400  0.88237000  0.42354900  1
  O  O50  1  0.38649100  0.79902500  0.03995900  1
  O  O51  1  0.84148100  0.57274600  0.88897800  1
  O  O52  1  0.08099100  0.96511900  0.80443900  1
  O  O53  1  0.53250200  0.72787000  0.65472900  1
  O  O54  1  0.68852500  0.65621800  0.26896700  1
  O  O55  1  0.35365400  0.57640800  0.38518600  1
  O  O56  1  0.20042500  0.65183800  0.76811500  1
  O  O57  1  0.04220900  0.72804800  0.15290900  1
  O  O58  1  0.96180500  0.77061900  0.34856000  1
  O  O59  1  0.27475700  0.61346100  0.57685800  1
  O  O60  1  0.11391200  0.68894800  0.95902500  1
  O  O61  1  0.42929700  0.53836200  0.19278900  1
