# generated using pymatgen
data_AlPb3
_symmetry_space_group_name_H-M   'P 1'
_cell_length_a   6.94153642
_cell_length_b   6.94153642
_cell_length_c   5.59190600
_cell_angle_alpha   90.00000000
_cell_angle_beta   90.00000000
_cell_angle_gamma   120.00000398
_symmetry_Int_Tables_number   1
_chemical_formula_structural   AlPb3
_chemical_formula_sum   'Al2 Pb6'
_cell_volume   233.34671401
_cell_formula_units_Z   2
loop_
 _symmetry_equiv_pos_site_id
 _symmetry_equiv_pos_as_xyz
  1  'x, y, z'
loop_
 _atom_site_type_symbol
 _atom_site_label
 _atom_site_symmetry_multiplicity
 _atom_site_fract_x
 _atom_site_fract_y
 _atom_site_fract_z
 _atom_site_occupancy
  Al  Al0  1  0.66666700  0.33333300  0.25000000  1
  Al  Al1  1  0.33333300  0.66666700  0.75000000  1
  Pb  Pb2  1  0.82883300  0.17116700  0.75000000  1
  Pb  Pb3  1  0.34233400  0.17116700  0.75000000  1
  Pb  Pb4  1  0.82883300  0.65766600  0.75000000  1
  Pb  Pb5  1  0.17116700  0.82883300  0.25000000  1
  Pb  Pb6  1  0.65766600  0.82883300  0.25000000  1
  Pb  Pb7  1  0.17116700  0.34233400  0.25000000  1
