# generated using pymatgen
data_La9ErO15
_symmetry_space_group_name_H-M   'P 1'
_cell_length_a   9.97186319
_cell_length_b   6.79007254
_cell_length_c   7.30229187
_cell_angle_alpha   62.29580633
_cell_angle_beta   108.05814627
_cell_angle_gamma   90.00109407
_symmetry_Int_Tables_number   1
_chemical_formula_structural   La9ErO15
_chemical_formula_sum   'La9 Er1 O15'
_cell_volume   410.04747406
_cell_formula_units_Z   1
loop_
 _symmetry_equiv_pos_site_id
 _symmetry_equiv_pos_as_xyz
  1  'x, y, z'
loop_
 _atom_site_type_symbol
 _atom_site_label
 _atom_site_symmetry_multiplicity
 _atom_site_fract_x
 _atom_site_fract_y
 _atom_site_fract_z
 _atom_site_occupancy
  La  La0  1  0.45127000  0.23065100  0.20486000  1
  La  La1  1  0.84722000  0.03319400  0.59936100  1
  La  La2  1  0.25238500  0.83079100  0.00512100  1
  La  La3  1  0.04698300  0.43312800  0.80037600  1
  La  La4  1  0.35346400  0.37035700  0.59534400  1
  La  La5  1  0.94938500  0.56958200  0.19695100  1
  La  La6  1  0.74934300  0.17005900  0.99228800  1
  La  La7  1  0.15087000  0.96855900  0.39720800  1
  La  La8  1  0.55241800  0.76598600  0.79586000  1
  Er  Er9  1  0.65304500  0.64029400  0.38646100  1
  O  O10  1  0.99884200  0.99996400  0.99904800  1
  O  O11  1  0.66964400  0.99146300  0.32125800  1
  O  O12  1  0.20025300  0.39996700  0.19984900  1
  O  O13  1  0.12827900  0.59108900  0.48281800  1
  O  O14  1  0.47913200  0.60817600  0.13050900  1
  O  O15  1  0.27050600  0.20829000  0.91780200  1
  O  O16  1  0.92817800  0.19240700  0.28371300  1
  O  O17  1  0.60099600  0.20600400  0.60021600  1
  O  O18  1  0.72747100  0.78862300  0.08966200  1
  O  O19  1  0.52881500  0.39003500  0.88872900  1
  O  O20  1  0.07053000  0.80880700  0.71686800  1
  O  O21  1  0.86053900  0.41772000  0.51147700  1
  O  O22  1  0.40425700  0.79437800  0.40397900  1
  O  O23  1  0.33003300  0.98994500  0.68407500  1
  O  O24  1  0.79593900  0.60013100  0.79596600  1
