# generated using pymatgen
data_FePO4
_symmetry_space_group_name_H-M   'P 1'
_cell_length_a   5.23831500
_cell_length_b   10.42315300
_cell_length_c   14.31537900
_cell_angle_alpha   90.00000000
_cell_angle_beta   90.00000000
_cell_angle_gamma   90.00000000
_symmetry_Int_Tables_number   1
_chemical_formula_structural   FePO4
_chemical_formula_sum   'Fe8 P8 O32'
_cell_volume   781.61623920
_cell_formula_units_Z   8
loop_
 _symmetry_equiv_pos_site_id
 _symmetry_equiv_pos_as_xyz
  1  'x, y, z'
loop_
 _atom_site_type_symbol
 _atom_site_label
 _atom_site_symmetry_multiplicity
 _atom_site_fract_x
 _atom_site_fract_y
 _atom_site_fract_z
 _atom_site_occupancy
  Fe  Fe0  1  0.06859500  0.03732300  0.24728500  1
  Fe  Fe1  1  0.55344500  0.22006800  0.99920100  1
  Fe  Fe2  1  0.55344500  0.27993200  0.49920100  1
  Fe  Fe3  1  0.06859500  0.46267700  0.74728500  1
  Fe  Fe4  1  0.93140500  0.53732300  0.24728500  1
  Fe  Fe5  1  0.44655500  0.72006800  0.99920100  1
  Fe  Fe6  1  0.44655500  0.77993200  0.49920100  1
  Fe  Fe7  1  0.93140500  0.96267700  0.74728500  1
  P  P8  1  0.42798300  0.03065500  0.62435300  1
  P  P9  1  0.05366700  0.21204500  0.87196200  1
  P  P10  1  0.05366700  0.28795500  0.37196200  1
  P  P11  1  0.42798300  0.46934500  0.12435300  1
  P  P12  1  0.57201700  0.53065500  0.62435300  1
  P  P13  1  0.94633300  0.71204500  0.87196200  1
  P  P14  1  0.94633300  0.78795500  0.37196200  1
  P  P15  1  0.57201700  0.96934500  0.12435300  1
  O  O16  1  0.85758500  0.99214400  0.14620900  1
  O  O17  1  0.49889300  0.04854100  0.03669800  1
  O  O18  1  0.41119700  0.01075100  0.20989400  1
  O  O19  1  0.00951500  0.06858200  0.85014700  1
  O  O20  1  0.47308100  0.17418900  0.60236800  1
  O  O21  1  0.89106300  0.25095400  0.45837800  1
  O  O22  1  0.98285900  0.20635400  0.28532800  1
  O  O23  1  0.33789700  0.23808100  0.89483400  1
  O  O24  1  0.33789700  0.26191900  0.39483400  1
  O  O25  1  0.98285900  0.29364600  0.78532800  1
  O  O26  1  0.89106300  0.24904600  0.95837800  1
  O  O27  1  0.47308100  0.32581100  0.10236800  1
  O  O28  1  0.00951500  0.43141800  0.35014700  1
  O  O29  1  0.41119700  0.48924900  0.70989400  1
  O  O30  1  0.49889300  0.45145900  0.53669800  1
  O  O31  1  0.85758500  0.50785600  0.64620900  1
  O  O32  1  0.14241500  0.49214400  0.14620900  1
  O  O33  1  0.50110700  0.54854100  0.03669800  1
  O  O34  1  0.58880300  0.51075100  0.20989400  1
  O  O35  1  0.99048500  0.56858200  0.85014700  1
  O  O36  1  0.52691900  0.67418900  0.60236800  1
  O  O37  1  0.10893700  0.75095400  0.45837800  1
  O  O38  1  0.01714100  0.70635400  0.28532800  1
  O  O39  1  0.66210300  0.73808100  0.89483400  1
  O  O40  1  0.66210300  0.76191900  0.39483400  1
  O  O41  1  0.01714100  0.79364600  0.78532800  1
  O  O42  1  0.10893700  0.74904600  0.95837800  1
  O  O43  1  0.52691900  0.82581100  0.10236800  1
  O  O44  1  0.99048500  0.93141800  0.35014700  1
  O  O45  1  0.58880300  0.98924900  0.70989400  1
  O  O46  1  0.50110700  0.95145900  0.53669800  1
  O  O47  1  0.14241500  0.00785600  0.64620900  1
