# generated using pymatgen
data_Ti5PO11
_symmetry_space_group_name_H-M   'P 1'
_cell_length_a   13.98367800
_cell_length_b   7.61551100
_cell_length_c   9.92466574
_cell_angle_alpha   50.31700855
_cell_angle_beta   90.00000000
_cell_angle_gamma   90.00000000
_symmetry_Int_Tables_number   1
_chemical_formula_structural   Ti5PO11
_chemical_formula_sum   'Ti20 P4 O44'
_cell_volume   813.38336413
_cell_formula_units_Z   4
loop_
 _symmetry_equiv_pos_site_id
 _symmetry_equiv_pos_as_xyz
  1  'x, y, z'
loop_
 _atom_site_type_symbol
 _atom_site_label
 _atom_site_symmetry_multiplicity
 _atom_site_fract_x
 _atom_site_fract_y
 _atom_site_fract_z
 _atom_site_occupancy
  Ti  Ti0  1  0.82631500  0.74118300  0.54698500  1
  Ti  Ti1  1  0.33132100  0.47571200  0.58312100  1
  Ti  Ti2  1  0.17303500  0.74522800  0.68939600  1
  Ti  Ti3  1  0.50436200  0.55695600  0.70904800  1
  Ti  Ti4  1  0.65564200  0.97888800  0.65992600  1
  Ti  Ti5  1  0.00436200  0.44304400  0.79095200  1
  Ti  Ti6  1  0.67303500  0.25477200  0.81060400  1
  Ti  Ti7  1  0.15564200  0.02111200  0.84007400  1
  Ti  Ti8  1  0.83132100  0.52428800  0.91687900  1
  Ti  Ti9  1  0.32631500  0.25881700  0.95301500  1
  Ti  Ti10  1  0.67368500  0.74118300  0.04698500  1
  Ti  Ti11  1  0.16867900  0.47571200  0.08312100  1
  Ti  Ti12  1  0.84435800  0.97888800  0.15992600  1
  Ti  Ti13  1  0.32696500  0.74522800  0.18939600  1
  Ti  Ti14  1  0.99563800  0.55695600  0.20904800  1
  Ti  Ti15  1  0.34435800  0.02111200  0.34007400  1
  Ti  Ti16  1  0.49563800  0.44304400  0.29095200  1
  Ti  Ti17  1  0.82696500  0.25477200  0.31060400  1
  Ti  Ti18  1  0.66867900  0.52428800  0.41687900  1
  Ti  Ti19  1  0.17368500  0.25881700  0.45301500  1
  P  P20  1  0.38013900  0.75998900  0.86428400  1
  P  P21  1  0.88013900  0.24001100  0.63571600  1
  P  P22  1  0.11986100  0.75998900  0.36428400  1
  P  P23  1  0.61986100  0.24001100  0.13571600  1
  O  O24  1  0.75601300  0.99259000  0.51313800  1
  O  O25  1  0.40928200  0.73972000  0.52934800  1
  O  O26  1  0.09350300  0.69251000  0.55614700  1
  O  O27  1  0.59426000  0.49945200  0.59631500  1
  O  O28  1  0.91052400  0.46992800  0.60399200  1
  O  O29  1  0.57258200  0.78832500  0.68181400  1
  O  O30  1  0.24085800  0.25789100  0.62574800  1
  O  O31  1  0.75847600  0.26351200  0.62153900  1
  O  O32  1  0.91667200  0.69836200  0.71744400  1
  O  O33  1  0.25658200  0.50190400  0.74661700  1
  O  O34  1  0.10972500  0.99200500  0.66768600  1
  O  O35  1  0.75658200  0.49809600  0.75338300  1
  O  O36  1  0.41667200  0.30163800  0.78255600  1
  O  O37  1  0.07258200  0.21167500  0.81818600  1
  O  O38  1  0.41052400  0.53007200  0.89600800  1
  O  O39  1  0.09426000  0.50054800  0.90368500  1
  O  O40  1  0.60972500  0.00799500  0.83231400  1
  O  O41  1  0.59350300  0.30749000  0.94385300  1
  O  O42  1  0.25847600  0.73648800  0.87846100  1
  O  O43  1  0.74085800  0.74210900  0.87425200  1
  O  O44  1  0.90928200  0.26028000  0.97065200  1
  O  O45  1  0.25601300  0.00741000  0.98686200  1
  O  O46  1  0.74398700  0.99259000  0.01313800  1
  O  O47  1  0.09071800  0.73972000  0.02934800  1
  O  O48  1  0.25914200  0.25789100  0.12574800  1
  O  O49  1  0.74152400  0.26351200  0.12153900  1
  O  O50  1  0.40649700  0.69251000  0.05614700  1
  O  O51  1  0.39027500  0.99200500  0.16768600  1
  O  O52  1  0.90574000  0.49945200  0.09631500  1
  O  O53  1  0.58947600  0.46992800  0.10399200  1
  O  O54  1  0.92741800  0.78832500  0.18181400  1
  O  O55  1  0.58332800  0.69836200  0.21744400  1
  O  O56  1  0.24341800  0.50190400  0.24661700  1
  O  O57  1  0.89027500  0.00799500  0.33231400  1
  O  O58  1  0.74341800  0.49809600  0.25338300  1
  O  O59  1  0.08332800  0.30163800  0.28255600  1
  O  O60  1  0.24152400  0.73648800  0.37846100  1
  O  O61  1  0.75914200  0.74210900  0.37425200  1
  O  O62  1  0.42741800  0.21167500  0.31818600  1
  O  O63  1  0.08947600  0.53007200  0.39600800  1
  O  O64  1  0.40574000  0.50054800  0.40368500  1
  O  O65  1  0.90649700  0.30749000  0.44385300  1
  O  O66  1  0.59071800  0.26028000  0.47065200  1
  O  O67  1  0.24398700  0.00741000  0.48686200  1
