# generated using pymatgen
data_Cr8Ni50Mo15W2
_symmetry_space_group_name_H-M   'P 1'
_cell_length_a   6.30061200
_cell_length_b   11.64078875
_cell_length_c   13.35339972
_cell_angle_alpha   108.30344526
_cell_angle_beta   98.49883233
_cell_angle_gamma   100.44898374
_symmetry_Int_Tables_number   1
_chemical_formula_structural   Cr8Ni50Mo15W2
_chemical_formula_sum   'Cr8 Ni50 Mo15 W2'
_cell_volume   892.16455986
_cell_formula_units_Z   1
loop_
 _symmetry_equiv_pos_site_id
 _symmetry_equiv_pos_as_xyz
  1  'x, y, z'
loop_
 _atom_site_type_symbol
 _atom_site_label
 _atom_site_symmetry_multiplicity
 _atom_site_fract_x
 _atom_site_fract_y
 _atom_site_fract_z
 _atom_site_occupancy
  Cr  Cr0  1  0.87959700  0.16026900  0.48046700  1
  Cr  Cr1  1  0.44087200  0.07957300  0.23942900  1
  Cr  Cr2  1  0.00038600  0.99951700  0.99965900  1
  Cr  Cr3  1  0.35682500  0.52060100  0.56163100  1
  Cr  Cr4  1  0.52009800  0.64009400  0.91988300  1
  Cr  Cr5  1  0.08286000  0.55952100  0.67870600  1
  Cr  Cr6  1  0.96012100  0.72032100  0.15986900  1
  Cr  Cr7  1  0.83934800  0.88001400  0.64032500  1
  Ni  Ni8  1  0.39803800  0.13325800  0.06769800  1
  Ni  Ni9  1  0.56198500  0.25258500  0.42558900  1
  Ni  Ni10  1  0.12169800  0.17235000  0.18599100  1
  Ni  Ni11  1  0.68264600  0.09352500  0.94719700  1
  Ni  Ni12  1  0.27883400  0.29580300  0.54621000  1
  Ni  Ni13  1  0.83846900  0.21326100  0.30781500  1
  Ni  Ni14  1  0.44143700  0.41708100  0.90671500  1
  Ni  Ni15  1  0.00022000  0.33546700  0.66533800  1
  Ni  Ni16  1  0.72058800  0.37506800  0.78667100  1
  Ni  Ni17  1  0.60055600  0.53492800  0.26703500  1
  Ni  Ni18  1  0.16056300  0.45494200  0.02652300  1
  Ni  Ni19  1  0.32046200  0.57443600  0.38835800  1
  Ni  Ni20  1  0.88117300  0.49700700  0.14693700  1
  Ni  Ni21  1  0.47656500  0.69190600  0.74604800  1
  Ni  Ni22  1  0.04361400  0.61344600  0.50859500  1
  Ni  Ni23  1  0.20219400  0.73266900  0.86581500  1
  Ni  Ni24  1  0.76081200  0.65526500  0.62727900  1
  Ni  Ni25  1  0.64195000  0.81289600  0.10572800  1
  Ni  Ni26  1  0.35849500  0.85569900  0.22615800  1
  Ni  Ni27  1  0.91902100  0.77527100  0.98743900  1
  Ni  Ni28  1  0.52257900  0.97397900  0.58700200  1
  Ni  Ni29  1  0.07978400  0.89360200  0.34525100  1
  Ni  Ni30  1  0.23745600  0.01347300  0.70645300  1
  Ni  Ni31  1  0.80157100  0.93643000  0.46811900  1
  Ni  Ni32  1  0.95984300  0.05306900  0.82652800  1
  Ni  Ni33  1  0.79926800  0.26506600  0.13348700  1
  Ni  Ni34  1  0.96257700  0.38564100  0.49517400  1
  Ni  Ni35  1  0.51896000  0.30311000  0.25338500  1
  Ni  Ni36  1  0.07857000  0.22269800  0.01286000  1
  Ni  Ni37  1  0.67978900  0.42707900  0.61349400  1
  Ni  Ni38  1  0.23984400  0.34626300  0.37474400  1
  Ni  Ni39  1  0.83840600  0.54770200  0.97416800  1
  Ni  Ni40  1  0.39741800  0.46778800  0.73279200  1
  Ni  Ni41  1  0.12199000  0.50677500  0.85220900  1
  Ni  Ni42  1  0.99924700  0.66569400  0.33216300  1
  Ni  Ni43  1  0.56189900  0.58672100  0.09225900  1
  Ni  Ni44  1  0.72088400  0.70679400  0.45470300  1
  Ni  Ni45  1  0.27741100  0.62630100  0.21274600  1
  Ni  Ni46  1  0.87983600  0.82678500  0.81345600  1
  Ni  Ni47  1  0.44177700  0.74405900  0.57384000  1
  Ni  Ni48  1  0.60152600  0.86423300  0.93347200  1
  Ni  Ni49  1  0.15620600  0.78397200  0.69292300  1
  Ni  Ni50  1  0.04114900  0.94495600  0.17245400  1
  Ni  Ni51  1  0.75814500  0.98735200  0.29426900  1
  Ni  Ni52  1  0.31795700  0.90716900  0.05423500  1
  Ni  Ni53  1  0.91849800  0.10354000  0.65183300  1
  Ni  Ni54  1  0.48183100  0.02678000  0.41218200  1
  Ni  Ni55  1  0.63904800  0.14500800  0.77296600  1
  Ni  Ni56  1  0.19750100  0.06603000  0.53237400  1
  Ni  Ni57  1  0.35972600  0.18510100  0.89332700  1
  Mo  Mo58  1  0.71922000  0.03961800  0.12035600  1
  Mo  Mo59  1  0.60555900  0.19930200  0.59741300  1
  Mo  Mo60  1  0.76016900  0.32019700  0.95999300  1
  Mo  Mo61  1  0.32000700  0.24037400  0.71969100  1
  Mo  Mo62  1  0.04024700  0.27984900  0.83963800  1
  Mo  Mo63  1  0.48004600  0.35998700  0.07996100  1
  Mo  Mo64  1  0.63413700  0.48100400  0.44324600  1
  Mo  Mo65  1  0.20080400  0.39967900  0.19951000  1
  Mo  Mo66  1  0.80016400  0.60054300  0.80007300  1
  Mo  Mo67  1  0.68482100  0.75969700  0.27777000  1
  Mo  Mo68  1  0.24016400  0.68035900  0.03976400  1
  Mo  Mo69  1  0.40007000  0.80027300  0.40015600  1
  Mo  Mo70  1  0.56442200  0.91855700  0.75774500  1
  Mo  Mo71  1  0.11574400  0.84042900  0.52205200  1
  Mo  Mo72  1  0.27487100  0.96036800  0.88235000  1
  W  W73  1  0.16011300  0.11980200  0.35975000  1
  W  W74  1  0.91931800  0.44002100  0.32055800  1
