# generated using pymatgen
data_Na3ZnPCO7
_symmetry_space_group_name_H-M   'P 1'
_cell_length_a   6.71962300
_cell_length_b   5.18203100
_cell_length_c   8.97027908
_cell_angle_alpha   89.97185121
_cell_angle_beta   90.00000000
_cell_angle_gamma   90.00000000
_symmetry_Int_Tables_number   1
_chemical_formula_structural   Na3ZnPCO7
_chemical_formula_sum   'Na6 Zn2 P2 C2 O14'
_cell_volume   312.35669373
_cell_formula_units_Z   2
loop_
 _symmetry_equiv_pos_site_id
 _symmetry_equiv_pos_as_xyz
  1  'x, y, z'
loop_
 _atom_site_type_symbol
 _atom_site_label
 _atom_site_symmetry_multiplicity
 _atom_site_fract_x
 _atom_site_fract_y
 _atom_site_fract_z
 _atom_site_occupancy
  Na  Na0  1  0.75000000  0.76042300  0.08276400  1
  Na  Na1  1  0.99866500  0.24850100  0.26036900  1
  Na  Na2  1  0.50133500  0.24850100  0.26036900  1
  Na  Na3  1  0.49866500  0.75149900  0.73963100  1
  Na  Na4  1  0.00133500  0.75149900  0.73963100  1
  Na  Na5  1  0.25000000  0.23957700  0.91723600  1
  Zn  Zn6  1  0.25000000  0.78229000  0.36244600  1
  Zn  Zn7  1  0.75000000  0.21771000  0.63755400  1
  P  P8  1  0.75000000  0.70430700  0.41461800  1
  P  P9  1  0.25000000  0.29569300  0.58538200  1
  C  C10  1  0.25000000  0.73584100  0.06328000  1
  C  C11  1  0.75000000  0.26415900  0.93672000  1
  O  O12  1  0.75000000  0.28571900  0.08114500  1
  O  O13  1  0.25000000  0.96244200  0.12550400  1
  O  O14  1  0.25000000  0.53140900  0.14751500  1
  O  O15  1  0.93539100  0.78129400  0.32016400  1
  O  O16  1  0.56460900  0.78129400  0.32016400  1
  O  O17  1  0.75000000  0.40418000  0.43784600  1
  O  O18  1  0.25000000  0.16559600  0.42972500  1
  O  O19  1  0.75000000  0.83440400  0.57027500  1
  O  O20  1  0.25000000  0.59582000  0.56215400  1
  O  O21  1  0.43539100  0.21870600  0.67983600  1
  O  O22  1  0.06460900  0.21870600  0.67983600  1
  O  O23  1  0.75000000  0.46859100  0.85248500  1
  O  O24  1  0.75000000  0.03755800  0.87449600  1
  O  O25  1  0.25000000  0.71428100  0.91885500  1
