# generated using pymatgen
data_Na2TbPCO7
_symmetry_space_group_name_H-M   'P 1'
_cell_length_a   7.01594000
_cell_length_b   5.22828600
_cell_length_c   9.24778472
_cell_angle_alpha   88.95989618
_cell_angle_beta   90.00000000
_cell_angle_gamma   90.00000000
_symmetry_Int_Tables_number   1
_chemical_formula_structural   Na2TbPCO7
_chemical_formula_sum   'Na4 Tb2 P2 C2 O14'
_cell_volume   339.16525160
_cell_formula_units_Z   2
loop_
 _symmetry_equiv_pos_site_id
 _symmetry_equiv_pos_as_xyz
  1  'x, y, z'
loop_
 _atom_site_type_symbol
 _atom_site_label
 _atom_site_symmetry_multiplicity
 _atom_site_fract_x
 _atom_site_fract_y
 _atom_site_fract_z
 _atom_site_occupancy
  Na  Na0  1  0.49846700  0.23014500  0.79060900  1
  Na  Na1  1  0.00153300  0.23014500  0.79060900  1
  Na  Na2  1  0.50153300  0.76985500  0.20939100  1
  Na  Na3  1  0.99846700  0.76985500  0.20939100  1
  Tb  Tb4  1  0.75000000  0.77432100  0.63018900  1
  Tb  Tb5  1  0.25000000  0.22567900  0.36981100  1
  P  P6  1  0.25000000  0.70625900  0.58316600  1
  P  P7  1  0.75000000  0.29374100  0.41683400  1
  C  C8  1  0.75000000  0.73178300  0.92899400  1
  C  C9  1  0.25000000  0.26821700  0.07100600  1
  O  O10  1  0.25000000  0.29934200  0.93505000  1
  O  O11  1  0.75000000  0.95758300  0.86469500  1
  O  O12  1  0.75000000  0.53583000  0.83972400  1
  O  O13  1  0.06929800  0.81729300  0.65394100  1
  O  O14  1  0.43070200  0.81729300  0.65394100  1
  O  O15  1  0.75000000  0.22192200  0.58371900  1
  O  O16  1  0.25000000  0.40808200  0.59400300  1
  O  O17  1  0.75000000  0.59191800  0.40599700  1
  O  O18  1  0.25000000  0.77807800  0.41628100  1
  O  O19  1  0.56929800  0.18270700  0.34605900  1
  O  O20  1  0.93070200  0.18270700  0.34605900  1
  O  O21  1  0.25000000  0.46417000  0.16027600  1
  O  O22  1  0.25000000  0.04241700  0.13530500  1
  O  O23  1  0.75000000  0.70065800  0.06495000  1
