# generated using pymatgen
data_Li4Bi2C4SO16
_symmetry_space_group_name_H-M   'P 1'
_cell_length_a   10.06235580
_cell_length_b   9.64386426
_cell_length_c   10.18860178
_cell_angle_alpha   59.16848577
_cell_angle_beta   58.27445748
_cell_angle_gamma   63.10846594
_symmetry_Int_Tables_number   1
_chemical_formula_structural   Li4Bi2C4SO16
_chemical_formula_sum   'Li8 Bi4 C8 S2 O32'
_cell_volume   699.13754846
_cell_formula_units_Z   2
loop_
 _symmetry_equiv_pos_site_id
 _symmetry_equiv_pos_as_xyz
  1  'x, y, z'
loop_
 _atom_site_type_symbol
 _atom_site_label
 _atom_site_symmetry_multiplicity
 _atom_site_fract_x
 _atom_site_fract_y
 _atom_site_fract_z
 _atom_site_occupancy
  Li  Li0  1  0.93057200  0.33474400  0.30504300  1
  Li  Li1  1  0.06993800  0.05877300  0.66787300  1
  Li  Li2  1  0.70869700  0.66820000  0.05877600  1
  Li  Li3  1  0.35372100  0.29253800  0.94885800  1
  Li  Li4  1  0.91033100  0.94180000  0.30881700  1
  Li  Li5  1  0.92045400  0.30209600  0.93103000  1
  Li  Li6  1  0.06541100  0.70003200  0.68409500  1
  Li  Li7  1  0.30726200  0.93545800  0.92962800  1
  Bi  Bi8  1  0.49510800  0.49476100  0.01578900  1
  Bi  Bi9  1  0.50018900  0.00223300  0.49609400  1
  Bi  Bi10  1  0.50074300  0.51695600  0.49741100  1
  Bi  Bi11  1  0.00680800  0.50178700  0.49309000  1
  C  C12  1  0.69290600  0.29233900  0.25489000  1
  C  C13  1  0.25154900  0.26093700  0.29690400  1
  C  C14  1  0.29600000  0.68248600  0.26515500  1
  C  C15  1  0.25257000  0.27508800  0.68409800  1
  C  C16  1  0.70749700  0.33402000  0.73126700  1
  C  C17  1  0.74646800  0.70613000  0.33348700  1
  C  C18  1  0.32080000  0.70662500  0.75091500  1
  C  C19  1  0.73350500  0.73394000  0.70567300  1
  S  S20  1  0.11480200  0.13578500  0.11476100  1
  S  S21  1  0.87766100  0.87537400  0.86469200  1
  O  O22  1  0.29395700  0.07257100  0.04760300  1
  O  O23  1  0.04764500  0.06841600  0.06280800  1
  O  O24  1  0.07243400  0.32181600  0.04337400  1
  O  O25  1  0.03850500  0.08188800  0.29861100  1
  O  O26  1  0.69566500  0.15057600  0.26502000  1
  O  O27  1  0.37851500  0.25117200  0.16506200  1
  O  O28  1  0.71846000  0.41349600  0.11213500  1
  O  O29  1  0.25144000  0.15641300  0.44363200  1
  O  O30  1  0.12244300  0.38207800  0.28680900  1
  O  O31  1  0.66664900  0.30655200  0.38716700  1
  O  O32  1  0.28889300  0.71159500  0.12918600  1
  O  O33  1  0.36656700  0.13854800  0.69178700  1
  O  O34  1  0.76861400  0.58452900  0.29824500  1
  O  O35  1  0.83984900  0.33021200  0.59839000  1
  O  O36  1  0.43986000  0.63725000  0.26640700  1
  O  O37  1  0.11091600  0.27941700  0.70619300  1
  O  O38  1  0.86219200  0.73200900  0.33390300  1
  O  O39  1  0.57908800  0.32120500  0.74434900  1
  O  O40  1  0.27549900  0.41162800  0.65618200  1
  O  O41  1  0.16748300  0.68803400  0.39646300  1
  O  O42  1  0.59789200  0.79670900  0.38158100  1
  O  O43  1  0.71078200  0.35797500  0.84483500  1
  O  O44  1  0.28782900  0.70922700  0.64350100  1
  O  O45  1  0.86795600  0.61797200  0.70299300  1
  O  O46  1  0.72708000  0.86245600  0.57382500  1
  O  O47  1  0.35228100  0.56465400  0.86638900  1
  O  O48  1  0.32784400  0.84253700  0.74303800  1
  O  O49  1  0.60478600  0.71977400  0.84257400  1
  O  O50  1  0.94390600  0.93571600  0.67759500  1
  O  O51  1  0.93870900  0.68707800  0.92161000  1
  O  O52  1  0.69954100  0.91121900  0.94311400  1
  O  O53  1  0.94373000  0.95317200  0.90373100  1
