# generated using pymatgen
data_LuSeO3
_symmetry_space_group_name_H-M   'P 1'
_cell_length_a   12.42827100
_cell_length_b   5.85703900
_cell_length_c   8.65812752
_cell_angle_alpha   74.18797173
_cell_angle_beta   90.00000000
_cell_angle_gamma   90.00000000
_symmetry_Int_Tables_number   1
_chemical_formula_structural   LuSeO3
_chemical_formula_sum   'Lu8 Se8 O24'
_cell_volume   606.40178718
_cell_formula_units_Z   8
loop_
 _symmetry_equiv_pos_site_id
 _symmetry_equiv_pos_as_xyz
  1  'x, y, z'
loop_
 _atom_site_type_symbol
 _atom_site_label
 _atom_site_symmetry_multiplicity
 _atom_site_fract_x
 _atom_site_fract_y
 _atom_site_fract_z
 _atom_site_occupancy
  Lu  Lu0  1  0.55936300  0.75758000  0.91527800  1
  Lu  Lu1  1  0.94063700  0.75758000  0.41527800  1
  Lu  Lu2  1  0.24557900  0.63625300  0.85597400  1
  Lu  Lu3  1  0.25442100  0.63625300  0.35597400  1
  Lu  Lu4  1  0.74557900  0.36374700  0.64402600  1
  Lu  Lu5  1  0.75442100  0.36374700  0.14402600  1
  Lu  Lu6  1  0.05936300  0.24242000  0.58472200  1
  Lu  Lu7  1  0.44063700  0.24242000  0.08472200  1
  Se  Se8  1  0.83899400  0.95310100  0.00374300  1
  Se  Se9  1  0.66100600  0.95310100  0.50374300  1
  Se  Se10  1  0.98470300  0.62936800  0.82708600  1
  Se  Se11  1  0.51529700  0.62936800  0.32708600  1
  Se  Se12  1  0.48470300  0.37063200  0.67291400  1
  Se  Se13  1  0.01529700  0.37063200  0.17291400  1
  Se  Se14  1  0.33899400  0.04689900  0.49625700  1
  Se  Se15  1  0.16100600  0.04689900  0.99625700  1
  O  O16  1  0.17173800  0.01038200  0.80505400  1
  O  O17  1  0.32826200  0.01038200  0.30505400  1
  O  O18  1  0.98170600  0.87166900  0.64571100  1
  O  O19  1  0.27118900  0.77931300  0.58709200  1
  O  O20  1  0.76081700  0.74597500  0.50347200  1
  O  O21  1  0.51829400  0.87166900  0.14571100  1
  O  O22  1  0.40655800  0.59667200  0.91898700  1
  O  O23  1  0.22881100  0.77931300  0.08709200  1
  O  O24  1  0.73918300  0.74597500  0.00347200  1
  O  O25  1  0.59515900  0.54993300  0.71568000  1
  O  O26  1  0.09344200  0.59667200  0.41898700  1
  O  O27  1  0.09515900  0.45006700  0.78432000  1
  O  O28  1  0.90484100  0.54993300  0.21568000  1
  O  O29  1  0.90655800  0.40332800  0.58101300  1
  O  O30  1  0.40484100  0.45006700  0.28432000  1
  O  O31  1  0.26081700  0.25402500  0.99652800  1
  O  O32  1  0.77118900  0.22068700  0.91290800  1
  O  O33  1  0.59344200  0.40332800  0.08101300  1
  O  O34  1  0.48170600  0.12833100  0.85428900  1
  O  O35  1  0.23918300  0.25402500  0.49652800  1
  O  O36  1  0.72881100  0.22068700  0.41290800  1
  O  O37  1  0.01829400  0.12833100  0.35428900  1
  O  O38  1  0.67173800  0.98961800  0.69494600  1
  O  O39  1  0.82826200  0.98961800  0.19494600  1
