# generated using pymatgen
data_VFe(P2O7)2
_symmetry_space_group_name_H-M   'P 1'
_cell_length_a   4.88804262
_cell_length_b   16.23593761
_cell_length_c   6.99073807
_cell_angle_alpha   90.52619250
_cell_angle_beta   105.40360287
_cell_angle_gamma   89.24529982
_symmetry_Int_Tables_number   1
_chemical_formula_structural   VFe(P2O7)2
_chemical_formula_sum   'V2 Fe2 P8 O28'
_cell_volume   534.81385269
_cell_formula_units_Z   2
loop_
 _symmetry_equiv_pos_site_id
 _symmetry_equiv_pos_as_xyz
  1  'x, y, z'
loop_
 _atom_site_type_symbol
 _atom_site_label
 _atom_site_symmetry_multiplicity
 _atom_site_fract_x
 _atom_site_fract_y
 _atom_site_fract_z
 _atom_site_occupancy
  V  V0  1  0.21174800  0.75278800  0.72743100  1
  V  V1  1  0.21139400  0.25282600  0.72722500  1
  Fe  Fe2  1  0.78502100  0.50374900  0.26749200  1
  Fe  Fe3  1  0.78496400  0.00368700  0.26771700  1
  P  P4  1  0.38356200  0.09301000  0.50515500  1
  P  P5  1  0.38350800  0.59300000  0.50514700  1
  P  P6  1  0.25056900  0.38446200  0.10911800  1
  P  P7  1  0.25061200  0.88445700  0.10921200  1
  P  P8  1  0.75934700  0.13567000  0.89075600  1
  P  P9  1  0.75935700  0.63564500  0.89070700  1
  P  P10  1  0.61161600  0.34677500  0.49351200  1
  P  P11  1  0.61183600  0.84679300  0.49368700  1
  O  O12  1  0.01426800  0.16813700  0.82452500  1
  O  O13  1  0.01412000  0.66815500  0.82443200  1
  O  O14  1  0.17223900  0.32657800  0.92255400  1
  O  O15  1  0.17234900  0.82653500  0.92264800  1
  O  O16  1  0.14463100  0.03255900  0.46966400  1
  O  O17  1  0.14451700  0.53257500  0.46964600  1
  O  O18  1  0.27043800  0.18272700  0.53031400  1
  O  O19  1  0.27054000  0.68273600  0.53043800  1
  O  O20  1  0.41433500  0.33616100  0.63208600  1
  O  O21  1  0.41466100  0.83616300  0.63238100  1
  O  O22  1  0.55381800  0.20924100  0.89899400  1
  O  O23  1  0.55370100  0.70917100  0.89915800  1
  O  O24  1  0.58643700  0.07361500  0.72480200  1
  O  O25  1  0.58638900  0.57356100  0.72480500  1
  O  O26  1  0.43495000  0.32009300  0.27424200  1
  O  O27  1  0.43496300  0.82011500  0.27442900  1
  O  O28  1  0.43584000  0.45477500  0.08123700  1
  O  O29  1  0.43590800  0.95474800  0.08133200  1
  O  O30  1  0.56170000  0.09432300  0.35926800  1
  O  O31  1  0.56164600  0.59432000  0.35922500  1
  O  O32  1  0.70791600  0.43420600  0.49042500  1
  O  O33  1  0.70793300  0.93422400  0.49058100  1
  O  O34  1  0.86013200  0.28421400  0.55042100  1
  O  O35  1  0.86048300  0.78426000  0.55044700  1
  O  O36  1  0.85574400  0.08766200  0.07886200  1
  O  O37  1  0.85589300  0.58763000  0.07878700  1
  O  O38  1  0.98550700  0.40844000  0.16840200  1
  O  O39  1  0.98551100  0.90844800  0.16844300  1
