# generated using pymatgen
data_Ba2V2O5
_symmetry_space_group_name_H-M   'P 1'
_cell_length_a   8.36476300
_cell_length_b   4.03475100
_cell_length_c   4.03476300
_cell_angle_alpha   89.99985799
_cell_angle_beta   90.00016740
_cell_angle_gamma   90.00003475
_symmetry_Int_Tables_number   1
_chemical_formula_structural   Ba2V2O5
_chemical_formula_sum   'Ba2 V2 O5'
_cell_volume   136.17218558
_cell_formula_units_Z   1
loop_
 _symmetry_equiv_pos_site_id
 _symmetry_equiv_pos_as_xyz
  1  'x, y, z'
loop_
 _atom_site_type_symbol
 _atom_site_label
 _atom_site_symmetry_multiplicity
 _atom_site_fract_x
 _atom_site_fract_y
 _atom_site_fract_z
 _atom_site_occupancy
  Ba  Ba0  1  0.99999900  0.99999900  0.00000000  1
  Ba  Ba1  1  0.50000400  0.99999900  0.00000000  1
  V  V2  1  0.26085000  0.50000800  0.49999400  1
  V  V3  1  0.73916300  0.49999900  0.50000400  1
  O  O4  1  0.22747400  0.50000000  0.00000600  1
  O  O5  1  0.77252900  0.50000100  0.00000000  1
  O  O6  1  0.49998100  0.50000000  0.49999900  1
  O  O7  1  0.22747300  0.00000000  0.50000100  1
  O  O8  1  0.77252900  0.99999800  0.50000200  1
