# generated using pymatgen
data_NaVPCO7
_symmetry_space_group_name_H-M   'P 1'
_cell_length_a   6.30323400
_cell_length_b   10.66919428
_cell_length_c   10.53054239
_cell_angle_alpha   117.91773969
_cell_angle_beta   90.00141554
_cell_angle_gamma   90.00053688
_symmetry_Int_Tables_number   1
_chemical_formula_structural   NaVPCO7
_chemical_formula_sum   'Na4 V4 P4 C4 O28'
_cell_volume   625.76559257
_cell_formula_units_Z   4
loop_
 _symmetry_equiv_pos_site_id
 _symmetry_equiv_pos_as_xyz
  1  'x, y, z'
loop_
 _atom_site_type_symbol
 _atom_site_label
 _atom_site_symmetry_multiplicity
 _atom_site_fract_x
 _atom_site_fract_y
 _atom_site_fract_z
 _atom_site_occupancy
  Na  Na0  1  0.46932300  0.22688000  0.22352200  1
  Na  Na1  1  0.46931400  0.72692200  0.22360800  1
  Na  Na2  1  0.96930800  0.77310100  0.77650800  1
  Na  Na3  1  0.96934300  0.27310900  0.77641700  1
  V  V4  1  0.77179400  0.06262600  0.33847100  1
  V  V5  1  0.27189400  0.93745500  0.66152200  1
  V  V6  1  0.77171500  0.56260300  0.33846300  1
  V  V7  1  0.27178100  0.43736200  0.66154300  1
  P  P8  1  0.26354200  0.58162200  0.44281000  1
  P  P9  1  0.26361300  0.08163000  0.44280400  1
  P  P10  1  0.76350900  0.41838300  0.55721500  1
  P  P11  1  0.76358000  0.91836100  0.55719200  1
  C  C12  1  0.73955400  0.40148900  0.08574700  1
  C  C13  1  0.73960000  0.90152200  0.08582100  1
  C  C14  1  0.23956800  0.59852000  0.91425100  1
  C  C15  1  0.23962800  0.09846600  0.91418300  1
  O  O16  1  0.24186600  0.18120200  0.04317700  1
  O  O17  1  0.24185200  0.68117500  0.04321500  1
  O  O18  1  0.74187700  0.81882400  0.95684700  1
  O  O19  1  0.74186500  0.31880700  0.95676800  1
  O  O20  1  0.74354600  0.54381900  0.14549200  1
  O  O21  1  0.74362600  0.04385500  0.14553100  1
  O  O22  1  0.24357100  0.45617100  0.85450700  1
  O  O23  1  0.24366800  0.95616900  0.85447900  1
  O  O24  1  0.73528900  0.36476900  0.19177300  1
  O  O25  1  0.73534800  0.86483300  0.19185800  1
  O  O26  1  0.23530900  0.63521800  0.80822100  1
  O  O27  1  0.23538100  0.13520100  0.80815700  1
  O  O28  1  0.06373200  0.56426600  0.34578800  1
  O  O29  1  0.06389100  0.06425500  0.34578800  1
  O  O30  1  0.56382900  0.43571400  0.65420600  1
  O  O31  1  0.56393400  0.93572700  0.65421600  1
  O  O32  1  0.45359700  0.57210100  0.34675100  1
  O  O33  1  0.45370000  0.07214600  0.34680100  1
  O  O34  1  0.95364500  0.42786900  0.65321400  1
  O  O35  1  0.95377900  0.92783100  0.65317000  1
  O  O36  1  0.75070500  0.27453800  0.42145700  1
  O  O37  1  0.75068800  0.77453500  0.42141700  1
  O  O38  1  0.25074300  0.72547100  0.57853900  1
  O  O39  1  0.25067600  0.22545500  0.57855800  1
  O  O40  1  0.26449500  0.45743300  0.47955300  1
  O  O41  1  0.26460800  0.95747200  0.47959400  1
  O  O42  1  0.76448900  0.54255500  0.52042700  1
  O  O43  1  0.76462100  0.04253600  0.52041900  1
