# generated using pymatgen
data_NaSnPCO7
_symmetry_space_group_name_H-M   'P 1'
_cell_length_a   6.61418500
_cell_length_b   5.32021400
_cell_length_c   9.33708817
_cell_angle_alpha   87.60279247
_cell_angle_beta   90.00000000
_cell_angle_gamma   90.00000000
_symmetry_Int_Tables_number   1
_chemical_formula_structural   NaSnPCO7
_chemical_formula_sum   'Na2 Sn2 P2 C2 O14'
_cell_volume   328.27413744
_cell_formula_units_Z   2
loop_
 _symmetry_equiv_pos_site_id
 _symmetry_equiv_pos_as_xyz
  1  'x, y, z'
loop_
 _atom_site_type_symbol
 _atom_site_label
 _atom_site_symmetry_multiplicity
 _atom_site_fract_x
 _atom_site_fract_y
 _atom_site_fract_z
 _atom_site_occupancy
  Na  Na0  1  0.52018500  0.76092700  0.78417800  1
  Na  Na1  1  0.02018500  0.23907300  0.21582200  1
  Sn  Sn2  1  0.23558900  0.21790700  0.65753900  1
  Sn  Sn3  1  0.73558900  0.78209300  0.34246100  1
  P  P4  1  0.74308300  0.27452600  0.56767600  1
  P  P5  1  0.24308300  0.72547400  0.43232400  1
  C  C6  1  0.25884500  0.27552900  0.92447600  1
  C  C7  1  0.75884500  0.72447100  0.07552400  1
  O  O8  1  0.75432800  0.69225300  0.94580300  1
  O  O9  1  0.25646300  0.05079300  0.86404400  1
  O  O10  1  0.26357500  0.46694800  0.82324800  1
  O  O11  1  0.92608600  0.21218600  0.66427600  1
  O  O12  1  0.55613100  0.19358100  0.65661400  1
  O  O13  1  0.25556500  0.86179300  0.57609600  1
  O  O14  1  0.73230000  0.56473700  0.53122000  1
  O  O15  1  0.23230000  0.43526300  0.46878000  1
  O  O16  1  0.75556500  0.13820700  0.42390400  1
  O  O17  1  0.05613100  0.80641900  0.34338600  1
  O  O18  1  0.42608600  0.78781400  0.33572400  1
  O  O19  1  0.76357500  0.53305200  0.17675200  1
  O  O20  1  0.75646300  0.94920700  0.13595600  1
  O  O21  1  0.25432800  0.30774700  0.05419700  1
