# generated using pymatgen
data_Ni17(AsO4)12
_symmetry_space_group_name_H-M   'P 1'
_cell_length_a   10.47168448
_cell_length_b   10.47168448
_cell_length_c   9.74996474
_cell_angle_alpha   89.78309588
_cell_angle_beta   89.78309588
_cell_angle_gamma   124.54395792
_symmetry_Int_Tables_number   1
_chemical_formula_structural   Ni17(AsO4)12
_chemical_formula_sum   'Ni17 As12 O48'
_cell_volume   880.61543569
_cell_formula_units_Z   1
loop_
 _symmetry_equiv_pos_site_id
 _symmetry_equiv_pos_as_xyz
  1  'x, y, z'
loop_
 _atom_site_type_symbol
 _atom_site_label
 _atom_site_symmetry_multiplicity
 _atom_site_fract_x
 _atom_site_fract_y
 _atom_site_fract_z
 _atom_site_occupancy
  Ni  Ni0  1  0.22803200  0.27390100  0.75093900  1
  Ni  Ni1  1  0.37664500  0.62815900  0.75287500  1
  Ni  Ni2  1  0.37225300  0.12244900  0.99737100  1
  Ni  Ni3  1  0.22661000  0.77339000  0.50000000  1
  Ni  Ni4  1  0.72717100  0.27282900  0.00000000  1
  Ni  Ni5  1  0.27222800  0.72777200  0.00000000  1
  Ni  Ni6  1  0.77715600  0.72891300  0.75132900  1
  Ni  Ni7  1  0.27108700  0.22284400  0.24867100  1
  Ni  Ni8  1  0.37602100  0.12514600  0.50175000  1
  Ni  Ni9  1  0.87755100  0.62774700  0.00262900  1
  Ni  Ni10  1  0.37184100  0.62335500  0.24712500  1
  Ni  Ni11  1  0.48816100  0.51183900  0.50000000  1
  Ni  Ni12  1  0.72609900  0.77196800  0.24906100  1
  Ni  Ni13  1  0.87599600  0.12566600  0.24610700  1
  Ni  Ni14  1  0.87485400  0.62397900  0.49825000  1
  Ni  Ni15  1  0.77308300  0.22691700  0.50000000  1
  Ni  Ni16  1  0.87433400  0.12400400  0.75389300  1
  As  As17  1  0.17435500  0.92359600  0.79720200  1
  As  As18  1  0.07640400  0.82564500  0.20279800  1
  As  As19  1  0.07809500  0.32877400  0.04768200  1
  As  As20  1  0.50140600  0.49859400  0.00000000  1
  As  As21  1  0.99998700  0.50075000  0.75111200  1
  As  As22  1  0.49925000  0.00001300  0.24888800  1
  As  As23  1  0.16962100  0.42330400  0.45119500  1
  As  As24  1  0.67122600  0.92190500  0.95231800  1
  As  As25  1  0.67075300  0.41831600  0.29936100  1
  As  As26  1  0.58168400  0.32924700  0.70063900  1
  As  As27  1  0.57669600  0.83037900  0.54880500  1
  As  As28  1  0.99854800  0.00145200  0.50000000  1
  O  O29  1  0.08169700  0.69737300  0.09354700  1
  O  O30  1  0.21928600  0.10176800  0.85511300  1
  O  O31  1  0.30262700  0.91830300  0.90645300  1
  O  O32  1  0.06264800  0.26803000  0.88138000  1
  O  O33  1  0.17818700  0.59059300  0.82776400  1
  O  O34  1  0.06023500  0.76762800  0.37038500  1
  O  O35  1  0.55884600  0.27000200  0.86759500  1
  O  O36  1  0.22120400  0.01467800  0.16407500  1
  O  O37  1  0.38216800  0.46773100  0.86437800  1
  O  O38  1  0.08509300  0.20276900  0.15963500  1
  O  O39  1  0.03290100  0.61980700  0.61415200  1
  O  O40  1  0.40758800  0.31761300  0.07633100  1
  O  O41  1  0.53303400  0.12441200  0.11546800  1
  O  O42  1  0.22370600  0.51734300  0.08504400  1
  O  O43  1  0.48265700  0.77629400  0.91495600  1
  O  O44  1  0.38019300  0.96709900  0.38584800  1
  O  O45  1  0.17890200  0.09280500  0.42456900  1
  O  O46  1  0.87558800  0.46696600  0.88453200  1
  O  O47  1  0.68238700  0.59241200  0.92366900  1
  O  O48  1  0.79723100  0.91490700  0.84036500  1
  O  O49  1  0.31084100  0.41664900  0.35450200  1
  O  O50  1  0.53226900  0.61783200  0.13562200  1
  O  O51  1  0.03281700  0.12258200  0.63641600  1
  O  O52  1  0.23237200  0.93976500  0.62961500  1
  O  O53  1  0.98532200  0.77879600  0.83592500  1
  O  O54  1  0.48037200  0.27588100  0.33818200  1
  O  O55  1  0.72999800  0.44115400  0.13240500  1
  O  O56  1  0.40940700  0.82181300  0.17223600  1
  O  O57  1  0.21134200  0.59689500  0.38937000  1
  O  O58  1  0.71353500  0.09857400  0.89050700  1
  O  O59  1  0.25430300  0.44578800  0.61134800  1
  O  O60  1  0.73197000  0.93735200  0.11862000  1
  O  O61  1  0.41644600  0.31231100  0.62821800  1
  O  O62  1  0.58341700  0.19766200  0.59601300  1
  O  O63  1  0.89823200  0.78071400  0.14488700  1
  O  O64  1  0.68768900  0.58355400  0.37178200  1
  O  O65  1  0.80233800  0.41658300  0.40398700  1
  O  O66  1  0.55421200  0.74569700  0.38865200  1
  O  O67  1  0.90142600  0.28646500  0.10949300  1
  O  O68  1  0.40310500  0.78865800  0.61063000  1
  O  O69  1  0.67779500  0.08493100  0.32726500  1
  O  O70  1  0.72411900  0.51962800  0.66181800  1
  O  O71  1  0.87741800  0.96718300  0.36358400  1
  O  O72  1  0.58335100  0.68915900  0.64549800  1
  O  O73  1  0.90719500  0.82109800  0.57543100  1
  O  O74  1  0.72557800  0.01526700  0.58500900  1
  O  O75  1  0.98473300  0.27442200  0.41499100  1
  O  O76  1  0.91506900  0.32220500  0.67273500  1
