# generated using pymatgen
data_Na2HoPCO7
_symmetry_space_group_name_H-M   'P 1'
_cell_length_a   6.97827600
_cell_length_b   5.24057800
_cell_length_c   9.22181172
_cell_angle_alpha   89.04583929
_cell_angle_beta   90.00000000
_cell_angle_gamma   90.00000000
_symmetry_Int_Tables_number   1
_chemical_formula_structural   Na2HoPCO7
_chemical_formula_sum   'Na4 Ho2 P2 C2 O14'
_cell_volume   337.19673300
_cell_formula_units_Z   2
loop_
 _symmetry_equiv_pos_site_id
 _symmetry_equiv_pos_as_xyz
  1  'x, y, z'
loop_
 _atom_site_type_symbol
 _atom_site_label
 _atom_site_symmetry_multiplicity
 _atom_site_fract_x
 _atom_site_fract_y
 _atom_site_fract_z
 _atom_site_occupancy
  Na  Na0  1  0.49853900  0.23211900  0.78791300  1
  Na  Na1  1  0.00146100  0.23211900  0.78791300  1
  Na  Na2  1  0.50146100  0.76788100  0.21208700  1
  Na  Na3  1  0.99853900  0.76788100  0.21208700  1
  Ho  Ho4  1  0.75000000  0.77628700  0.63345400  1
  Ho  Ho5  1  0.25000000  0.22371300  0.36654600  1
  P  P6  1  0.25000000  0.70530500  0.58233600  1
  P  P7  1  0.75000000  0.29469500  0.41766400  1
  C  C8  1  0.75000000  0.73222700  0.93002400  1
  C  C9  1  0.25000000  0.26777300  0.06997600  1
  O  O10  1  0.25000000  0.29904000  0.93446800  1
  O  O11  1  0.75000000  0.95712800  0.86521300  1
  O  O12  1  0.75000000  0.53616900  0.83954500  1
  O  O13  1  0.06781100  0.81012200  0.65595700  1
  O  O14  1  0.43218900  0.81012200  0.65595700  1
  O  O15  1  0.75000000  0.21071500  0.58288700  1
  O  O16  1  0.25000000  0.40747400  0.58696900  1
  O  O17  1  0.75000000  0.59252600  0.41303100  1
  O  O18  1  0.25000000  0.78928500  0.41711300  1
  O  O19  1  0.56781100  0.18987800  0.34404300  1
  O  O20  1  0.93218900  0.18987800  0.34404300  1
  O  O21  1  0.25000000  0.46383100  0.16045500  1
  O  O22  1  0.25000000  0.04287200  0.13478700  1
  O  O23  1  0.75000000  0.70096000  0.06553200  1
