# generated using pymatgen
data_LaAlO3
_symmetry_space_group_name_H-M   'P 1'
_cell_length_a   7.15342893
_cell_length_b   7.15342893
_cell_length_c   10.24705000
_cell_angle_alpha   90.00000000
_cell_angle_beta   90.00000000
_cell_angle_gamma   120.10545206
_symmetry_Int_Tables_number   1
_chemical_formula_structural   LaAlO3
_chemical_formula_sum   'La6 Al6 O18'
_cell_volume   453.62351102
_cell_formula_units_Z   6
loop_
 _symmetry_equiv_pos_site_id
 _symmetry_equiv_pos_as_xyz
  1  'x, y, z'
loop_
 _atom_site_type_symbol
 _atom_site_label
 _atom_site_symmetry_multiplicity
 _atom_site_fract_x
 _atom_site_fract_y
 _atom_site_fract_z
 _atom_site_occupancy
  La  La0  1  0.82857700  0.17142300  0.50000000  1
  La  La1  1  0.82857700  0.17142300  0.00000000  1
  La  La2  1  0.17142300  0.82857700  0.50000000  1
  La  La3  1  0.17142300  0.82857700  0.00000000  1
  La  La4  1  0.50000000  0.50000000  0.00000000  1
  La  La5  1  0.50000000  0.50000000  0.50000000  1
  Al  Al6  1  0.57641400  0.83436400  0.25000000  1
  Al  Al7  1  0.16563600  0.42358600  0.75000000  1
  Al  Al8  1  0.83436400  0.57641400  0.25000000  1
  Al  Al9  1  0.42358600  0.16563600  0.75000000  1
  Al  Al10  1  0.90559300  0.90559300  0.75000000  1
  Al  Al11  1  0.09440700  0.09440700  0.25000000  1
  O  O12  1  0.92471300  0.16498500  0.75000000  1
  O  O13  1  0.83501500  0.07528700  0.25000000  1
  O  O14  1  0.47897900  0.83355800  0.40719000  1
  O  O15  1  0.47897900  0.83355800  0.09281000  1
  O  O16  1  0.16644200  0.52102100  0.59281000  1
  O  O17  1  0.16644200  0.52102100  0.90719000  1
  O  O18  1  0.83355800  0.47897900  0.40719000  1
  O  O19  1  0.83355800  0.47897900  0.09281000  1
  O  O20  1  0.52102100  0.16644200  0.59281000  1
  O  O21  1  0.52102100  0.16644200  0.90719000  1
  O  O22  1  0.07528700  0.83501500  0.25000000  1
  O  O23  1  0.16498500  0.92471300  0.75000000  1
  O  O24  1  0.40629400  0.40629400  0.75000000  1
  O  O25  1  0.81153900  0.81153900  0.59022700  1
  O  O26  1  0.81153900  0.81153900  0.90977300  1
  O  O27  1  0.18846100  0.18846100  0.09022700  1
  O  O28  1  0.18846100  0.18846100  0.40977300  1
  O  O29  1  0.59370600  0.59370600  0.25000000  1
