# generated using pymatgen
data_Na4Sb2C4SO16
_symmetry_space_group_name_H-M   'P 1'
_cell_length_a   10.34452925
_cell_length_b   10.10870113
_cell_length_c   10.18593992
_cell_angle_alpha   118.74844471
_cell_angle_beta   59.50821373
_cell_angle_gamma   119.29980799
_symmetry_Int_Tables_number   1
_chemical_formula_structural   Na4Sb2C4SO16
_chemical_formula_sum   'Na8 Sb4 C8 S2 O32'
_cell_volume   761.09204326
_cell_formula_units_Z   2
loop_
 _symmetry_equiv_pos_site_id
 _symmetry_equiv_pos_as_xyz
  1  'x, y, z'
loop_
 _atom_site_type_symbol
 _atom_site_label
 _atom_site_symmetry_multiplicity
 _atom_site_fract_x
 _atom_site_fract_y
 _atom_site_fract_z
 _atom_site_occupancy
  Na  Na0  1  0.91909300  0.16439800  0.32113100  1
  Na  Na1  1  0.91678100  0.16162500  0.92485500  1
  Na  Na2  1  0.92036400  0.57488800  0.32796700  1
  Na  Na3  1  0.66853000  0.43020500  0.07830800  1
  Na  Na4  1  0.33054200  0.17169100  0.91807100  1
  Na  Na5  1  0.34014300  0.58091800  0.92458800  1
  Na  Na6  1  0.07716500  0.42714000  0.66810600  1
  Na  Na7  1  0.08094600  0.81758900  0.66809200  1
  Sb  Sb8  1  0.49585800  0.99365200  0.00044400  1
  Sb  Sb9  1  0.50711100  0.99526100  0.48863000  1
  Sb  Sb10  1  0.49767900  0.49947800  0.50147200  1
  Sb  Sb11  1  0.99985700  0.99332700  0.49167200  1
  C  C12  1  0.72237100  0.16086200  0.71695000  1
  C  C13  1  0.67083900  0.22767100  0.27232200  1
  C  C14  1  0.26842900  0.21799300  0.66990800  1
  C  C15  1  0.28289700  0.22669200  0.27867300  1
  C  C16  1  0.71850600  0.78000200  0.71813300  1
  C  C17  1  0.72838600  0.78388100  0.34020400  1
  C  C18  1  0.33719200  0.78048200  0.72985100  1
  C  C19  1  0.27145800  0.83345400  0.28513900  1
  S  S20  1  0.87617800  0.62357100  0.87226100  1
  S  S21  1  0.12197700  0.37040000  0.12122900  1
  O  O22  1  0.85552900  0.17194300  0.71181400  1
  O  O23  1  0.67281100  0.10869800  0.28958500  1
  O  O24  1  0.71173900  0.14553200  0.58882200  1
  O  O25  1  0.67715300  0.21453000  0.13655400  1
  O  O26  1  0.59969600  0.16400600  0.85164500  1
  O  O27  1  0.94252700  0.56556400  0.69064400  1
  O  O28  1  0.93165600  0.55425700  0.92994800  1
  O  O29  1  0.66702900  0.36036000  0.39049100  1
  O  O30  1  0.29233000  0.11293800  0.14375800  1
  O  O31  1  0.38523300  0.20280500  0.66893800  1
  O  O32  1  0.70009300  0.56402400  0.93203100  1
  O  O33  1  0.94063600  0.80096500  0.92567000  1
  O  O34  1  0.85416300  0.78290400  0.59670700  1
  O  O35  1  0.72408600  0.64796900  0.32851100  1
  O  O36  1  0.40964000  0.34919300  0.29390600  1
  O  O37  1  0.13384100  0.10244300  0.67628400  1
  O  O38  1  0.59487300  0.65556800  0.71217900  1
  O  O39  1  0.85515600  0.90874600  0.34715800  1
  O  O40  1  0.28250800  0.35417100  0.66747800  1
  O  O41  1  0.14804900  0.21874200  0.39881100  1
  O  O42  1  0.29818300  0.42496100  0.05773400  1
  O  O43  1  0.06175400  0.19054300  0.06214000  1
  O  O44  1  0.60531700  0.79498900  0.34737600  1
  O  O45  1  0.71169000  0.90737800  0.84278000  1
  O  O46  1  0.32474100  0.64457000  0.61784900  1
  O  O47  1  0.05550100  0.42552100  0.29959100  1
  O  O48  1  0.06489600  0.43236800  0.05887800  1
  O  O49  1  0.38660100  0.82438400  0.14781400  1
  O  O50  1  0.35422800  0.79467000  0.85587700  1
  O  O51  1  0.28819700  0.85282100  0.41147500  1
  O  O52  1  0.33356200  0.90077000  0.71849100  1
  O  O53  1  0.13427400  0.82294100  0.29750400  1
