# generated using pymatgen
data_Li2MnV(PO4)3
_symmetry_space_group_name_H-M   'P 1'
_cell_length_a   8.97359838
_cell_length_b   8.53523951
_cell_length_c   8.22387562
_cell_angle_alpha   60.25520980
_cell_angle_beta   63.27808266
_cell_angle_gamma   92.26671631
_symmetry_Int_Tables_number   1
_chemical_formula_structural   Li2MnV(PO4)3
_chemical_formula_sum   'Li4 Mn2 V2 P6 O24'
_cell_volume   459.61552078
_cell_formula_units_Z   2
loop_
 _symmetry_equiv_pos_site_id
 _symmetry_equiv_pos_as_xyz
  1  'x, y, z'
loop_
 _atom_site_type_symbol
 _atom_site_label
 _atom_site_symmetry_multiplicity
 _atom_site_fract_x
 _atom_site_fract_y
 _atom_site_fract_z
 _atom_site_occupancy
  Li  Li0  1  0.14119300  0.73231400  0.18298100  1
  Li  Li1  1  0.13218200  0.06771400  0.60404900  1
  Li  Li2  1  0.86781800  0.93228600  0.39595100  1
  Li  Li3  1  0.85880700  0.26768600  0.81701900  1
  Mn  Mn4  1  0.05125200  0.35433100  0.29500200  1
  Mn  Mn5  1  0.94874800  0.64566900  0.70499800  1
  V  V6  1  0.56355500  0.84711400  0.29729000  1
  V  V7  1  0.43644500  0.15288600  0.70271000  1
  P  P8  1  0.25481900  0.03097000  0.21578800  1
  P  P9  1  0.24607200  0.45462200  0.50688800  1
  P  P10  1  0.24861900  0.74890700  0.78593100  1
  P  P11  1  0.75138100  0.25109300  0.21406900  1
  P  P12  1  0.75392800  0.54537800  0.49311100  1
  P  P13  1  0.74518100  0.96903000  0.78421200  1
  O  O14  1  0.09139000  0.83904200  0.36622000  1
  O  O15  1  0.28812700  0.11775100  0.97970000  1
  O  O16  1  0.20521500  0.15909600  0.29515500  1
  O  O17  1  0.20886200  0.49527600  0.32317400  1
  O  O18  1  0.08752400  0.44534200  0.69697300  1
  O  O19  1  0.10806600  0.79100000  0.72182000  1
  O  O20  1  0.42126900  0.98816600  0.20648900  1
  O  O21  1  0.27468000  0.25631500  0.60308900  1
  O  O22  1  0.41609900  0.61232000  0.39610800  1
  O  O23  1  0.19770700  0.54123600  0.97131300  1
  O  O24  1  0.26966500  0.88791400  0.84977900  1
  O  O25  1  0.42761300  0.80499000  0.57646800  1
  O  O26  1  0.57238700  0.19501000  0.42353200  1
  O  O27  1  0.73033500  0.11208600  0.15022100  1
  O  O28  1  0.80229300  0.45876300  0.02868700  1
  O  O29  1  0.58390100  0.38768000  0.60389200  1
  O  O30  1  0.72532000  0.74368500  0.39691100  1
  O  O31  1  0.57873100  0.01183400  0.79351100  1
  O  O32  1  0.89193400  0.20900000  0.27818000  1
  O  O33  1  0.91247600  0.55465800  0.30302700  1
  O  O34  1  0.79113800  0.50472400  0.67682600  1
  O  O35  1  0.79478500  0.84090400  0.70484500  1
  O  O36  1  0.71187300  0.88224900  0.02030000  1
  O  O37  1  0.90861000  0.16095800  0.63378000  1
