# generated using pymatgen
data_Lu2(WO4)3
_symmetry_space_group_name_H-M   'P 1'
_cell_length_a   6.84509874
_cell_length_b   6.84509874
_cell_length_c   11.26501294
_cell_angle_alpha   79.26014919
_cell_angle_beta   79.26014919
_cell_angle_gamma   112.15336942
_symmetry_Int_Tables_number   1
_chemical_formula_structural   Lu2(WO4)3
_chemical_formula_sum   'Lu4 W6 O24'
_cell_volume   460.80273135
_cell_formula_units_Z   2
loop_
 _symmetry_equiv_pos_site_id
 _symmetry_equiv_pos_as_xyz
  1  'x, y, z'
loop_
 _atom_site_type_symbol
 _atom_site_label
 _atom_site_symmetry_multiplicity
 _atom_site_fract_x
 _atom_site_fract_y
 _atom_site_fract_z
 _atom_site_occupancy
  Lu  Lu0  1  0.71283800  0.95704000  0.59212200  1
  Lu  Lu1  1  0.95704000  0.71283800  0.09212200  1
  Lu  Lu2  1  0.04296000  0.28716200  0.90787800  1
  Lu  Lu3  1  0.28716200  0.04296000  0.40787800  1
  W  W4  1  0.53957700  0.75565700  0.94967600  1
  W  W5  1  0.75565700  0.53957700  0.44967600  1
  W  W6  1  0.13181400  0.86818600  0.75000000  1
  W  W7  1  0.86818600  0.13181400  0.25000000  1
  W  W8  1  0.24434300  0.46042300  0.55032400  1
  W  W9  1  0.46042300  0.24434300  0.05032400  1
  O  O10  1  0.54838400  0.90697700  0.79492500  1
  O  O11  1  0.86793800  0.78989500  0.71928300  1
  O  O12  1  0.07728200  0.65734600  0.89634500  1
  O  O13  1  0.76848700  0.32730400  0.56254900  1
  O  O14  1  0.82221900  0.92154200  0.96173600  1
  O  O15  1  0.52908800  0.60638600  0.57604500  1
  O  O16  1  0.90697700  0.54838300  0.29492500  1
  O  O17  1  0.39361400  0.47091200  0.92395500  1
  O  O18  1  0.07845800  0.17778100  0.53826400  1
  O  O19  1  0.67269600  0.23151300  0.93745100  1
  O  O20  1  0.34265400  0.92271800  0.60365500  1
  O  O21  1  0.78989500  0.86793800  0.21928300  1
  O  O22  1  0.21010500  0.13206200  0.78071700  1
  O  O23  1  0.65734600  0.07728200  0.39634500  1
  O  O24  1  0.32730400  0.76848700  0.06254900  1
  O  O25  1  0.92154200  0.82221900  0.46173600  1
  O  O26  1  0.60638600  0.52908800  0.07604500  1
  O  O27  1  0.09302300  0.45161600  0.70507500  1
  O  O28  1  0.47091200  0.39361400  0.42395500  1
  O  O29  1  0.17778100  0.07845800  0.03826400  1
  O  O30  1  0.23151300  0.67269600  0.43745100  1
  O  O31  1  0.92271800  0.34265400  0.10365500  1
  O  O32  1  0.13206200  0.21010500  0.28071700  1
  O  O33  1  0.45161600  0.09302300  0.20507500  1
