# generated using pymatgen
data_Co2(SO4)3
_symmetry_space_group_name_H-M   'P 1'
_cell_length_a   8.57653931
_cell_length_b   8.57653931
_cell_length_c   8.57653936
_cell_angle_alpha   60.15935586
_cell_angle_beta   60.15935586
_cell_angle_gamma   60.15936357
_symmetry_Int_Tables_number   1
_chemical_formula_structural   Co2(SO4)3
_chemical_formula_sum   'Co4 S6 O24'
_cell_volume   447.69884659
_cell_formula_units_Z   2
loop_
 _symmetry_equiv_pos_site_id
 _symmetry_equiv_pos_as_xyz
  1  'x, y, z'
loop_
 _atom_site_type_symbol
 _atom_site_label
 _atom_site_symmetry_multiplicity
 _atom_site_fract_x
 _atom_site_fract_y
 _atom_site_fract_z
 _atom_site_occupancy
  Co  Co0  1  0.36015500  0.36015500  0.36015500  1
  Co  Co1  1  0.13984500  0.13984500  0.13984500  1
  Co  Co2  1  0.63984500  0.63984500  0.63984500  1
  Co  Co3  1  0.86015500  0.86015500  0.86015500  1
  S  S4  1  0.75000000  0.04076400  0.45923600  1
  S  S5  1  0.95923600  0.54076400  0.25000000  1
  S  S6  1  0.54076400  0.25000000  0.95923600  1
  S  S7  1  0.45923600  0.75000000  0.04076400  1
  S  S8  1  0.04076400  0.45923600  0.75000000  1
  S  S9  1  0.25000000  0.95923600  0.54076400  1
  O  O10  1  0.91089700  0.05832800  0.27648100  1
  O  O11  1  0.72351900  0.08910300  0.94167200  1
  O  O12  1  0.88499900  0.49414700  0.69548200  1
  O  O13  1  0.00585300  0.61500100  0.80451800  1
  O  O14  1  0.58910300  0.22351900  0.44167200  1
  O  O15  1  0.77648100  0.55832800  0.41089700  1
  O  O16  1  0.94167200  0.72351900  0.08910300  1
  O  O17  1  0.19548200  0.99414700  0.38499900  1
  O  O18  1  0.50585300  0.30451800  0.11500100  1
  O  O19  1  0.30451800  0.11500100  0.50585300  1
  O  O20  1  0.38499900  0.19548200  0.99414700  1
  O  O21  1  0.55832800  0.41089700  0.77648100  1
  O  O22  1  0.44167200  0.58910300  0.22351900  1
  O  O23  1  0.69548200  0.88499900  0.49414700  1
  O  O24  1  0.61500100  0.80451800  0.00585300  1
  O  O25  1  0.80451800  0.00585300  0.61500100  1
  O  O26  1  0.49414700  0.69548200  0.88499900  1
  O  O27  1  0.05832800  0.27648100  0.91089700  1
  O  O28  1  0.22351900  0.44167200  0.58910300  1
  O  O29  1  0.41089700  0.77648100  0.55832800  1
  O  O30  1  0.11500100  0.50585300  0.30451800  1
  O  O31  1  0.99414700  0.38499900  0.19548200  1
  O  O32  1  0.27648100  0.91089700  0.05832800  1
  O  O33  1  0.08910300  0.94167200  0.72351900  1
