# generated using pymatgen
data_Li2MnV(PO4)3
_symmetry_space_group_name_H-M   'P 1'
_cell_length_a   8.91915241
_cell_length_b   8.50260244
_cell_length_c   8.31364447
_cell_angle_alpha   59.47637132
_cell_angle_beta   63.61698244
_cell_angle_gamma   91.43448922
_symmetry_Int_Tables_number   1
_chemical_formula_structural   Li2MnV(PO4)3
_chemical_formula_sum   'Li4 Mn2 V2 P6 O24'
_cell_volume   460.13904685
_cell_formula_units_Z   2
loop_
 _symmetry_equiv_pos_site_id
 _symmetry_equiv_pos_as_xyz
  1  'x, y, z'
loop_
 _atom_site_type_symbol
 _atom_site_label
 _atom_site_symmetry_multiplicity
 _atom_site_fract_x
 _atom_site_fract_y
 _atom_site_fract_z
 _atom_site_occupancy
  Li  Li0  1  0.16059800  0.33100700  0.93884600  1
  Li  Li1  1  0.86402800  0.68493100  0.04878300  1
  Li  Li2  1  0.86783800  0.92280400  0.39938800  1
  Li  Li3  1  0.86187300  0.26534200  0.81249800  1
  Mn  Mn4  1  0.05307400  0.35347100  0.30349500  1
  Mn  Mn5  1  0.95605200  0.64953900  0.69380600  1
  V  V6  1  0.55943300  0.85454100  0.29357500  1
  V  V7  1  0.43341600  0.14093200  0.71215100  1
  P  P8  1  0.25041600  0.03785200  0.21422500  1
  P  P9  1  0.25240600  0.45311300  0.50256500  1
  P  P10  1  0.24762800  0.75340800  0.78548100  1
  P  P11  1  0.75559600  0.25115000  0.21074100  1
  P  P12  1  0.74966800  0.53800100  0.49548700  1
  P  P13  1  0.74563600  0.96837200  0.78422700  1
  O  O14  1  0.09221400  0.84297000  0.37750300  1
  O  O15  1  0.26822100  0.12211800  0.98828800  1
  O  O16  1  0.21178500  0.17626800  0.27773300  1
  O  O17  1  0.20244600  0.48499100  0.33721900  1
  O  O18  1  0.09943600  0.43406500  0.70681000  1
  O  O19  1  0.08973600  0.77938800  0.74943300  1
  O  O20  1  0.42661100  0.00048300  0.19119600  1
  O  O21  1  0.29817800  0.26332900  0.59792100  1
  O  O22  1  0.41725000  0.62130100  0.38321900  1
  O  O23  1  0.20486900  0.54082600  0.96703300  1
  O  O24  1  0.27308700  0.89031700  0.84532900  1
  O  O25  1  0.41753100  0.80698000  0.57213100  1
  O  O26  1  0.59039600  0.19410400  0.42108600  1
  O  O27  1  0.73266800  0.11557700  0.14305500  1
  O  O28  1  0.80412000  0.46339500  0.02227900  1
  O  O29  1  0.57255500  0.37853800  0.63137800  1
  O  O30  1  0.72161600  0.74126300  0.39646300  1
  O  O31  1  0.56745500  0.00087800  0.81239400  1
  O  O32  1  0.91608000  0.21695600  0.24490300  1
  O  O33  1  0.88889200  0.53945100  0.30076000  1
  O  O34  1  0.80877600  0.50679400  0.65719400  1
  O  O35  1  0.79098600  0.84290200  0.70077000  1
  O  O36  1  0.72438200  0.87156000  0.01533900  1
  O  O37  1  0.88934400  0.16964900  0.63303800  1
