# generated using pymatgen
data_Mg3WO6
_symmetry_space_group_name_H-M   'P 1'
_cell_length_a   9.96054800
_cell_length_b   9.96054800
_cell_length_c   9.96054800
_cell_angle_alpha   90.00000000
_cell_angle_beta   90.00000000
_cell_angle_gamma   90.00000000
_symmetry_Int_Tables_number   1
_chemical_formula_structural   Mg3WO6
_chemical_formula_sum   'Mg24 W8 O48'
_cell_volume   988.21103240
_cell_formula_units_Z   8
loop_
 _symmetry_equiv_pos_site_id
 _symmetry_equiv_pos_as_xyz
  1  'x, y, z'
loop_
 _atom_site_type_symbol
 _atom_site_label
 _atom_site_symmetry_multiplicity
 _atom_site_fract_x
 _atom_site_fract_y
 _atom_site_fract_z
 _atom_site_occupancy
  Mg  Mg0  1  0.09250800  0.75434000  0.13141300  1
  Mg  Mg1  1  0.09250800  0.74566000  0.63141300  1
  Mg  Mg2  1  0.13141300  0.09250800  0.75434000  1
  Mg  Mg3  1  0.13141300  0.40749200  0.25434000  1
  Mg  Mg4  1  0.25434000  0.36858700  0.90749200  1
  Mg  Mg5  1  0.25434000  0.13141300  0.40749200  1
  Mg  Mg6  1  0.24566000  0.86858700  0.90749200  1
  Mg  Mg7  1  0.24566000  0.63141300  0.40749200  1
  Mg  Mg8  1  0.36858700  0.90749200  0.25434000  1
  Mg  Mg9  1  0.36858700  0.59250800  0.75434000  1
  Mg  Mg10  1  0.40749200  0.25434000  0.13141300  1
  Mg  Mg11  1  0.40749200  0.24566000  0.63141300  1
  Mg  Mg12  1  0.59250800  0.75434000  0.36858700  1
  Mg  Mg13  1  0.59250800  0.74566000  0.86858700  1
  Mg  Mg14  1  0.63141300  0.40749200  0.24566000  1
  Mg  Mg15  1  0.63141300  0.09250800  0.74566000  1
  Mg  Mg16  1  0.75434000  0.13141300  0.09250800  1
  Mg  Mg17  1  0.75434000  0.36858700  0.59250800  1
  Mg  Mg18  1  0.74566000  0.63141300  0.09250800  1
  Mg  Mg19  1  0.74566000  0.86858700  0.59250800  1
  Mg  Mg20  1  0.86858700  0.59250800  0.74566000  1
  Mg  Mg21  1  0.86858700  0.90749200  0.24566000  1
  Mg  Mg22  1  0.90749200  0.25434000  0.36858700  1
  Mg  Mg23  1  0.90749200  0.24566000  0.86858700  1
  W  W24  1  0.12271600  0.12271600  0.12271600  1
  W  W25  1  0.12271600  0.37728400  0.62271600  1
  W  W26  1  0.37728400  0.62271600  0.12271600  1
  W  W27  1  0.37728400  0.87728400  0.62271600  1
  W  W28  1  0.62271600  0.12271600  0.37728400  1
  W  W29  1  0.62271600  0.37728400  0.87728400  1
  W  W30  1  0.87728400  0.62271600  0.37728400  1
  W  W31  1  0.87728400  0.87728400  0.87728400  1
  O  O32  1  0.04363700  0.69294000  0.43779400  1
  O  O33  1  0.04363700  0.80706000  0.93779400  1
  O  O34  1  0.06220600  0.95636300  0.19294000  1
  O  O35  1  0.06220600  0.54363700  0.69294000  1
  O  O36  1  0.09213800  0.20930600  0.30592900  1
  O  O37  1  0.09213800  0.29069400  0.80592900  1
  O  O38  1  0.19294000  0.43779400  0.45636300  1
  O  O39  1  0.19294000  0.06220600  0.95636300  1
  O  O40  1  0.19407100  0.90786200  0.70930600  1
  O  O41  1  0.19407100  0.59213800  0.20930600  1
  O  O42  1  0.20930600  0.30592900  0.09213800  1
  O  O43  1  0.20930600  0.19407100  0.59213800  1
  O  O44  1  0.29069400  0.80592900  0.09213800  1
  O  O45  1  0.29069400  0.69407100  0.59213800  1
  O  O46  1  0.30592900  0.09213800  0.20930600  1
  O  O47  1  0.30592900  0.40786200  0.70930600  1
  O  O48  1  0.30706000  0.56220600  0.95636300  1
  O  O49  1  0.30706000  0.93779400  0.45636300  1
  O  O50  1  0.40786200  0.70930600  0.30592900  1
  O  O51  1  0.40786200  0.79069400  0.80592900  1
  O  O52  1  0.43779400  0.04363700  0.69294000  1
  O  O53  1  0.43779400  0.45636300  0.19294000  1
  O  O54  1  0.45636300  0.19294000  0.43779400  1
  O  O55  1  0.45636300  0.30706000  0.93779400  1
  O  O56  1  0.54363700  0.69294000  0.06220600  1
  O  O57  1  0.54363700  0.80706000  0.56220600  1
  O  O58  1  0.56220600  0.95636300  0.30706000  1
  O  O59  1  0.56220600  0.54363700  0.80706000  1
  O  O60  1  0.59213800  0.20930600  0.19407100  1
  O  O61  1  0.59213800  0.29069400  0.69407100  1
  O  O62  1  0.69294000  0.06220600  0.54363700  1
  O  O63  1  0.69294000  0.43779400  0.04363700  1
  O  O64  1  0.69407100  0.59213800  0.29069400  1
  O  O65  1  0.69407100  0.90786200  0.79069400  1
  O  O66  1  0.70930600  0.30592900  0.40786200  1
  O  O67  1  0.70930600  0.19407100  0.90786200  1
  O  O68  1  0.79069400  0.69407100  0.90786200  1
  O  O69  1  0.79069400  0.80592900  0.40786200  1
  O  O70  1  0.80592900  0.09213800  0.29069400  1
  O  O71  1  0.80592900  0.40786200  0.79069400  1
  O  O72  1  0.80706000  0.56220600  0.54363700  1
  O  O73  1  0.80706000  0.93779400  0.04363700  1
  O  O74  1  0.90786200  0.70930600  0.19407100  1
  O  O75  1  0.90786200  0.79069400  0.69407100  1
  O  O76  1  0.93779400  0.04363700  0.80706000  1
  O  O77  1  0.93779400  0.45636300  0.30706000  1
  O  O78  1  0.95636300  0.19294000  0.06220600  1
  O  O79  1  0.95636300  0.30706000  0.56220600  1
