# generated using pymatgen
data_Lu2GeO5
_symmetry_space_group_name_H-M   'P 1'
_cell_length_a   8.08272613
_cell_length_b   8.08272613
_cell_length_c   10.30122295
_cell_angle_alpha   61.49617729
_cell_angle_beta   61.49617729
_cell_angle_gamma   49.50398092
_symmetry_Int_Tables_number   1
_chemical_formula_structural   Lu2GeO5
_chemical_formula_sum   'Lu8 Ge4 O20'
_cell_volume   435.41308146
_cell_formula_units_Z   4
loop_
 _symmetry_equiv_pos_site_id
 _symmetry_equiv_pos_as_xyz
  1  'x, y, z'
loop_
 _atom_site_type_symbol
 _atom_site_label
 _atom_site_symmetry_multiplicity
 _atom_site_fract_x
 _atom_site_fract_y
 _atom_site_fract_z
 _atom_site_occupancy
  Lu  Lu0  1  0.76075000  0.51360800  0.66120000  1
  Lu  Lu1  1  0.22473700  0.70513300  0.96790600  1
  Lu  Lu2  1  0.29486700  0.77526300  0.53209400  1
  Lu  Lu3  1  0.51360800  0.76075000  0.16120000  1
  Lu  Lu4  1  0.48639200  0.23925000  0.83880000  1
  Lu  Lu5  1  0.70513300  0.22473700  0.46790600  1
  Lu  Lu6  1  0.77526300  0.29486700  0.03209400  1
  Lu  Lu7  1  0.23925000  0.48639200  0.33880000  1
  Ge  Ge8  1  0.72134000  0.90784100  0.30847200  1
  Ge  Ge9  1  0.09215900  0.27866000  0.19152800  1
  Ge  Ge10  1  0.90784100  0.72134000  0.80847200  1
  Ge  Ge11  1  0.27866000  0.09215900  0.69152800  1
  O  O12  1  0.90895600  0.92730300  0.12846300  1
  O  O13  1  0.12262400  0.28534900  0.55318900  1
  O  O14  1  0.41599900  0.81763000  0.67259100  1
  O  O15  1  0.15282700  0.46065400  0.17588200  1
  O  O16  1  0.53934600  0.84717300  0.32411800  1
  O  O17  1  0.58080300  0.38529700  0.89693000  1
  O  O18  1  0.61470300  0.41919700  0.60307000  1
  O  O19  1  0.07269700  0.09104400  0.37153700  1
  O  O20  1  0.28534900  0.12262400  0.05318900  1
  O  O21  1  0.18237000  0.58400100  0.82740900  1
  O  O22  1  0.81763000  0.41599900  0.17259100  1
  O  O23  1  0.71465100  0.87737600  0.94681100  1
  O  O24  1  0.92730300  0.90895600  0.62846300  1
  O  O25  1  0.38529700  0.58080300  0.39693000  1
  O  O26  1  0.41919700  0.61470300  0.10307000  1
  O  O27  1  0.46065400  0.15282700  0.67588200  1
  O  O28  1  0.84717300  0.53934600  0.82411800  1
  O  O29  1  0.58400100  0.18237000  0.32740900  1
  O  O30  1  0.87737600  0.71465100  0.44681100  1
  O  O31  1  0.09104400  0.07269700  0.87153700  1
