# generated using pymatgen
data_Sn2P2O7
_symmetry_space_group_name_H-M   'P 1'
_cell_length_a   11.92741779
_cell_length_b   11.92741779
_cell_length_c   9.65681602
_cell_angle_alpha   76.95164849
_cell_angle_beta   76.95164849
_cell_angle_gamma   48.48237876
_symmetry_Int_Tables_number   1
_chemical_formula_structural   Sn2P2O7
_chemical_formula_sum   'Sn12 P12 O42'
_cell_volume   996.61212165
_cell_formula_units_Z   6
loop_
 _symmetry_equiv_pos_site_id
 _symmetry_equiv_pos_as_xyz
  1  'x, y, z'
loop_
 _atom_site_type_symbol
 _atom_site_label
 _atom_site_symmetry_multiplicity
 _atom_site_fract_x
 _atom_site_fract_y
 _atom_site_fract_z
 _atom_site_occupancy
  Sn  Sn0  1  0.81024000  0.18639000  0.00892600  1
  Sn  Sn1  1  0.51925500  0.15354400  0.16411900  1
  Sn  Sn2  1  0.13305000  0.52166400  0.17565800  1
  Sn  Sn3  1  0.48091900  0.86591500  0.32209800  1
  Sn  Sn4  1  0.85022400  0.47788900  0.33688600  1
  Sn  Sn5  1  0.80719600  0.19402100  0.49033300  1
  Sn  Sn6  1  0.18639000  0.81024000  0.50892600  1
  Sn  Sn7  1  0.15354400  0.51925500  0.66411900  1
  Sn  Sn8  1  0.52166400  0.13305000  0.67565800  1
  Sn  Sn9  1  0.86591500  0.48091900  0.82209800  1
  Sn  Sn10  1  0.47788900  0.85022400  0.83688600  1
  Sn  Sn11  1  0.19402100  0.80719600  0.99033300  1
  P  P12  1  0.77899500  0.74405900  0.02766300  1
  P  P13  1  0.54860800  0.58004700  0.14988800  1
  P  P14  1  0.08869400  0.11127600  0.18084200  1
  P  P15  1  0.88584300  0.90970000  0.32310700  1
  P  P16  1  0.41456400  0.45184700  0.35447800  1
  P  P17  1  0.25241200  0.22055000  0.47133400  1
  P  P18  1  0.74405900  0.77899500  0.52766300  1
  P  P19  1  0.58004700  0.54860800  0.64988800  1
  P  P20  1  0.11127600  0.08869400  0.68084200  1
  P  P21  1  0.90970000  0.88584300  0.82310700  1
  P  P22  1  0.45184700  0.41456400  0.85447800  1
  P  P23  1  0.22055000  0.25241200  0.97133400  1
  O  O24  1  0.44807100  0.71560700  0.04140000  1
  O  O25  1  0.67247000  0.43163800  0.08723200  1
  O  O26  1  0.04757900  0.04909800  0.09530000  1
  O  O27  1  0.11028700  0.21779500  0.05977200  1
  O  O28  1  0.27254700  0.28169000  0.08234000  1
  O  O29  1  0.64077000  0.87602100  0.11013500  1
  O  O30  1  0.88814700  0.59995900  0.12473100  1
  O  O31  1  0.42241800  0.57577600  0.25291600  1
  O  O32  1  0.60890300  0.61881600  0.24100700  1
  O  O33  1  0.23537500  0.98866100  0.24729700  1
  O  O34  1  0.95050000  0.21902100  0.28499100  1
  O  O35  1  0.78023000  0.04673400  0.21725900  1
  O  O36  1  0.00821700  0.76277400  0.25701800  1
  O  O37  1  0.37278300  0.39569000  0.26112500  1
  O  O38  1  0.39763100  0.11112100  0.37539700  1
  O  O39  1  0.12159300  0.35679300  0.38653000  1
  O  O40  1  0.71427600  0.72955900  0.41542800  1
  O  O41  1  0.71560700  0.44807100  0.54140000  1
  O  O42  1  0.77765300  0.88965100  0.44330000  1
  O  O43  1  0.94727000  0.95143600  0.40872100  1
  O  O44  1  0.43163800  0.67247000  0.58723200  1
  O  O45  1  0.56428900  0.32377100  0.41505000  1
  O  O46  1  0.04909800  0.04757900  0.59530000  1
  O  O47  1  0.21779500  0.11028700  0.55977200  1
  O  O48  1  0.28146700  0.55157700  0.46414300  1
  O  O49  1  0.28169000  0.27254700  0.58234000  1
  O  O50  1  0.87602100  0.64077000  0.61013500  1
  O  O51  1  0.59995900  0.88814700  0.62473100  1
  O  O52  1  0.57577600  0.42241800  0.75291600  1
  O  O53  1  0.61881600  0.60890300  0.74100700  1
  O  O54  1  0.98866100  0.23537500  0.74729700  1
  O  O55  1  0.21902100  0.95050000  0.78499100  1
  O  O56  1  0.04673400  0.78023000  0.71725900  1
  O  O57  1  0.76277400  0.00821700  0.75701800  1
  O  O58  1  0.39569000  0.37278300  0.76112500  1
  O  O59  1  0.11112100  0.39763100  0.87539700  1
  O  O60  1  0.35679300  0.12159300  0.88653000  1
  O  O61  1  0.72955900  0.71427600  0.91542800  1
  O  O62  1  0.88965100  0.77765300  0.94330000  1
  O  O63  1  0.95143600  0.94727000  0.90872100  1
  O  O64  1  0.32377100  0.56428900  0.91505000  1
  O  O65  1  0.55157700  0.28146700  0.96414300  1
