# generated using pymatgen
data_CrFe5(PO4)6
_symmetry_space_group_name_H-M   'P 1'
_cell_length_a   8.43030158
_cell_length_b   8.43030158
_cell_length_c   8.43030146
_cell_angle_alpha   61.60475211
_cell_angle_beta   61.60475211
_cell_angle_gamma   61.60475105
_symmetry_Int_Tables_number   1
_chemical_formula_structural   CrFe5(PO4)6
_chemical_formula_sum   'Cr1 Fe5 P6 O24'
_cell_volume   438.90691372
_cell_formula_units_Z   1
loop_
 _symmetry_equiv_pos_site_id
 _symmetry_equiv_pos_as_xyz
  1  'x, y, z'
loop_
 _atom_site_type_symbol
 _atom_site_label
 _atom_site_symmetry_multiplicity
 _atom_site_fract_x
 _atom_site_fract_y
 _atom_site_fract_z
 _atom_site_occupancy
  Cr  Cr0  1  0.14223500  0.14223500  0.14223500  1
  Fe  Fe1  1  0.99815400  0.99815400  0.99815400  1
  Fe  Fe2  1  0.64640700  0.64640700  0.64640700  1
  Fe  Fe3  1  0.50050500  0.50050500  0.50050500  1
  Fe  Fe4  1  0.85370700  0.85370700  0.85370700  1
  Fe  Fe5  1  0.35398100  0.35398100  0.35398100  1
  P  P6  1  0.95378400  0.25069000  0.54427400  1
  P  P7  1  0.54427400  0.95378400  0.25069000  1
  P  P8  1  0.25069000  0.54427400  0.95378400  1
  P  P9  1  0.75096300  0.45259000  0.04832800  1
  P  P10  1  0.45259000  0.04832800  0.75096300  1
  P  P11  1  0.04832800  0.75096300  0.45259000  1
  O  O12  1  0.50420600  0.10700600  0.32462500  1
  O  O13  1  0.32462500  0.50420600  0.10700600  1
  O  O14  1  0.10700600  0.32462500  0.50420600  1
  O  O15  1  0.94044900  0.09422600  0.74809400  1
  O  O16  1  0.99438300  0.17945400  0.39046500  1
  O  O17  1  0.74971900  0.40559000  0.56104900  1
  O  O18  1  0.74809400  0.94044900  0.09422600  1
  O  O19  1  0.56104900  0.74971900  0.40559000  1
  O  O20  1  0.82436300  0.60678000  0.00546700  1
  O  O21  1  0.40559000  0.56104900  0.74971900  1
  O  O22  1  0.90634800  0.24892600  0.06238900  1
  O  O23  1  0.60678000  0.00546700  0.82436300  1
  O  O24  1  0.39046500  0.99438300  0.17945400  1
  O  O25  1  0.09422600  0.74809400  0.94044900  1
  O  O26  1  0.59583700  0.43808900  0.25112900  1
  O  O27  1  0.17945400  0.39046500  0.99438300  1
  O  O28  1  0.43808900  0.25112900  0.59583700  1
  O  O29  1  0.24892600  0.06238900  0.90634800  1
  O  O30  1  0.25112900  0.59583700  0.43808900  1
  O  O31  1  0.00546700  0.82436300  0.60678000  1
  O  O32  1  0.06238900  0.90634800  0.24892600  1
  O  O33  1  0.89275700  0.68024200  0.49279200  1
  O  O34  1  0.68024200  0.49279200  0.89275700  1
  O  O35  1  0.49279200  0.89275700  0.68024200  1
