# generated using pymatgen
data_Ba3Y2Br12
_symmetry_space_group_name_H-M   'P 1'
_cell_length_a   9.62577388
_cell_length_b   9.62577388
_cell_length_c   15.93641107
_cell_angle_alpha   79.60905464
_cell_angle_beta   79.60905464
_cell_angle_gamma   111.11409760
_symmetry_Int_Tables_number   1
_chemical_formula_structural   Ba3Y2Br12
_chemical_formula_sum   'Ba6 Y4 Br24'
_cell_volume   1305.54659417
_cell_formula_units_Z   2
loop_
 _symmetry_equiv_pos_site_id
 _symmetry_equiv_pos_as_xyz
  1  'x, y, z'
loop_
 _atom_site_type_symbol
 _atom_site_label
 _atom_site_symmetry_multiplicity
 _atom_site_fract_x
 _atom_site_fract_y
 _atom_site_fract_z
 _atom_site_occupancy
  Ba  Ba0  1  0.55263000  0.77912100  0.92666400  1
  Ba  Ba1  1  0.13778600  0.86221400  0.75000000  1
  Ba  Ba2  1  0.77912100  0.55263000  0.42666400  1
  Ba  Ba3  1  0.22087900  0.44737000  0.57333600  1
  Ba  Ba4  1  0.86221400  0.13778600  0.25000000  1
  Ba  Ba5  1  0.44737000  0.22087900  0.07333600  1
  Y  Y6  1  0.66879800  0.93515700  0.59692300  1
  Y  Y7  1  0.93515700  0.66879800  0.09692300  1
  Y  Y8  1  0.06484300  0.33120200  0.90307700  1
  Y  Y9  1  0.33120200  0.06484300  0.40307700  1
  Br  Br10  1  0.17354900  0.63209500  0.92676100  1
  Br  Br11  1  0.50330300  0.99710200  0.74522900  1
  Br  Br12  1  0.78442900  0.82578600  0.73108300  1
  Br  Br13  1  0.63209500  0.17354900  0.42676100  1
  Br  Br14  1  0.99710200  0.50330300  0.24522900  1
  Br  Br15  1  0.15346800  0.07264400  0.55991000  1
  Br  Br16  1  0.41205100  0.42798100  0.89560700  1
  Br  Br17  1  0.73898200  0.13514900  0.93415800  1
  Br  Br18  1  0.82578600  0.78442900  0.23108300  1
  Br  Br19  1  0.86485100  0.26101800  0.56584200  1
  Br  Br20  1  0.57201900  0.58794900  0.60439300  1
  Br  Br21  1  0.92735600  0.84653200  0.94009000  1
  Br  Br22  1  0.07264400  0.15346800  0.05991000  1
  Br  Br23  1  0.42798100  0.41205100  0.39560700  1
  Br  Br24  1  0.13514900  0.73898200  0.43415800  1
  Br  Br25  1  0.17421400  0.21557100  0.76891700  1
  Br  Br26  1  0.26101800  0.86485100  0.06584200  1
  Br  Br27  1  0.58794900  0.57201900  0.10439300  1
  Br  Br28  1  0.84653200  0.92735600  0.44009000  1
  Br  Br29  1  0.00289800  0.49669700  0.75477100  1
  Br  Br30  1  0.36790500  0.82645100  0.57323900  1
  Br  Br31  1  0.21557100  0.17421400  0.26891700  1
  Br  Br32  1  0.49669700  0.00289800  0.25477100  1
  Br  Br33  1  0.82645100  0.36790500  0.07323900  1
