# generated using pymatgen
data_Tb3SbO7
_symmetry_space_group_name_H-M   'P 1'
_cell_length_a   6.48759437
_cell_length_b   6.48759437
_cell_length_c   7.54435300
_cell_angle_alpha   90.00000000
_cell_angle_beta   90.00000000
_cell_angle_gamma   109.81854054
_symmetry_Int_Tables_number   1
_chemical_formula_structural   Tb3SbO7
_chemical_formula_sum   'Tb6 Sb2 O14'
_cell_volume   298.72622327
_cell_formula_units_Z   2
loop_
 _symmetry_equiv_pos_site_id
 _symmetry_equiv_pos_as_xyz
  1  'x, y, z'
loop_
 _atom_site_type_symbol
 _atom_site_label
 _atom_site_symmetry_multiplicity
 _atom_site_fract_x
 _atom_site_fract_y
 _atom_site_fract_z
 _atom_site_occupancy
  Tb  Tb0  1  0.51289800  0.05439100  0.25000000  1
  Tb  Tb1  1  0.94560900  0.48710200  0.75000000  1
  Tb  Tb2  1  0.00000000  0.00000000  0.00000000  1
  Tb  Tb3  1  0.00000000  0.00000000  0.50000000  1
  Tb  Tb4  1  0.48710200  0.94560900  0.75000000  1
  Tb  Tb5  1  0.05439100  0.51289800  0.25000000  1
  Sb  Sb6  1  0.50000000  0.50000000  0.50000000  1
  Sb  Sb7  1  0.50000000  0.50000000  0.00000000  1
  O  O8  1  0.84915800  0.11600500  0.75000000  1
  O  O9  1  0.88399500  0.15084200  0.25000000  1
  O  O10  1  0.43731100  0.17934700  0.53310100  1
  O  O11  1  0.82065300  0.56268900  0.03310100  1
  O  O12  1  0.82065300  0.56268900  0.46689900  1
  O  O13  1  0.43731100  0.17934700  0.96689900  1
  O  O14  1  0.58764500  0.58764500  0.75000000  1
  O  O15  1  0.41235500  0.41235500  0.25000000  1
  O  O16  1  0.56268900  0.82065300  0.03310100  1
  O  O17  1  0.17934700  0.43731100  0.53310100  1
  O  O18  1  0.56268900  0.82065300  0.46689900  1
  O  O19  1  0.17934700  0.43731100  0.96689900  1
  O  O20  1  0.11600500  0.84915800  0.75000000  1
  O  O21  1  0.15084200  0.88399500  0.25000000  1
