# generated using pymatgen
data_Ba6SrI14
_symmetry_space_group_name_H-M   'P 1'
_cell_length_a   15.86017671
_cell_length_b   15.86017671
_cell_length_c   8.83508900
_cell_angle_alpha   90.00000000
_cell_angle_beta   90.00000000
_cell_angle_gamma   99.03611860
_symmetry_Int_Tables_number   1
_chemical_formula_structural   Ba6SrI14
_chemical_formula_sum   'Ba12 Sr2 I28'
_cell_volume   2194.84294543
_cell_formula_units_Z   2
loop_
 _symmetry_equiv_pos_site_id
 _symmetry_equiv_pos_as_xyz
  1  'x, y, z'
loop_
 _atom_site_type_symbol
 _atom_site_label
 _atom_site_symmetry_multiplicity
 _atom_site_fract_x
 _atom_site_fract_y
 _atom_site_fract_z
 _atom_site_occupancy
  Ba  Ba0  1  0.75147700  0.05171400  0.32848100  1
  Ba  Ba1  1  0.94828600  0.24852300  0.67151900  1
  Ba  Ba2  1  0.55171400  0.25147700  0.17151900  1
  Ba  Ba3  1  0.74852300  0.44828600  0.82848100  1
  Ba  Ba4  1  0.69793400  0.69793400  0.24521500  1
  Ba  Ba5  1  0.19793400  0.19793400  0.25478500  1
  Ba  Ba6  1  0.30206600  0.30206600  0.75478500  1
  Ba  Ba7  1  0.80206600  0.80206600  0.74521500  1
  Ba  Ba8  1  0.44828600  0.74852300  0.82848100  1
  Ba  Ba9  1  0.25147700  0.55171400  0.17151900  1
  Ba  Ba10  1  0.05171400  0.75147700  0.32848100  1
  Ba  Ba11  1  0.24852300  0.94828600  0.67151900  1
  Sr  Sr12  1  0.00000000  0.00000000  0.00000000  1
  Sr  Sr13  1  0.50000000  0.50000000  0.50000000  1
  I  I14  1  0.96652500  0.15566800  0.23253600  1
  I  I15  1  0.84433200  0.03347500  0.76746400  1
  I  I16  1  0.74765700  0.25234300  0.00000000  1
  I  I17  1  0.95369600  0.45369600  0.75000000  1
  I  I18  1  0.54630400  0.04630400  0.25000000  1
  I  I19  1  0.75234300  0.24765700  0.50000000  1
  I  I20  1  0.35794900  0.15716900  0.00963400  1
  I  I21  1  0.34283100  0.14205100  0.50963400  1
  I  I22  1  0.84283100  0.64205100  0.99036600  1
  I  I23  1  0.85794900  0.65716900  0.49036600  1
  I  I24  1  0.65566800  0.46652500  0.26746400  1
  I  I25  1  0.53347500  0.34433200  0.73253600  1
  I  I26  1  0.12188200  0.12188200  0.77312900  1
  I  I27  1  0.37811800  0.37811800  0.27312900  1
  I  I28  1  0.62188200  0.62188200  0.72687100  1
  I  I29  1  0.87811800  0.87811800  0.22687100  1
  I  I30  1  0.34433200  0.53347500  0.73253600  1
  I  I31  1  0.46652500  0.65566800  0.26746400  1
  I  I32  1  0.64205100  0.84283100  0.99036600  1
  I  I33  1  0.14205100  0.34283100  0.50963400  1
  I  I34  1  0.15716900  0.35794900  0.00963400  1
  I  I35  1  0.65716900  0.85794900  0.49036600  1
  I  I36  1  0.24765700  0.75234300  0.50000000  1
  I  I37  1  0.04630400  0.54630400  0.25000000  1
  I  I38  1  0.45369600  0.95369600  0.75000000  1
  I  I39  1  0.25234300  0.74765700  0.00000000  1
  I  I40  1  0.15566800  0.96652500  0.23253600  1
  I  I41  1  0.03347500  0.84433200  0.76746400  1
