# generated using pymatgen
data_V2SO8
_symmetry_space_group_name_H-M   'P 1'
_cell_length_a   5.90249500
_cell_length_b   10.76468700
_cell_length_c   13.05613700
_cell_angle_alpha   90.00000000
_cell_angle_beta   90.00000000
_cell_angle_gamma   90.00000000
_symmetry_Int_Tables_number   1
_chemical_formula_structural   V2SO8
_chemical_formula_sum   'V8 S4 O32'
_cell_volume   829.56750693
_cell_formula_units_Z   4
loop_
 _symmetry_equiv_pos_site_id
 _symmetry_equiv_pos_as_xyz
  1  'x, y, z'
loop_
 _atom_site_type_symbol
 _atom_site_label
 _atom_site_symmetry_multiplicity
 _atom_site_fract_x
 _atom_site_fract_y
 _atom_site_fract_z
 _atom_site_occupancy
  V  V0  1  0.19999000  0.16614100  0.58840900  1
  V  V1  1  0.19999000  0.16614100  0.91159100  1
  V  V2  1  0.30001000  0.66614100  0.08840900  1
  V  V3  1  0.30001000  0.66614100  0.41159100  1
  V  V4  1  0.69999000  0.33385900  0.58840900  1
  V  V5  1  0.69999000  0.33385900  0.91159100  1
  V  V6  1  0.80001000  0.83385900  0.08840900  1
  V  V7  1  0.80001000  0.83385900  0.41159100  1
  S  S8  1  0.97152300  0.04124900  0.25000000  1
  S  S9  1  0.52847700  0.54124900  0.75000000  1
  S  S10  1  0.47152300  0.45875100  0.25000000  1
  S  S11  1  0.02847700  0.95875100  0.75000000  1
  O  O12  1  0.03090700  0.73528100  0.12321900  1
  O  O13  1  0.03090700  0.73528100  0.37678100  1
  O  O14  1  0.07932400  0.82958700  0.75000000  1
  O  O15  1  0.16107800  0.01834100  0.65561900  1
  O  O16  1  0.16107800  0.01834100  0.84438100  1
  O  O17  1  0.19606800  0.13926900  0.03245800  1
  O  O18  1  0.19606800  0.13926900  0.46754200  1
  O  O19  1  0.30214100  0.49359100  0.75000000  1
  O  O20  1  0.19785900  0.99359100  0.25000000  1
  O  O21  1  0.30393200  0.63926900  0.96754200  1
  O  O22  1  0.30393200  0.63926900  0.53245800  1
  O  O23  1  0.33892200  0.51834100  0.15561900  1
  O  O24  1  0.33892200  0.51834100  0.34438100  1
  O  O25  1  0.42067600  0.32958700  0.25000000  1
  O  O26  1  0.46909300  0.23528100  0.62321900  1
  O  O27  1  0.46909300  0.23528100  0.87678100  1
  O  O28  1  0.53090700  0.76471900  0.12321900  1
  O  O29  1  0.53090700  0.76471900  0.37678100  1
  O  O30  1  0.57932400  0.67041300  0.75000000  1
  O  O31  1  0.66107800  0.48165900  0.65561900  1
  O  O32  1  0.66107800  0.48165900  0.84438100  1
  O  O33  1  0.69606800  0.36073100  0.03245800  1
  O  O34  1  0.69606800  0.36073100  0.46754200  1
  O  O35  1  0.80214100  0.00640900  0.75000000  1
  O  O36  1  0.69785900  0.50640900  0.25000000  1
  O  O37  1  0.80393200  0.86073100  0.53245800  1
  O  O38  1  0.80393200  0.86073100  0.96754200  1
  O  O39  1  0.83892200  0.98165900  0.15561900  1
  O  O40  1  0.83892200  0.98165900  0.34438100  1
  O  O41  1  0.92067600  0.17041300  0.25000000  1
  O  O42  1  0.96909300  0.26471900  0.62321900  1
  O  O43  1  0.96909300  0.26471900  0.87678100  1
