# generated using pymatgen
data_BaPa3
_symmetry_space_group_name_H-M   'P 1'
_cell_length_a   5.90174805
_cell_length_b   5.90174805
_cell_length_c   5.90174805
_cell_angle_alpha   132.07370258
_cell_angle_beta   132.07370258
_cell_angle_gamma   70.11264656
_symmetry_Int_Tables_number   1
_chemical_formula_structural   BaPa3
_chemical_formula_sum   'Ba1 Pa3'
_cell_volume   111.02940453
_cell_formula_units_Z   1
loop_
 _symmetry_equiv_pos_site_id
 _symmetry_equiv_pos_as_xyz
  1  'x, y, z'
loop_
 _atom_site_type_symbol
 _atom_site_label
 _atom_site_symmetry_multiplicity
 _atom_site_fract_x
 _atom_site_fract_y
 _atom_site_fract_z
 _atom_site_occupancy
  Ba  Ba0  1  0.00000000  0.00000000  0.00000000  1
  Pa  Pa1  1  0.75000000  0.25000100  0.49999900  1
  Pa  Pa2  1  0.25000100  0.75000000  0.49999900  1
  Pa  Pa3  1  0.50000000  0.50000000  0.00000000  1
