# generated using pymatgen
data_Ho2(SeO3)3
_symmetry_space_group_name_H-M   'P 1'
_cell_length_a   8.53378423
_cell_length_b   8.53378423
_cell_length_c   8.18910700
_cell_angle_alpha   90.00000000
_cell_angle_beta   90.00000000
_cell_angle_gamma   120.00000178
_symmetry_Int_Tables_number   1
_chemical_formula_structural   Ho2(SeO3)3
_chemical_formula_sum   'Ho4 Se6 O18'
_cell_volume   516.47640450
_cell_formula_units_Z   2
loop_
 _symmetry_equiv_pos_site_id
 _symmetry_equiv_pos_as_xyz
  1  'x, y, z'
loop_
 _atom_site_type_symbol
 _atom_site_label
 _atom_site_symmetry_multiplicity
 _atom_site_fract_x
 _atom_site_fract_y
 _atom_site_fract_z
 _atom_site_occupancy
  Ho  Ho0  1  0.33333300  0.66666700  0.03931900  1
  Ho  Ho1  1  0.33333300  0.66666700  0.46068100  1
  Ho  Ho2  1  0.66666700  0.33333300  0.53931900  1
  Ho  Ho3  1  0.66666700  0.33333300  0.96068100  1
  Se  Se4  1  0.02925000  0.73260200  0.75000000  1
  Se  Se5  1  0.26739800  0.29664800  0.75000000  1
  Se  Se6  1  0.70335200  0.97075000  0.75000000  1
  Se  Se7  1  0.29664800  0.02925000  0.25000000  1
  Se  Se8  1  0.73260200  0.70335200  0.25000000  1
  Se  Se9  1  0.97075000  0.26739800  0.25000000  1
  O  O10  1  0.16169500  0.75031800  0.91337500  1
  O  O11  1  0.16169500  0.75031800  0.58662500  1
  O  O12  1  0.12960600  0.50047000  0.25000000  1
  O  O13  1  0.37086400  0.87039400  0.25000000  1
  O  O14  1  0.24968200  0.41137600  0.58662500  1
  O  O15  1  0.24968200  0.41137600  0.91337500  1
  O  O16  1  0.58862400  0.83830500  0.58662500  1
  O  O17  1  0.58862400  0.83830500  0.91337500  1
  O  O18  1  0.49953000  0.62913600  0.25000000  1
  O  O19  1  0.50047000  0.37086400  0.75000000  1
  O  O20  1  0.41137600  0.16169500  0.41337500  1
  O  O21  1  0.41137600  0.16169500  0.08662500  1
  O  O22  1  0.75031800  0.58862400  0.08662500  1
  O  O23  1  0.75031800  0.58862400  0.41337500  1
  O  O24  1  0.62913600  0.12960600  0.75000000  1
  O  O25  1  0.87039400  0.49953000  0.75000000  1
  O  O26  1  0.83830500  0.24968200  0.08662500  1
  O  O27  1  0.83830500  0.24968200  0.41337500  1
