# generated using pymatgen
data_Ba2YCl7
_symmetry_space_group_name_H-M   'P 1'
_cell_length_a   14.30365400
_cell_length_b   7.68799100
_cell_length_c   12.10923146
_cell_angle_alpha   80.36298188
_cell_angle_beta   90.00000000
_cell_angle_gamma   90.00000000
_symmetry_Int_Tables_number   1
_chemical_formula_structural   Ba2YCl7
_chemical_formula_sum   'Ba8 Y4 Cl28'
_cell_volume   1312.81660244
_cell_formula_units_Z   4
loop_
 _symmetry_equiv_pos_site_id
 _symmetry_equiv_pos_as_xyz
  1  'x, y, z'
loop_
 _atom_site_type_symbol
 _atom_site_label
 _atom_site_symmetry_multiplicity
 _atom_site_fract_x
 _atom_site_fract_y
 _atom_site_fract_z
 _atom_site_occupancy
  Ba  Ba0  1  0.56562600  0.32828900  0.17055600  1
  Ba  Ba1  1  0.87860400  0.19463300  0.20924300  1
  Ba  Ba2  1  0.37860400  0.80536700  0.29075700  1
  Ba  Ba3  1  0.06562600  0.67171100  0.32944400  1
  Ba  Ba4  1  0.93437400  0.32828900  0.67055600  1
  Ba  Ba5  1  0.62139600  0.19463300  0.70924300  1
  Ba  Ba6  1  0.12139600  0.80536700  0.79075700  1
  Ba  Ba7  1  0.43437400  0.67171100  0.82944400  1
  Y  Y8  1  0.20641600  0.16276800  0.01520500  1
  Y  Y9  1  0.70641600  0.83723200  0.48479500  1
  Y  Y10  1  0.29358400  0.16276800  0.51520500  1
  Y  Y11  1  0.79358400  0.83723200  0.98479500  1
  Cl  Cl12  1  0.18829800  0.82710100  0.11331100  1
  Cl  Cl13  1  0.37429400  0.15154600  0.10849700  1
  Cl  Cl14  1  0.43523400  0.63538100  0.09202300  1
  Cl  Cl15  1  0.94232100  0.85844900  0.11445400  1
  Cl  Cl16  1  0.09018900  0.32127900  0.14033400  1
  Cl  Cl17  1  0.70299800  0.99854100  0.13780200  1
  Cl  Cl18  1  0.75651500  0.52569000  0.11558600  1
  Cl  Cl19  1  0.25651500  0.47431000  0.38441400  1
  Cl  Cl20  1  0.20299800  0.00145900  0.36219800  1
  Cl  Cl21  1  0.59018900  0.67872100  0.35966600  1
  Cl  Cl22  1  0.44232100  0.14155100  0.38554600  1
  Cl  Cl23  1  0.93523400  0.36461900  0.40797700  1
  Cl  Cl24  1  0.87429400  0.84845400  0.39150300  1
  Cl  Cl25  1  0.68829800  0.17289900  0.38668900  1
  Cl  Cl26  1  0.31170200  0.82710100  0.61331100  1
  Cl  Cl27  1  0.12570600  0.15154600  0.60849700  1
  Cl  Cl28  1  0.06476600  0.63538100  0.59202300  1
  Cl  Cl29  1  0.55767900  0.85844900  0.61445400  1
  Cl  Cl30  1  0.40981100  0.32127900  0.64033400  1
  Cl  Cl31  1  0.79700200  0.99854100  0.63780200  1
  Cl  Cl32  1  0.74348500  0.52569000  0.61558600  1
  Cl  Cl33  1  0.24348500  0.47431000  0.88441400  1
  Cl  Cl34  1  0.29700200  0.00145900  0.86219800  1
  Cl  Cl35  1  0.90981100  0.67872100  0.85966600  1
  Cl  Cl36  1  0.05767900  0.14155100  0.88554600  1
  Cl  Cl37  1  0.56476600  0.36461900  0.90797700  1
  Cl  Cl38  1  0.62570600  0.84845400  0.89150300  1
  Cl  Cl39  1  0.81170200  0.17289900  0.88668900  1
