# generated using pymatgen
data_Na2SnCSO7
_symmetry_space_group_name_H-M   'P 1'
_cell_length_a   7.10661200
_cell_length_b   5.47659500
_cell_length_c   9.37947035
_cell_angle_alpha   87.33012763
_cell_angle_beta   90.00000000
_cell_angle_gamma   90.00000000
_symmetry_Int_Tables_number   1
_chemical_formula_structural   Na2SnCSO7
_chemical_formula_sum   'Na4 Sn2 C2 S2 O14'
_cell_volume   364.65306280
_cell_formula_units_Z   2
loop_
 _symmetry_equiv_pos_site_id
 _symmetry_equiv_pos_as_xyz
  1  'x, y, z'
loop_
 _atom_site_type_symbol
 _atom_site_label
 _atom_site_symmetry_multiplicity
 _atom_site_fract_x
 _atom_site_fract_y
 _atom_site_fract_z
 _atom_site_occupancy
  Na  Na0  1  0.49593700  0.23495500  0.78995500  1
  Na  Na1  1  0.00406300  0.23495500  0.78995500  1
  Na  Na2  1  0.50406300  0.76504500  0.21004500  1
  Na  Na3  1  0.99593700  0.76504500  0.21004500  1
  Sn  Sn4  1  0.75000000  0.76655300  0.62596900  1
  Sn  Sn5  1  0.25000000  0.23344700  0.37403100  1
  C  C6  1  0.75000000  0.73683100  0.91733600  1
  C  C7  1  0.25000000  0.26316900  0.08266400  1
  S  S8  1  0.25000000  0.73193400  0.60647900  1
  S  S9  1  0.75000000  0.26806600  0.39352100  1
  O  O10  1  0.25000000  0.26614400  0.94811800  1
  O  O11  1  0.75000000  0.94570500  0.83851000  1
  O  O12  1  0.75000000  0.53660200  0.84369400  1
  O  O13  1  0.08121700  0.85939900  0.66306000  1
  O  O14  1  0.41878300  0.85939900  0.66306000  1
  O  O15  1  0.75000000  0.24516800  0.55480000  1
  O  O16  1  0.25000000  0.47033100  0.65338600  1
  O  O17  1  0.75000000  0.52966900  0.34661400  1
  O  O18  1  0.25000000  0.75483200  0.44520000  1
  O  O19  1  0.58121700  0.14060100  0.33694000  1
  O  O20  1  0.91878300  0.14060100  0.33694000  1
  O  O21  1  0.25000000  0.46339800  0.15630600  1
  O  O22  1  0.25000000  0.05429500  0.16149000  1
  O  O23  1  0.75000000  0.73385600  0.05188200  1
