# generated using pymatgen
data_BaLa3
_symmetry_space_group_name_H-M   'P 1'
_cell_length_a   7.94373671
_cell_length_b   7.94373671
_cell_length_c   6.18155300
_cell_angle_alpha   90.00000000
_cell_angle_beta   90.00000000
_cell_angle_gamma   120.00000594
_symmetry_Int_Tables_number   1
_chemical_formula_structural   BaLa3
_chemical_formula_sum   'Ba2 La6'
_cell_volume   337.81418809
_cell_formula_units_Z   2
loop_
 _symmetry_equiv_pos_site_id
 _symmetry_equiv_pos_as_xyz
  1  'x, y, z'
loop_
 _atom_site_type_symbol
 _atom_site_label
 _atom_site_symmetry_multiplicity
 _atom_site_fract_x
 _atom_site_fract_y
 _atom_site_fract_z
 _atom_site_occupancy
  Ba  Ba0  1  0.33333300  0.66666700  0.75000000  1
  Ba  Ba1  1  0.66666700  0.33333300  0.25000000  1
  La  La2  1  0.15612100  0.31224300  0.25000000  1
  La  La3  1  0.68775700  0.84387900  0.25000000  1
  La  La4  1  0.15612100  0.84387900  0.25000000  1
  La  La5  1  0.84387900  0.68775700  0.75000000  1
  La  La6  1  0.31224300  0.15612100  0.75000000  1
  La  La7  1  0.84387900  0.15612100  0.75000000  1
