# generated using pymatgen
data_Li4CrFe3O8
_symmetry_space_group_name_H-M   'P 1'
_cell_length_a   5.19603168
_cell_length_b   5.96928917
_cell_length_c   10.75608963
_cell_angle_alpha   106.06307957
_cell_angle_beta   85.41294707
_cell_angle_gamma   73.19355571
_symmetry_Int_Tables_number   1
_chemical_formula_structural   Li4CrFe3O8
_chemical_formula_sum   'Li8 Cr2 Fe6 O16'
_cell_volume   302.22243635
_cell_formula_units_Z   2
loop_
 _symmetry_equiv_pos_site_id
 _symmetry_equiv_pos_as_xyz
  1  'x, y, z'
loop_
 _atom_site_type_symbol
 _atom_site_label
 _atom_site_symmetry_multiplicity
 _atom_site_fract_x
 _atom_site_fract_y
 _atom_site_fract_z
 _atom_site_occupancy
  Li  Li0  1  0.99913900  0.12546700  0.75015300  1
  Li  Li1  1  0.00022100  0.99956800  0.00040100  1
  Li  Li2  1  0.00293300  0.24897600  0.50018700  1
  Li  Li3  1  0.99979700  0.37517600  0.24999900  1
  Li  Li4  1  0.00081600  0.62439900  0.74968500  1
  Li  Li5  1  0.99730000  0.50074100  0.99986400  1
  Li  Li6  1  0.99987800  0.75056600  0.49960700  1
  Li  Li7  1  0.00000500  0.87487000  0.25009000  1
  Cr  Cr8  1  0.50117800  0.81222700  0.37378400  1
  Cr  Cr9  1  0.49880600  0.93784100  0.12619700  1
  Fe  Fe10  1  0.49898100  0.06283800  0.87590200  1
  Fe  Fe11  1  0.49999200  0.18698700  0.62423700  1
  Fe  Fe12  1  0.50109800  0.31269600  0.37436900  1
  Fe  Fe13  1  0.50000700  0.56297800  0.87577600  1
  Fe  Fe14  1  0.49882900  0.43739600  0.12560900  1
  Fe  Fe15  1  0.50108400  0.68709500  0.62409600  1
  O  O16  1  0.27344600  0.08584200  0.31033700  1
  O  O17  1  0.72723000  0.03603500  0.43821400  1
  O  O18  1  0.27065000  0.33836600  0.81159300  1
  O  O19  1  0.72884500  0.28720500  0.93984100  1
  O  O20  1  0.72630700  0.16092200  0.18914700  1
  O  O21  1  0.27040200  0.21235300  0.06259900  1
  O  O22  1  0.27112200  0.46278500  0.56017000  1
  O  O23  1  0.72938300  0.41155300  0.68838900  1
  O  O24  1  0.27362300  0.58919500  0.31085300  1
  O  O25  1  0.72950800  0.53779200  0.43739700  1
  O  O26  1  0.27135500  0.83748600  0.81045600  1
  O  O27  1  0.72597300  0.78889000  0.94141800  1
  O  O28  1  0.27273300  0.71405100  0.06182200  1
  O  O29  1  0.27400200  0.96108000  0.55860100  1
  O  O30  1  0.72658600  0.66420200  0.18965800  1
  O  O31  1  0.72877100  0.91242300  0.68954800  1
