# generated using pymatgen
data_Tb2(WO4)3
_symmetry_space_group_name_H-M   'P 1'
_cell_length_a   6.95846450
_cell_length_b   6.95846450
_cell_length_c   11.44850080
_cell_angle_alpha   79.13326657
_cell_angle_beta   79.13326657
_cell_angle_gamma   111.97316103
_symmetry_Int_Tables_number   1
_chemical_formula_structural   Tb2(WO4)3
_chemical_formula_sum   'Tb4 W6 O24'
_cell_volume   483.99672520
_cell_formula_units_Z   2
loop_
 _symmetry_equiv_pos_site_id
 _symmetry_equiv_pos_as_xyz
  1  'x, y, z'
loop_
 _atom_site_type_symbol
 _atom_site_label
 _atom_site_symmetry_multiplicity
 _atom_site_fract_x
 _atom_site_fract_y
 _atom_site_fract_z
 _atom_site_occupancy
  Tb  Tb0  1  0.71117300  0.95878000  0.09411300  1
  Tb  Tb1  1  0.95878000  0.71117300  0.59411300  1
  Tb  Tb2  1  0.04122000  0.28882700  0.40588700  1
  Tb  Tb3  1  0.28882700  0.04122000  0.90588700  1
  W  W4  1  0.54074700  0.75434600  0.45183700  1
  W  W5  1  0.75434600  0.54074700  0.95183700  1
  W  W6  1  0.13187900  0.86812100  0.25000000  1
  W  W7  1  0.86812100  0.13187900  0.75000000  1
  W  W8  1  0.24565400  0.45925300  0.04816300  1
  W  W9  1  0.45925300  0.24565400  0.54816300  1
  O  O10  1  0.54772800  0.90606100  0.30064800  1
  O  O11  1  0.86836400  0.78953200  0.22231600  1
  O  O12  1  0.08051000  0.66062900  0.39318200  1
  O  O13  1  0.76885500  0.33295100  0.06283600  1
  O  O14  1  0.81703100  0.92116100  0.46350000  1
  O  O15  1  0.52803200  0.60616400  0.07462900  1
  O  O16  1  0.90606100  0.54772800  0.80064800  1
  O  O17  1  0.39383500  0.47196800  0.42537100  1
  O  O18  1  0.07883900  0.18296900  0.03650000  1
  O  O19  1  0.66704900  0.23114500  0.43716400  1
  O  O20  1  0.33937100  0.91949000  0.10681800  1
  O  O21  1  0.78953200  0.86836400  0.72231600  1
  O  O22  1  0.21046800  0.13163600  0.27768400  1
  O  O23  1  0.66062900  0.08051000  0.89318200  1
  O  O24  1  0.33295100  0.76885500  0.56283600  1
  O  O25  1  0.92116100  0.81703100  0.96350000  1
  O  O26  1  0.60616400  0.52803200  0.57462900  1
  O  O27  1  0.09393900  0.45227200  0.19935200  1
  O  O28  1  0.47196800  0.39383500  0.92537100  1
  O  O29  1  0.18296900  0.07883900  0.53650000  1
  O  O30  1  0.23114500  0.66704900  0.93716400  1
  O  O31  1  0.91949000  0.33937100  0.60681800  1
  O  O32  1  0.13163600  0.21046800  0.77768400  1
  O  O33  1  0.45227200  0.09393900  0.69935200  1
