# generated using pymatgen
data_Na2CuO2
_symmetry_space_group_name_H-M   'P 1'
_cell_length_a   5.70763000
_cell_length_b   8.76589200
_cell_length_c   11.49088948
_cell_angle_alpha   87.51758576
_cell_angle_beta   90.00000000
_cell_angle_gamma   90.00000000
_symmetry_Int_Tables_number   1
_chemical_formula_structural   Na2CuO2
_chemical_formula_sum   'Na16 Cu8 O16'
_cell_volume   574.37803787
_cell_formula_units_Z   8
loop_
 _symmetry_equiv_pos_site_id
 _symmetry_equiv_pos_as_xyz
  1  'x, y, z'
loop_
 _atom_site_type_symbol
 _atom_site_label
 _atom_site_symmetry_multiplicity
 _atom_site_fract_x
 _atom_site_fract_y
 _atom_site_fract_z
 _atom_site_occupancy
  Na  Na0  1  0.53065600  0.14620500  0.02512700  1
  Na  Na1  1  0.89429900  0.48586200  0.07317900  1
  Na  Na2  1  0.57361100  0.80796300  0.13405200  1
  Na  Na3  1  0.35285800  0.43585700  0.21071000  1
  Na  Na4  1  0.64963300  0.05428700  0.29201300  1
  Na  Na5  1  0.44742000  0.68505900  0.37222000  1
  Na  Na6  1  0.45025400  0.33780500  0.48555600  1
  Na  Na7  1  0.09726700  0.00902000  0.42477600  1
  Na  Na8  1  0.59726700  0.99098000  0.57522400  1
  Na  Na9  1  0.95025400  0.66219500  0.51444400  1
  Na  Na10  1  0.94742000  0.31494100  0.62778000  1
  Na  Na11  1  0.14963300  0.94571300  0.70798700  1
  Na  Na12  1  0.85285800  0.56414300  0.78929000  1
  Na  Na13  1  0.07361100  0.19203700  0.86594800  1
  Na  Na14  1  0.39429900  0.51413800  0.92682100  1
  Na  Na15  1  0.03065600  0.85379500  0.97487300  1
  Cu  Cu16  1  0.08176100  0.16669500  0.11785700  1
  Cu  Cu17  1  0.05513700  0.88617600  0.21472600  1
  Cu  Cu18  1  0.96787000  0.61276600  0.28350100  1
  Cu  Cu19  1  0.89561800  0.33498000  0.37545200  1
  Cu  Cu20  1  0.39561800  0.66502000  0.62454800  1
  Cu  Cu21  1  0.46787000  0.38723400  0.71649900  1
  Cu  Cu22  1  0.55513700  0.11382400  0.78527400  1
  Cu  Cu23  1  0.58176100  0.83330500  0.88214300  1
  O  O24  1  0.22202500  0.33341100  0.04131200  1
  O  O25  1  0.83827300  0.02152300  0.11216300  1
  O  O26  1  0.28328500  0.04621800  0.22232600  1
  O  O27  1  0.22159700  0.69980200  0.19288200  1
  O  O28  1  0.72069500  0.46279500  0.26578800  1
  O  O29  1  0.80453600  0.80624500  0.32740400  1
  O  O30  1  0.15401000  0.46966400  0.38743600  1
  O  O31  1  0.77896200  0.16832600  0.45864500  1
  O  O32  1  0.27896200  0.83167400  0.54135500  1
  O  O33  1  0.65401000  0.53033600  0.61256400  1
  O  O34  1  0.30453600  0.19375500  0.67259600  1
  O  O35  1  0.22069500  0.53720500  0.73421200  1
  O  O36  1  0.72159700  0.30019800  0.80711800  1
  O  O37  1  0.78328500  0.95378200  0.77767400  1
  O  O38  1  0.33827300  0.97847700  0.88783700  1
  O  O39  1  0.72202500  0.66658900  0.95868800  1
