# generated using pymatgen
data_Na5Mn2P2(CO7)2
_symmetry_space_group_name_H-M   'P 1'
_cell_length_a   6.63488400
_cell_length_b   9.07438898
_cell_length_c   10.52729796
_cell_angle_alpha   90.90544440
_cell_angle_beta   90.24676241
_cell_angle_gamma   90.30310545
_symmetry_Int_Tables_number   1
_chemical_formula_structural   Na5Mn2P2(CO7)2
_chemical_formula_sum   'Na10 Mn4 P4 C4 O28'
_cell_volume   633.72836462
_cell_formula_units_Z   2
loop_
 _symmetry_equiv_pos_site_id
 _symmetry_equiv_pos_as_xyz
  1  'x, y, z'
loop_
 _atom_site_type_symbol
 _atom_site_label
 _atom_site_symmetry_multiplicity
 _atom_site_fract_x
 _atom_site_fract_y
 _atom_site_fract_z
 _atom_site_occupancy
  Na  Na0  1  0.25929000  0.07069500  0.61923500  1
  Na  Na1  1  0.00587900  0.25567000  0.36871200  1
  Na  Na2  1  0.49328800  0.25536500  0.36676800  1
  Na  Na3  1  0.00771100  0.25274800  0.88429800  1
  Na  Na4  1  0.49201500  0.25354100  0.88560800  1
  Na  Na5  1  0.49801100  0.75125700  0.12607800  1
  Na  Na6  1  0.00492100  0.75195600  0.12335300  1
  Na  Na7  1  0.98779700  0.73729200  0.62351200  1
  Na  Na8  1  0.74055200  0.91631900  0.38889800  1
  Na  Na9  1  0.74068400  0.91678200  0.87530300  1
  Mn  Mn10  1  0.75160400  0.35653800  0.11123600  1
  Mn  Mn11  1  0.74813800  0.35665100  0.61031400  1
  Mn  Mn12  1  0.25647000  0.64786700  0.39585300  1
  Mn  Mn13  1  0.25462200  0.64828900  0.88320500  1
  P  P14  1  0.25109600  0.42516800  0.14890800  1
  P  P15  1  0.24797300  0.41809200  0.64857600  1
  P  P16  1  0.75183700  0.58202900  0.34782800  1
  P  P17  1  0.75190400  0.57866500  0.85162900  1
  C  C18  1  0.75020500  0.06339000  0.13496600  1
  C  C19  1  0.75320600  0.06575800  0.63553500  1
  C  C20  1  0.24671900  0.93376500  0.36556500  1
  C  C21  1  0.24619300  0.93392600  0.86099300  1
  O  O22  1  0.24835500  0.07469000  0.37269100  1
  O  O23  1  0.25024800  0.07518400  0.85746400  1
  O  O24  1  0.74940400  0.13044300  0.02573300  1
  O  O25  1  0.74652800  0.13394000  0.52620100  1
  O  O26  1  0.74963800  0.14416400  0.23833800  1
  O  O27  1  0.74536900  0.14625900  0.73947000  1
  O  O28  1  0.06302300  0.33128300  0.11309500  1
  O  O29  1  0.43938600  0.33312900  0.11351300  1
  O  O30  1  0.06384700  0.31836700  0.61508400  1
  O  O31  1  0.43331900  0.32363000  0.61198600  1
  O  O32  1  0.25123200  0.45131900  0.29857200  1
  O  O33  1  0.74824600  0.43072700  0.41349200  1
  O  O34  1  0.25076400  0.44579000  0.79695800  1
  O  O35  1  0.75135900  0.42749500  0.91757600  1
  O  O36  1  0.25083500  0.57544000  0.08231300  1
  O  O37  1  0.75900000  0.55811500  0.20049600  1
  O  O38  1  0.24069700  0.56646000  0.58142500  1
  O  O39  1  0.75743900  0.55271100  0.70648100  1
  O  O40  1  0.56446900  0.67848300  0.37764300  1
  O  O41  1  0.93784600  0.67756900  0.38884100  1
  O  O42  1  0.56722200  0.67379500  0.89198300  1
  O  O43  1  0.93765300  0.67598500  0.89111200  1
  O  O44  1  0.25075800  0.85581800  0.26247600  1
  O  O45  1  0.23365300  0.85401400  0.75834800  1
  O  O46  1  0.24308100  0.85936800  0.47316700  1
  O  O47  1  0.25714000  0.86293200  0.96877200  1
  O  O48  1  0.75139300  0.92203000  0.13898900  1
  O  O49  1  0.76588100  0.92582100  0.63783000  1
