# generated using pymatgen
data_MgSO3
_symmetry_space_group_name_H-M   'P 1'
_cell_length_a   7.80003466
_cell_length_b   7.80003466
_cell_length_c   7.80003392
_cell_angle_alpha   109.40732782
_cell_angle_beta   109.40732782
_cell_angle_gamma   109.40733519
_symmetry_Int_Tables_number   1
_chemical_formula_structural   MgSO3
_chemical_formula_sum   'Mg6 S6 O18'
_cell_volume   366.17673124
_cell_formula_units_Z   6
loop_
 _symmetry_equiv_pos_site_id
 _symmetry_equiv_pos_as_xyz
  1  'x, y, z'
loop_
 _atom_site_type_symbol
 _atom_site_label
 _atom_site_symmetry_multiplicity
 _atom_site_fract_x
 _atom_site_fract_y
 _atom_site_fract_z
 _atom_site_occupancy
  Mg  Mg0  1  0.68720700  0.86913800  0.18567100  1
  Mg  Mg1  1  0.13086200  0.81432900  0.31279300  1
  Mg  Mg2  1  0.81432900  0.31279300  0.13086200  1
  Mg  Mg3  1  0.18567100  0.68720700  0.86913800  1
  Mg  Mg4  1  0.86913800  0.18567100  0.68720700  1
  Mg  Mg5  1  0.31279300  0.13086200  0.81432900  1
  S  S6  1  0.29223200  0.47440400  0.14742700  1
  S  S7  1  0.85257300  0.70776800  0.52559600  1
  S  S8  1  0.52559600  0.85257300  0.70776800  1
  S  S9  1  0.47440400  0.14742700  0.29223200  1
  S  S10  1  0.14742700  0.29223200  0.47440400  1
  S  S11  1  0.70776800  0.52559600  0.85257300  1
  O  O12  1  0.26398500  0.93657500  0.15907500  1
  O  O13  1  0.84092500  0.73601500  0.06342500  1
  O  O14  1  0.38641500  0.63679600  0.08538700  1
  O  O15  1  0.81249300  0.87520500  0.48112700  1
  O  O16  1  0.12479500  0.51887300  0.18750700  1
  O  O17  1  0.36320400  0.91461300  0.61358500  1
  O  O18  1  0.91461300  0.61358500  0.36320400  1
  O  O19  1  0.06342500  0.84092500  0.73601500  1
  O  O20  1  0.51887300  0.18750700  0.12479500  1
  O  O21  1  0.48112700  0.81249300  0.87520500  1
  O  O22  1  0.93657500  0.15907500  0.26398500  1
  O  O23  1  0.08538700  0.38641500  0.63679600  1
  O  O24  1  0.63679600  0.08538700  0.38641500  1
  O  O25  1  0.87520500  0.48112700  0.81249300  1
  O  O26  1  0.18750700  0.12479500  0.51887300  1
  O  O27  1  0.61358500  0.36320400  0.91461300  1
  O  O28  1  0.15907500  0.26398500  0.93657500  1
  O  O29  1  0.73601500  0.06342500  0.84092500  1
