# generated using pymatgen
data_Na6Sn2C4SO16
_symmetry_space_group_name_H-M   'P 1'
_cell_length_a   10.32383820
_cell_length_b   10.32383820
_cell_length_c   10.32383820
_cell_angle_alpha   60.00000000
_cell_angle_beta   60.00000000
_cell_angle_gamma   60.00000000
_symmetry_Int_Tables_number   1
_chemical_formula_structural   Na6Sn2C4SO16
_chemical_formula_sum   'Na12 Sn4 C8 S2 O32'
_cell_volume   778.05190558
_cell_formula_units_Z   2
loop_
 _symmetry_equiv_pos_site_id
 _symmetry_equiv_pos_as_xyz
  1  'x, y, z'
loop_
 _atom_site_type_symbol
 _atom_site_label
 _atom_site_symmetry_multiplicity
 _atom_site_fract_x
 _atom_site_fract_y
 _atom_site_fract_z
 _atom_site_occupancy
  Na  Na0  1  0.45749300  0.45749300  0.04250700  1
  Na  Na1  1  0.20749300  0.79250700  0.79250700  1
  Na  Na2  1  0.45749300  0.04250700  0.45749300  1
  Na  Na3  1  0.04250700  0.45749300  0.04250700  1
  Na  Na4  1  0.20749300  0.20749300  0.79250700  1
  Na  Na5  1  0.79250700  0.20749300  0.20749300  1
  Na  Na6  1  0.45749300  0.04250700  0.04250700  1
  Na  Na7  1  0.04250700  0.04250700  0.45749300  1
  Na  Na8  1  0.79250700  0.20749300  0.79250700  1
  Na  Na9  1  0.20749300  0.79250700  0.20749300  1
  Na  Na10  1  0.04250700  0.45749300  0.45749300  1
  Na  Na11  1  0.79250700  0.79250700  0.20749300  1
  Sn  Sn12  1  0.62500000  0.12500000  0.62500000  1
  Sn  Sn13  1  0.62500000  0.62500000  0.12500000  1
  Sn  Sn14  1  0.62500000  0.62500000  0.62500000  1
  Sn  Sn15  1  0.12500000  0.62500000  0.62500000  1
  C  C16  1  0.85388900  0.43833400  0.85388900  1
  C  C17  1  0.85388900  0.85388900  0.43833400  1
  C  C18  1  0.43833400  0.85388900  0.85388900  1
  C  C19  1  0.85388900  0.85388900  0.85388900  1
  C  C20  1  0.39611100  0.39611100  0.39611100  1
  C  C21  1  0.39611100  0.39611100  0.81166600  1
  C  C22  1  0.81166600  0.39611100  0.39611100  1
  C  C23  1  0.39611100  0.81166600  0.39611100  1
  S  S24  1  0.25000000  0.25000000  0.25000000  1
  S  S25  1  0.00000000  0.00000000  0.00000000  1
  O  O26  1  0.39686700  0.52182000  0.81188000  1
  O  O27  1  0.26943200  0.81188000  0.52182000  1
  O  O28  1  0.72818000  0.43812000  0.85313300  1
  O  O29  1  0.85313300  0.43812000  0.98056800  1
  O  O30  1  0.19080200  0.19080200  0.19080200  1
  O  O31  1  0.43812000  0.85313300  0.72818000  1
  O  O32  1  0.43812000  0.72818000  0.98056800  1
  O  O33  1  0.19080200  0.19080200  0.42759300  1
  O  O34  1  0.42759300  0.19080200  0.19080200  1
  O  O35  1  0.98056800  0.85313300  0.43812000  1
  O  O36  1  0.72818000  0.98056800  0.43812000  1
  O  O37  1  0.19080200  0.42759300  0.19080200  1
  O  O38  1  0.98056800  0.72818000  0.85313300  1
  O  O39  1  0.43812000  0.98056800  0.85313300  1
  O  O40  1  0.72818000  0.85313300  0.98056800  1
  O  O41  1  0.39686700  0.26943200  0.52182000  1
  O  O42  1  0.85313300  0.98056800  0.72818000  1
  O  O43  1  0.52182000  0.39686700  0.26943200  1
  O  O44  1  0.81188000  0.26943200  0.39686700  1
  O  O45  1  0.26943200  0.52182000  0.39686700  1
  O  O46  1  0.05919800  0.82240700  0.05919800  1
  O  O47  1  0.52182000  0.26943200  0.81188000  1
  O  O48  1  0.26943200  0.39686700  0.81188000  1
  O  O49  1  0.82240700  0.05919800  0.05919800  1
  O  O50  1  0.05919800  0.05919800  0.82240700  1
  O  O51  1  0.81188000  0.52182000  0.26943200  1
  O  O52  1  0.81188000  0.39686700  0.52182000  1
  O  O53  1  0.05919800  0.05919800  0.05919800  1
  O  O54  1  0.39686700  0.81188000  0.26943200  1
  O  O55  1  0.52182000  0.81188000  0.39686700  1
  O  O56  1  0.98056800  0.43812000  0.72818000  1
  O  O57  1  0.85313300  0.72818000  0.43812000  1
