# generated using pymatgen
data_Na5Ni2P2(CO7)2
_symmetry_space_group_name_H-M   'P 1'
_cell_length_a   5.17570000
_cell_length_b   8.88374230
_cell_length_c   13.32133584
_cell_angle_alpha   89.83822862
_cell_angle_beta   89.97641302
_cell_angle_gamma   88.40679167
_symmetry_Int_Tables_number   1
_chemical_formula_structural   Na5Ni2P2(CO7)2
_chemical_formula_sum   'Na10 Ni4 P4 C4 O28'
_cell_volume   612.27023378
_cell_formula_units_Z   2
loop_
 _symmetry_equiv_pos_site_id
 _symmetry_equiv_pos_as_xyz
  1  'x, y, z'
loop_
 _atom_site_type_symbol
 _atom_site_label
 _atom_site_symmetry_multiplicity
 _atom_site_fract_x
 _atom_site_fract_y
 _atom_site_fract_z
 _atom_site_occupancy
  Na  Na0  1  0.77427600  0.08098600  0.12552500  1
  Na  Na1  1  0.24900500  0.26309100  0.74349800  1
  Na  Na2  1  0.24258100  0.25362500  0.50749900  1
  Na  Na3  1  0.25078600  0.26598200  0.24516600  1
  Na  Na4  1  0.25449800  0.27190100  0.00334400  1
  Na  Na5  1  0.75741900  0.74637500  0.49250100  1
  Na  Na6  1  0.75099500  0.73690900  0.25650200  1
  Na  Na7  1  0.74550200  0.72809900  0.99665600  1
  Na  Na8  1  0.74921400  0.73401800  0.75483400  1
  Na  Na9  1  0.22572400  0.91901400  0.87447500  1
  Ni  Ni10  1  0.77669400  0.34874900  0.37674700  1
  Ni  Ni11  1  0.77785200  0.34742800  0.87407500  1
  Ni  Ni12  1  0.22330600  0.65125100  0.62325300  1
  Ni  Ni13  1  0.22214800  0.65257200  0.12592500  1
  P  P14  1  0.71894300  0.42245400  0.62476100  1
  P  P15  1  0.71620200  0.41659800  0.12527500  1
  P  P16  1  0.28105700  0.57754600  0.37523900  1
  P  P17  1  0.28379800  0.58340200  0.87472500  1
  C  C18  1  0.71388700  0.07702500  0.37575600  1
  C  C19  1  0.71452600  0.06465000  0.87486800  1
  C  C20  1  0.28547400  0.93535000  0.12513200  1
  C  C21  1  0.28611300  0.92297500  0.62424400  1
  O  O22  1  0.30644400  0.06331600  0.62759700  1
  O  O23  1  0.31093100  0.07909100  0.12338400  1
  O  O24  1  0.93815500  0.14112400  0.37637200  1
  O  O25  1  0.94165300  0.12375700  0.87564600  1
  O  O26  1  0.51829900  0.17281100  0.37642500  1
  O  O27  1  0.51407900  0.15678800  0.87420800  1
  O  O28  1  0.78860100  0.31628400  0.21767500  1
  O  O29  1  0.78369600  0.32847800  0.71926100  1
  O  O30  1  0.78469200  0.32590900  0.53193600  1
  O  O31  1  0.79016100  0.31875700  0.03206100  1
  O  O32  1  0.13862000  0.42625200  0.37664300  1
  O  O33  1  0.14358200  0.43252600  0.87330200  1
  O  O34  1  0.41871400  0.46055700  0.62523200  1
  O  O35  1  0.41827100  0.44944700  0.12459400  1
  O  O36  1  0.58128600  0.53944300  0.37476800  1
  O  O37  1  0.58172900  0.55055300  0.87540600  1
  O  O38  1  0.85641800  0.56747400  0.12669800  1
  O  O39  1  0.86138000  0.57374800  0.62335700  1
  O  O40  1  0.20983900  0.68124300  0.96793900  1
  O  O41  1  0.21139900  0.68371600  0.78232500  1
  O  O42  1  0.21530800  0.67409100  0.46806400  1
  O  O43  1  0.21630400  0.67152200  0.28073900  1
  O  O44  1  0.48170100  0.82718900  0.62357500  1
  O  O45  1  0.48592100  0.84321200  0.12579200  1
  O  O46  1  0.05834700  0.87624300  0.12435400  1
  O  O47  1  0.06184500  0.85887600  0.62362800  1
  O  O48  1  0.68906900  0.92090900  0.87661600  1
  O  O49  1  0.69355600  0.93668400  0.37240300  1
