# generated using pymatgen
data_Gd3TaO7
_symmetry_space_group_name_H-M   'P 1'
_cell_length_a   6.54887806
_cell_length_b   6.54887864
_cell_length_c   7.58986900
_cell_angle_alpha   90.00000000
_cell_angle_beta   90.00000000
_cell_angle_gamma   109.38931795
_symmetry_Int_Tables_number   1
_chemical_formula_structural   Gd3TaO7
_chemical_formula_sum   'Gd6 Ta2 O14'
_cell_volume   307.05124017
_cell_formula_units_Z   2
loop_
 _symmetry_equiv_pos_site_id
 _symmetry_equiv_pos_as_xyz
  1  'x, y, z'
loop_
 _atom_site_type_symbol
 _atom_site_label
 _atom_site_symmetry_multiplicity
 _atom_site_fract_x
 _atom_site_fract_y
 _atom_site_fract_z
 _atom_site_occupancy
  Gd  Gd0  1  0.46616100  0.00028900  0.25264900  1
  Gd  Gd1  1  0.99971100  0.53383900  0.24735100  1
  Gd  Gd2  1  0.48091900  0.48091900  0.00000000  1
  Gd  Gd3  1  0.51908100  0.51908100  0.50000000  1
  Gd  Gd4  1  0.53383900  0.99971100  0.75264900  1
  Gd  Gd5  1  0.00028900  0.46616100  0.74735100  1
  Ta  Ta6  1  0.00144900  0.00144900  0.50000000  1
  Ta  Ta7  1  0.99855100  0.99855100  0.00000000  1
  O  O8  1  0.93728300  0.06271700  0.75000000  1
  O  O9  1  0.63753400  0.36246600  0.75000000  1
  O  O10  1  0.31254900  0.06082000  0.53560900  1
  O  O11  1  0.93918000  0.68745100  0.96439100  1
  O  O12  1  0.62868600  0.37131400  0.25000000  1
  O  O13  1  0.92218700  0.67708800  0.52831100  1
  O  O14  1  0.32291200  0.07781300  0.97168900  1
  O  O15  1  0.07781300  0.32291200  0.02831100  1
  O  O16  1  0.67708800  0.92218700  0.47168900  1
  O  O17  1  0.37131400  0.62868600  0.75000000  1
  O  O18  1  0.68745100  0.93918000  0.03560900  1
  O  O19  1  0.06082000  0.31254900  0.46439100  1
  O  O20  1  0.36246600  0.63753400  0.25000000  1
  O  O21  1  0.06271700  0.93728300  0.25000000  1
