# generated using pymatgen
data_Na3CrPCO7
_symmetry_space_group_name_H-M   'P 1'
_cell_length_a   8.51870296
_cell_length_b   8.51879899
_cell_length_c   9.16144766
_cell_angle_alpha   89.07019980
_cell_angle_beta   89.06861944
_cell_angle_gamma   103.12202999
_symmetry_Int_Tables_number   1
_chemical_formula_structural   Na3CrPCO7
_chemical_formula_sum   'Na12 Cr4 P4 C4 O28'
_cell_volume   647.25743346
_cell_formula_units_Z   4
loop_
 _symmetry_equiv_pos_site_id
 _symmetry_equiv_pos_as_xyz
  1  'x, y, z'
loop_
 _atom_site_type_symbol
 _atom_site_label
 _atom_site_symmetry_multiplicity
 _atom_site_fract_x
 _atom_site_fract_y
 _atom_site_fract_z
 _atom_site_occupancy
  Na  Na0  1  0.51625200  0.26622700  0.08649700  1
  Na  Na1  1  0.01635800  0.76628200  0.08652600  1
  Na  Na2  1  0.48379100  0.73376600  0.91350300  1
  Na  Na3  1  0.98368100  0.23362900  0.91347900  1
  Na  Na4  1  0.12476300  0.12247500  0.26273100  1
  Na  Na5  1  0.62472600  0.62234700  0.26271400  1
  Na  Na6  1  0.37250400  0.87474800  0.26272300  1
  Na  Na7  1  0.87243900  0.37463100  0.26265100  1
  Na  Na8  1  0.62745800  0.12517100  0.73736100  1
  Na  Na9  1  0.12757500  0.62521900  0.73733500  1
  Na  Na10  1  0.87526200  0.87755100  0.73735000  1
  Na  Na11  1  0.37520200  0.37745000  0.73727900  1
  Cr  Cr12  1  0.25929200  0.50924400  0.35556500  1
  Cr  Cr13  1  0.74070200  0.49072600  0.64446400  1
  Cr  Cr14  1  0.75916300  0.00909900  0.35551900  1
  Cr  Cr15  1  0.24051600  0.99068500  0.64435100  1
  P  P16  1  0.46951300  0.21952500  0.41764300  1
  P  P17  1  0.96947500  0.71943400  0.41762500  1
  P  P18  1  0.53050500  0.78057900  0.58240200  1
  P  P19  1  0.03048200  0.28053500  0.58238200  1
  C  C20  1  0.73391700  0.98389300  0.05396100  1
  C  C21  1  0.23390200  0.48389700  0.05390900  1
  C  C22  1  0.26611500  0.01615800  0.94602700  1
  C  C23  1  0.76611900  0.51613000  0.94608400  1
  O  O24  1  0.24823000  0.99820800  0.08650600  1
  O  O25  1  0.74820300  0.49818000  0.08654500  1
  O  O26  1  0.75180500  0.00182200  0.91345700  1
  O  O27  1  0.25195000  0.50193100  0.91346600  1
  O  O28  1  0.83313300  0.08305500  0.13750700  1
  O  O29  1  0.33302300  0.58303100  0.13757100  1
  O  O30  1  0.16688500  0.91701200  0.86246200  1
  O  O31  1  0.66693700  0.41696300  0.86250500  1
  O  O32  1  0.62162100  0.87161100  0.11268100  1
  O  O33  1  0.12153500  0.37152700  0.11256500  1
  O  O34  1  0.37845100  0.12847900  0.88730700  1
  O  O35  1  0.87844300  0.62846000  0.88736200  1
  O  O36  1  0.32177400  0.07172800  0.43594500  1
  O  O37  1  0.82174200  0.57165400  0.43601000  1
  O  O38  1  0.67827600  0.92835100  0.56398600  1
  O  O39  1  0.17823300  0.42832100  0.56404300  1
  O  O40  1  0.47086200  0.72087500  0.43111500  1
  O  O41  1  0.97085100  0.22085500  0.43109500  1
  O  O42  1  0.52922200  0.27923600  0.56890500  1
  O  O43  1  0.02917800  0.77917900  0.56887800  1
  O  O44  1  0.41624200  0.35257700  0.32387900  1
  O  O45  1  0.91630800  0.85254800  0.32383300  1
  O  O46  1  0.60260100  0.16629000  0.32384100  1
  O  O47  1  0.10262800  0.66630400  0.32383000  1
  O  O48  1  0.39737300  0.83384500  0.67615000  1
  O  O49  1  0.89733600  0.33364600  0.67617500  1
  O  O50  1  0.58377000  0.64747600  0.67614600  1
  O  O51  1  0.08367500  0.14743400  0.67615300  1
