# generated using pymatgen
data_CuHCO4
_symmetry_space_group_name_H-M   'P 1'
_cell_length_a   10.75122031
_cell_length_b   10.75122031
_cell_length_c   6.08899400
_cell_angle_alpha   90.00000000
_cell_angle_beta   90.00000000
_cell_angle_gamma   120.00000191
_symmetry_Int_Tables_number   1
_chemical_formula_structural   CuHCO4
_chemical_formula_sum   'Cu6 H6 C6 O24'
_cell_volume   609.52523723
_cell_formula_units_Z   6
loop_
 _symmetry_equiv_pos_site_id
 _symmetry_equiv_pos_as_xyz
  1  'x, y, z'
loop_
 _atom_site_type_symbol
 _atom_site_label
 _atom_site_symmetry_multiplicity
 _atom_site_fract_x
 _atom_site_fract_y
 _atom_site_fract_z
 _atom_site_occupancy
  Cu  Cu0  1  0.00000000  0.50000000  0.50000000  1
  Cu  Cu1  1  0.00000000  0.50000000  0.00000000  1
  Cu  Cu2  1  0.50000000  0.50000000  0.50000000  1
  Cu  Cu3  1  0.50000000  0.50000000  0.00000000  1
  Cu  Cu4  1  0.50000000  0.00000000  0.50000000  1
  Cu  Cu5  1  0.50000000  0.00000000  0.00000000  1
  H  H6  1  0.18700400  0.59362900  0.75000000  1
  H  H7  1  0.40662500  0.81299600  0.75000000  1
  H  H8  1  0.40637100  0.59337500  0.75000000  1
  H  H9  1  0.59362900  0.40662500  0.25000000  1
  H  H10  1  0.59337500  0.18700400  0.25000000  1
  H  H11  1  0.81299600  0.40637100  0.25000000  1
  C  C12  1  0.19251800  0.75103300  0.25000000  1
  C  C13  1  0.24896700  0.44148500  0.25000000  1
  C  C14  1  0.55851500  0.80748200  0.25000000  1
  C  C15  1  0.44148500  0.19251800  0.75000000  1
  C  C16  1  0.75103300  0.55851500  0.75000000  1
  C  C17  1  0.80748200  0.24896700  0.75000000  1
  O  O18  1  0.14701000  0.68772700  0.44077200  1
  O  O19  1  0.14701000  0.68772700  0.05922800  1
  O  O20  1  0.28961000  0.88099600  0.25000000  1
  O  O21  1  0.10138800  0.49773600  0.75000000  1
  O  O22  1  0.11900400  0.40861300  0.25000000  1
  O  O23  1  0.39634800  0.89861200  0.75000000  1
  O  O24  1  0.31227300  0.45928200  0.44077200  1
  O  O25  1  0.31227300  0.45928200  0.05922800  1
  O  O26  1  0.54071800  0.85299000  0.05922800  1
  O  O27  1  0.54071800  0.85299000  0.44077200  1
  O  O28  1  0.50226400  0.60365200  0.75000000  1
  O  O29  1  0.59138700  0.71039000  0.25000000  1
  O  O30  1  0.40861300  0.28961000  0.75000000  1
  O  O31  1  0.49773600  0.39634800  0.25000000  1
  O  O32  1  0.45928200  0.14701000  0.55922800  1
  O  O33  1  0.45928200  0.14701000  0.94077200  1
  O  O34  1  0.68772700  0.54071800  0.94077200  1
  O  O35  1  0.68772700  0.54071800  0.55922800  1
  O  O36  1  0.60365200  0.10138800  0.25000000  1
  O  O37  1  0.88099600  0.59138700  0.75000000  1
  O  O38  1  0.89861200  0.50226400  0.25000000  1
  O  O39  1  0.71039000  0.11900400  0.75000000  1
  O  O40  1  0.85299000  0.31227300  0.94077200  1
  O  O41  1  0.85299000  0.31227300  0.55922800  1
