# generated using pymatgen
data_Fe2CuO4
_symmetry_space_group_name_H-M   'P 1'
_cell_length_a   5.99978472
_cell_length_b   5.99977406
_cell_length_c   5.99984258
_cell_angle_alpha   119.55914130
_cell_angle_beta   119.55738810
_cell_angle_gamma   90.76301512
_symmetry_Int_Tables_number   1
_chemical_formula_structural   Fe2CuO4
_chemical_formula_sum   'Fe4 Cu2 O8'
_cell_volume   153.72978475
_cell_formula_units_Z   2
loop_
 _symmetry_equiv_pos_site_id
 _symmetry_equiv_pos_as_xyz
  1  'x, y, z'
loop_
 _atom_site_type_symbol
 _atom_site_label
 _atom_site_symmetry_multiplicity
 _atom_site_fract_x
 _atom_site_fract_y
 _atom_site_fract_z
 _atom_site_occupancy
  Fe  Fe0  1  0.87497600  0.62499000  0.24998000  1
  Fe  Fe1  1  0.37500200  0.12502500  0.75001100  1
  Fe  Fe2  1  0.37501200  0.62499100  0.24998500  1
  Fe  Fe3  1  0.37500800  0.62499600  0.75002300  1
  Cu  Cu4  1  0.00000500  0.99999900  0.99999900  1
  Cu  Cu5  1  0.74998700  0.25000600  0.50000100  1
  O  O6  1  0.61113700  0.38332400  0.22780400  1
  O  O7  1  0.61667400  0.84446300  0.22779300  1
  O  O8  1  0.61667000  0.38886500  0.77219400  1
  O  O9  1  0.13331400  0.40547300  0.27216900  1
  O  O10  1  0.13884300  0.86668700  0.27215400  1
  O  O11  1  0.15553400  0.38333100  0.77220900  1
  O  O12  1  0.59453100  0.86669300  0.72783900  1
  O  O13  1  0.13330800  0.86115600  0.72783900  1
