# generated using pymatgen
data_GdTa7O19
_symmetry_space_group_name_H-M   'P 1'
_cell_length_a   6.26968123
_cell_length_b   6.26968123
_cell_length_c   20.13418900
_cell_angle_alpha   90.00000000
_cell_angle_beta   90.00000000
_cell_angle_gamma   119.99999191
_symmetry_Int_Tables_number   1
_chemical_formula_structural   GdTa7O19
_chemical_formula_sum   'Gd2 Ta14 O38'
_cell_volume   685.41835382
_cell_formula_units_Z   2
loop_
 _symmetry_equiv_pos_site_id
 _symmetry_equiv_pos_as_xyz
  1  'x, y, z'
loop_
 _atom_site_type_symbol
 _atom_site_label
 _atom_site_symmetry_multiplicity
 _atom_site_fract_x
 _atom_site_fract_y
 _atom_site_fract_z
 _atom_site_occupancy
  Gd  Gd0  1  0.66666700  0.33333300  0.50000000  1
  Gd  Gd1  1  0.66666700  0.33333300  0.00000000  1
  Ta  Ta2  1  0.69364500  0.02674800  0.65555700  1
  Ta  Ta3  1  0.69364500  0.02674800  0.84444300  1
  Ta  Ta4  1  0.97325200  0.30635500  0.15555700  1
  Ta  Ta5  1  0.97325200  0.30635500  0.34444300  1
  Ta  Ta6  1  0.69364500  0.66689700  0.34444300  1
  Ta  Ta7  1  0.69364500  0.66689700  0.15555700  1
  Ta  Ta8  1  0.00000000  0.00000000  0.00000000  1
  Ta  Ta9  1  0.00000000  0.00000000  0.50000000  1
  Ta  Ta10  1  0.97325200  0.66689700  0.65555700  1
  Ta  Ta11  1  0.97325200  0.66689700  0.84444300  1
  Ta  Ta12  1  0.33310300  0.30635500  0.65555700  1
  Ta  Ta13  1  0.33310300  0.30635500  0.84444300  1
  Ta  Ta14  1  0.33310300  0.02674800  0.34444300  1
  Ta  Ta15  1  0.33310300  0.02674800  0.15555700  1
  O  O16  1  0.33329600  0.42025700  0.15327400  1
  O  O17  1  0.33329600  0.42025700  0.34672600  1
  O  O18  1  0.37547000  0.29292500  0.75000000  1
  O  O19  1  0.57974300  0.66670400  0.84672600  1
  O  O20  1  0.57974300  0.66670400  0.65327400  1
  O  O21  1  0.37547000  0.08254500  0.25000000  1
  O  O22  1  0.33329600  0.91303900  0.65327400  1
  O  O23  1  0.33329600  0.91303900  0.84672600  1
  O  O24  1  0.70707500  0.62453000  0.25000000  1
  O  O25  1  0.66666700  0.33333300  0.63127500  1
  O  O26  1  0.66666700  0.33333300  0.36872500  1
  O  O27  1  0.66666700  0.33333300  0.13127500  1
  O  O28  1  0.66666700  0.33333300  0.86872500  1
  O  O29  1  0.91745500  0.62453000  0.75000000  1
  O  O30  1  0.57974300  0.91303900  0.15327400  1
  O  O31  1  0.57974300  0.91303900  0.34672600  1
  O  O32  1  0.70707500  0.08254500  0.75000000  1
  O  O33  1  0.76202700  0.04785900  0.55606700  1
  O  O34  1  0.76202700  0.04785900  0.94393300  1
  O  O35  1  0.08696100  0.66670400  0.15327400  1
  O  O36  1  0.08696100  0.66670400  0.34672600  1
  O  O37  1  0.91745500  0.29292500  0.25000000  1
  O  O38  1  0.95214100  0.23797300  0.05606700  1
  O  O39  1  0.95214100  0.23797300  0.44393300  1
  O  O40  1  0.08696100  0.42025700  0.65327400  1
  O  O41  1  0.08696100  0.42025700  0.84672600  1
  O  O42  1  0.76202700  0.71416800  0.05606700  1
  O  O43  1  0.76202700  0.71416800  0.44393300  1
  O  O44  1  0.00000000  0.00000000  0.83331600  1
  O  O45  1  0.00000000  0.00000000  0.16668400  1
  O  O46  1  0.00000000  0.00000000  0.33331600  1
  O  O47  1  0.00000000  0.00000000  0.66668400  1
  O  O48  1  0.95214100  0.71416800  0.94393300  1
  O  O49  1  0.95214100  0.71416800  0.55606700  1
  O  O50  1  0.28583200  0.23797300  0.94393300  1
  O  O51  1  0.28583200  0.23797300  0.55606700  1
  O  O52  1  0.28583200  0.04785900  0.44393300  1
  O  O53  1  0.28583200  0.04785900  0.05606700  1
