# generated using pymatgen
data_Ag2Hg3
_symmetry_space_group_name_H-M   'P 1'
_cell_length_a   8.93220600
_cell_length_b   8.95583766
_cell_length_c   14.60412763
_cell_angle_alpha   90.35920700
_cell_angle_beta   90.55386691
_cell_angle_gamma   109.79762817
_symmetry_Int_Tables_number   1
_chemical_formula_structural   Ag2Hg3
_chemical_formula_sum   'Ag20 Hg30'
_cell_volume   1099.10451470
_cell_formula_units_Z   10
loop_
 _symmetry_equiv_pos_site_id
 _symmetry_equiv_pos_as_xyz
  1  'x, y, z'
loop_
 _atom_site_type_symbol
 _atom_site_label
 _atom_site_symmetry_multiplicity
 _atom_site_fract_x
 _atom_site_fract_y
 _atom_site_fract_z
 _atom_site_occupancy
  Ag  Ag0  1  0.00400500  0.66869700  0.99982600  1
  Ag  Ag1  1  0.81338500  0.18148400  0.82589400  1
  Ag  Ag2  1  0.64581700  0.64095800  0.00221600  1
  Ag  Ag3  1  0.35719000  0.35816200  0.99942100  1
  Ag  Ag4  1  0.68296100  0.32587300  0.67560500  1
  Ag  Ag5  1  0.66372400  0.99195500  0.00179100  1
  Ag  Ag6  1  0.17144100  0.16943500  0.83415700  1
  Ag  Ag7  1  0.49616400  0.16309800  0.50414700  1
  Ag  Ag8  1  0.66617100  0.66942000  0.67064200  1
  Ag  Ag9  1  0.85518000  0.85435200  0.50049800  1
  Ag  Ag10  1  0.14133200  0.14440400  0.49855800  1
  Ag  Ag11  1  0.17929300  0.82108400  0.82270200  1
  Ag  Ag12  1  0.32788800  0.67834600  0.67830000  1
  Ag  Ag13  1  0.66745000  0.30672100  0.32092200  1
  Ag  Ag14  1  0.82514400  0.18283100  0.17433800  1
  Ag  Ag15  1  0.16515800  0.50235000  0.50177900  1
  Ag  Ag16  1  0.66540800  0.67129100  0.33275200  1
  Ag  Ag17  1  0.16680200  0.16550500  0.17042100  1
  Ag  Ag18  1  0.31895700  0.67801900  0.32054600  1
  Ag  Ag19  1  0.17916900  0.82454800  0.17638600  1
  Hg  Hg20  1  0.00017600  0.23087500  0.99922300  1
  Hg  Hg21  1  0.79166300  0.52091500  0.83901100  1
  Hg  Hg22  1  0.87847800  0.88016300  0.88060700  1
  Hg  Hg23  1  0.37333300  0.07378900  0.70391400  1
  Hg  Hg24  1  0.98207200  0.61168300  0.65376700  1
  Hg  Hg25  1  0.44876200  0.47544200  0.81645100  1
  Hg  Hg26  1  0.35228600  0.71811100  0.98339400  1
  Hg  Hg27  1  0.82594900  0.18811000  0.46570100  1
  Hg  Hg28  1  0.99804700  0.94974000  0.68334700  1
  Hg  Hg29  1  0.54208900  0.87807800  0.81798900  1
  Hg  Hg30  1  0.11443000  0.47997900  0.84538900  1
  Hg  Hg31  1  0.73157400  0.49736300  0.49721400  1
  Hg  Hg32  1  0.25635500  0.01476200  0.99300900  1
  Hg  Hg33  1  0.38391200  0.38768300  0.61385900  1
  Hg  Hg34  1  0.02054600  0.28884700  0.65978600  1
  Hg  Hg35  1  0.00057100  0.67926400  0.36730800  1
  Hg  Hg36  1  0.67368500  0.00092700  0.63324700  1
  Hg  Hg37  1  0.31687200  0.02089600  0.33845900  1
  Hg  Hg38  1  0.50607400  0.74988000  0.49018400  1
  Hg  Hg39  1  0.38081600  0.38083200  0.38276800  1
  Hg  Hg40  1  0.85240700  0.53923500  0.18009200  1
  Hg  Hg41  1  0.48358200  0.11304300  0.15859600  1
  Hg  Hg42  1  0.92384100  0.98723900  0.31621900  1
  Hg  Hg43  1  0.49187300  0.45280100  0.18297100  1
  Hg  Hg44  1  0.22179300  0.85458400  0.52640900  1
  Hg  Hg45  1  0.68516100  0.32264100  0.00456900  1
  Hg  Hg46  1  0.04861400  0.35843000  0.31746400  1
  Hg  Hg47  1  0.88996700  0.88337500  0.11518900  1
  Hg  Hg48  1  0.54554900  0.81005700  0.17748000  1
  Hg  Hg49  1  0.17480000  0.50174500  0.13238900  1
