# generated using pymatgen
data_MnP2O7
_symmetry_space_group_name_H-M   'P 1'
_cell_length_a   7.98518300
_cell_length_b   7.98518300
_cell_length_c   7.98518300
_cell_angle_alpha   90.00000000
_cell_angle_beta   90.00000000
_cell_angle_gamma   90.00000000
_symmetry_Int_Tables_number   1
_chemical_formula_structural   MnP2O7
_chemical_formula_sum   'Mn4 P8 O28'
_cell_volume   509.16040179
_cell_formula_units_Z   4
loop_
 _symmetry_equiv_pos_site_id
 _symmetry_equiv_pos_as_xyz
  1  'x, y, z'
loop_
 _atom_site_type_symbol
 _atom_site_label
 _atom_site_symmetry_multiplicity
 _atom_site_fract_x
 _atom_site_fract_y
 _atom_site_fract_z
 _atom_site_occupancy
  Mn  Mn0  1  0.00000000  0.00000000  0.00000000  1
  Mn  Mn1  1  0.00000000  0.50000000  0.50000000  1
  Mn  Mn2  1  0.50000000  0.00000000  0.50000000  1
  Mn  Mn3  1  0.50000000  0.50000000  0.00000000  1
  P  P4  1  0.11627900  0.88372100  0.38372100  1
  P  P5  1  0.11627900  0.61627900  0.88372100  1
  P  P6  1  0.38372100  0.11627900  0.88372100  1
  P  P7  1  0.38372100  0.38372100  0.38372100  1
  P  P8  1  0.61627900  0.61627900  0.61627900  1
  P  P9  1  0.61627900  0.88372100  0.11627900  1
  P  P10  1  0.88372100  0.11627900  0.61627900  1
  P  P11  1  0.88372100  0.38372100  0.11627900  1
  O  O12  1  0.00000000  0.00000000  0.50000000  1
  O  O13  1  0.00000000  0.50000000  0.00000000  1
  O  O14  1  0.05670400  0.70321600  0.38917900  1
  O  O15  1  0.05670400  0.79678400  0.88917900  1
  O  O16  1  0.11082100  0.94329600  0.20321600  1
  O  O17  1  0.11082100  0.55670400  0.70321600  1
  O  O18  1  0.20321600  0.11082100  0.94329600  1
  O  O19  1  0.20321600  0.38917900  0.44329600  1
  O  O20  1  0.29678400  0.61082100  0.94329600  1
  O  O21  1  0.29678400  0.88917900  0.44329600  1
  O  O22  1  0.38917900  0.05670400  0.70321600  1
  O  O23  1  0.38917900  0.44329600  0.20321600  1
  O  O24  1  0.44329600  0.29678400  0.88917900  1
  O  O25  1  0.44329600  0.20321600  0.38917900  1
  O  O26  1  0.50000000  0.50000000  0.50000000  1
  O  O27  1  0.50000000  0.00000000  0.00000000  1
  O  O28  1  0.55670400  0.70321600  0.11082100  1
  O  O29  1  0.55670400  0.79678400  0.61082100  1
  O  O30  1  0.61082100  0.55670400  0.79678400  1
  O  O31  1  0.61082100  0.94329600  0.29678400  1
  O  O32  1  0.70321600  0.11082100  0.55670400  1
  O  O33  1  0.70321600  0.38917900  0.05670400  1
  O  O34  1  0.79678400  0.61082100  0.55670400  1
  O  O35  1  0.79678400  0.88917900  0.05670400  1
  O  O36  1  0.88917900  0.05670400  0.79678400  1
  O  O37  1  0.88917900  0.44329600  0.29678400  1
  O  O38  1  0.94329600  0.20321600  0.11082100  1
  O  O39  1  0.94329600  0.29678400  0.61082100  1
