# generated using pymatgen
data_Na4Cr2C4SO16
_symmetry_space_group_name_H-M   'P 1'
_cell_length_a   9.92293495
_cell_length_b   9.88472090
_cell_length_c   9.71476857
_cell_angle_alpha   60.82609288
_cell_angle_beta   60.43327112
_cell_angle_gamma   58.74063601
_symmetry_Int_Tables_number   1
_chemical_formula_structural   Na4Cr2C4SO16
_chemical_formula_sum   'Na8 Cr4 C8 S2 O32'
_cell_volume   673.28740652
_cell_formula_units_Z   2
loop_
 _symmetry_equiv_pos_site_id
 _symmetry_equiv_pos_as_xyz
  1  'x, y, z'
loop_
 _atom_site_type_symbol
 _atom_site_label
 _atom_site_symmetry_multiplicity
 _atom_site_fract_x
 _atom_site_fract_y
 _atom_site_fract_z
 _atom_site_occupancy
  Na  Na0  1  0.54119300  0.95880700  0.54119300  1
  Na  Na1  1  0.95937600  0.54062400  0.54062500  1
  Na  Na2  1  0.70937500  0.29062400  0.29062400  1
  Na  Na3  1  0.29119300  0.70880700  0.29119300  1
  Na  Na4  1  0.95880700  0.54119300  0.95880700  1
  Na  Na5  1  0.54062400  0.95937600  0.95937600  1
  Na  Na6  1  0.29062400  0.70937600  0.70937600  1
  Na  Na7  1  0.70880700  0.29119300  0.70880700  1
  Cr  Cr8  1  0.12500000  0.12500000  0.62500000  1
  Cr  Cr9  1  0.12500000  0.12500000  0.12500000  1
  Cr  Cr10  1  0.62500000  0.12500000  0.12500000  1
  Cr  Cr11  1  0.12500000  0.62500000  0.12500000  1
  C  C12  1  0.91417200  0.91680100  0.26360500  1
  C  C13  1  0.33319900  0.33582800  0.34457700  1
  C  C14  1  0.26360500  0.90542300  0.91417200  1
  C  C15  1  0.90542300  0.26360500  0.91680100  1
  C  C16  1  0.34457700  0.98639500  0.33319900  1
  C  C17  1  0.98639500  0.34457700  0.33582800  1
  C  C18  1  0.91680100  0.91417200  0.90542300  1
  C  C19  1  0.33582800  0.33319900  0.98639500  1
  S  S20  1  0.50000000  0.50000000  0.50000000  1
  S  S21  1  0.75000000  0.75000000  0.75000000  1
  O  O22  1  0.76999800  0.94289400  0.26896200  1
  O  O23  1  0.56811200  0.31335400  0.55894100  1
  O  O24  1  0.94055600  0.03324300  0.26036400  1
  O  O25  1  0.21675700  0.30944400  0.48416300  1
  O  O26  1  0.26036400  0.76583700  0.94055600  1
  O  O27  1  0.48075700  0.21920400  0.31956400  1
  O  O28  1  0.55894100  0.55959200  0.56811200  1
  O  O29  1  0.31335400  0.56811200  0.55959200  1
  O  O30  1  0.98047500  0.31956400  0.21920400  1
  O  O31  1  0.76583700  0.26036400  0.03324300  1
  O  O32  1  0.30710600  0.48000200  0.23185300  1
  O  O33  1  0.55959200  0.55894100  0.31335400  1
  O  O34  1  0.26896200  0.01814700  0.76999800  1
  O  O35  1  0.01814700  0.26896200  0.94289400  1
  O  O36  1  0.03079600  0.76924300  0.26952500  1
  O  O37  1  0.31956400  0.98047500  0.48075700  1
  O  O38  1  0.93043600  0.26952500  0.76924300  1
  O  O39  1  0.21920400  0.48075700  0.98047500  1
  O  O40  1  0.23185300  0.98103800  0.30710600  1
  O  O41  1  0.98103800  0.23185300  0.48000200  1
  O  O42  1  0.69040800  0.69105900  0.93664600  1
  O  O43  1  0.94289400  0.76999800  0.01814700  1
  O  O44  1  0.48416300  0.98963600  0.21675700  1
  O  O45  1  0.26952500  0.93043600  0.03079600  1
  O  O46  1  0.93664600  0.68188800  0.69040800  1
  O  O47  1  0.69105900  0.69040800  0.68188800  1
  O  O48  1  0.76924300  0.03079600  0.93043600  1
  O  O49  1  0.98963600  0.48416300  0.30944400  1
  O  O50  1  0.03324300  0.94055600  0.76583700  1
  O  O51  1  0.30944400  0.21675700  0.98963600  1
  O  O52  1  0.68188800  0.93664600  0.69105900  1
  O  O53  1  0.48000200  0.30710600  0.98103800  1
