# generated using pymatgen
data_Mg2Mn3O7
_symmetry_space_group_name_H-M   'P 1'
_cell_length_a   6.64009945
_cell_length_b   6.08594252
_cell_length_c   7.84978406
_cell_angle_alpha   98.98901032
_cell_angle_beta   114.89664714
_cell_angle_gamma   103.73668193
_symmetry_Int_Tables_number   1
_chemical_formula_structural   Mg2Mn3O7
_chemical_formula_sum   'Mg4 Mn6 O14'
_cell_volume   267.43241259
_cell_formula_units_Z   2
loop_
 _symmetry_equiv_pos_site_id
 _symmetry_equiv_pos_as_xyz
  1  'x, y, z'
loop_
 _atom_site_type_symbol
 _atom_site_label
 _atom_site_symmetry_multiplicity
 _atom_site_fract_x
 _atom_site_fract_y
 _atom_site_fract_z
 _atom_site_occupancy
  Mg  Mg0  1  0.30597700  0.67548700  0.46427400  1
  Mg  Mg1  1  0.34189100  0.84324800  0.06464300  1
  Mg  Mg2  1  0.65810400  0.15674400  0.93534600  1
  Mg  Mg3  1  0.69401200  0.32453600  0.53572400  1
  Mn  Mn4  1  0.21602900  0.22207400  0.64168700  1
  Mn  Mn5  1  0.08061300  0.07096600  0.22197700  1
  Mn  Mn6  1  0.63725200  0.64147900  0.92210300  1
  Mn  Mn7  1  0.36275700  0.35851500  0.07789700  1
  Mn  Mn8  1  0.91940500  0.92901900  0.77801100  1
  Mn  Mn9  1  0.78397400  0.77794900  0.35835200  1
  O  O10  1  0.11634600  0.89151000  0.41058600  1
  O  O11  1  0.31744800  0.53638100  0.88408800  1
  O  O12  1  0.13900100  0.34212400  0.42202400  1
  O  O13  1  0.02002900  0.22209800  0.00690900  1
  O  O14  1  0.30406300  0.08508600  0.87660100  1
  O  O15  1  0.56958300  0.82832300  0.74266900  1
  O  O16  1  0.43725800  0.65405500  0.26993900  1
  O  O17  1  0.56272900  0.34595000  0.73005600  1
  O  O18  1  0.43042600  0.17166600  0.25733300  1
  O  O19  1  0.69593400  0.91491800  0.12339500  1
  O  O20  1  0.97997100  0.77786200  0.99307200  1
  O  O21  1  0.86099000  0.65787900  0.57797000  1
  O  O22  1  0.68256100  0.46361800  0.11592300  1
  O  O23  1  0.88364700  0.10851400  0.58942100  1
