# generated using pymatgen
data_La2Ti3O9
_symmetry_space_group_name_H-M   'P 1'
_cell_length_a   6.05326300
_cell_length_b   8.02750900
_cell_length_c   8.76397213
_cell_angle_alpha   69.24383918
_cell_angle_beta   90.00000000
_cell_angle_gamma   90.00000000
_symmetry_Int_Tables_number   1
_chemical_formula_structural   La2Ti3O9
_chemical_formula_sum   'La4 Ti6 O18'
_cell_volume   398.22456500
_cell_formula_units_Z   2
loop_
 _symmetry_equiv_pos_site_id
 _symmetry_equiv_pos_as_xyz
  1  'x, y, z'
loop_
 _atom_site_type_symbol
 _atom_site_label
 _atom_site_symmetry_multiplicity
 _atom_site_fract_x
 _atom_site_fract_y
 _atom_site_fract_z
 _atom_site_occupancy
  La  La0  1  0.24916000  0.78813600  0.74791900  1
  La  La1  1  0.75002300  0.80558100  0.10745700  1
  La  La2  1  0.25002300  0.19441900  0.89254300  1
  La  La3  1  0.74916000  0.21186400  0.25208100  1
  Ti  Ti4  1  0.25031500  0.92424000  0.31238500  1
  Ti  Ti5  1  0.75029200  0.49166300  0.82926900  1
  Ti  Ti6  1  0.52122800  0.51485600  0.49301200  1
  Ti  Ti7  1  0.02122800  0.48514400  0.50698800  1
  Ti  Ti8  1  0.25029200  0.50833700  0.17073100  1
  Ti  Ti9  1  0.75031500  0.07576000  0.68761500  1
  O  O10  1  0.75393900  0.00021000  0.52200500  1
  O  O11  1  0.00516500  0.00168700  0.18342700  1
  O  O12  1  0.49216600  0.00432200  0.17938300  1
  O  O13  1  0.74962100  0.63111100  0.94815600  1
  O  O14  1  0.25291500  0.67129200  0.41462500  1
  O  O15  1  0.74250500  0.67035400  0.41780700  1
  O  O16  1  0.01487900  0.53959100  0.71045300  1
  O  O17  1  0.48412800  0.53365300  0.71213500  1
  O  O18  1  0.25430100  0.73505000  0.03580900  1
  O  O19  1  0.75430100  0.26495000  0.96419100  1
  O  O20  1  0.98412800  0.46634700  0.28786500  1
  O  O21  1  0.51487900  0.46040900  0.28954700  1
  O  O22  1  0.24250500  0.32964600  0.58219300  1
  O  O23  1  0.75291500  0.32870800  0.58537500  1
  O  O24  1  0.24962100  0.36888900  0.05184400  1
  O  O25  1  0.99216600  0.99567800  0.82061700  1
  O  O26  1  0.50516500  0.99831300  0.81657300  1
  O  O27  1  0.25393900  0.99979000  0.47799500  1
