# generated using pymatgen
data_Mn2P4O13
_symmetry_space_group_name_H-M   'P 1'
_cell_length_a   8.79443902
_cell_length_b   8.79443902
_cell_length_c   8.25885200
_cell_angle_alpha   90.00000000
_cell_angle_beta   90.00000000
_cell_angle_gamma   132.01134756
_symmetry_Int_Tables_number   1
_chemical_formula_structural   Mn2P4O13
_chemical_formula_sum   'Mn4 P8 O26'
_cell_volume   474.60462245
_cell_formula_units_Z   2
loop_
 _symmetry_equiv_pos_site_id
 _symmetry_equiv_pos_as_xyz
  1  'x, y, z'
loop_
 _atom_site_type_symbol
 _atom_site_label
 _atom_site_symmetry_multiplicity
 _atom_site_fract_x
 _atom_site_fract_y
 _atom_site_fract_z
 _atom_site_occupancy
  Mn  Mn0  1  0.58491500  0.87570800  0.13714500  1
  Mn  Mn1  1  0.12429200  0.41508500  0.36285500  1
  Mn  Mn2  1  0.87570800  0.58491500  0.86285500  1
  Mn  Mn3  1  0.41508500  0.12429200  0.63714500  1
  P  P4  1  0.72168000  0.84059500  0.77900400  1
  P  P5  1  0.15940500  0.27832000  0.72099600  1
  P  P6  1  0.05816300  0.38610800  0.00773200  1
  P  P7  1  0.61389200  0.94183700  0.49226800  1
  P  P8  1  0.38610800  0.05816300  0.99226800  1
  P  P9  1  0.94183700  0.61389200  0.50773200  1
  P  P10  1  0.27832000  0.15940500  0.27900400  1
  P  P11  1  0.84059500  0.72168000  0.22099600  1
  O  O12  1  0.25383300  0.30930000  0.31345700  1
  O  O13  1  0.69070000  0.74616700  0.18654300  1
  O  O14  1  0.93892100  0.06107900  0.75000000  1
  O  O15  1  0.20894800  0.38044300  0.89380500  1
  O  O16  1  0.61955700  0.79105200  0.60619500  1
  O  O17  1  0.15529000  0.40246500  0.59853400  1
  O  O18  1  0.59753500  0.84471000  0.90146600  1
  O  O19  1  0.89188400  0.17977400  0.08072400  1
  O  O20  1  0.82022600  0.10811600  0.41927600  1
  O  O21  1  0.46131200  0.79281000  0.35807500  1
  O  O22  1  0.20719000  0.53868800  0.14192500  1
  O  O23  1  0.52755600  0.00126000  0.60968600  1
  O  O24  1  0.99874000  0.47244400  0.89031400  1
  O  O25  1  0.47244400  0.99874000  0.10968600  1
  O  O26  1  0.00126000  0.52755600  0.39031400  1
  O  O27  1  0.53868800  0.20719000  0.85807500  1
  O  O28  1  0.79281000  0.46131200  0.64192500  1
  O  O29  1  0.10811600  0.82022600  0.58072400  1
  O  O30  1  0.17977400  0.89188400  0.91927600  1
  O  O31  1  0.84471000  0.59753500  0.09853400  1
  O  O32  1  0.40246500  0.15529000  0.40146600  1
  O  O33  1  0.38044300  0.20894800  0.10619500  1
  O  O34  1  0.79105200  0.61955700  0.39380500  1
  O  O35  1  0.06107900  0.93892100  0.25000000  1
  O  O36  1  0.30930000  0.25383300  0.68654300  1
  O  O37  1  0.74616700  0.69070000  0.81345700  1
