# generated using pymatgen
data_Fe5Co(PO4)6
_symmetry_space_group_name_H-M   'P 1'
_cell_length_a   8.36496950
_cell_length_b   8.36496950
_cell_length_c   8.36496906
_cell_angle_alpha   61.88263567
_cell_angle_beta   61.88263567
_cell_angle_gamma   61.88263802
_symmetry_Int_Tables_number   1
_chemical_formula_structural   Fe5Co(PO4)6
_chemical_formula_sum   'Fe5 Co1 P6 O24'
_cell_volume   431.32686325
_cell_formula_units_Z   1
loop_
 _symmetry_equiv_pos_site_id
 _symmetry_equiv_pos_as_xyz
  1  'x, y, z'
loop_
 _atom_site_type_symbol
 _atom_site_label
 _atom_site_symmetry_multiplicity
 _atom_site_fract_x
 _atom_site_fract_y
 _atom_site_fract_z
 _atom_site_occupancy
  Fe  Fe0  1  0.00153100  0.00153100  0.00153100  1
  Fe  Fe1  1  0.35323300  0.35323300  0.35323300  1
  Fe  Fe2  1  0.49905500  0.49905500  0.49905500  1
  Fe  Fe3  1  0.14526200  0.14526200  0.14526200  1
  Fe  Fe4  1  0.64591800  0.64591800  0.64591800  1
  Co  Co5  1  0.85999300  0.85999300  0.85999300  1
  P  P6  1  0.46175800  0.74986200  0.04372700  1
  P  P7  1  0.74986200  0.04372700  0.46175800  1
  P  P8  1  0.04372700  0.46175800  0.74986200  1
  P  P9  1  0.95006900  0.54885000  0.24559300  1
  P  P10  1  0.24559300  0.95006900  0.54885000  1
  P  P11  1  0.54885000  0.24559300  0.95006900  1
  O  O12  1  0.67369600  0.89271900  0.49831000  1
  O  O13  1  0.89271900  0.49831000  0.67369600  1
  O  O14  1  0.49831000  0.67369600  0.89271900  1
  O  O15  1  0.25591400  0.90574400  0.05657700  1
  O  O16  1  0.61914900  0.81653900  0.00749800  1
  O  O17  1  0.44015700  0.59555200  0.24941100  1
  O  O18  1  0.90574400  0.05657700  0.25591400  1
  O  O19  1  0.59555200  0.24941100  0.44015700  1
  O  O20  1  0.99280700  0.39213600  0.17471700  1
  O  O21  1  0.24941100  0.44015700  0.59555200  1
  O  O22  1  0.93733200  0.75252000  0.08682400  1
  O  O23  1  0.17471700  0.99280700  0.39213600  1
  O  O24  1  0.81653900  0.00749800  0.61914900  1
  O  O25  1  0.05657700  0.25591400  0.90574400  1
  O  O26  1  0.74769900  0.56522100  0.40113600  1
  O  O27  1  0.00749800  0.61914900  0.81653900  1
  O  O28  1  0.40113600  0.74769900  0.56522100  1
  O  O29  1  0.08682400  0.93733200  0.75252000  1
  O  O30  1  0.56522100  0.40113600  0.74769900  1
  O  O31  1  0.39213600  0.17471700  0.99280700  1
  O  O32  1  0.75252000  0.08682400  0.93733200  1
  O  O33  1  0.51182600  0.31406400  0.10759700  1
  O  O34  1  0.10759700  0.51182600  0.31406400  1
  O  O35  1  0.31406400  0.10759700  0.51182600  1
