# generated using pymatgen
data_VCrO3
_symmetry_space_group_name_H-M   'P 1'
_cell_length_a   5.12699320
_cell_length_b   5.50420760
_cell_length_c   9.07178531
_cell_angle_alpha   85.16912755
_cell_angle_beta   73.64462869
_cell_angle_gamma   117.82293285
_symmetry_Int_Tables_number   1
_chemical_formula_structural   VCrO3
_chemical_formula_sum   'V4 Cr4 O12'
_cell_volume   210.11673510
_cell_formula_units_Z   4
loop_
 _symmetry_equiv_pos_site_id
 _symmetry_equiv_pos_as_xyz
  1  'x, y, z'
loop_
 _atom_site_type_symbol
 _atom_site_label
 _atom_site_symmetry_multiplicity
 _atom_site_fract_x
 _atom_site_fract_y
 _atom_site_fract_z
 _atom_site_occupancy
  V  V0  1  0.15106200  0.37095100  0.07578900  1
  V  V1  1  0.35384300  0.87705000  0.17469000  1
  V  V2  1  0.34991700  0.37679000  0.67561400  1
  V  V3  1  0.85062700  0.12879700  0.42456500  1
  Cr  Cr4  1  0.14915300  0.87716800  0.57501700  1
  Cr  Cr5  1  0.65088300  0.62713500  0.32526900  1
  Cr  Cr6  1  0.64991100  0.12487200  0.82506800  1
  Cr  Cr7  1  0.84943700  0.62139200  0.92488100  1
  O  O8  1  0.05115400  0.52725800  0.72321800  1
  O  O9  1  0.04986900  0.02514400  0.22307500  1
  O  O10  1  0.44464100  0.87354400  0.37503400  1
  O  O11  1  0.55647600  0.62370000  0.12535400  1
  O  O12  1  0.25052600  0.77305800  0.97346400  1
  O  O13  1  0.25048700  0.27629900  0.47246700  1
  O  O14  1  0.74971400  0.72493500  0.52705000  1
  O  O15  1  0.74963900  0.22417900  0.02478700  1
  O  O16  1  0.44914000  0.37311300  0.87604400  1
  O  O17  1  0.55139400  0.12510500  0.62552200  1
  O  O18  1  0.94648900  0.97248900  0.77628600  1
  O  O19  1  0.94564100  0.47701900  0.27680600  1
