# generated using pymatgen
data_Ba5Sc6O14
_symmetry_space_group_name_H-M   'P 1'
_cell_length_a   8.99220268
_cell_length_b   8.99220268
_cell_length_c   11.79697100
_cell_angle_alpha   90.00000000
_cell_angle_beta   90.00000000
_cell_angle_gamma   92.24618217
_symmetry_Int_Tables_number   1
_chemical_formula_structural   Ba5Sc6O14
_chemical_formula_sum   'Ba10 Sc12 O28'
_cell_volume   953.16671466
_cell_formula_units_Z   2
loop_
 _symmetry_equiv_pos_site_id
 _symmetry_equiv_pos_as_xyz
  1  'x, y, z'
loop_
 _atom_site_type_symbol
 _atom_site_label
 _atom_site_symmetry_multiplicity
 _atom_site_fract_x
 _atom_site_fract_y
 _atom_site_fract_z
 _atom_site_occupancy
  Ba  Ba0  1  0.95389700  0.27027500  0.25309000  1
  Ba  Ba1  1  0.72972500  0.04610300  0.75309000  1
  Ba  Ba2  1  0.96105100  0.67976700  0.19786000  1
  Ba  Ba3  1  0.32023300  0.03894900  0.69786000  1
  Ba  Ba4  1  0.52122000  0.52122000  0.23901900  1
  Ba  Ba5  1  0.47878000  0.47878000  0.73901900  1
  Ba  Ba6  1  0.67976700  0.96105100  0.19786000  1
  Ba  Ba7  1  0.03894900  0.32023300  0.69786000  1
  Ba  Ba8  1  0.04610300  0.72972500  0.75309000  1
  Ba  Ba9  1  0.27027500  0.95389700  0.25309000  1
  Sc  Sc10  1  0.84127600  0.35555000  0.97436500  1
  Sc  Sc11  1  0.64445000  0.15872400  0.47436500  1
  Sc  Sc12  1  0.78912100  0.50448800  0.50806300  1
  Sc  Sc13  1  0.49551200  0.21087900  0.00806300  1
  Sc  Sc14  1  0.70101500  0.70101500  0.93893400  1
  Sc  Sc15  1  0.00359500  0.00359500  0.96715700  1
  Sc  Sc16  1  0.29898500  0.29898500  0.43893400  1
  Sc  Sc17  1  0.99640500  0.99640500  0.46715700  1
  Sc  Sc18  1  0.50448800  0.78912100  0.50806300  1
  Sc  Sc19  1  0.21087900  0.49551200  0.00806300  1
  Sc  Sc20  1  0.35555000  0.84127600  0.97436500  1
  Sc  Sc21  1  0.15872400  0.64445000  0.47436500  1
  O  O22  1  0.80967300  0.06531600  0.38980400  1
  O  O23  1  0.93468400  0.19032700  0.88980400  1
  O  O24  1  0.74829100  0.30124600  0.58122400  1
  O  O25  1  0.69875400  0.25170900  0.08122400  1
  O  O26  1  0.44050600  0.00628100  0.07241400  1
  O  O27  1  0.99371900  0.55949400  0.57241400  1
  O  O28  1  0.80426900  0.49045600  0.34221600  1
  O  O29  1  0.50954400  0.19573100  0.84221600  1
  O  O30  1  0.49130200  0.23859900  0.37073300  1
  O  O31  1  0.76140100  0.50869800  0.87073300  1
  O  O32  1  0.85721600  0.85721600  0.89487900  1
  O  O33  1  0.36924100  0.36924100  0.06699700  1
  O  O34  1  0.69681200  0.69681200  0.10456800  1
  O  O35  1  0.14278400  0.14278400  0.39487900  1
  O  O36  1  0.00949900  0.00949900  0.63303200  1
  O  O37  1  0.30318800  0.30318800  0.60456800  1
  O  O38  1  0.99050100  0.99050100  0.13303200  1
  O  O39  1  0.63075900  0.63075900  0.56699700  1
  O  O40  1  0.23859900  0.49130200  0.37073300  1
  O  O41  1  0.50869800  0.76140100  0.87073300  1
  O  O42  1  0.19573100  0.50954400  0.84221600  1
  O  O43  1  0.49045600  0.80426900  0.34221600  1
  O  O44  1  0.55949400  0.99371900  0.57241400  1
  O  O45  1  0.00628100  0.44050600  0.07241400  1
  O  O46  1  0.25170900  0.69875400  0.08122400  1
  O  O47  1  0.30124600  0.74829100  0.58122400  1
  O  O48  1  0.06531600  0.80967300  0.38980400  1
  O  O49  1  0.19032700  0.93468400  0.88980400  1
