# generated using pymatgen
data_VWO4
_symmetry_space_group_name_H-M   'P 1'
_cell_length_a   4.57994980
_cell_length_b   4.91151500
_cell_length_c   11.98236782
_cell_angle_alpha   90.00081786
_cell_angle_beta   90.00105223
_cell_angle_gamma   89.99937833
_symmetry_Int_Tables_number   1
_chemical_formula_structural   VWO4
_chemical_formula_sum   'V4 W4 O16'
_cell_volume   269.53727865
_cell_formula_units_Z   4
loop_
 _symmetry_equiv_pos_site_id
 _symmetry_equiv_pos_as_xyz
  1  'x, y, z'
loop_
 _atom_site_type_symbol
 _atom_site_label
 _atom_site_symmetry_multiplicity
 _atom_site_fract_x
 _atom_site_fract_y
 _atom_site_fract_z
 _atom_site_occupancy
  V  V0  1  0.00016600  0.75076000  0.56375000  1
  V  V1  1  0.50016500  0.74926300  0.06374900  1
  V  V2  1  0.50038100  0.25093500  0.93651100  1
  V  V3  1  0.00032900  0.24895000  0.43662200  1
  W  W4  1  0.50005800  0.25227800  0.67523700  1
  W  W5  1  0.00006600  0.24768700  0.17522800  1
  W  W6  1  0.99996000  0.75190700  0.82391400  1
  W  W7  1  0.49995800  0.74810800  0.32390800  1
  O  O8  1  0.27025900  0.07084500  0.80725500  1
  O  O9  1  0.77026500  0.42914800  0.30725700  1
  O  O10  1  0.72987200  0.43281600  0.80777500  1
  O  O11  1  0.76969200  0.93395200  0.69224300  1
  O  O12  1  0.22986300  0.06719500  0.30777900  1
  O  O13  1  0.26971700  0.56607700  0.19224700  1
  O  O14  1  0.22946900  0.56839700  0.69256200  1
  O  O15  1  0.72944400  0.93159900  0.19256900  1
  O  O16  1  0.25438200  0.59259900  0.93909800  1
  O  O17  1  0.75437900  0.90739700  0.43909900  1
  O  O18  1  0.74519600  0.91033200  0.93918500  1
  O  O19  1  0.75646700  0.41030000  0.56118800  1
  O  O20  1  0.24519700  0.58967200  0.43918700  1
  O  O21  1  0.25645100  0.08972000  0.06119800  1
  O  O22  1  0.24410000  0.08957300  0.56123400  1
  O  O23  1  0.74416500  0.41049000  0.06120500  1
