# generated using pymatgen
data_Ti2Mn3Cr3O16
_symmetry_space_group_name_H-M   'P 1'
_cell_length_a   5.82359732
_cell_length_b   5.82359732
_cell_length_c   9.02069493
_cell_angle_alpha   89.94808890
_cell_angle_beta   89.94808890
_cell_angle_gamma   59.84658547
_symmetry_Int_Tables_number   1
_chemical_formula_structural   Ti2Mn3Cr3O16
_chemical_formula_sum   'Ti2 Mn3 Cr3 O16'
_cell_volume   264.53284858
_cell_formula_units_Z   1
loop_
 _symmetry_equiv_pos_site_id
 _symmetry_equiv_pos_as_xyz
  1  'x, y, z'
loop_
 _atom_site_type_symbol
 _atom_site_label
 _atom_site_symmetry_multiplicity
 _atom_site_fract_x
 _atom_site_fract_y
 _atom_site_fract_z
 _atom_site_occupancy
  Ti  Ti0  1  0.32817400  0.32817400  0.49503500  1
  Ti  Ti1  1  0.66575200  0.66575200  0.99389500  1
  Mn  Mn2  1  0.16844100  0.16844100  0.21206000  1
  Mn  Mn3  1  0.33743200  0.82817200  0.71277900  1
  Mn  Mn4  1  0.82817200  0.33743200  0.71277900  1
  Cr  Cr5  1  0.16974500  0.66325300  0.20875900  1
  Cr  Cr6  1  0.66325300  0.16974500  0.20875900  1
  Cr  Cr7  1  0.83183600  0.83183600  0.71038700  1
  O  O8  1  0.16234300  0.66227000  0.60265200  1
  O  O9  1  0.47521400  0.47521400  0.33424800  1
  O  O10  1  0.32950700  0.32950700  0.10139600  1
  O  O11  1  0.00133600  0.00133600  0.31392300  1
  O  O12  1  0.00158600  0.00158600  0.81622500  1
  O  O13  1  0.66227000  0.16234300  0.60265200  1
  O  O14  1  0.04452900  0.47475400  0.33444700  1
  O  O15  1  0.47475400  0.04452900  0.33444700  1
  O  O16  1  0.82962900  0.82962900  0.10350600  1
  O  O17  1  0.16598300  0.16598300  0.60020000  1
  O  O18  1  0.52153400  0.95298900  0.83382200  1
  O  O19  1  0.95298900  0.52153400  0.83382200  1
  O  O20  1  0.66112300  0.66112300  0.60193900  1
  O  O21  1  0.33424900  0.82590200  0.10152200  1
  O  O22  1  0.51937100  0.51937100  0.83556100  1
  O  O23  1  0.82590200  0.33424900  0.10152200  1
