# generated using pymatgen
data_CoPO4
_symmetry_space_group_name_H-M   'P 1'
_cell_length_a   5.42833500
_cell_length_b   9.06732800
_cell_length_c   17.90955887
_cell_angle_alpha   87.75699871
_cell_angle_beta   90.00000000
_cell_angle_gamma   90.00000000
_symmetry_Int_Tables_number   1
_chemical_formula_structural   CoPO4
_chemical_formula_sum   'Co8 P8 O32'
_cell_volume   880.84193659
_cell_formula_units_Z   8
loop_
 _symmetry_equiv_pos_site_id
 _symmetry_equiv_pos_as_xyz
  1  'x, y, z'
loop_
 _atom_site_type_symbol
 _atom_site_label
 _atom_site_symmetry_multiplicity
 _atom_site_fract_x
 _atom_site_fract_y
 _atom_site_fract_z
 _atom_site_occupancy
  Co  Co0  1  0.26359400  0.41770100  0.09136800  1
  Co  Co1  1  0.72234600  0.90525200  0.16232700  1
  Co  Co2  1  0.22234600  0.09474800  0.33767300  1
  Co  Co3  1  0.76359400  0.58229900  0.40863200  1
  Co  Co4  1  0.23640600  0.41770100  0.59136800  1
  Co  Co5  1  0.77765400  0.90525200  0.66232700  1
  Co  Co6  1  0.27765400  0.09474800  0.83767300  1
  Co  Co7  1  0.73640600  0.58229900  0.90863200  1
  P  P8  1  0.75952500  0.57931600  0.09505700  1
  P  P9  1  0.22581600  0.09039300  0.15576800  1
  P  P10  1  0.72581600  0.90960700  0.34423200  1
  P  P11  1  0.25952500  0.42068400  0.40494300  1
  P  P12  1  0.74047500  0.57931600  0.59505700  1
  P  P13  1  0.27418400  0.09039300  0.65576800  1
  P  P14  1  0.77418400  0.90960700  0.84423200  1
  P  P15  1  0.24047500  0.42068400  0.90494300  1
  O  O16  1  0.74943200  0.55091200  0.01124600  1
  O  O17  1  0.31539400  0.21588900  0.10141600  1
  O  O18  1  0.79974800  0.74495300  0.10660100  1
  O  O19  1  0.97245800  0.48759000  0.13075000  1
  O  O20  1  0.51566600  0.52726300  0.13314900  1
  O  O21  1  0.95656100  0.05037600  0.13696100  1
  O  O22  1  0.39418400  0.95419700  0.14611200  1
  O  O23  1  0.24440600  0.14497800  0.23625000  1
  O  O24  1  0.74440600  0.85502200  0.26375000  1
  O  O25  1  0.89418400  0.04580300  0.35388800  1
  O  O26  1  0.45656100  0.94962400  0.36303900  1
  O  O27  1  0.01566600  0.47273700  0.36685100  1
  O  O28  1  0.47245800  0.51241000  0.36925000  1
  O  O29  1  0.29974800  0.25504700  0.39339900  1
  O  O30  1  0.81539400  0.78411100  0.39858400  1
  O  O31  1  0.24943200  0.44908800  0.48875400  1
  O  O32  1  0.75056800  0.55091200  0.51124600  1
  O  O33  1  0.18460600  0.21588900  0.60141600  1
  O  O34  1  0.70025200  0.74495300  0.60660100  1
  O  O35  1  0.52754200  0.48759000  0.63075000  1
  O  O36  1  0.98433400  0.52726300  0.63314900  1
  O  O37  1  0.54343900  0.05037600  0.63696100  1
  O  O38  1  0.10581600  0.95419700  0.64611200  1
  O  O39  1  0.25559400  0.14497800  0.73625000  1
  O  O40  1  0.75559400  0.85502200  0.76375000  1
  O  O41  1  0.60581600  0.04580300  0.85388800  1
  O  O42  1  0.04343900  0.94962400  0.86303900  1
  O  O43  1  0.48433400  0.47273700  0.86685100  1
  O  O44  1  0.02754200  0.51241000  0.86925000  1
  O  O45  1  0.20025200  0.25504700  0.89339900  1
  O  O46  1  0.68460600  0.78411100  0.89858400  1
  O  O47  1  0.25056800  0.44908800  0.98875400  1
