# generated using pymatgen
data_Na3CrSiCO7
_symmetry_space_group_name_H-M   'P 1'
_cell_length_a   5.26792788
_cell_length_b   11.12270464
_cell_length_c   11.12241205
_cell_angle_alpha   106.60422838
_cell_angle_beta   91.75371490
_cell_angle_gamma   88.24810077
_symmetry_Int_Tables_number   1
_chemical_formula_structural   Na3CrSiCO7
_chemical_formula_sum   'Na12 Cr4 Si4 C4 O28'
_cell_volume   624.07260661
_cell_formula_units_Z   4
loop_
 _symmetry_equiv_pos_site_id
 _symmetry_equiv_pos_as_xyz
  1  'x, y, z'
loop_
 _atom_site_type_symbol
 _atom_site_label
 _atom_site_symmetry_multiplicity
 _atom_site_fract_x
 _atom_site_fract_y
 _atom_site_fract_z
 _atom_site_occupancy
  Na  Na0  1  0.77390700  0.16974100  0.08026500  1
  Na  Na1  1  0.77390100  0.66972600  0.58027100  1
  Na  Na2  1  0.22609200  0.83026400  0.91973200  1
  Na  Na3  1  0.22609700  0.33027800  0.41972700  1
  Na  Na4  1  0.26106200  0.14835400  0.86850300  1
  Na  Na5  1  0.26106100  0.64835400  0.36850700  1
  Na  Na6  1  0.26105900  0.38149400  0.10164700  1
  Na  Na7  1  0.26106400  0.88149400  0.60164100  1
  Na  Na8  1  0.73894000  0.61850900  0.89835100  1
  Na  Na9  1  0.73893800  0.11850000  0.39835700  1
  Na  Na10  1  0.73893500  0.85165000  0.13149000  1
  Na  Na11  1  0.73894400  0.35164500  0.63149200  1
  Cr  Cr12  1  0.78636200  0.04521100  0.70485400  1
  Cr  Cr13  1  0.21367200  0.95479400  0.29514100  1
  Cr  Cr14  1  0.78600200  0.54523400  0.20475400  1
  Cr  Cr15  1  0.21393200  0.45474600  0.79528000  1
  Si  Si16  1  0.71846000  0.33597300  0.91402400  1
  Si  Si17  1  0.71842500  0.83597800  0.41402700  1
  Si  Si18  1  0.28153800  0.66402700  0.08597800  1
  Si  Si19  1  0.28157900  0.16402400  0.58597000  1
  C  C20  1  0.71510700  0.40556900  0.34444100  1
  C  C21  1  0.71507300  0.90556100  0.84442900  1
  C  C22  1  0.28489700  0.59442800  0.65556300  1
  C  C23  1  0.28492600  0.09444100  0.15556800  1
  O  O24  1  0.31597300  0.16525600  0.08475900  1
  O  O25  1  0.31599700  0.66523700  0.58473500  1
  O  O26  1  0.68403100  0.83474600  0.91523900  1
  O  O27  1  0.68400700  0.33476500  0.41526400  1
  O  O28  1  0.94132400  0.43349700  0.31650400  1
  O  O29  1  0.94133500  0.93350600  0.81648500  1
  O  O30  1  0.05867300  0.56650400  0.68349600  1
  O  O31  1  0.05866900  0.06649500  0.18351400  1
  O  O32  1  0.52309600  0.45454100  0.29546000  1
  O  O33  1  0.52313800  0.95454600  0.79545700  1
  O  O34  1  0.47690700  0.54546100  0.70453800  1
  O  O35  1  0.47686600  0.04545400  0.20454100  1
  O  O36  1  0.40966700  0.35773700  0.89231400  1
  O  O37  1  0.40963000  0.85774900  0.39227700  1
  O  O38  1  0.59033600  0.64226000  0.10768700  1
  O  O39  1  0.59037500  0.14225100  0.60772200  1
  O  O40  1  0.12622600  0.58638900  0.16359600  1
  O  O41  1  0.12623300  0.08640000  0.66361700  1
  O  O42  1  0.87376600  0.41360900  0.83640600  1
  O  O43  1  0.87377500  0.91360200  0.33638200  1
  O  O44  1  0.78634800  0.18378400  0.86968400  1
  O  O45  1  0.78633500  0.68377300  0.36968200  1
  O  O46  1  0.78634200  0.38028500  0.06620900  1
  O  O47  1  0.78637100  0.88028700  0.56622100  1
  O  O48  1  0.21365500  0.61971200  0.93379000  1
  O  O49  1  0.21363500  0.11971500  0.43377700  1
  O  O50  1  0.21365600  0.81622000  0.13031300  1
  O  O51  1  0.21366500  0.31622600  0.63031900  1
