# generated using pymatgen
data_Y2Zr2O7
_symmetry_space_group_name_H-M   'P 1'
_cell_length_a   5.54618900
_cell_length_b   7.89282600
_cell_length_c   13.86062718
_cell_angle_alpha   81.55675978
_cell_angle_beta   90.00000000
_cell_angle_gamma   90.00000000
_symmetry_Int_Tables_number   1
_chemical_formula_structural   Y2Zr2O7
_chemical_formula_sum   'Y8 Zr8 O28'
_cell_volume   600.17432735
_cell_formula_units_Z   4
loop_
 _symmetry_equiv_pos_site_id
 _symmetry_equiv_pos_as_xyz
  1  'x, y, z'
loop_
 _atom_site_type_symbol
 _atom_site_label
 _atom_site_symmetry_multiplicity
 _atom_site_fract_x
 _atom_site_fract_y
 _atom_site_fract_z
 _atom_site_occupancy
  Y  Y0  1  0.32692300  0.86245400  0.55921100  1
  Y  Y1  1  0.77926700  0.76274900  0.92765900  1
  Y  Y2  1  0.24343300  0.71329600  0.13395300  1
  Y  Y3  1  0.75918000  0.63819800  0.39871100  1
  Y  Y4  1  0.25918000  0.36180200  0.60128900  1
  Y  Y5  1  0.74343300  0.28670400  0.86604700  1
  Y  Y6  1  0.27926700  0.23725100  0.07234100  1
  Y  Y7  1  0.82692300  0.13754600  0.44078900  1
  Zr  Zr8  1  0.26496400  0.92576400  0.31970300  1
  Zr  Zr9  1  0.76323100  0.97318500  0.11857800  1
  Zr  Zr10  1  0.77666800  0.58934200  0.67308400  1
  Zr  Zr11  1  0.26505000  0.53227800  0.87492300  1
  Zr  Zr12  1  0.76505000  0.46772200  0.12507700  1
  Zr  Zr13  1  0.27666800  0.41065800  0.32691600  1
  Zr  Zr14  1  0.26323100  0.02681500  0.88142200  1
  Zr  Zr15  1  0.76496400  0.07423600  0.68029700  1
  O  O16  1  0.55125500  0.92251800  0.41693300  1
  O  O17  1  0.42051700  0.00400100  0.17450100  1
  O  O18  1  0.63433100  0.83032700  0.67408700  1
  O  O19  1  0.38507500  0.77804100  0.88330900  1
  O  O20  1  0.04369700  0.84602300  0.43428600  1
  O  O21  1  0.05077100  0.92552800  0.02155900  1
  O  O22  1  0.96659200  0.86173100  0.22950800  1
  O  O23  1  0.11079500  0.63433900  0.62248100  1
  O  O24  1  0.91542600  0.58466600  0.82683800  1
  O  O25  1  0.63548800  0.72850900  0.08470900  1
  O  O26  1  0.40243400  0.67650800  0.29853600  1
  O  O27  1  0.57622500  0.57776100  0.54754800  1
  O  O28  1  0.54656800  0.43957600  0.97680600  1
  O  O29  1  0.47459700  0.47449100  0.76654300  1
  O  O30  1  0.97459700  0.52550900  0.23345700  1
  O  O31  1  0.04656800  0.56042400  0.02319400  1
  O  O32  1  0.07622500  0.42223900  0.45245200  1
  O  O33  1  0.90243400  0.32349200  0.70146400  1
  O  O34  1  0.13548800  0.27149100  0.91529100  1
  O  O35  1  0.41542600  0.41533400  0.17316200  1
  O  O36  1  0.61079500  0.36566100  0.37751900  1
  O  O37  1  0.46659200  0.13826900  0.77049200  1
  O  O38  1  0.55077100  0.07447200  0.97844100  1
  O  O39  1  0.54369700  0.15397700  0.56571400  1
  O  O40  1  0.88507500  0.22195900  0.11669100  1
  O  O41  1  0.13433100  0.16967300  0.32591300  1
  O  O42  1  0.92051700  0.99599900  0.82549900  1
  O  O43  1  0.05125500  0.07748200  0.58306700  1
