# generated using pymatgen
data_Na3ZnPCO7
_symmetry_space_group_name_H-M   'P 1'
_cell_length_a   6.60227800
_cell_length_b   5.31185900
_cell_length_c   8.99473953
_cell_angle_alpha   89.05340580
_cell_angle_beta   90.00000000
_cell_angle_gamma   90.00000000
_symmetry_Int_Tables_number   1
_chemical_formula_structural   Na3ZnPCO7
_chemical_formula_sum   'Na6 Zn2 P2 C2 O14'
_cell_volume   315.40579177
_cell_formula_units_Z   2
loop_
 _symmetry_equiv_pos_site_id
 _symmetry_equiv_pos_as_xyz
  1  'x, y, z'
loop_
 _atom_site_type_symbol
 _atom_site_label
 _atom_site_symmetry_multiplicity
 _atom_site_fract_x
 _atom_site_fract_y
 _atom_site_fract_z
 _atom_site_occupancy
  Na  Na0  1  0.51165200  0.99312400  0.00213800  1
  Na  Na1  1  0.80866400  0.55449300  0.16861900  1
  Na  Na2  1  0.50904300  0.50391100  0.48826200  1
  Na  Na3  1  0.00904300  0.49608900  0.51173800  1
  Na  Na4  1  0.30866400  0.44550700  0.83138100  1
  Na  Na5  1  0.01165200  0.00687600  0.99786200  1
  Zn  Zn6  1  0.25982900  0.98297000  0.29912100  1
  Zn  Zn7  1  0.75982900  0.01703000  0.70087900  1
  P  P8  1  0.76005100  0.01981300  0.34599400  1
  P  P9  1  0.26005100  0.98018700  0.65400600  1
  C  C10  1  0.25943000  0.50839600  0.15116200  1
  C  C11  1  0.75943000  0.49160400  0.84883800  1
  O  O12  1  0.25609400  0.67311900  0.04213100  1
  O  O13  1  0.25760900  0.26720500  0.11956000  1
  O  O14  1  0.94760500  0.93201200  0.25316900  1
  O  O15  1  0.57171700  0.93992500  0.25280000  1
  O  O16  1  0.26054900  0.57923400  0.28773500  1
  O  O17  1  0.76707600  0.30497400  0.37042900  1
  O  O18  1  0.75608100  0.87062400  0.49796200  1
  O  O19  1  0.25608100  0.12937600  0.50203800  1
  O  O20  1  0.26707600  0.69502600  0.62957100  1
  O  O21  1  0.76054900  0.42076600  0.71226500  1
  O  O22  1  0.07171700  0.06007500  0.74720000  1
  O  O23  1  0.44760500  0.06798800  0.74683100  1
  O  O24  1  0.75760900  0.73279500  0.88044000  1
  O  O25  1  0.75609400  0.32688100  0.95786900  1
