# generated using pymatgen
data_NdZrO3
_symmetry_space_group_name_H-M   'P 1'
_cell_length_a   5.86120563
_cell_length_b   5.86120563
_cell_length_c   5.63108411
_cell_angle_alpha   61.40900686
_cell_angle_beta   61.40900686
_cell_angle_gamma   89.43292890
_symmetry_Int_Tables_number   1
_chemical_formula_structural   NdZrO3
_chemical_formula_sum   'Nd2 Zr2 O6'
_cell_volume   142.99614026
_cell_formula_units_Z   2
loop_
 _symmetry_equiv_pos_site_id
 _symmetry_equiv_pos_as_xyz
  1  'x, y, z'
loop_
 _atom_site_type_symbol
 _atom_site_label
 _atom_site_symmetry_multiplicity
 _atom_site_fract_x
 _atom_site_fract_y
 _atom_site_fract_z
 _atom_site_occupancy
  Nd  Nd0  1  0.24405700  0.24405700  0.96873200  1
  Nd  Nd1  1  0.75594300  0.75594300  0.03126800  1
  Zr  Zr2  1  0.00000000  0.50000000  0.50000000  1
  Zr  Zr3  1  0.50000000  0.00000000  0.50000000  1
  O  O4  1  0.18004600  0.81995400  0.00000000  1
  O  O5  1  0.81995400  0.18004600  0.00000000  1
  O  O6  1  0.32197800  0.67802200  0.50000000  1
  O  O7  1  0.67802200  0.32197800  0.50000000  1
  O  O8  1  0.24421700  0.24421700  0.38910700  1
  O  O9  1  0.75578300  0.75578300  0.61089300  1
