data_image0
_chemical_formula_structural       Fe5H2La
_chemical_formula_sum              "Fe5 H2 La1"
_cell_length_a       4.11869
_cell_length_b       5.13028
_cell_length_c       5.15258
_cell_angle_alpha    119.857
_cell_angle_beta     90
_cell_angle_gamma    90

_space_group_name_H-M_alt    "P 1"
_space_group_IT_number       1

loop_
  _space_group_symop_operation_xyz
  'x, y, z'

loop_
  _atom_site_type_symbol
  _atom_site_label
  _atom_site_symmetry_multiplicity
  _atom_site_fract_x
  _atom_site_fract_y
  _atom_site_fract_z
  _atom_site_occupancy
  Fe  Fe1       1.0  0.50000  0.50000  0.00000  1.0000
  Fe  Fe2       1.0  0.00000  0.66300  0.32600  1.0000
  Fe  Fe3       1.0  0.50000  0.00000  0.50000  1.0000
  Fe  Fe4       1.0  0.50000  0.50000  0.50000  1.0000
  Fe  Fe5       1.0  0.00000  0.33700  0.67400  1.0000
  H   H1        1.0  0.50000  0.13400  0.26700  1.0000
  H   H2        1.0  0.50000  0.86600  0.73300  1.0000
  La  La1       1.0  0.00000  0.00000  0.00000  1.0000
