# generated using pymatgen
data_Mn(SO4)2
_symmetry_space_group_name_H-M   'P 1'
_cell_length_a   8.82086617
_cell_length_b   8.82086617
_cell_length_c   8.82086596
_cell_angle_alpha   55.46644269
_cell_angle_beta   55.46644269
_cell_angle_gamma   55.46644037
_symmetry_Int_Tables_number   1
_chemical_formula_structural   Mn(SO4)2
_chemical_formula_sum   'Mn3 S6 O24'
_cell_volume   434.21783258
_cell_formula_units_Z   3
loop_
 _symmetry_equiv_pos_site_id
 _symmetry_equiv_pos_as_xyz
  1  'x, y, z'
loop_
 _atom_site_type_symbol
 _atom_site_label
 _atom_site_symmetry_multiplicity
 _atom_site_fract_x
 _atom_site_fract_y
 _atom_site_fract_z
 _atom_site_occupancy
  Mn  Mn0  1  0.84779800  0.84779800  0.84779800  1
  Mn  Mn1  1  0.35373400  0.35373400  0.35373400  1
  Mn  Mn2  1  0.15335900  0.15335900  0.15335900  1
  S  S3  1  0.54605700  0.95274200  0.24607000  1
  S  S4  1  0.24607000  0.54605700  0.95274200  1
  S  S5  1  0.95274200  0.24607000  0.54605700  1
  S  S6  1  0.03873200  0.74902400  0.46048300  1
  S  S7  1  0.74902400  0.46048300  0.03873200  1
  S  S8  1  0.46048300  0.03873200  0.74902400  1
  O  O9  1  0.48617000  0.88877700  0.70808200  1
  O  O10  1  0.88877700  0.70808200  0.48617000  1
  O  O11  1  0.66993800  0.00290500  0.02914300  1
  O  O12  1  0.70808200  0.48617000  0.88877700  1
  O  O13  1  0.34469200  0.97586900  0.28347700  1
  O  O14  1  0.63115600  0.75610900  0.36698100  1
  O  O15  1  0.36698100  0.63115600  0.75610900  1
  O  O16  1  0.02914300  0.66993800  0.00290500  1
  O  O17  1  0.75610900  0.36698100  0.63115600  1
  O  O18  1  0.01970400  0.95824900  0.32213900  1
  O  O19  1  0.03218300  0.71561500  0.65383600  1
  O  O20  1  0.71561500  0.65383600  0.03218300  1
  O  O21  1  0.28347700  0.34469200  0.97586900  1
  O  O22  1  0.97586900  0.28347700  0.34469200  1
  O  O23  1  0.00290500  0.02914300  0.66993800  1
  O  O24  1  0.24548600  0.61761700  0.37750500  1
  O  O25  1  0.95824900  0.32213900  0.01970400  1
  O  O26  1  0.61761700  0.37750500  0.24548600  1
  O  O27  1  0.37750500  0.24548600  0.61761700  1
  O  O28  1  0.65383600  0.03218300  0.71561500  1
  O  O29  1  0.29584300  0.52009900  0.10546700  1
  O  O30  1  0.32213900  0.01970400  0.95824900  1
  O  O31  1  0.10546700  0.29584300  0.52009900  1
  O  O32  1  0.52009900  0.10546700  0.29584300  1
