# generated using pymatgen
data_Ca2WO5
_symmetry_space_group_name_H-M   'P 1'
_cell_length_a   5.37419600
_cell_length_b   7.55072700
_cell_length_c   11.19725618
_cell_angle_alpha   71.46399299
_cell_angle_beta   90.00000000
_cell_angle_gamma   90.00000000
_symmetry_Int_Tables_number   1
_chemical_formula_structural   Ca2WO5
_chemical_formula_sum   'Ca8 W4 O20'
_cell_volume   430.80333058
_cell_formula_units_Z   4
loop_
 _symmetry_equiv_pos_site_id
 _symmetry_equiv_pos_as_xyz
  1  'x, y, z'
loop_
 _atom_site_type_symbol
 _atom_site_label
 _atom_site_symmetry_multiplicity
 _atom_site_fract_x
 _atom_site_fract_y
 _atom_site_fract_z
 _atom_site_occupancy
  Ca  Ca0  1  0.56892000  0.84720500  0.81409900  1
  Ca  Ca1  1  0.93108000  0.84720500  0.31409900  1
  Ca  Ca2  1  0.00678500  0.65452600  0.63245000  1
  Ca  Ca3  1  0.50678500  0.34547400  0.86755000  1
  Ca  Ca4  1  0.49321500  0.65452600  0.13245000  1
  Ca  Ca5  1  0.99321500  0.34547400  0.36755000  1
  Ca  Ca6  1  0.06892000  0.15279500  0.68590100  1
  Ca  Ca7  1  0.43108000  0.15279500  0.18590100  1
  W  W8  1  0.50000000  0.00000000  0.50000000  1
  W  W9  1  0.00000000  0.00000000  0.00000000  1
  W  W10  1  0.50000000  0.50000000  0.50000000  1
  W  W11  1  0.00000000  0.50000000  0.00000000  1
  O  O12  1  0.76131700  0.99116000  0.61888700  1
  O  O13  1  0.86934500  0.74901700  0.00005000  1
  O  O14  1  0.28671500  0.88655000  0.64182300  1
  O  O15  1  0.30698000  0.60701100  0.92630000  1
  O  O16  1  0.73868300  0.99116000  0.11888700  1
  O  O17  1  0.63065500  0.74901700  0.50005000  1
  O  O18  1  0.21328500  0.88655000  0.14182300  1
  O  O19  1  0.84384100  0.55298100  0.83366000  1
  O  O20  1  0.19302000  0.60701100  0.42630000  1
  O  O21  1  0.34384100  0.44701900  0.66634000  1
  O  O22  1  0.65615900  0.55298100  0.33366000  1
  O  O23  1  0.80698000  0.39298900  0.57370000  1
  O  O24  1  0.15615900  0.44701900  0.16634000  1
  O  O25  1  0.78671500  0.11345000  0.85817700  1
  O  O26  1  0.36934500  0.25098300  0.49995000  1
  O  O27  1  0.26131700  0.00884000  0.88111300  1
  O  O28  1  0.69302000  0.39298900  0.07370000  1
  O  O29  1  0.71328500  0.11345000  0.35817700  1
  O  O30  1  0.13065500  0.25098300  0.99995000  1
  O  O31  1  0.23868300  0.00884000  0.38111300  1
