# generated using pymatgen
data_La2P4O13
_symmetry_space_group_name_H-M   'P 1'
_cell_length_a   7.07358685
_cell_length_b   7.07358685
_cell_length_c   13.46141699
_cell_angle_alpha   76.38332846
_cell_angle_beta   76.38332846
_cell_angle_gamma   59.85608235
_symmetry_Int_Tables_number   1
_chemical_formula_structural   La2P4O13
_chemical_formula_sum   'La4 P8 O26'
_cell_volume   560.56140307
_cell_formula_units_Z   2
loop_
 _symmetry_equiv_pos_site_id
 _symmetry_equiv_pos_as_xyz
  1  'x, y, z'
loop_
 _atom_site_type_symbol
 _atom_site_label
 _atom_site_symmetry_multiplicity
 _atom_site_fract_x
 _atom_site_fract_y
 _atom_site_fract_z
 _atom_site_occupancy
  La  La0  1  0.68513100  0.68931500  0.44894300  1
  La  La1  1  0.31068500  0.31486900  0.05105700  1
  La  La2  1  0.68931500  0.68513100  0.94894300  1
  La  La3  1  0.31486900  0.31068500  0.55105700  1
  P  P4  1  0.84941500  0.13296200  0.36247900  1
  P  P5  1  0.13296200  0.84941500  0.86247900  1
  P  P6  1  0.22499400  0.23922400  0.34122800  1
  P  P7  1  0.76077600  0.77500600  0.15877200  1
  P  P8  1  0.23922400  0.22499400  0.84122800  1
  P  P9  1  0.77500600  0.76077600  0.65877200  1
  P  P10  1  0.86703800  0.15058500  0.13752100  1
  P  P11  1  0.15058500  0.86703800  0.63752100  1
  O  O12  1  0.68845400  0.30851400  0.43199300  1
  O  O13  1  0.87921800  0.90290800  0.39428500  1
  O  O14  1  0.30851400  0.68845400  0.93199300  1
  O  O15  1  0.89488200  0.90779400  0.15476200  1
  O  O16  1  0.07688100  0.43124100  0.40452000  1
  O  O17  1  0.41800000  0.07844600  0.40241700  1
  O  O18  1  0.29194000  0.30525000  0.22925400  1
  O  O19  1  0.90290800  0.87921800  0.89428500  1
  O  O20  1  0.90779400  0.89488200  0.65476200  1
  O  O21  1  0.69475000  0.70806000  0.27074600  1
  O  O22  1  0.92155400  0.58200000  0.09758300  1
  O  O23  1  0.56875900  0.92311900  0.09548000  1
  O  O24  1  0.43124100  0.07688100  0.90452000  1
  O  O25  1  0.07844600  0.41800000  0.90241700  1
  O  O26  1  0.30525000  0.29194000  0.72925400  1
  O  O27  1  0.09220600  0.10511800  0.34523800  1
  O  O28  1  0.09709200  0.12078200  0.10571500  1
  O  O29  1  0.70806000  0.69475000  0.77074600  1
  O  O30  1  0.58200000  0.92155400  0.59758300  1
  O  O31  1  0.92311900  0.56875900  0.59548000  1
  O  O32  1  0.76942400  0.23057600  0.25000000  1
  O  O33  1  0.10511800  0.09220600  0.84523800  1
  O  O34  1  0.69148600  0.31154600  0.06800700  1
  O  O35  1  0.12078200  0.09709200  0.60571500  1
  O  O36  1  0.23057600  0.76942400  0.75000000  1
  O  O37  1  0.31154600  0.69148600  0.56800700  1
