# generated using pymatgen
data_BiPt3
_symmetry_space_group_name_H-M   'P 1'
_cell_length_a   5.23784100
_cell_length_b   5.23784100
_cell_length_c   5.23784100
_cell_angle_alpha   134.00733261
_cell_angle_beta   134.00733261
_cell_angle_gamma   67.07655565
_symmetry_Int_Tables_number   1
_chemical_formula_structural   BiPt3
_chemical_formula_sum   'Bi1 Pt3'
_cell_volume   73.12340519
_cell_formula_units_Z   1
loop_
 _symmetry_equiv_pos_site_id
 _symmetry_equiv_pos_as_xyz
  1  'x, y, z'
loop_
 _atom_site_type_symbol
 _atom_site_label
 _atom_site_symmetry_multiplicity
 _atom_site_fract_x
 _atom_site_fract_y
 _atom_site_fract_z
 _atom_site_occupancy
  Bi  Bi0  1  0.00000000  0.00000000  0.00000000  1
  Pt  Pt1  1  0.75000000  0.25000000  0.50000000  1
  Pt  Pt2  1  0.25000000  0.75000000  0.50000000  1
  Pt  Pt3  1  0.50000000  0.50000000  0.00000000  1
