# generated using pymatgen
data_Na3CrPCO7
_symmetry_space_group_name_H-M   'P 1'
_cell_length_a   9.16289693
_cell_length_b   5.35637649
_cell_length_c   6.58074901
_cell_angle_alpha   90.00333072
_cell_angle_beta   90.00439897
_cell_angle_gamma   90.96763792
_symmetry_Int_Tables_number   1
_chemical_formula_structural   Na3CrPCO7
_chemical_formula_sum   'Na6 Cr2 P2 C2 O14'
_cell_volume   322.93661115
_cell_formula_units_Z   2
loop_
 _symmetry_equiv_pos_site_id
 _symmetry_equiv_pos_as_xyz
  1  'x, y, z'
loop_
 _atom_site_type_symbol
 _atom_site_label
 _atom_site_symmetry_multiplicity
 _atom_site_fract_x
 _atom_site_fract_y
 _atom_site_fract_z
 _atom_site_occupancy
  Na  Na0  1  0.00430200  0.00379700  0.48180100  1
  Na  Na1  1  0.17513000  0.44494400  0.20824700  1
  Na  Na2  1  0.48649300  0.49407100  0.49863900  1
  Na  Na3  1  0.51351500  0.50635500  0.99862400  1
  Na  Na4  1  0.82488900  0.55516100  0.70837100  1
  Na  Na5  1  0.99567200  0.99643600  0.98175700  1
  Cr  Cr6  1  0.29081400  0.03742200  0.73974000  1
  Cr  Cr7  1  0.70903900  0.96185400  0.23980000  1
  P  P8  1  0.35151600  0.98622200  0.23882900  1
  P  P9  1  0.64851000  0.01376600  0.73913600  1
  C  C10  1  0.13732200  0.50160600  0.73744200  1
  C  C11  1  0.86269500  0.49845400  0.23749900  1
  O  O12  1  0.03670900  0.32682100  0.73540200  1
  O  O13  1  0.09955300  0.73618800  0.73361400  1
  O  O14  1  0.25597100  0.06101600  0.05058500  1
  O  O15  1  0.26035000  0.07430600  0.42731800  1
  O  O16  1  0.27404100  0.44364000  0.74610900  1
  O  O17  1  0.37513300  0.70276700  0.24087500  1
  O  O18  1  0.49804900  0.13648200  0.23505400  1
  O  O19  1  0.50195100  0.86361700  0.73513800  1
  O  O20  1  0.62485000  0.29727300  0.74134500  1
  O  O21  1  0.72600600  0.55641000  0.24615000  1
  O  O22  1  0.73967000  0.92556600  0.92757200  1
  O  O23  1  0.74410200  0.93855300  0.55112700  1
  O  O24  1  0.90046000  0.26394000  0.23363600  1
  O  O25  1  0.96325700  0.67333100  0.23539000  1
