# generated using pymatgen
data_CaPbI6
_symmetry_space_group_name_H-M   'P 1'
_cell_length_a   16.44070656
_cell_length_b   13.91268564
_cell_length_c   12.69844972
_cell_angle_alpha   76.16102095
_cell_angle_beta   55.25225559
_cell_angle_gamma   48.58672346
_symmetry_Int_Tables_number   1
_chemical_formula_structural   CaPbI6
_chemical_formula_sum   'Ca4 Pb4 I24'
_cell_volume   1744.50191222
_cell_formula_units_Z   4
loop_
 _symmetry_equiv_pos_site_id
 _symmetry_equiv_pos_as_xyz
  1  'x, y, z'
loop_
 _atom_site_type_symbol
 _atom_site_label
 _atom_site_symmetry_multiplicity
 _atom_site_fract_x
 _atom_site_fract_y
 _atom_site_fract_z
 _atom_site_occupancy
  Ca  Ca0  1  0.13661700  0.68634500  0.93978700  1
  Ca  Ca1  1  0.31021300  0.01274800  0.11338300  1
  Ca  Ca2  1  0.56365500  0.11338300  0.01274800  1
  Ca  Ca3  1  0.23725200  0.93978700  0.68634500  1
  Pb  Pb4  1  0.06721600  0.66863500  0.69758800  1
  Pb  Pb5  1  0.55241200  0.68343900  0.18278400  1
  Pb  Pb6  1  0.58136500  0.18278400  0.68343900  1
  Pb  Pb7  1  0.56656100  0.69758800  0.66863500  1
  I  I8  1  0.15583800  0.59286500  0.17375500  1
  I  I9  1  0.45168400  0.98265700  0.22037900  1
  I  I10  1  0.26988300  0.83089700  0.30444800  1
  I  I11  1  0.37804300  0.27811200  0.38652500  1
  I  I12  1  0.64307400  0.40550700  0.14895900  1
  I  I13  1  0.33945800  0.47818200  0.68257800  1
  I  I14  1  0.07624500  0.17245800  0.09416200  1
  I  I15  1  0.65713500  0.09416200  0.17245800  1
  I  I16  1  0.49978200  0.68257800  0.47818200  1
  I  I17  1  0.26734300  0.79831600  0.90472000  1
  I  I18  1  0.41910300  0.98011700  0.65522900  1
  I  I19  1  0.80246000  0.14895900  0.40550700  1
  I  I20  1  0.95732000  0.38652500  0.27811200  1
  I  I21  1  0.97188800  0.87195700  0.29268000  1
  I  I22  1  0.84449300  0.60692600  0.44754000  1
  I  I23  1  0.59477100  0.30444800  0.83089700  1
  I  I24  1  0.34528000  0.22037900  0.98265700  1
  I  I25  1  0.77181800  0.91054200  0.75021800  1
  I  I26  1  0.07754200  0.17375500  0.59286500  1
  I  I27  1  0.56742200  0.75021800  0.91054200  1
  I  I28  1  0.10104100  0.44754000  0.60692600  1
  I  I29  1  0.86347500  0.29268000  0.87195700  1
  I  I30  1  0.94555200  0.65522900  0.98011700  1
  I  I31  1  0.02962100  0.90472000  0.79831600  1
