# generated using pymatgen
data_MgCr3(SO4)6
_symmetry_space_group_name_H-M   'P 1'
_cell_length_a   8.85711097
_cell_length_b   8.85711097
_cell_length_c   8.85711086
_cell_angle_alpha   55.91042034
_cell_angle_beta   55.91042034
_cell_angle_gamma   55.91041971
_symmetry_Int_Tables_number   1
_chemical_formula_structural   MgCr3(SO4)6
_chemical_formula_sum   'Mg1 Cr3 S6 O24'
_cell_volume   444.74857073
_cell_formula_units_Z   1
loop_
 _symmetry_equiv_pos_site_id
 _symmetry_equiv_pos_as_xyz
  1  'x, y, z'
loop_
 _atom_site_type_symbol
 _atom_site_label
 _atom_site_symmetry_multiplicity
 _atom_site_fract_x
 _atom_site_fract_y
 _atom_site_fract_z
 _atom_site_occupancy
  Mg  Mg0  1  0.64174900  0.64174900  0.64174900  1
  Cr  Cr1  1  0.84918300  0.84918300  0.84918300  1
  Cr  Cr2  1  0.35575000  0.35575000  0.35575000  1
  Cr  Cr3  1  0.15031500  0.15031500  0.15031500  1
  S  S4  1  0.53963900  0.96056500  0.24583600  1
  S  S5  1  0.74669000  0.46124300  0.04432000  1
  S  S6  1  0.04432000  0.74669000  0.46124300  1
  S  S7  1  0.96056500  0.24583600  0.53963900  1
  S  S8  1  0.24583600  0.53963900  0.96056500  1
  S  S9  1  0.46124300  0.04432000  0.74669000  1
  O  O10  1  0.67051700  0.99339500  0.03835000  1
  O  O11  1  0.34283200  0.98188400  0.27778700  1
  O  O12  1  0.72000600  0.65104100  0.02844500  1
  O  O13  1  0.02280200  0.95464700  0.32418500  1
  O  O14  1  0.29505900  0.51067100  0.11183600  1
  O  O15  1  0.61927800  0.76579900  0.37450200  1
  O  O16  1  0.95464700  0.32418500  0.02280200  1
  O  O17  1  0.24299200  0.61625000  0.37841900  1
  O  O18  1  0.89295200  0.70627400  0.48478800  1
  O  O19  1  0.48478800  0.89295200  0.70627400  1
  O  O20  1  0.61625000  0.37841900  0.24299200  1
  O  O21  1  0.02844500  0.72000600  0.65104100  1
  O  O22  1  0.98188400  0.27778700  0.34283200  1
  O  O23  1  0.37450200  0.61927800  0.76579900  1
  O  O24  1  0.51067100  0.11183600  0.29505900  1
  O  O25  1  0.11183600  0.29505900  0.51067100  1
  O  O26  1  0.76579900  0.37450200  0.61927800  1
  O  O27  1  0.03835000  0.67051700  0.99339500  1
  O  O28  1  0.37841900  0.24299200  0.61625000  1
  O  O29  1  0.70627400  0.48478800  0.89295200  1
  O  O30  1  0.99339500  0.03835000  0.67051700  1
  O  O31  1  0.27778700  0.34283200  0.98188400  1
  O  O32  1  0.65104100  0.02844500  0.72000600  1
  O  O33  1  0.32418500  0.02280200  0.95464700  1
