# generated using pymatgen
data_Lu4(B2O5)3
_symmetry_space_group_name_H-M   'P 1'
_cell_length_a   6.18111826
_cell_length_b   6.18111826
_cell_length_c   18.67674792
_cell_angle_alpha   84.18370468
_cell_angle_beta   84.18370468
_cell_angle_gamma   41.43492569
_symmetry_Int_Tables_number   1
_chemical_formula_structural   Lu4(B2O5)3
_chemical_formula_sum   'Lu8 B12 O30'
_cell_volume   469.43738064
_cell_formula_units_Z   2
loop_
 _symmetry_equiv_pos_site_id
 _symmetry_equiv_pos_as_xyz
  1  'x, y, z'
loop_
 _atom_site_type_symbol
 _atom_site_label
 _atom_site_symmetry_multiplicity
 _atom_site_fract_x
 _atom_site_fract_y
 _atom_site_fract_z
 _atom_site_occupancy
  Lu  Lu0  1  0.65721700  0.06816600  0.30176600  1
  Lu  Lu1  1  0.66904000  0.06287900  0.09970000  1
  Lu  Lu2  1  0.06816600  0.65721700  0.80176600  1
  Lu  Lu3  1  0.06287900  0.66904000  0.59970000  1
  Lu  Lu4  1  0.93712100  0.33096000  0.40030000  1
  Lu  Lu5  1  0.93183400  0.34278300  0.19823400  1
  Lu  Lu6  1  0.33096000  0.93712100  0.90030000  1
  Lu  Lu7  1  0.34278300  0.93183400  0.69823400  1
  B  B8  1  0.19741700  0.60898300  0.41294000  1
  B  B9  1  0.20371600  0.65857300  0.19412800  1
  B  B10  1  0.64189700  0.02080000  0.47456200  1
  B  B11  1  0.60898300  0.19741700  0.91294000  1
  B  B12  1  0.65857300  0.20371600  0.69412800  1
  B  B13  1  0.02080000  0.64189700  0.97456200  1
  B  B14  1  0.97920000  0.35810300  0.02543800  1
  B  B15  1  0.34142700  0.79628400  0.30587200  1
  B  B16  1  0.39101700  0.80258300  0.08706000  1
  B  B17  1  0.35810300  0.97920000  0.52543800  1
  B  B18  1  0.79628400  0.34142700  0.80587200  1
  B  B19  1  0.80258300  0.39101700  0.58706000  1
  O  O20  1  0.15702100  0.81261000  0.12105500  1
  O  O21  1  0.54565900  0.28697700  0.42870400  1
  O  O22  1  0.53463700  0.33318500  0.19668500  1
  O  O23  1  0.99679400  0.74950900  0.48074200  1
  O  O24  1  0.81261000  0.15702100  0.62105500  1
  O  O25  1  0.28697700  0.54565900  0.92870400  1
  O  O26  1  0.07144400  0.56454800  0.36129700  1
  O  O27  1  0.33318500  0.53463700  0.69668500  1
  O  O28  1  0.74950900  0.99679400  0.98074200  1
  O  O29  1  0.94797700  0.68414800  0.20415400  1
  O  O30  1  0.09129300  0.49279200  0.04994200  1
  O  O31  1  0.50720800  0.90870700  0.45005800  1
  O  O32  1  0.56454800  0.07144400  0.86129700  1
  O  O33  1  0.68414800  0.94797700  0.70415400  1
  O  O34  1  0.31585200  0.05202300  0.29584600  1
  O  O35  1  0.43545200  0.92855600  0.13870300  1
  O  O36  1  0.49279200  0.09129300  0.54994200  1
  O  O37  1  0.90870700  0.50720800  0.95005800  1
  O  O38  1  0.05202300  0.31585200  0.79584600  1
  O  O39  1  0.25049100  0.00320600  0.01925800  1
  O  O40  1  0.66681500  0.46536300  0.30331500  1
  O  O41  1  0.92855600  0.43545200  0.63870300  1
  O  O42  1  0.71302300  0.45434100  0.07129600  1
  O  O43  1  0.18739000  0.84297900  0.37894500  1
  O  O44  1  0.12978500  0.87021500  0.25000000  1
  O  O45  1  0.00320600  0.25049100  0.51925800  1
  O  O46  1  0.46536300  0.66681500  0.80331500  1
  O  O47  1  0.45434100  0.71302300  0.57129600  1
  O  O48  1  0.84297900  0.18739000  0.87894500  1
  O  O49  1  0.87021500  0.12978500  0.75000000  1
