# generated using pymatgen
data_CaBr
_symmetry_space_group_name_H-M   'P 1'
_cell_length_a   4.08414807
_cell_length_b   4.08414807
_cell_length_c   9.67212600
_cell_angle_alpha   90.00000000
_cell_angle_beta   90.00000000
_cell_angle_gamma   120.00000111
_symmetry_Int_Tables_number   1
_chemical_formula_structural   CaBr
_chemical_formula_sum   'Ca2 Br2'
_cell_volume   139.71901973
_cell_formula_units_Z   2
loop_
 _symmetry_equiv_pos_site_id
 _symmetry_equiv_pos_as_xyz
  1  'x, y, z'
loop_
 _atom_site_type_symbol
 _atom_site_label
 _atom_site_symmetry_multiplicity
 _atom_site_fract_x
 _atom_site_fract_y
 _atom_site_fract_z
 _atom_site_occupancy
  Ca  Ca0  1  0.66666700  0.33333300  0.84051200  1
  Ca  Ca1  1  0.33333300  0.66666700  0.34051200  1
  Br  Br2  1  0.66666700  0.33333300  0.53448800  1
  Br  Br3  1  0.33333300  0.66666700  0.03448800  1
