# generated using pymatgen
data_Mn5P6WO24
_symmetry_space_group_name_H-M   'P 1'
_cell_length_a   8.75764927
_cell_length_b   8.75764927
_cell_length_c   8.75764872
_cell_angle_alpha   60.08253236
_cell_angle_beta   60.08253236
_cell_angle_gamma   60.08253270
_symmetry_Int_Tables_number   1
_chemical_formula_structural   Mn5P6WO24
_chemical_formula_sum   'Mn5 P6 W1 O24'
_cell_volume   475.83797310
_cell_formula_units_Z   1
loop_
 _symmetry_equiv_pos_site_id
 _symmetry_equiv_pos_as_xyz
  1  'x, y, z'
loop_
 _atom_site_type_symbol
 _atom_site_label
 _atom_site_symmetry_multiplicity
 _atom_site_fract_x
 _atom_site_fract_y
 _atom_site_fract_z
 _atom_site_occupancy
  Mn  Mn0  1  0.99102500  0.99102500  0.99102500  1
  Mn  Mn1  1  0.64551000  0.64551000  0.64551000  1
  Mn  Mn2  1  0.50006400  0.50006400  0.50006400  1
  Mn  Mn3  1  0.85178100  0.85178100  0.85178100  1
  Mn  Mn4  1  0.35540900  0.35540900  0.35540900  1
  P  P5  1  0.95507100  0.25238200  0.54745600  1
  P  P6  1  0.54745600  0.95507100  0.25238200  1
  P  P7  1  0.25238200  0.54745600  0.95507100  1
  P  P8  1  0.74434800  0.45874400  0.04879300  1
  P  P9  1  0.45874400  0.04879300  0.74434800  1
  P  P10  1  0.04879300  0.74434800  0.45874400  1
  W  W11  1  0.14386900  0.14386900  0.14386900  1
  O  O12  1  0.50473800  0.10791000  0.31636900  1
  O  O13  1  0.31636900  0.50473800  0.10791000  1
  O  O14  1  0.10791000  0.31636900  0.50473800  1
  O  O15  1  0.94335700  0.08646400  0.73286900  1
  O  O16  1  0.01720700  0.17902700  0.38100500  1
  O  O17  1  0.76503700  0.40416000  0.54522900  1
  O  O18  1  0.73286900  0.94335700  0.08646400  1
  O  O19  1  0.54522900  0.76503700  0.40416000  1
  O  O20  1  0.80683400  0.60976300  0.01466400  1
  O  O21  1  0.40416000  0.54522900  0.76503700  1
  O  O22  1  0.91603500  0.25960500  0.07673500  1
  O  O23  1  0.60976300  0.01466400  0.80683400  1
  O  O24  1  0.38100500  0.01720700  0.17902700  1
  O  O25  1  0.08646400  0.73286900  0.94335700  1
  O  O26  1  0.59158100  0.43211800  0.24420700  1
  O  O27  1  0.17902700  0.38100500  0.01720700  1
  O  O28  1  0.43211800  0.24420700  0.59158100  1
  O  O29  1  0.25960500  0.07673500  0.91603500  1
  O  O30  1  0.24420700  0.59158100  0.43211800  1
  O  O31  1  0.01466400  0.80683400  0.60976300  1
  O  O32  1  0.07673500  0.91603500  0.25960500  1
  O  O33  1  0.89383600  0.70153700  0.47525000  1
  O  O34  1  0.70153700  0.47525000  0.89383600  1
  O  O35  1  0.47525000  0.89383600  0.70153700  1
