# generated using pymatgen
data_MnNi(PO4)2
_symmetry_space_group_name_H-M   'P 1'
_cell_length_a   8.41702423
_cell_length_b   8.41702423
_cell_length_c   8.41702395
_cell_angle_alpha   60.78946587
_cell_angle_beta   60.78946587
_cell_angle_gamma   60.78946495
_symmetry_Int_Tables_number   1
_chemical_formula_structural   MnNi(PO4)2
_chemical_formula_sum   'Mn3 Ni3 P6 O24'
_cell_volume   429.16716480
_cell_formula_units_Z   3
loop_
 _symmetry_equiv_pos_site_id
 _symmetry_equiv_pos_as_xyz
  1  'x, y, z'
loop_
 _atom_site_type_symbol
 _atom_site_label
 _atom_site_symmetry_multiplicity
 _atom_site_fract_x
 _atom_site_fract_y
 _atom_site_fract_z
 _atom_site_occupancy
  Mn  Mn0  1  0.64166900  0.64166900  0.64166900  1
  Mn  Mn1  1  0.85884000  0.85884000  0.85884000  1
  Mn  Mn2  1  0.35828800  0.35828800  0.35828800  1
  Ni  Ni3  1  0.00283200  0.00283200  0.00283200  1
  Ni  Ni4  1  0.14117400  0.14117400  0.14117400  1
  Ni  Ni5  1  0.50060400  0.50060400  0.50060400  1
  P  P6  1  0.95862100  0.24813800  0.54202200  1
  P  P7  1  0.54202200  0.95862100  0.24813800  1
  P  P8  1  0.24813800  0.54202200  0.95862100  1
  P  P9  1  0.74930800  0.45838800  0.03925200  1
  P  P10  1  0.45838800  0.03925200  0.74930800  1
  P  P11  1  0.03925200  0.74930800  0.45838800  1
  O  O12  1  0.51009200  0.12070200  0.30836100  1
  O  O13  1  0.30836100  0.51009200  0.12070200  1
  O  O14  1  0.12070200  0.30836100  0.51009200  1
  O  O15  1  0.94314800  0.08602400  0.74617100  1
  O  O16  1  0.98435100  0.18826700  0.38881900  1
  O  O17  1  0.75681000  0.41484600  0.56241900  1
  O  O18  1  0.74617100  0.94314800  0.08602400  1
  O  O19  1  0.56241900  0.75681000  0.41484600  1
  O  O20  1  0.80933700  0.62054900  0.00755800  1
  O  O21  1  0.41484600  0.56241900  0.75681000  1
  O  O22  1  0.90436200  0.26039500  0.05650900  1
  O  O23  1  0.62054900  0.00755800  0.80933700  1
  O  O24  1  0.38881900  0.98435100  0.18826700  1
  O  O25  1  0.08602400  0.74617100  0.94314800  1
  O  O26  1  0.57967100  0.45175800  0.23953600  1
  O  O27  1  0.18826700  0.38881900  0.98435100  1
  O  O28  1  0.45175800  0.23953600  0.57967100  1
  O  O29  1  0.26039500  0.05650900  0.90436200  1
  O  O30  1  0.23953600  0.57967100  0.45175800  1
  O  O31  1  0.00755800  0.80933700  0.62054900  1
  O  O32  1  0.05650900  0.90436200  0.26039500  1
  O  O33  1  0.87993800  0.68175300  0.49948800  1
  O  O34  1  0.68175300  0.49948800  0.87993800  1
  O  O35  1  0.49948800  0.87993800  0.68175300  1
