# generated using pymatgen
data_Cr2(WO4)3
_symmetry_space_group_name_H-M   'P 1'
_cell_length_a   9.68710211
_cell_length_b   9.68710211
_cell_length_c   9.68710171
_cell_angle_alpha   56.30012213
_cell_angle_beta   56.30012213
_cell_angle_gamma   56.30012622
_symmetry_Int_Tables_number   1
_chemical_formula_structural   Cr2(WO4)3
_chemical_formula_sum   'Cr4 W6 O24'
_cell_volume   587.76539597
_cell_formula_units_Z   2
loop_
 _symmetry_equiv_pos_site_id
 _symmetry_equiv_pos_as_xyz
  1  'x, y, z'
loop_
 _atom_site_type_symbol
 _atom_site_label
 _atom_site_symmetry_multiplicity
 _atom_site_fract_x
 _atom_site_fract_y
 _atom_site_fract_z
 _atom_site_occupancy
  Cr  Cr0  1  0.14051200  0.14051200  0.14051200  1
  Cr  Cr1  1  0.35322000  0.35322000  0.35322000  1
  Cr  Cr2  1  0.64678000  0.64678000  0.64678000  1
  Cr  Cr3  1  0.85948800  0.85948800  0.85948800  1
  W  W4  1  0.96867500  0.25028200  0.53451200  1
  W  W5  1  0.46548800  0.03132500  0.74971800  1
  W  W6  1  0.74971800  0.46548800  0.03132500  1
  W  W7  1  0.25028200  0.53451200  0.96867500  1
  W  W8  1  0.53451200  0.96867500  0.25028200  1
  W  W9  1  0.03132500  0.74971800  0.46548800  1
  O  O10  1  0.00628000  0.19687400  0.36221600  1
  O  O11  1  0.88438900  0.09344900  0.74678300  1
  O  O12  1  0.90655100  0.25321700  0.11561100  1
  O  O13  1  0.63778400  0.99372000  0.80312600  1
  O  O14  1  0.80990100  0.47443400  0.51877000  1
  O  O15  1  0.51058400  0.18154000  0.22303900  1
  O  O16  1  0.48123000  0.19009900  0.52556600  1
  O  O17  1  0.77696100  0.48941600  0.81846000  1
  O  O18  1  0.80312600  0.63778400  0.99372000  1
  O  O19  1  0.25321700  0.11561100  0.90655100  1
  O  O20  1  0.81846000  0.77696100  0.48941600  1
  O  O21  1  0.52556600  0.48123000  0.19009900  1
  O  O22  1  0.47443400  0.51877000  0.80990100  1
  O  O23  1  0.18154000  0.22303900  0.51058400  1
  O  O24  1  0.74678300  0.88438900  0.09344900  1
  O  O25  1  0.19687400  0.36221600  0.00628000  1
  O  O26  1  0.22303900  0.51058400  0.18154000  1
  O  O27  1  0.51877000  0.80990100  0.47443400  1
  O  O28  1  0.48941600  0.81846000  0.77696100  1
  O  O29  1  0.19009900  0.52556600  0.48123000  1
  O  O30  1  0.36221600  0.00628000  0.19687400  1
  O  O31  1  0.09344900  0.74678300  0.88438900  1
  O  O32  1  0.11561100  0.90655100  0.25321700  1
  O  O33  1  0.99372000  0.80312600  0.63778400  1
