# generated using pymatgen
data_Mn3CoO8
_symmetry_space_group_name_H-M   'P 1'
_cell_length_a   5.80126614
_cell_length_b   5.78163434
_cell_length_c   5.80126674
_cell_angle_alpha   120.11239371
_cell_angle_beta   119.99999290
_cell_angle_gamma   59.88761141
_symmetry_Int_Tables_number   1
_chemical_formula_structural   Mn3CoO8
_chemical_formula_sum   'Mn3 Co1 O8'
_cell_volume   137.35402905
_cell_formula_units_Z   1
loop_
 _symmetry_equiv_pos_site_id
 _symmetry_equiv_pos_as_xyz
  1  'x, y, z'
loop_
 _atom_site_type_symbol
 _atom_site_label
 _atom_site_symmetry_multiplicity
 _atom_site_fract_x
 _atom_site_fract_y
 _atom_site_fract_z
 _atom_site_occupancy
  Mn  Mn0  1  0.00000000  0.00000000  0.50000000  1
  Mn  Mn1  1  0.50000000  0.00000000  0.00000000  1
  Mn  Mn2  1  0.50000000  0.00000000  0.50000000  1
  Co  Co3  1  0.00000000  0.00000000  0.00000000  1
  O  O4  1  0.26104300  0.20200800  0.23152600  1
  O  O5  1  0.26512800  0.20461500  0.73487200  1
  O  O6  1  0.76847400  0.20200800  0.23152600  1
  O  O7  1  0.76847400  0.20200800  0.73895700  1
  O  O8  1  0.23152600  0.79799200  0.26104300  1
  O  O9  1  0.23152600  0.79799200  0.76847400  1
  O  O10  1  0.73487200  0.79538500  0.26512800  1
  O  O11  1  0.73895700  0.79799200  0.76847400  1
