# generated using pymatgen
data_K2WO4
_symmetry_space_group_name_H-M   'P 1'
_cell_length_a   8.24063400
_cell_length_b   6.35505900
_cell_length_c   12.17732437
_cell_angle_alpha   63.99419773
_cell_angle_beta   90.00000000
_cell_angle_gamma   90.00000000
_symmetry_Int_Tables_number   1
_chemical_formula_structural   K2WO4
_chemical_formula_sum   'K8 W4 O16'
_cell_volume   573.15333120
_cell_formula_units_Z   4
loop_
 _symmetry_equiv_pos_site_id
 _symmetry_equiv_pos_as_xyz
  1  'x, y, z'
loop_
 _atom_site_type_symbol
 _atom_site_label
 _atom_site_symmetry_multiplicity
 _atom_site_fract_x
 _atom_site_fract_y
 _atom_site_fract_z
 _atom_site_occupancy
  K  K0  1  0.25158200  0.78394700  0.90718200  1
  K  K1  1  0.51097300  0.52281600  0.72890900  1
  K  K2  1  0.24841800  0.78394700  0.40718200  1
  K  K3  1  0.01097300  0.47718400  0.77109100  1
  K  K4  1  0.98902700  0.52281600  0.22890900  1
  K  K5  1  0.75158200  0.21605300  0.59281800  1
  K  K6  1  0.48902700  0.47718400  0.27109100  1
  K  K7  1  0.74841800  0.21605300  0.09281800  1
  W  W8  1  0.73312200  0.86934800  0.93118600  1
  W  W9  1  0.76687800  0.86934800  0.43118600  1
  W  W10  1  0.23312200  0.13065200  0.56881400  1
  W  W11  1  0.26687800  0.13065200  0.06881400  1
  O  O12  1  0.92353900  0.74530200  0.91427400  1
  O  O13  1  0.57176100  0.76460500  0.86687000  1
  O  O14  1  0.80018600  0.77493200  0.59410600  1
  O  O15  1  0.24367900  0.81006900  0.64510500  1
  O  O16  1  0.57646100  0.74530200  0.41427400  1
  O  O17  1  0.92823900  0.76460500  0.36687000  1
  O  O18  1  0.74367900  0.18993100  0.85489500  1
  O  O19  1  0.30018600  0.22506800  0.90589400  1
  O  O20  1  0.69981400  0.77493200  0.09410600  1
  O  O21  1  0.25632100  0.81006900  0.14510500  1
  O  O22  1  0.07176100  0.23539500  0.63313000  1
  O  O23  1  0.42353900  0.25469800  0.58572600  1
  O  O24  1  0.75632100  0.18993100  0.35489500  1
  O  O25  1  0.19981400  0.22506800  0.40589400  1
  O  O26  1  0.42823900  0.23539500  0.13313000  1
  O  O27  1  0.07646100  0.25469800  0.08572600  1
