# generated using pymatgen
data_FeCo3(PO4)4
_symmetry_space_group_name_H-M   'P 1'
_cell_length_a   5.90717300
_cell_length_b   4.83882700
_cell_length_c   9.82476135
_cell_angle_alpha   89.56026832
_cell_angle_beta   90.00000000
_cell_angle_gamma   90.00000000
_symmetry_Int_Tables_number   1
_chemical_formula_structural   FeCo3(PO4)4
_chemical_formula_sum   'Fe1 Co3 P4 O16'
_cell_volume   280.82062688
_cell_formula_units_Z   1
loop_
 _symmetry_equiv_pos_site_id
 _symmetry_equiv_pos_as_xyz
  1  'x, y, z'
loop_
 _atom_site_type_symbol
 _atom_site_label
 _atom_site_symmetry_multiplicity
 _atom_site_fract_x
 _atom_site_fract_y
 _atom_site_fract_z
 _atom_site_occupancy
  Fe  Fe0  1  0.00000000  0.04344800  0.72310400  1
  Co  Co1  1  0.50000000  0.96974900  0.27017200  1
  Co  Co2  1  0.50000000  0.57073900  0.78540600  1
  Co  Co3  1  0.00000000  0.46809700  0.22980400  1
  P  P4  1  0.00000000  0.90433500  0.40024900  1
  P  P5  1  0.00000000  0.58053000  0.90647200  1
  P  P6  1  0.50000000  0.41077400  0.09602700  1
  P  P7  1  0.50000000  0.09066400  0.59981000  1
  O  O8  1  0.00000000  0.84738500  0.55303800  1
  O  O9  1  0.20418700  0.75937700  0.32845900  1
  O  O10  1  0.79581300  0.75937700  0.32845900  1
  O  O11  1  0.50000000  0.77377800  0.62015800  1
  O  O12  1  0.50000000  0.72572600  0.11885200  1
  O  O13  1  0.20234200  0.73325700  0.83020300  1
  O  O14  1  0.79765800  0.73325700  0.83020300  1
  O  O15  1  0.00000000  0.65449100  0.05785700  1
  O  O16  1  0.50000000  0.34697400  0.94262300  1
  O  O17  1  0.70387400  0.26043700  0.16718400  1
  O  O18  1  0.29612600  0.26043700  0.16718400  1
  O  O19  1  0.00000000  0.27117000  0.88484900  1
  O  O20  1  0.00000000  0.22144100  0.37621000  1
  O  O21  1  0.70547400  0.23627700  0.66976800  1
  O  O22  1  0.29452600  0.23627700  0.66976800  1
  O  O23  1  0.50000000  0.14200200  0.44414200  1
