data_image0
_chemical_formula_structural       Eu2In4Pd2
_chemical_formula_sum              "Eu2 In4 Pd2"
_cell_length_a       4.55043
_cell_length_b       5.66605
_cell_length_c       7.97519
_cell_angle_alpha    90
_cell_angle_beta     90
_cell_angle_gamma    66.3247

_space_group_name_H-M_alt    "P 1"
_space_group_IT_number       1

loop_
  _space_group_symop_operation_xyz
  'x, y, z'

loop_
  _atom_site_type_symbol
  _atom_site_label
  _atom_site_symmetry_multiplicity
  _atom_site_fract_x
  _atom_site_fract_y
  _atom_site_fract_z
  _atom_site_occupancy
  Eu  Eu1       1.0  0.93600  0.12800  0.25000  1.0000
  Eu  Eu2       1.0  0.06420  0.87200  0.75000  1.0000
  In  In1       1.0  0.64700  0.70700  0.05330  1.0000
  In  In2       1.0  0.64700  0.70700  0.44700  1.0000
  In  In3       1.0  0.35300  0.29300  0.55300  1.0000
  In  In4       1.0  0.35300  0.29300  0.94700  1.0000
  Pd  Pd1       1.0  0.21700  0.56500  0.25000  1.0000
  Pd  Pd2       1.0  0.78300  0.43500  0.75000  1.0000
