# generated using pymatgen
data_Sr2LaI7
_symmetry_space_group_name_H-M   'P 1'
_cell_length_a   14.80282900
_cell_length_b   8.39234900
_cell_length_c   15.28726994
_cell_angle_alpha   79.76975910
_cell_angle_beta   90.00000000
_cell_angle_gamma   90.00000000
_symmetry_Int_Tables_number   1
_chemical_formula_structural   Sr2LaI7
_chemical_formula_sum   'Sr8 La4 I28'
_cell_volume   1868.95269535
_cell_formula_units_Z   4
loop_
 _symmetry_equiv_pos_site_id
 _symmetry_equiv_pos_as_xyz
  1  'x, y, z'
loop_
 _atom_site_type_symbol
 _atom_site_label
 _atom_site_symmetry_multiplicity
 _atom_site_fract_x
 _atom_site_fract_y
 _atom_site_fract_z
 _atom_site_occupancy
  Sr  Sr0  1  0.53293900  0.77769200  0.74950100  1
  Sr  Sr1  1  0.12710800  0.75015500  0.67175000  1
  Sr  Sr2  1  0.79677600  0.76231200  0.16890500  1
  Sr  Sr3  1  0.37274500  0.62127200  0.25557400  1
  Sr  Sr4  1  0.87274500  0.37872800  0.74442600  1
  Sr  Sr5  1  0.29677600  0.23768800  0.83109500  1
  Sr  Sr6  1  0.62710800  0.24984500  0.32825000  1
  Sr  Sr7  1  0.03293900  0.22230800  0.25049900  1
  La  La8  1  0.84874600  0.84808000  0.55551600  1
  La  La9  1  0.07013800  0.83479200  0.05414600  1
  La  La10  1  0.57013800  0.16520800  0.94585400  1
  La  La11  1  0.34874600  0.15192000  0.44448400  1
  I  I12  1  0.68302800  0.88841300  0.88638800  1
  I  I13  1  0.40445700  0.94073900  0.99427700  1
  I  I14  1  0.52718200  0.97542700  0.51346300  1
  I  I15  1  0.16641900  0.89201500  0.86449600  1
  I  I16  1  0.26929400  0.83641800  0.39354800  1
  I  I17  1  0.74856500  0.88761600  0.36889100  1
  I  I18  1  0.92016500  0.78778100  0.75556900  1
  I  I19  1  0.99738000  0.82319100  0.25614800  1
  I  I20  1  0.33747700  0.61069700  0.69181700  1
  I  I21  1  0.58986400  0.60440100  0.18779800  1
  I  I22  1  0.68921800  0.60977300  0.63193200  1
  I  I23  1  0.71946800  0.42670400  0.88798600  1
  I  I24  1  0.97692700  0.53440400  0.55774300  1
  I  I25  1  0.43516000  0.46215000  0.93849800  1
  I  I26  1  0.93516000  0.53785000  0.06150200  1
  I  I27  1  0.47692700  0.46559600  0.44225700  1
  I  I28  1  0.21946800  0.57329600  0.11201400  1
  I  I29  1  0.18921800  0.39022700  0.36806800  1
  I  I30  1  0.08986400  0.39559900  0.81220200  1
  I  I31  1  0.83747700  0.38930300  0.30818300  1
  I  I32  1  0.49738000  0.17680900  0.74385200  1
  I  I33  1  0.42016500  0.21221900  0.24443100  1
  I  I34  1  0.24856500  0.11238400  0.63110900  1
  I  I35  1  0.76929400  0.16358200  0.60645200  1
  I  I36  1  0.66641900  0.10798500  0.13550400  1
  I  I37  1  0.02718200  0.02457300  0.48653700  1
  I  I38  1  0.90445700  0.05926100  0.00572300  1
  I  I39  1  0.18302800  0.11158700  0.11361200  1
