# generated using pymatgen
data_Fe5Sn(PO4)6
_symmetry_space_group_name_H-M   'P 1'
_cell_length_a   8.54737177
_cell_length_b   8.54737177
_cell_length_c   8.54737202
_cell_angle_alpha   61.08858296
_cell_angle_beta   61.08858296
_cell_angle_gamma   61.08858448
_symmetry_Int_Tables_number   1
_chemical_formula_structural   Fe5Sn(PO4)6
_chemical_formula_sum   'Fe5 Sn1 P6 O24'
_cell_volume   452.37341672
_cell_formula_units_Z   1
loop_
 _symmetry_equiv_pos_site_id
 _symmetry_equiv_pos_as_xyz
  1  'x, y, z'
loop_
 _atom_site_type_symbol
 _atom_site_label
 _atom_site_symmetry_multiplicity
 _atom_site_fract_x
 _atom_site_fract_y
 _atom_site_fract_z
 _atom_site_occupancy
  Fe  Fe0  1  0.00421900  0.00421900  0.00421900  1
  Fe  Fe1  1  0.35285400  0.35285400  0.35285400  1
  Fe  Fe2  1  0.49912400  0.49912400  0.49912400  1
  Fe  Fe3  1  0.14457500  0.14457500  0.14457500  1
  Fe  Fe4  1  0.64581700  0.64581700  0.64581700  1
  Sn  Sn5  1  0.85682800  0.85682800  0.85682800  1
  P  P6  1  0.74722200  0.04996900  0.45229500  1
  P  P7  1  0.04996900  0.45229500  0.74722200  1
  P  P8  1  0.45229500  0.74722200  0.04996900  1
  P  P9  1  0.54060500  0.25314600  0.95222200  1
  P  P10  1  0.95222200  0.54060500  0.25314600  1
  P  P11  1  0.25314600  0.95222200  0.54060500  1
  O  O12  1  0.89219800  0.50176900  0.67859800  1
  O  O13  1  0.50176900  0.67859800  0.89219800  1
  O  O14  1  0.67859800  0.89219800  0.50176900  1
  O  O15  1  0.90466900  0.06468300  0.25691500  1
  O  O16  1  0.81574200  0.01622700  0.60592400  1
  O  O17  1  0.58924400  0.24964300  0.43924400  1
  O  O18  1  0.06468300  0.25691500  0.90466900  1
  O  O19  1  0.24964300  0.43924400  0.58924400  1
  O  O20  1  0.38940800  0.18003200  0.99438600  1
  O  O21  1  0.43924400  0.58924400  0.24964300  1
  O  O22  1  0.74221200  0.09666100  0.93768500  1
  O  O23  1  0.99438600  0.38940800  0.18003200  1
  O  O24  1  0.01622700  0.60592400  0.81574200  1
  O  O25  1  0.25691500  0.90466900  0.06468300  1
  O  O26  1  0.55682400  0.40925500  0.75092400  1
  O  O27  1  0.60592400  0.81574200  0.01622700  1
  O  O28  1  0.75092400  0.55682400  0.40925500  1
  O  O29  1  0.93768500  0.74221200  0.09666100  1
  O  O30  1  0.40925500  0.75092400  0.55682400  1
  O  O31  1  0.18003200  0.99438600  0.38940800  1
  O  O32  1  0.09666100  0.93768500  0.74221200  1
  O  O33  1  0.32327400  0.10558400  0.50001200  1
  O  O34  1  0.50001200  0.32327400  0.10558400  1
  O  O35  1  0.10558400  0.50001200  0.32327400  1
