# generated using pymatgen
data_Bi3P
_symmetry_space_group_name_H-M   'P 1'
_cell_length_a   6.99719867
_cell_length_b   6.99719867
_cell_length_c   5.21240400
_cell_angle_alpha   90.00000000
_cell_angle_beta   90.00000000
_cell_angle_gamma   120.00000636
_symmetry_Int_Tables_number   1
_chemical_formula_structural   Bi3P
_chemical_formula_sum   'Bi6 P2'
_cell_volume   221.01262532
_cell_formula_units_Z   2
loop_
 _symmetry_equiv_pos_site_id
 _symmetry_equiv_pos_as_xyz
  1  'x, y, z'
loop_
 _atom_site_type_symbol
 _atom_site_label
 _atom_site_symmetry_multiplicity
 _atom_site_fract_x
 _atom_site_fract_y
 _atom_site_fract_z
 _atom_site_occupancy
  Bi  Bi0  1  0.82089400  0.17910600  0.75000000  1
  Bi  Bi1  1  0.35821100  0.17910600  0.75000000  1
  Bi  Bi2  1  0.82089400  0.64178900  0.75000000  1
  Bi  Bi3  1  0.17910600  0.82089400  0.25000000  1
  Bi  Bi4  1  0.64178900  0.82089400  0.25000000  1
  Bi  Bi5  1  0.17910600  0.35821100  0.25000000  1
  P  P6  1  0.66666700  0.33333300  0.25000000  1
  P  P7  1  0.33333300  0.66666700  0.75000000  1
