# generated using pymatgen
data_Cr(PO3)2
_symmetry_space_group_name_H-M   'P 1'
_cell_length_a   7.74694853
_cell_length_b   7.74694853
_cell_length_c   10.04893299
_cell_angle_alpha   65.78837690
_cell_angle_beta   65.78837690
_cell_angle_gamma   65.43013151
_symmetry_Int_Tables_number   1
_chemical_formula_structural   Cr(PO3)2
_chemical_formula_sum   'Cr4 P8 O24'
_cell_volume   478.91386906
_cell_formula_units_Z   4
loop_
 _symmetry_equiv_pos_site_id
 _symmetry_equiv_pos_as_xyz
  1  'x, y, z'
loop_
 _atom_site_type_symbol
 _atom_site_label
 _atom_site_symmetry_multiplicity
 _atom_site_fract_x
 _atom_site_fract_y
 _atom_site_fract_z
 _atom_site_occupancy
  Cr  Cr0  1  0.05237000  0.94763000  0.25000000  1
  Cr  Cr1  1  0.00000000  0.50000000  0.50000000  1
  Cr  Cr2  1  0.50000000  0.00000000  0.00000000  1
  Cr  Cr3  1  0.94763000  0.05237000  0.75000000  1
  P  P4  1  0.68778500  0.68302500  0.80967000  1
  P  P5  1  0.25155100  0.72644100  0.97837900  1
  P  P6  1  0.68302500  0.68778500  0.30967000  1
  P  P7  1  0.27355900  0.74844900  0.52162100  1
  P  P8  1  0.72644100  0.25155100  0.47837900  1
  P  P9  1  0.31697500  0.31221500  0.69033000  1
  P  P10  1  0.74844900  0.27355900  0.02162100  1
  P  P11  1  0.31221500  0.31697500  0.19033000  1
  O  O12  1  0.79650300  0.65261400  0.65639500  1
  O  O13  1  0.26951200  0.80014300  0.08897900  1
  O  O14  1  0.46068500  0.69195100  0.84693700  1
  O  O15  1  0.86164000  0.69306900  0.33223600  1
  O  O16  1  0.08806400  0.84254100  0.90671700  1
  O  O17  1  0.80014300  0.26951200  0.58897900  1
  O  O18  1  0.23278600  0.50498100  0.05787100  1
  O  O19  1  0.15745900  0.91193600  0.59328300  1
  O  O20  1  0.49501900  0.76721400  0.44212900  1
  O  O21  1  0.65261400  0.79650300  0.15639500  1
  O  O22  1  0.30804900  0.53931500  0.65306300  1
  O  O23  1  0.30693100  0.13836000  0.16776400  1
  O  O24  1  0.69306900  0.86164000  0.83223600  1
  O  O25  1  0.69195100  0.46068500  0.34693700  1
  O  O26  1  0.34738600  0.20349700  0.84360500  1
  O  O27  1  0.50498100  0.23278600  0.55787100  1
  O  O28  1  0.84254100  0.08806400  0.40671700  1
  O  O29  1  0.76721400  0.49501900  0.94212900  1
  O  O30  1  0.19985700  0.73048800  0.41102100  1
  O  O31  1  0.91193600  0.15745900  0.09328300  1
  O  O32  1  0.13836000  0.30693100  0.66776400  1
  O  O33  1  0.53931500  0.30804900  0.15306300  1
  O  O34  1  0.73048800  0.19985700  0.91102100  1
  O  O35  1  0.20349700  0.34738600  0.34360500  1
