data_image0
_chemical_formula_structural       Ge4Y2
_chemical_formula_sum              "Ge4 Y2"
_cell_length_a       3.98564
_cell_length_b       3.98564
_cell_length_c       8.71914
_cell_angle_alpha    103.212
_cell_angle_beta     103.212
_cell_angle_gamma    90

_space_group_name_H-M_alt    "P 1"
_space_group_IT_number       1

loop_
  _space_group_symop_operation_xyz
  'x, y, z'

loop_
  _atom_site_type_symbol
  _atom_site_label
  _atom_site_symmetry_multiplicity
  _atom_site_fract_x
  _atom_site_fract_y
  _atom_site_fract_z
  _atom_site_occupancy
  Ge  Ge1       1.0  0.57800  0.57800  0.15700  1.0000
  Ge  Ge2       1.0  0.67200  0.17200  0.34300  1.0000
  Ge  Ge3       1.0  0.82800  0.32800  0.65700  1.0000
  Ge  Ge4       1.0  0.42200  0.42200  0.84300  1.0000
  Y   Y1        1.0  0.00000  0.00000  0.00000  1.0000
  Y   Y2        1.0  0.25000  0.75000  0.50000  1.0000
