# generated using pymatgen
data_Mn3(P2O7)2
_symmetry_space_group_name_H-M   'P 1'
_cell_length_a   8.91396000
_cell_length_b   10.59680300
_cell_length_c   12.46576400
_cell_angle_alpha   90.00000000
_cell_angle_beta   90.00000000
_cell_angle_gamma   90.00000000
_symmetry_Int_Tables_number   1
_chemical_formula_structural   Mn3(P2O7)2
_chemical_formula_sum   'Mn12 P16 O56'
_cell_volume   1177.50956118
_cell_formula_units_Z   4
loop_
 _symmetry_equiv_pos_site_id
 _symmetry_equiv_pos_as_xyz
  1  'x, y, z'
loop_
 _atom_site_type_symbol
 _atom_site_label
 _atom_site_symmetry_multiplicity
 _atom_site_fract_x
 _atom_site_fract_y
 _atom_site_fract_z
 _atom_site_occupancy
  Mn  Mn0  1  0.23177700  0.61862100  0.75000000  1
  Mn  Mn1  1  0.24686500  0.12216500  0.01092900  1
  Mn  Mn2  1  0.24686500  0.12216500  0.48907100  1
  Mn  Mn3  1  0.25313500  0.62216500  0.51092900  1
  Mn  Mn4  1  0.25313500  0.62216500  0.98907100  1
  Mn  Mn5  1  0.26822300  0.11862100  0.25000000  1
  Mn  Mn6  1  0.73177700  0.88137900  0.75000000  1
  Mn  Mn7  1  0.74686500  0.37783500  0.01092900  1
  Mn  Mn8  1  0.74686500  0.37783500  0.48907100  1
  Mn  Mn9  1  0.75313500  0.87783500  0.51092900  1
  Mn  Mn10  1  0.75313500  0.87783500  0.98907100  1
  Mn  Mn11  1  0.76822300  0.38137900  0.25000000  1
  P  P12  1  0.06609400  0.36543300  0.62759600  1
  P  P13  1  0.06609400  0.36543300  0.87240400  1
  P  P14  1  0.08207300  0.87934400  0.63095100  1
  P  P15  1  0.08207300  0.87934400  0.86904900  1
  P  P16  1  0.41792700  0.37934400  0.36904900  1
  P  P17  1  0.41792700  0.37934400  0.13095100  1
  P  P18  1  0.43390600  0.86543300  0.12759600  1
  P  P19  1  0.43390600  0.86543300  0.37240400  1
  P  P20  1  0.56609400  0.13456700  0.87240400  1
  P  P21  1  0.56609400  0.13456700  0.62759600  1
  P  P22  1  0.58207300  0.62065600  0.86904900  1
  P  P23  1  0.58207300  0.62065600  0.63095100  1
  P  P24  1  0.91792700  0.12065600  0.13095100  1
  P  P25  1  0.91792700  0.12065600  0.36904900  1
  P  P26  1  0.93390600  0.63456700  0.12759600  1
  P  P27  1  0.93390600  0.63456700  0.37240400  1
  O  O28  1  0.03688700  0.32114800  0.75000000  1
  O  O29  1  0.08914500  0.60178600  0.41792600  1
  O  O30  1  0.08914500  0.60178600  0.08207400  1
  O  O31  1  0.09259600  0.12788000  0.12675900  1
  O  O32  1  0.09259600  0.12788000  0.37324100  1
  O  O33  1  0.11633200  0.93324200  0.75000000  1
  O  O34  1  0.14669200  0.96821400  0.55102200  1
  O  O35  1  0.14669200  0.96821400  0.94897800  1
  O  O36  1  0.14503200  0.25787600  0.57304800  1
  O  O37  1  0.14503200  0.25787600  0.92695200  1
  O  O38  1  0.14819300  0.74576100  0.62749200  1
  O  O39  1  0.14819300  0.74576100  0.87250800  1
  O  O40  1  0.15733400  0.48837100  0.63236700  1
  O  O41  1  0.15733400  0.48837100  0.86763300  1
  O  O42  1  0.34266600  0.98837100  0.13236700  1
  O  O43  1  0.34266600  0.98837100  0.36763300  1
  O  O44  1  0.35180700  0.24576100  0.12749200  1
  O  O45  1  0.35180700  0.24576100  0.37250800  1
  O  O46  1  0.35496800  0.75787600  0.07304800  1
  O  O47  1  0.35496800  0.75787600  0.42695200  1
  O  O48  1  0.35330800  0.46821400  0.05102200  1
  O  O49  1  0.35330800  0.46821400  0.44897800  1
  O  O50  1  0.38366800  0.43324200  0.25000000  1
  O  O51  1  0.40740400  0.62788000  0.62675900  1
  O  O52  1  0.40740400  0.62788000  0.87324100  1
  O  O53  1  0.41085500  0.10178600  0.58207400  1
  O  O54  1  0.41085500  0.10178600  0.91792600  1
  O  O55  1  0.46311300  0.82114800  0.25000000  1
  O  O56  1  0.53688700  0.17885200  0.75000000  1
  O  O57  1  0.58914500  0.89821400  0.08207400  1
  O  O58  1  0.58914500  0.89821400  0.41792600  1
  O  O59  1  0.59259600  0.37212000  0.12675900  1
  O  O60  1  0.59259600  0.37212000  0.37324100  1
  O  O61  1  0.61633200  0.56675800  0.75000000  1
  O  O62  1  0.64669200  0.53178600  0.55102200  1
  O  O63  1  0.64669200  0.53178600  0.94897800  1
  O  O64  1  0.64503200  0.24212400  0.57304800  1
  O  O65  1  0.64503200  0.24212400  0.92695200  1
  O  O66  1  0.64819300  0.75423900  0.87250800  1
  O  O67  1  0.64819300  0.75423900  0.62749200  1
  O  O68  1  0.65733400  0.01162900  0.86763300  1
  O  O69  1  0.65733400  0.01162900  0.63236700  1
  O  O70  1  0.84266600  0.51162900  0.13236700  1
  O  O71  1  0.84266600  0.51162900  0.36763300  1
  O  O72  1  0.85180700  0.25423900  0.12749200  1
  O  O73  1  0.85180700  0.25423900  0.37250800  1
  O  O74  1  0.85496800  0.74212400  0.07304800  1
  O  O75  1  0.85496800  0.74212400  0.42695200  1
  O  O76  1  0.85330800  0.03178600  0.05102200  1
  O  O77  1  0.85330800  0.03178600  0.44897800  1
  O  O78  1  0.88366800  0.06675800  0.25000000  1
  O  O79  1  0.90740400  0.87212000  0.62675900  1
  O  O80  1  0.90740400  0.87212000  0.87324100  1
  O  O81  1  0.91085500  0.39821400  0.91792600  1
  O  O82  1  0.91085500  0.39821400  0.58207400  1
  O  O83  1  0.96311300  0.67885200  0.25000000  1
