# generated using pymatgen
data_BaCe3
_symmetry_space_group_name_H-M   'P 1'
_cell_length_a   7.21930703
_cell_length_b   7.21930703
_cell_length_c   5.92746600
_cell_angle_alpha   90.00000000
_cell_angle_beta   90.00000000
_cell_angle_gamma   119.99999107
_symmetry_Int_Tables_number   1
_chemical_formula_structural   BaCe3
_chemical_formula_sum   'Ba2 Ce6'
_cell_volume   267.54125896
_cell_formula_units_Z   2
loop_
 _symmetry_equiv_pos_site_id
 _symmetry_equiv_pos_as_xyz
  1  'x, y, z'
loop_
 _atom_site_type_symbol
 _atom_site_label
 _atom_site_symmetry_multiplicity
 _atom_site_fract_x
 _atom_site_fract_y
 _atom_site_fract_z
 _atom_site_occupancy
  Ba  Ba0  1  0.33333300  0.66666700  0.75000000  1
  Ba  Ba1  1  0.66666700  0.33333300  0.25000000  1
  Ce  Ce2  1  0.13351600  0.26703100  0.25000000  1
  Ce  Ce3  1  0.73296900  0.86648400  0.25000000  1
  Ce  Ce4  1  0.13351600  0.86648400  0.25000000  1
  Ce  Ce5  1  0.86648400  0.73296900  0.75000000  1
  Ce  Ce6  1  0.26703100  0.13351600  0.75000000  1
  Ce  Ce7  1  0.86648400  0.13351600  0.75000000  1
