# generated using pymatgen
data_Ti(SO4)2
_symmetry_space_group_name_H-M   'P 1'
_cell_length_a   8.88581858
_cell_length_b   8.88581858
_cell_length_c   8.88581915
_cell_angle_alpha   56.11035551
_cell_angle_beta   56.11035551
_cell_angle_gamma   56.11035720
_symmetry_Int_Tables_number   1
_chemical_formula_structural   Ti(SO4)2
_chemical_formula_sum   'Ti3 S6 O24'
_cell_volume   451.42646217
_cell_formula_units_Z   3
loop_
 _symmetry_equiv_pos_site_id
 _symmetry_equiv_pos_as_xyz
  1  'x, y, z'
loop_
 _atom_site_type_symbol
 _atom_site_label
 _atom_site_symmetry_multiplicity
 _atom_site_fract_x
 _atom_site_fract_y
 _atom_site_fract_z
 _atom_site_occupancy
  Ti  Ti0  1  0.14729000  0.14729000  0.14729000  1
  Ti  Ti1  1  0.64425800  0.64425800  0.64425800  1
  Ti  Ti2  1  0.85068800  0.85068800  0.85068800  1
  S  S3  1  0.04659500  0.45854900  0.74784900  1
  S  S4  1  0.45854900  0.74784900  0.04659500  1
  S  S5  1  0.74784900  0.04659500  0.45854900  1
  S  S6  1  0.25493100  0.96470500  0.53392600  1
  S  S7  1  0.53392600  0.25493100  0.96470500  1
  S  S8  1  0.96470500  0.53392600  0.25493100  1
  O  O9  1  0.11632400  0.51789200  0.28321000  1
  O  O10  1  0.28321000  0.11632400  0.51789200  1
  O  O11  1  0.01263200  0.32668800  0.96158400  1
  O  O12  1  0.51789200  0.28321000  0.11632400  1
  O  O13  1  0.01390300  0.65271100  0.73053400  1
  O  O14  1  0.23434500  0.37869100  0.62394200  1
  O  O15  1  0.37869100  0.62394200  0.23434500  1
  O  O16  1  0.32668800  0.96158400  0.01263200  1
  O  O17  1  0.62394200  0.23434500  0.37869100  1
  O  O18  1  0.05572200  0.95660100  0.67933200  1
  O  O19  1  0.27327400  0.98106200  0.34611900  1
  O  O20  1  0.34611900  0.27327400  0.98106200  1
  O  O21  1  0.65271100  0.73053400  0.01390300  1
  O  O22  1  0.73053400  0.01390300  0.65271100  1
  O  O23  1  0.96158400  0.01263200  0.32668800  1
  O  O24  1  0.39827800  0.76553300  0.60394400  1
  O  O25  1  0.67933200  0.05572200  0.95660100  1
  O  O26  1  0.60394400  0.39827800  0.76553300  1
  O  O27  1  0.76553300  0.60394400  0.39827800  1
  O  O28  1  0.98106200  0.34611900  0.27327400  1
  O  O29  1  0.49168200  0.71125600  0.88091300  1
  O  O30  1  0.95660100  0.67933200  0.05572200  1
  O  O31  1  0.71125600  0.88091300  0.49168200  1
  O  O32  1  0.88091300  0.49168200  0.71125600  1
