# generated using pymatgen
data_Hg2W2O7
_symmetry_space_group_name_H-M   'P 1'
_cell_length_a   7.28367197
_cell_length_b   7.40976073
_cell_length_c   8.45518268
_cell_angle_alpha   63.55477423
_cell_angle_beta   65.06191586
_cell_angle_gamma   62.70027263
_symmetry_Int_Tables_number   1
_chemical_formula_structural   Hg2W2O7
_chemical_formula_sum   'Hg4 W4 O14'
_cell_volume   349.25634260
_cell_formula_units_Z   2
loop_
 _symmetry_equiv_pos_site_id
 _symmetry_equiv_pos_as_xyz
  1  'x, y, z'
loop_
 _atom_site_type_symbol
 _atom_site_label
 _atom_site_symmetry_multiplicity
 _atom_site_fract_x
 _atom_site_fract_y
 _atom_site_fract_z
 _atom_site_occupancy
  Hg  Hg0  1  0.17495700  0.32147800  0.37370800  1
  Hg  Hg1  1  0.37258800  0.17630300  0.62116300  1
  Hg  Hg2  1  0.62741200  0.82369700  0.37883700  1
  Hg  Hg3  1  0.82504300  0.67852200  0.62629200  1
  W  W4  1  0.32591600  0.85853900  0.11778300  1
  W  W5  1  0.16471000  0.64679500  0.87466600  1
  W  W6  1  0.83529000  0.35320500  0.12533400  1
  W  W7  1  0.67408400  0.14146100  0.88221700  1
  O  O8  1  0.10260900  0.11556700  0.05127100  1
  O  O9  1  0.02585900  0.45282100  0.15442400  1
  O  O10  1  0.46521800  0.00216500  0.16177500  1
  O  O11  1  0.18000200  0.75517300  0.34501900  1
  O  O12  1  0.71082800  0.28158700  0.00767000  1
  O  O13  1  0.23802900  0.81081800  0.64598200  1
  O  O14  1  0.59715600  0.60539100  0.14311000  1
  O  O15  1  0.40284400  0.39460900  0.85689000  1
  O  O16  1  0.76197100  0.18918200  0.35401800  1
  O  O17  1  0.28917200  0.71841300  0.99233000  1
  O  O18  1  0.81999800  0.24482700  0.65498100  1
  O  O19  1  0.53478200  0.99783500  0.83822500  1
  O  O20  1  0.97414100  0.54717900  0.84557600  1
  O  O21  1  0.89739100  0.88443300  0.94872900  1
