# generated using pymatgen
data_La2Hf2O7
_symmetry_space_group_name_H-M   'P 1'
_cell_length_a   5.74534100
_cell_length_b   8.08763100
_cell_length_c   13.81552522
_cell_angle_alpha   81.53521192
_cell_angle_beta   90.00000000
_cell_angle_gamma   90.00000000
_symmetry_Int_Tables_number   1
_chemical_formula_structural   La2Hf2O7
_chemical_formula_sum   'La8 Hf8 O28'
_cell_volume   634.96180348
_cell_formula_units_Z   4
loop_
 _symmetry_equiv_pos_site_id
 _symmetry_equiv_pos_as_xyz
  1  'x, y, z'
loop_
 _atom_site_type_symbol
 _atom_site_label
 _atom_site_symmetry_multiplicity
 _atom_site_fract_x
 _atom_site_fract_y
 _atom_site_fract_z
 _atom_site_occupancy
  La  La0  1  0.76106000  0.77212300  0.90435200  1
  La  La1  1  0.33209700  0.85649600  0.56860300  1
  La  La2  1  0.25215700  0.71784500  0.12230700  1
  La  La3  1  0.77439700  0.64421800  0.40088000  1
  La  La4  1  0.27439700  0.35578200  0.59912000  1
  La  La5  1  0.75215700  0.28215500  0.87769300  1
  La  La6  1  0.83209700  0.14350400  0.43139700  1
  La  La7  1  0.26106000  0.22787700  0.09564800  1
  Hf  Hf8  1  0.27584800  0.92344100  0.31749900  1
  Hf  Hf9  1  0.76623600  0.96986500  0.11416300  1
  Hf  Hf10  1  0.78414100  0.58386800  0.67853200  1
  Hf  Hf11  1  0.26678000  0.52691500  0.88374600  1
  Hf  Hf12  1  0.76678000  0.47308500  0.11625400  1
  Hf  Hf13  1  0.28414100  0.41613200  0.32146800  1
  Hf  Hf14  1  0.26623600  0.03013500  0.88583700  1
  Hf  Hf15  1  0.77584800  0.07655900  0.68250100  1
  O  O16  1  0.44753700  0.98162600  0.17919500  1
  O  O17  1  0.55070700  0.91418400  0.41155300  1
  O  O18  1  0.69269800  0.82452800  0.69896300  1
  O  O19  1  0.33646500  0.77642700  0.89288500  1
  O  O20  1  0.05731000  0.87421400  0.43157600  1
  O  O21  1  0.05133300  0.95299900  0.01946500  1
  O  O22  1  0.97828200  0.88178000  0.22506700  1
  O  O23  1  0.08221200  0.62026200  0.60616200  1
  O  O24  1  0.94514600  0.56966100  0.82125200  1
  O  O25  1  0.36244400  0.67423000  0.30253900  1
  O  O26  1  0.67744800  0.72880300  0.08410800  1
  O  O27  1  0.57522100  0.59494300  0.55814700  1
  O  O28  1  0.55001500  0.46330000  0.98018700  1
  O  O29  1  0.47880900  0.49454600  0.77306300  1
  O  O30  1  0.97880900  0.50545400  0.22693700  1
  O  O31  1  0.05001500  0.53670000  0.01981300  1
  O  O32  1  0.07522100  0.40505700  0.44185300  1
  O  O33  1  0.17744800  0.27119700  0.91589200  1
  O  O34  1  0.86244400  0.32577000  0.69746100  1
  O  O35  1  0.44514600  0.43033900  0.17874800  1
  O  O36  1  0.58221200  0.37973800  0.39383800  1
  O  O37  1  0.47828200  0.11822000  0.77493300  1
  O  O38  1  0.55133300  0.04700100  0.98053500  1
  O  O39  1  0.55731000  0.12578600  0.56842400  1
  O  O40  1  0.83646500  0.22357300  0.10711500  1
  O  O41  1  0.19269800  0.17547200  0.30103700  1
  O  O42  1  0.05070700  0.08581600  0.58844700  1
  O  O43  1  0.94753700  0.01837400  0.82080500  1
