# generated using pymatgen
data_K2SmPCO7
_symmetry_space_group_name_H-M   'P 1'
_cell_length_a   7.27377900
_cell_length_b   5.82937300
_cell_length_c   10.03556566
_cell_angle_alpha   87.44907650
_cell_angle_beta   90.00000000
_cell_angle_gamma   90.00000000
_symmetry_Int_Tables_number   1
_chemical_formula_structural   K2SmPCO7
_chemical_formula_sum   'K4 Sm2 P2 C2 O14'
_cell_volume   425.10207975
_cell_formula_units_Z   2
loop_
 _symmetry_equiv_pos_site_id
 _symmetry_equiv_pos_as_xyz
  1  'x, y, z'
loop_
 _atom_site_type_symbol
 _atom_site_label
 _atom_site_symmetry_multiplicity
 _atom_site_fract_x
 _atom_site_fract_y
 _atom_site_fract_z
 _atom_site_occupancy
  K  K0  1  0.48944100  0.24557300  0.78352300  1
  K  K1  1  0.01055900  0.24557300  0.78352300  1
  K  K2  1  0.51055900  0.75442700  0.21647700  1
  K  K3  1  0.98944100  0.75442700  0.21647700  1
  Sm  Sm4  1  0.75000000  0.78105300  0.62739100  1
  Sm  Sm5  1  0.25000000  0.21894700  0.37260900  1
  P  P6  1  0.25000000  0.70915200  0.57178800  1
  P  P7  1  0.75000000  0.29084800  0.42821200  1
  C  C8  1  0.75000000  0.73049000  0.90850800  1
  C  C9  1  0.25000000  0.26951000  0.09149200  1
  O  O10  1  0.25000000  0.30326900  0.96633400  1
  O  O11  1  0.75000000  0.93603700  0.84892200  1
  O  O12  1  0.75000000  0.55735400  0.82642700  1
  O  O13  1  0.07316700  0.77852100  0.64643200  1
  O  O14  1  0.42683300  0.77852100  0.64643200  1
  O  O15  1  0.75000000  0.16921000  0.57132000  1
  O  O16  1  0.25000000  0.44283900  0.55652100  1
  O  O17  1  0.75000000  0.55716100  0.44347900  1
  O  O18  1  0.25000000  0.83079000  0.42868000  1
  O  O19  1  0.57316700  0.22147900  0.35356800  1
  O  O20  1  0.92683300  0.22147900  0.35356800  1
  O  O21  1  0.25000000  0.44264600  0.17357300  1
  O  O22  1  0.25000000  0.06396300  0.15107800  1
  O  O23  1  0.75000000  0.69673100  0.03366600  1
