# generated using pymatgen
data_Li4Co2(PO4)3
_symmetry_space_group_name_H-M   'P 1'
_cell_length_a   9.10950444
_cell_length_b   8.51903407
_cell_length_c   8.38508374
_cell_angle_alpha   59.11149171
_cell_angle_beta   63.44315895
_cell_angle_gamma   62.54398810
_symmetry_Int_Tables_number   1
_chemical_formula_structural   Li4Co2(PO4)3
_chemical_formula_sum   'Li8 Co4 P6 O24'
_cell_volume   476.23980525
_cell_formula_units_Z   2
loop_
 _symmetry_equiv_pos_site_id
 _symmetry_equiv_pos_as_xyz
  1  'x, y, z'
loop_
 _atom_site_type_symbol
 _atom_site_label
 _atom_site_symmetry_multiplicity
 _atom_site_fract_x
 _atom_site_fract_y
 _atom_site_fract_z
 _atom_site_occupancy
  Li  Li0  1  0.14524200  0.66431900  0.27398800  1
  Li  Li1  1  0.13859400  0.27056000  0.91922600  1
  Li  Li2  1  0.10267200  0.92887300  0.69091800  1
  Li  Li3  1  0.58353800  0.21299800  0.46579000  1
  Li  Li4  1  0.41646200  0.78700200  0.53421000  1
  Li  Li5  1  0.89732800  0.07112700  0.30908200  1
  Li  Li6  1  0.86140600  0.72944000  0.08077400  1
  Li  Li7  1  0.85475800  0.33568100  0.72601200  1
  Co  Co8  1  0.04016700  0.64789200  0.66060300  1
  Co  Co9  1  0.55935300  0.14477400  0.14174500  1
  Co  Co10  1  0.44064700  0.85522600  0.85825500  1
  Co  Co11  1  0.95983300  0.35210800  0.33939700  1
  P  P12  1  0.23923800  0.24477900  0.55313700  1
  P  P13  1  0.25325800  0.95250800  0.25576800  1
  P  P14  1  0.25196700  0.54454800  0.95394700  1
  P  P15  1  0.74803300  0.45545200  0.04605300  1
  P  P16  1  0.74674200  0.04749200  0.74423200  1
  P  P17  1  0.76076200  0.75522100  0.44686300  1
  O  O18  1  0.10645200  0.14858400  0.20258500  1
  O  O19  1  0.10377100  0.55601100  0.14243200  1
  O  O20  1  0.08988800  0.20469400  0.54754700  1
  O  O21  1  0.19261200  0.45858600  0.51204700  1
  O  O22  1  0.25768200  0.11889300  0.76186800  1
  O  O23  1  0.41072900  0.18475700  0.41065900  1
  O  O24  1  0.27184100  0.84919400  0.13845400  1
  O  O25  1  0.20013000  0.83014100  0.47828800  1
  O  O26  1  0.19930600  0.49300400  0.83857900  1
  O  O27  1  0.57777900  0.59873300  0.00049700  1
  O  O28  1  0.71687100  0.25443200  0.17482900  1
  O  O29  1  0.57630400  0.02432400  0.77993800  1
  O  O30  1  0.42369600  0.97567600  0.22006200  1
  O  O31  1  0.28312900  0.74556800  0.82517100  1
  O  O32  1  0.42222100  0.40126700  0.99950300  1
  O  O33  1  0.80069400  0.50699600  0.16142100  1
  O  O34  1  0.79987000  0.16985900  0.52171200  1
  O  O35  1  0.72815900  0.15080600  0.86154600  1
  O  O36  1  0.58927100  0.81524300  0.58934100  1
  O  O37  1  0.74231800  0.88110700  0.23813200  1
  O  O38  1  0.80738800  0.54141400  0.48795300  1
  O  O39  1  0.91011200  0.79530600  0.45245300  1
  O  O40  1  0.89622900  0.44398900  0.85756800  1
  O  O41  1  0.89354800  0.85141600  0.79741500  1
