# generated using pymatgen
data_Br2Cl3
_symmetry_space_group_name_H-M   'P 1'
_cell_length_a   6.07890914
_cell_length_b   6.07890914
_cell_length_c   6.07890937
_cell_angle_alpha   91.34338457
_cell_angle_beta   91.34338457
_cell_angle_gamma   91.34338529
_symmetry_Int_Tables_number   1
_chemical_formula_structural   Br2Cl3
_chemical_formula_sum   'Br2 Cl3'
_cell_volume   224.44659167
_cell_formula_units_Z   1
loop_
 _symmetry_equiv_pos_site_id
 _symmetry_equiv_pos_as_xyz
  1  'x, y, z'
loop_
 _atom_site_type_symbol
 _atom_site_label
 _atom_site_symmetry_multiplicity
 _atom_site_fract_x
 _atom_site_fract_y
 _atom_site_fract_z
 _atom_site_occupancy
  Br  Br0  1  0.81408200  0.81408200  0.81408200  1
  Br  Br1  1  0.18591800  0.18591800  0.18591800  1
  Cl  Cl2  1  0.00000000  0.00000000  0.50000000  1
  Cl  Cl3  1  0.50000000  0.00000000  0.00000000  1
  Cl  Cl4  1  0.00000000  0.50000000  0.00000000  1
