# generated using pymatgen
data_NaSiSbCO7
_symmetry_space_group_name_H-M   'P 1'
_cell_length_a   6.52653900
_cell_length_b   5.35166200
_cell_length_c   9.31632393
_cell_angle_alpha   87.32391279
_cell_angle_beta   90.00000000
_cell_angle_gamma   90.00000000
_symmetry_Int_Tables_number   1
_chemical_formula_structural   NaSiSbCO7
_chemical_formula_sum   'Na2 Si2 Sb2 C2 O14'
_cell_volume   325.04412120
_cell_formula_units_Z   2
loop_
 _symmetry_equiv_pos_site_id
 _symmetry_equiv_pos_as_xyz
  1  'x, y, z'
loop_
 _atom_site_type_symbol
 _atom_site_label
 _atom_site_symmetry_multiplicity
 _atom_site_fract_x
 _atom_site_fract_y
 _atom_site_fract_z
 _atom_site_occupancy
  Na  Na0  1  0.52594400  0.75988600  0.77781800  1
  Na  Na1  1  0.02594400  0.24011400  0.22218200  1
  Si  Si2  1  0.74383800  0.27498900  0.56530400  1
  Si  Si3  1  0.24383800  0.72501100  0.43469600  1
  Sb  Sb4  1  0.23789100  0.21184100  0.65765800  1
  Sb  Sb5  1  0.73789100  0.78815900  0.34234200  1
  C  C6  1  0.25561200  0.27565900  0.92353400  1
  C  C7  1  0.75561200  0.72434100  0.07646600  1
  O  O8  1  0.75154300  0.69199700  0.94768000  1
  O  O9  1  0.25286500  0.05184500  0.86288900  1
  O  O10  1  0.26043500  0.46319600  0.81935100  1
  O  O11  1  0.93894900  0.21049400  0.66998700  1
  O  O12  1  0.54463800  0.19992700  0.66413800  1
  O  O13  1  0.25622300  0.87380400  0.58444900  1
  O  O14  1  0.73421400  0.57873700  0.52193200  1
  O  O15  1  0.23421400  0.42126300  0.47806800  1
  O  O16  1  0.75622300  0.12619600  0.41555100  1
  O  O17  1  0.04463800  0.80007300  0.33586200  1
  O  O18  1  0.43894900  0.78950600  0.33001300  1
  O  O19  1  0.76043500  0.53680400  0.18064900  1
  O  O20  1  0.75286500  0.94815500  0.13711100  1
  O  O21  1  0.25154300  0.30800300  0.05232000  1
