# generated using pymatgen
data_LuBiO3
_symmetry_space_group_name_H-M   'P 1'
_cell_length_a   6.10858163
_cell_length_b   6.10858163
_cell_length_c   6.10858144
_cell_angle_alpha   57.68195007
_cell_angle_beta   57.68195007
_cell_angle_gamma   57.68194838
_symmetry_Int_Tables_number   1
_chemical_formula_structural   LuBiO3
_chemical_formula_sum   'Lu2 Bi2 O6'
_cell_volume   152.59323552
_cell_formula_units_Z   2
loop_
 _symmetry_equiv_pos_site_id
 _symmetry_equiv_pos_as_xyz
  1  'x, y, z'
loop_
 _atom_site_type_symbol
 _atom_site_label
 _atom_site_symmetry_multiplicity
 _atom_site_fract_x
 _atom_site_fract_y
 _atom_site_fract_z
 _atom_site_occupancy
  Lu  Lu0  1  0.85482900  0.85482900  0.85482900  1
  Lu  Lu1  1  0.14517100  0.14517100  0.14517100  1
  Bi  Bi2  1  0.64122400  0.64122400  0.64122400  1
  Bi  Bi3  1  0.35877600  0.35877600  0.35877600  1
  O  O4  1  0.98064600  0.21625900  0.54680400  1
  O  O5  1  0.54680400  0.98064600  0.21625900  1
  O  O6  1  0.21625900  0.54680400  0.98064600  1
  O  O7  1  0.78374100  0.45319600  0.01935400  1
  O  O8  1  0.45319600  0.01935400  0.78374100  1
  O  O9  1  0.01935400  0.78374100  0.45319600  1
