# generated using pymatgen
data_SrSc2O4
_symmetry_space_group_name_H-M   'P 1'
_cell_length_a   5.67134704
_cell_length_b   5.67134704
_cell_length_c   20.51194843
_cell_angle_alpha   89.77885683
_cell_angle_beta   89.77885683
_cell_angle_gamma   61.29689050
_symmetry_Int_Tables_number   1
_chemical_formula_structural   SrSc2O4
_chemical_formula_sum   'Sr6 Sc12 O24'
_cell_volume   578.67411374
_cell_formula_units_Z   6
loop_
 _symmetry_equiv_pos_site_id
 _symmetry_equiv_pos_as_xyz
  1  'x, y, z'
loop_
 _atom_site_type_symbol
 _atom_site_label
 _atom_site_symmetry_multiplicity
 _atom_site_fract_x
 _atom_site_fract_y
 _atom_site_fract_z
 _atom_site_occupancy
  Sr  Sr0  1  0.44516900  0.22474000  0.64604200  1
  Sr  Sr1  1  0.22474000  0.44516900  0.14604200  1
  Sr  Sr2  1  0.10953300  0.89046700  0.75000000  1
  Sr  Sr3  1  0.89046700  0.10953300  0.25000000  1
  Sr  Sr4  1  0.55483100  0.77526000  0.35395800  1
  Sr  Sr5  1  0.77526000  0.55483100  0.85395800  1
  Sc  Sc6  1  0.44314200  0.21947700  0.80570900  1
  Sc  Sc7  1  0.21947700  0.44314200  0.30570900  1
  Sc  Sc8  1  0.45698500  0.21588400  0.94777400  1
  Sc  Sc9  1  0.21588400  0.45698500  0.44777400  1
  Sc  Sc10  1  0.11516600  0.87887600  0.92888300  1
  Sc  Sc11  1  0.87887600  0.11516600  0.42888300  1
  Sc  Sc12  1  0.12112400  0.88483400  0.57111700  1
  Sc  Sc13  1  0.88483400  0.12112400  0.07111700  1
  Sc  Sc14  1  0.78411600  0.54301500  0.55222600  1
  Sc  Sc15  1  0.54301500  0.78411600  0.05222600  1
  Sc  Sc16  1  0.78052300  0.55685800  0.69429100  1
  Sc  Sc17  1  0.55685800  0.78052300  0.19429100  1
  O  O18  1  0.20464200  0.09875600  0.00313000  1
  O  O19  1  0.09875600  0.20464200  0.50313000  1
  O  O20  1  0.35509900  0.98249100  0.87441300  1
  O  O21  1  0.98249100  0.35509900  0.37441300  1
  O  O22  1  0.32934400  0.10431100  0.25190300  1
  O  O23  1  0.10431100  0.32934400  0.75190300  1
  O  O24  1  0.22054600  0.52871300  0.88057700  1
  O  O25  1  0.52871300  0.22054600  0.38057700  1
  O  O26  1  0.77536200  0.11974900  0.87526700  1
  O  O27  1  0.11974900  0.77536200  0.37526700  1
  O  O28  1  0.53679300  0.46320700  0.75000000  1
  O  O29  1  0.50000000  0.50000000  0.50000000  1
  O  O30  1  0.50000000  0.50000000  0.00000000  1
  O  O31  1  0.46320700  0.53679300  0.25000000  1
  O  O32  1  0.88025100  0.22463800  0.62473300  1
  O  O33  1  0.22463800  0.88025100  0.12473300  1
  O  O34  1  0.47128700  0.77945400  0.61942300  1
  O  O35  1  0.77945400  0.47128700  0.11942300  1
  O  O36  1  0.67065600  0.89568900  0.74809700  1
  O  O37  1  0.89568900  0.67065600  0.24809700  1
  O  O38  1  0.01750900  0.64490100  0.62558700  1
  O  O39  1  0.64490100  0.01750900  0.12558700  1
  O  O40  1  0.79535800  0.90124400  0.99687000  1
  O  O41  1  0.90124400  0.79535800  0.49687000  1
