# generated using pymatgen
data_Li2V3SnO8
_symmetry_space_group_name_H-M   'P 1'
_cell_length_a   8.48702900
_cell_length_b   8.48702900
_cell_length_c   8.48702900
_cell_angle_alpha   90.00000000
_cell_angle_beta   90.00000000
_cell_angle_gamma   90.00000000
_symmetry_Int_Tables_number   1
_chemical_formula_structural   Li2V3SnO8
_chemical_formula_sum   'Li8 V12 Sn4 O32'
_cell_volume   611.31782386
_cell_formula_units_Z   4
loop_
 _symmetry_equiv_pos_site_id
 _symmetry_equiv_pos_as_xyz
  1  'x, y, z'
loop_
 _atom_site_type_symbol
 _atom_site_label
 _atom_site_symmetry_multiplicity
 _atom_site_fract_x
 _atom_site_fract_y
 _atom_site_fract_z
 _atom_site_occupancy
  Li  Li0  1  0.12880700  0.87119300  0.37119300  1
  Li  Li1  1  0.25311400  0.75311400  0.74688600  1
  Li  Li2  1  0.24688600  0.24688600  0.24688600  1
  Li  Li3  1  0.37119300  0.12880700  0.87119300  1
  Li  Li4  1  0.62880700  0.62880700  0.62880700  1
  Li  Li5  1  0.75311400  0.74688600  0.25311400  1
  Li  Li6  1  0.74688600  0.25311400  0.75311400  1
  Li  Li7  1  0.87119300  0.37119300  0.12880700  1
  V  V8  1  0.11666000  0.61337500  0.11364500  1
  V  V9  1  0.11337500  0.38635500  0.88334000  1
  V  V10  1  0.11364500  0.11666000  0.61337500  1
  V  V11  1  0.38635500  0.88334000  0.11337500  1
  V  V12  1  0.38662500  0.61364500  0.38334000  1
  V  V13  1  0.38334000  0.38662500  0.61364500  1
  V  V14  1  0.61666000  0.88662500  0.88635500  1
  V  V15  1  0.61337500  0.11364500  0.11666000  1
  V  V16  1  0.61364500  0.38334000  0.38662500  1
  V  V17  1  0.88635500  0.61666000  0.88662500  1
  V  V18  1  0.88662500  0.88635500  0.61666000  1
  V  V19  1  0.88334000  0.11337500  0.38635500  1
  Sn  Sn20  1  0.99664500  0.50335500  0.49664500  1
  Sn  Sn21  1  0.50335500  0.49664500  0.99664500  1
  Sn  Sn22  1  0.49664500  0.99664500  0.50335500  1
  Sn  Sn23  1  0.00335500  0.00335500  0.00335500  1
  O  O24  1  0.10709000  0.12590200  0.38864200  1
  O  O25  1  0.11135800  0.89291000  0.62590200  1
  O  O26  1  0.11877600  0.61877600  0.88122400  1
  O  O27  1  0.12590200  0.38864200  0.10709000  1
  O  O28  1  0.12443700  0.15004400  0.85858600  1
  O  O29  1  0.13570600  0.36429400  0.63570600  1
  O  O30  1  0.14141400  0.62443700  0.34995600  1
  O  O31  1  0.15004400  0.85858600  0.12443700  1
  O  O32  1  0.34995600  0.14141400  0.62443700  1
  O  O33  1  0.35858600  0.37556300  0.84995600  1
  O  O34  1  0.36429400  0.63570600  0.13570600  1
  O  O35  1  0.37556300  0.84995600  0.35858600  1
  O  O36  1  0.37409800  0.61135800  0.60709000  1
  O  O37  1  0.38122400  0.38122400  0.38122400  1
  O  O38  1  0.38864200  0.10709000  0.12590200  1
  O  O39  1  0.39291000  0.87409800  0.88864200  1
  O  O40  1  0.60709000  0.37409800  0.61135800  1
  O  O41  1  0.61135800  0.60709000  0.37409800  1
  O  O42  1  0.61877600  0.88122400  0.11877600  1
  O  O43  1  0.62590200  0.11135800  0.89291000  1
  O  O44  1  0.62443700  0.34995600  0.14141400  1
  O  O45  1  0.63570600  0.13570600  0.36429400  1
  O  O46  1  0.64141400  0.87556300  0.65004400  1
  O  O47  1  0.65004400  0.64141400  0.87556300  1
  O  O48  1  0.84995600  0.35858600  0.37556300  1
  O  O49  1  0.85858600  0.12443700  0.15004400  1
  O  O50  1  0.86429400  0.86429400  0.86429400  1
  O  O51  1  0.87556300  0.65004400  0.64141400  1
  O  O52  1  0.87409800  0.88864200  0.39291000  1
  O  O53  1  0.88122400  0.11877600  0.61877600  1
  O  O54  1  0.88864200  0.39291000  0.87409800  1
  O  O55  1  0.89291000  0.62590200  0.11135800  1
