# generated using pymatgen
data_Li2Cr3SnO8
_symmetry_space_group_name_H-M   'P 1'
_cell_length_a   8.50299129
_cell_length_b   8.50382136
_cell_length_c   8.49239710
_cell_angle_alpha   90.01644348
_cell_angle_beta   90.00599194
_cell_angle_gamma   90.02925588
_symmetry_Int_Tables_number   1
_chemical_formula_structural   Li2Cr3SnO8
_chemical_formula_sum   'Li8 Cr12 Sn4 O32'
_cell_volume   614.06745272
_cell_formula_units_Z   4
loop_
 _symmetry_equiv_pos_site_id
 _symmetry_equiv_pos_as_xyz
  1  'x, y, z'
loop_
 _atom_site_type_symbol
 _atom_site_label
 _atom_site_symmetry_multiplicity
 _atom_site_fract_x
 _atom_site_fract_y
 _atom_site_fract_z
 _atom_site_occupancy
  Li  Li0  1  0.00112900  0.00115200  0.00086400  1
  Li  Li1  1  0.24748200  0.24710300  0.24730800  1
  Li  Li2  1  0.25247700  0.75290900  0.74728000  1
  Li  Li3  1  0.49882700  0.99891800  0.50086600  1
  Li  Li4  1  0.50137100  0.49876200  0.99901600  1
  Li  Li5  1  0.74752200  0.25285200  0.75279700  1
  Li  Li6  1  0.75254500  0.74714400  0.25277400  1
  Li  Li7  1  0.99877000  0.50116900  0.49907000  1
  Cr  Cr8  1  0.11631200  0.13550600  0.62582700  1
  Cr  Cr9  1  0.12640600  0.38357100  0.86482500  1
  Cr  Cr10  1  0.13537000  0.62609100  0.11672000  1
  Cr  Cr11  1  0.36493400  0.37390900  0.61698900  1
  Cr  Cr12  1  0.37354200  0.61634200  0.36463600  1
  Cr  Cr13  1  0.38358500  0.86450100  0.12592500  1
  Cr  Cr14  1  0.61633400  0.36467100  0.37414100  1
  Cr  Cr15  1  0.62625100  0.11654600  0.13525100  1
  Cr  Cr16  1  0.63487000  0.87407600  0.88298400  1
  Cr  Cr17  1  0.86509200  0.12602400  0.38311500  1
  Cr  Cr18  1  0.87364300  0.88340400  0.63526500  1
  Cr  Cr19  1  0.88359900  0.63532000  0.87416200  1
  Sn  Sn20  1  0.12360000  0.87597300  0.37566900  1
  Sn  Sn21  1  0.37625300  0.12405400  0.87567300  1
  Sn  Sn22  1  0.62366600  0.62400600  0.62441900  1
  Sn  Sn23  1  0.87641900  0.37591800  0.12443400  1
  O  O24  1  0.10231600  0.12291600  0.39024700  1
  O  O25  1  0.10929500  0.89802700  0.62265700  1
  O  O26  1  0.11115100  0.61097500  0.88895400  1
  O  O27  1  0.12846800  0.14821000  0.86060300  1
  O  O28  1  0.12313400  0.39045600  0.10234000  1
  O  O29  1  0.13379400  0.36582500  0.63427500  1
  O  O30  1  0.13900100  0.62821000  0.35213100  1
  O  O31  1  0.14807600  0.86070600  0.12810500  1
  O  O32  1  0.35183700  0.13928900  0.62814100  1
  O  O33  1  0.36096400  0.37176000  0.85236700  1
  O  O34  1  0.36621900  0.63415400  0.13416100  1
  O  O35  1  0.37694100  0.60952900  0.60238200  1
  O  O36  1  0.37142900  0.85176200  0.36069500  1
  O  O37  1  0.38903900  0.38905000  0.38909400  1
  O  O38  1  0.39061600  0.10211600  0.12264800  1
  O  O39  1  0.39769600  0.87715400  0.89028700  1
  O  O40  1  0.60227600  0.37709100  0.60975700  1
  O  O41  1  0.60934000  0.60204700  0.37744000  1
  O  O42  1  0.61096700  0.88909200  0.11084600  1
  O  O43  1  0.62857100  0.35188300  0.13944200  1
  O  O44  1  0.62299100  0.10957600  0.89752600  1
  O  O45  1  0.63399100  0.13427400  0.36567000  1
  O  O46  1  0.63902400  0.87173500  0.64775300  1
  O  O47  1  0.64804300  0.63937500  0.87189100  1
  O  O48  1  0.85198300  0.36067300  0.37196300  1
  O  O49  1  0.86090100  0.12824400  0.14773400  1
  O  O50  1  0.86594400  0.86572000  0.86584700  1
  O  O51  1  0.87691400  0.89046000  0.39763700  1
  O  O52  1  0.87147300  0.64811000  0.63942500  1
  O  O53  1  0.88895300  0.11105000  0.61100300  1
  O  O54  1  0.89073400  0.39790500  0.87741500  1
  O  O55  1  0.89792300  0.62284800  0.10969600  1
