# generated using pymatgen
data_As5Pb3S10
_symmetry_space_group_name_H-M   'P 1'
_cell_length_a   8.75036900
_cell_length_b   8.60776200
_cell_length_c   25.59073760
_cell_angle_alpha   88.85614381
_cell_angle_beta   90.00000000
_cell_angle_gamma   90.00000000
_symmetry_Int_Tables_number   1
_chemical_formula_structural   As5Pb3S10
_chemical_formula_sum   'As20 Pb12 S40'
_cell_volume   1927.13823881
_cell_formula_units_Z   4
loop_
 _symmetry_equiv_pos_site_id
 _symmetry_equiv_pos_as_xyz
  1  'x, y, z'
loop_
 _atom_site_type_symbol
 _atom_site_label
 _atom_site_symmetry_multiplicity
 _atom_site_fract_x
 _atom_site_fract_y
 _atom_site_fract_z
 _atom_site_occupancy
  As  As0  1  0.15309100  0.50788100  0.90226100  1
  As  As1  1  0.14376900  0.06419300  0.90316600  1
  As  As2  1  0.44248400  0.28487000  0.81669800  1
  As  As3  1  0.83126300  0.61622000  0.81050400  1
  As  As4  1  0.81857700  0.99686800  0.82608800  1
  As  As5  1  0.67290600  0.63350800  0.68963600  1
  As  As6  1  0.68095100  0.26000700  0.67410900  1
  As  As7  1  0.05503000  0.96178400  0.68497400  1
  As  As8  1  0.35246400  0.74673700  0.59486600  1
  As  As9  1  0.35232900  0.18542200  0.59806800  1
  As  As10  1  0.85232900  0.81457800  0.40193200  1
  As  As11  1  0.85246400  0.25326300  0.40513400  1
  As  As12  1  0.55503000  0.03821600  0.31502600  1
  As  As13  1  0.18095100  0.73999300  0.32589100  1
  As  As14  1  0.17290600  0.36649200  0.31036400  1
  As  As15  1  0.31857700  0.00313200  0.17391200  1
  As  As16  1  0.33126300  0.38378000  0.18949600  1
  As  As17  1  0.94248400  0.71513000  0.18330200  1
  As  As18  1  0.64376900  0.93580700  0.09683400  1
  As  As19  1  0.65309100  0.49211900  0.09773900  1
  Pb  Pb20  1  0.79201500  0.76047300  0.95486100  1
  Pb  Pb21  1  0.78769800  0.26362600  0.96017000  1
  Pb  Pb22  1  0.48659100  0.73564300  0.82856200  1
  Pb  Pb23  1  0.01944300  0.51450500  0.66882800  1
  Pb  Pb24  1  0.70016100  0.48528700  0.54173100  1
  Pb  Pb25  1  0.71725300  0.99197800  0.54538400  1
  Pb  Pb26  1  0.20016100  0.51471300  0.45826900  1
  Pb  Pb27  1  0.21725300  0.00802200  0.45461600  1
  Pb  Pb28  1  0.51944300  0.48549500  0.33117200  1
  Pb  Pb29  1  0.98659100  0.26435700  0.17143800  1
  Pb  Pb30  1  0.28769800  0.73637400  0.03983000  1
  Pb  Pb31  1  0.29201500  0.23952700  0.04513900  1
  S  S32  1  0.01391600  0.49707500  0.97707100  1
  S  S33  1  0.02055900  0.02604000  0.98071600  1
  S  S34  1  0.31045900  0.27763500  0.91914000  1
  S  S35  1  0.31199400  0.69722300  0.92489000  1
  S  S36  1  0.63313300  0.99163100  0.88621900  1
  S  S37  1  0.67692400  0.52543400  0.87717800  1
  S  S38  1  0.96717500  0.21249900  0.85831800  1
  S  S39  1  0.97412700  0.79996400  0.85518000  1
  S  S40  1  0.33201800  0.07719200  0.77457600  1
  S  S41  1  0.32769500  0.47352800  0.77969900  1
  S  S42  1  0.17517700  0.77331600  0.71998400  1
  S  S43  1  0.15980200  0.16722900  0.72899700  1
  S  S44  1  0.52425500  0.45485000  0.64498300  1
  S  S45  1  0.53188700  0.03841900  0.64266100  1
  S  S46  1  0.82635400  0.72749800  0.62364800  1
  S  S47  1  0.86561300  0.25646200  0.61358000  1
  S  S48  1  0.19063600  0.55913300  0.57316700  1
  S  S49  1  0.19238200  0.97150300  0.57814800  1
  S  S50  1  0.49518600  0.75531400  0.52030500  1
  S  S51  1  0.47578400  0.22750100  0.52136700  1
  S  S52  1  0.97578400  0.77249900  0.47863300  1
  S  S53  1  0.99518600  0.24468600  0.47969500  1
  S  S54  1  0.69238200  0.02849700  0.42185200  1
  S  S55  1  0.69063600  0.44086700  0.42683300  1
  S  S56  1  0.36561300  0.74353800  0.38642000  1
  S  S57  1  0.32635400  0.27250200  0.37635200  1
  S  S58  1  0.03188700  0.96158100  0.35733900  1
  S  S59  1  0.02425500  0.54515000  0.35501700  1
  S  S60  1  0.65980200  0.83277100  0.27100300  1
  S  S61  1  0.67517700  0.22668400  0.28001600  1
  S  S62  1  0.82769500  0.52647200  0.22030100  1
  S  S63  1  0.83201800  0.92280800  0.22542400  1
  S  S64  1  0.47412700  0.20003600  0.14482000  1
  S  S65  1  0.46717500  0.78750100  0.14168200  1
  S  S66  1  0.17692400  0.47456600  0.12282200  1
  S  S67  1  0.13313300  0.00836900  0.11378100  1
  S  S68  1  0.81199400  0.30277700  0.07511000  1
  S  S69  1  0.81045900  0.72236500  0.08086000  1
  S  S70  1  0.51391600  0.50292500  0.02292900  1
  S  S71  1  0.52055900  0.97396000  0.01928400  1
