# generated using pymatgen
data_KNb2PO8
_symmetry_space_group_name_H-M   'P 1'
_cell_length_a   8.52236369
_cell_length_b   8.52236369
_cell_length_c   8.52236338
_cell_angle_alpha   104.13103007
_cell_angle_beta   104.13103007
_cell_angle_gamma   104.13102101
_symmetry_Int_Tables_number   1
_chemical_formula_structural   KNb2PO8
_chemical_formula_sum   'K3 Nb6 P3 O24'
_cell_volume   550.89081457
_cell_formula_units_Z   3
loop_
 _symmetry_equiv_pos_site_id
 _symmetry_equiv_pos_as_xyz
  1  'x, y, z'
loop_
 _atom_site_type_symbol
 _atom_site_label
 _atom_site_symmetry_multiplicity
 _atom_site_fract_x
 _atom_site_fract_y
 _atom_site_fract_z
 _atom_site_occupancy
  K  K0  1  0.40447900  0.09134800  0.68903900  1
  K  K1  1  0.09134800  0.68903900  0.40447900  1
  K  K2  1  0.68903900  0.40447900  0.09134800  1
  Nb  Nb3  1  0.64679400  0.84050100  0.96381300  1
  Nb  Nb4  1  0.96381300  0.64679400  0.84050100  1
  Nb  Nb5  1  0.03343900  0.15815100  0.35023800  1
  Nb  Nb6  1  0.84050100  0.96381300  0.64679400  1
  Nb  Nb7  1  0.35023800  0.03343900  0.15815100  1
  Nb  Nb8  1  0.15815100  0.35023800  0.03343900  1
  P  P9  1  0.27648300  0.49970600  0.72447300  1
  P  P10  1  0.72447300  0.27648300  0.49970600  1
  P  P11  1  0.49970600  0.72447300  0.27648300  1
  O  O12  1  0.02559500  0.50081900  0.97582700  1
  O  O13  1  0.15345000  0.84678300  0.00011700  1
  O  O14  1  0.29230800  0.41587900  0.86765500  1
  O  O15  1  0.79376800  0.68467800  0.93699700  1
  O  O16  1  0.00011700  0.15345000  0.84678300  1
  O  O17  1  0.13283300  0.58294600  0.70820000  1
  O  O18  1  0.44709100  0.64208700  0.76616700  1
  O  O19  1  0.23565300  0.35783400  0.55385000  1
  O  O20  1  0.68467800  0.93699700  0.79376800  1
  O  O21  1  0.70820000  0.13283300  0.58294600  1
  O  O22  1  0.76616700  0.44709100  0.64208700  1
  O  O23  1  0.93699700  0.79376800  0.68467800  1
  O  O24  1  0.97582700  0.02559500  0.50081900  1
  O  O25  1  0.20705200  0.06341800  0.31714600  1
  O  O26  1  0.55385000  0.23565300  0.35783400  1
  O  O27  1  0.86765500  0.29230800  0.41587900  1
  O  O28  1  0.06341800  0.31714600  0.20705200  1
  O  O29  1  0.64208700  0.76616700  0.44709100  1
  O  O30  1  0.35783400  0.55385000  0.23565300  1
  O  O31  1  0.41587900  0.86765500  0.29230800  1
  O  O32  1  0.31714600  0.20705200  0.06341800  1
  O  O33  1  0.58294600  0.70820000  0.13283300  1
  O  O34  1  0.84678300  0.00011700  0.15345000  1
  O  O35  1  0.50081900  0.97582700  0.02559500  1
