# generated using pymatgen
data_Mn3(SeO3)4
_symmetry_space_group_name_H-M   'P 1'
_cell_length_a   7.66699800
_cell_length_b   8.49961360
_cell_length_c   10.47724070
_cell_angle_alpha   106.47172723
_cell_angle_beta   88.23129052
_cell_angle_gamma   113.94131914
_symmetry_Int_Tables_number   1
_chemical_formula_structural   Mn3(SeO3)4
_chemical_formula_sum   'Mn6 Se8 O24'
_cell_volume   595.64363383
_cell_formula_units_Z   2
loop_
 _symmetry_equiv_pos_site_id
 _symmetry_equiv_pos_as_xyz
  1  'x, y, z'
loop_
 _atom_site_type_symbol
 _atom_site_label
 _atom_site_symmetry_multiplicity
 _atom_site_fract_x
 _atom_site_fract_y
 _atom_site_fract_z
 _atom_site_occupancy
  Mn  Mn0  1  0.00000000  0.00000000  0.00000000  1
  Mn  Mn1  1  0.00000000  0.00000000  0.50000000  1
  Mn  Mn2  1  0.94742900  0.27484000  0.78031000  1
  Mn  Mn3  1  0.94398200  0.62507900  0.68021300  1
  Mn  Mn4  1  0.05601800  0.37492100  0.31978700  1
  Mn  Mn5  1  0.05257100  0.72516000  0.21969000  1
  Se  Se6  1  0.71917100  0.20556400  0.48486500  1
  Se  Se7  1  0.72979100  0.24180100  0.05780900  1
  Se  Se8  1  0.68572200  0.73022700  0.20533500  1
  Se  Se9  1  0.68064300  0.80917700  0.72174600  1
  Se  Se10  1  0.31935700  0.19082300  0.27825400  1
  Se  Se11  1  0.31427800  0.26977300  0.79466500  1
  Se  Se12  1  0.27020900  0.75819900  0.94219100  1
  Se  Se13  1  0.28082900  0.79443600  0.51513500  1
  O  O14  1  0.89376700  0.12556100  0.42113900  1
  O  O15  1  0.93559200  0.41099400  0.15005500  1
  O  O16  1  0.76796400  0.04634900  0.03760000  1
  O  O17  1  0.81163600  0.33566100  0.64995400  1
  O  O18  1  0.74554900  0.26476300  0.89852000  1
  O  O19  1  0.79070400  0.36641500  0.40679700  1
  O  O20  1  0.88120200  0.83675500  0.82271600  1
  O  O21  1  0.88535500  0.76158800  0.10269600  1
  O  O22  1  0.85290200  0.75219000  0.34047200  1
  O  O23  1  0.68568600  0.62831300  0.60701500  1
  O  O24  1  0.78393100  0.98163700  0.64424300  1
  O  O25  1  0.45156800  0.48595100  0.84473000  1
  O  O26  1  0.54843200  0.51404900  0.15527000  1
  O  O27  1  0.21606900  0.01836300  0.35575700  1
  O  O28  1  0.31431400  0.37168700  0.39298500  1
  O  O29  1  0.14709800  0.24781000  0.65952800  1
  O  O30  1  0.11464500  0.23841200  0.89730400  1
  O  O31  1  0.11879800  0.16324500  0.17728400  1
  O  O32  1  0.20929600  0.63358500  0.59320300  1
  O  O33  1  0.25445100  0.73523700  0.10148000  1
  O  O34  1  0.18836400  0.66433900  0.35004600  1
  O  O35  1  0.23203600  0.95365100  0.96240000  1
  O  O36  1  0.06440800  0.58900600  0.84994500  1
  O  O37  1  0.10623300  0.87443900  0.57886100  1
