data_image0
_chemical_formula_structural       Cd4KP3
_chemical_formula_sum              "Cd4 K1 P3"
_cell_length_a       4.37393
_cell_length_b       4.37393
_cell_length_c       12.1117
_cell_angle_alpha    90
_cell_angle_beta     100.403
_cell_angle_gamma    60

_space_group_name_H-M_alt    "P 1"
_space_group_IT_number       1

loop_
  _space_group_symop_operation_xyz
  'x, y, z'

loop_
  _atom_site_type_symbol
  _atom_site_label
  _atom_site_symmetry_multiplicity
  _atom_site_fract_x
  _atom_site_fract_y
  _atom_site_fract_z
  _atom_site_occupancy
  Cd  Cd1       1.0  0.39600  0.30200  0.09460  1.0000
  Cd  Cd2       1.0  0.18100  0.91000  0.27100  1.0000
  Cd  Cd3       1.0  0.81900  0.09030  0.72900  1.0000
  Cd  Cd4       1.0  0.60400  0.69800  0.90500  1.0000
  K   K1        1.0  0.00000  0.50000  0.50000  1.0000
  P   P1        1.0  0.00000  0.00000  0.00000  1.0000
  P   P2        1.0  0.54200  0.22900  0.31300  1.0000
  P   P3        1.0  0.45800  0.77100  0.68700  1.0000
