# generated using pymatgen
data_V(SO4)2
_symmetry_space_group_name_H-M   'P 1'
_cell_length_a   8.87202793
_cell_length_b   8.87202793
_cell_length_c   8.87202778
_cell_angle_alpha   56.02783365
_cell_angle_beta   56.02783365
_cell_angle_gamma   56.02782755
_symmetry_Int_Tables_number   1
_chemical_formula_structural   V(SO4)2
_chemical_formula_sum   'V3 S6 O24'
_cell_volume   448.36721917
_cell_formula_units_Z   3
loop_
 _symmetry_equiv_pos_site_id
 _symmetry_equiv_pos_as_xyz
  1  'x, y, z'
loop_
 _atom_site_type_symbol
 _atom_site_label
 _atom_site_symmetry_multiplicity
 _atom_site_fract_x
 _atom_site_fract_y
 _atom_site_fract_z
 _atom_site_occupancy
  V  V0  1  0.14848100  0.14848100  0.14848100  1
  V  V1  1  0.64758100  0.64758100  0.64758100  1
  V  V2  1  0.84999600  0.84999600  0.84999600  1
  S  S3  1  0.75202400  0.04249700  0.45775800  1
  S  S4  1  0.04249700  0.45775800  0.75202400  1
  S  S5  1  0.45775800  0.75202400  0.04249700  1
  S  S6  1  0.53786000  0.25661100  0.95977800  1
  S  S7  1  0.95977800  0.53786000  0.25661100  1
  S  S8  1  0.25661100  0.95977800  0.53786000  1
  O  O9  1  0.27220800  0.11480200  0.53096600  1
  O  O10  1  0.53096600  0.27220800  0.11480200  1
  O  O11  1  0.96304900  0.99721300  0.33332800  1
  O  O12  1  0.11480200  0.53096600  0.27220800  1
  O  O13  1  0.73138200  0.00824400  0.65755800  1
  O  O14  1  0.62491900  0.23224500  0.38501600  1
  O  O15  1  0.23224500  0.38501600  0.62491900  1
  O  O16  1  0.99721300  0.33332800  0.96304900  1
  O  O17  1  0.38501600  0.62491900  0.23224500  1
  O  O18  1  0.68466200  0.05138200  0.95084200  1
  O  O19  1  0.35077100  0.27946600  0.97509200  1
  O  O20  1  0.97509200  0.35077100  0.27946600  1
  O  O21  1  0.00824400  0.65755800  0.73138200  1
  O  O22  1  0.65755800  0.73138200  0.00824400  1
  O  O23  1  0.33332800  0.96304900  0.99721300  1
  O  O24  1  0.61173700  0.39759600  0.76194100  1
  O  O25  1  0.95084200  0.68466200  0.05138200  1
  O  O26  1  0.76194100  0.61173700  0.39759600  1
  O  O27  1  0.39759600  0.76194100  0.61173700  1
  O  O28  1  0.27946600  0.97509200  0.35077100  1
  O  O29  1  0.88390300  0.49034000  0.70371200  1
  O  O30  1  0.05138200  0.95084200  0.68466200  1
  O  O31  1  0.49034000  0.70371200  0.88390300  1
  O  O32  1  0.70371200  0.88390300  0.49034000  1
