# generated using pymatgen
data_Ti12Fe5O32
_symmetry_space_group_name_H-M   'P 1'
_cell_length_a   8.44229258
_cell_length_b   8.44229258
_cell_length_c   8.44229272
_cell_angle_alpha   90.08969432
_cell_angle_beta   90.08969432
_cell_angle_gamma   90.08969259
_symmetry_Int_Tables_number   1
_chemical_formula_structural   Ti12Fe5O32
_chemical_formula_sum   'Ti12 Fe5 O32'
_cell_volume   601.69943854
_cell_formula_units_Z   1
loop_
 _symmetry_equiv_pos_site_id
 _symmetry_equiv_pos_as_xyz
  1  'x, y, z'
loop_
 _atom_site_type_symbol
 _atom_site_label
 _atom_site_symmetry_multiplicity
 _atom_site_fract_x
 _atom_site_fract_y
 _atom_site_fract_z
 _atom_site_occupancy
  Ti  Ti0  1  0.85021700  0.88437600  0.38101200  1
  Ti  Ti1  1  0.12205300  0.86344800  0.63452700  1
  Ti  Ti2  1  0.38101200  0.85021700  0.88437600  1
  Ti  Ti3  1  0.86344800  0.63452700  0.12205300  1
  Ti  Ti4  1  0.61530400  0.63174700  0.35548600  1
  Ti  Ti5  1  0.35548600  0.61530400  0.63174700  1
  Ti  Ti6  1  0.14534200  0.39025200  0.12983200  1
  Ti  Ti7  1  0.88437600  0.38101200  0.85021700  1
  Ti  Ti8  1  0.63174700  0.35548600  0.61530400  1
  Ti  Ti9  1  0.12983200  0.14534200  0.39025200  1
  Ti  Ti10  1  0.39025200  0.12983200  0.14534200  1
  Ti  Ti11  1  0.63452700  0.12205300  0.86344800  1
  Fe  Fe12  1  0.24470900  0.75642700  0.26015700  1
  Fe  Fe13  1  0.74094300  0.74094300  0.74094300  1
  Fe  Fe14  1  0.75642700  0.26015700  0.24470900  1
  Fe  Fe15  1  0.26015700  0.24470900  0.75642700  1
  Fe  Fe16  1  0.00500900  0.00500900  0.00500900  1
  O  O17  1  0.61235800  0.88626400  0.85907600  1
  O  O18  1  0.11233600  0.88835100  0.39372700  1
  O  O19  1  0.35176700  0.88778200  0.10964000  1
  O  O20  1  0.88626400  0.85907600  0.61235800  1
  O  O21  1  0.13460300  0.89285400  0.86023100  1
  O  O22  1  0.64143100  0.85800200  0.38114500  1
  O  O23  1  0.35171500  0.85499100  0.65046500  1
  O  O24  1  0.89285400  0.86023100  0.13460300  1
  O  O25  1  0.38114500  0.64143100  0.85800200  1
  O  O26  1  0.85499100  0.65046500  0.35171500  1
  O  O27  1  0.14195900  0.64365600  0.61932100  1
  O  O28  1  0.64365600  0.61932100  0.14195900  1
  O  O29  1  0.38827900  0.64343800  0.39119700  1
  O  O30  1  0.85907600  0.61235800  0.88626400  1
  O  O31  1  0.61062100  0.61062100  0.61062100  1
  O  O32  1  0.11460300  0.61319800  0.14168000  1
  O  O33  1  0.39119700  0.38827900  0.64343800  1
  O  O34  1  0.88835100  0.39372700  0.11233600  1
  O  O35  1  0.64343800  0.39119700  0.38827900  1
  O  O36  1  0.10964000  0.35176700  0.88778200  1
  O  O37  1  0.85800200  0.38114500  0.64143100  1
  O  O38  1  0.35377600  0.34977500  0.11908300  1
  O  O39  1  0.65046500  0.35171500  0.85499100  1
  O  O40  1  0.11908300  0.35377600  0.34977500  1
  O  O41  1  0.61932100  0.14195900  0.64365600  1
  O  O42  1  0.13440800  0.13440800  0.13440800  1
  O  O43  1  0.86023100  0.13460300  0.89285400  1
  O  O44  1  0.34977500  0.11908300  0.35377600  1
  O  O45  1  0.61319800  0.14168000  0.11460300  1
  O  O46  1  0.14168000  0.11460300  0.61319800  1
  O  O47  1  0.39372700  0.11233600  0.88835100  1
  O  O48  1  0.88778200  0.10964000  0.35176700  1
