# generated using pymatgen
data_Lu2P4O13
_symmetry_space_group_name_H-M   'P 1'
_cell_length_a   6.83676595
_cell_length_b   6.83676595
_cell_length_c   12.85326256
_cell_angle_alpha   75.81959415
_cell_angle_beta   75.81959415
_cell_angle_gamma   58.75983215
_symmetry_Int_Tables_number   1
_chemical_formula_structural   Lu2P4O13
_chemical_formula_sum   'Lu4 P8 O26'
_cell_volume   492.94977133
_cell_formula_units_Z   2
loop_
 _symmetry_equiv_pos_site_id
 _symmetry_equiv_pos_as_xyz
  1  'x, y, z'
loop_
 _atom_site_type_symbol
 _atom_site_label
 _atom_site_symmetry_multiplicity
 _atom_site_fract_x
 _atom_site_fract_y
 _atom_site_fract_z
 _atom_site_occupancy
  Lu  Lu0  1  0.69466700  0.69970400  0.44783700  1
  Lu  Lu1  1  0.69970400  0.69466700  0.94783700  1
  Lu  Lu2  1  0.30029600  0.30533300  0.05216300  1
  Lu  Lu3  1  0.30533300  0.30029600  0.55216300  1
  P  P4  1  0.83699700  0.13835400  0.36736100  1
  P  P5  1  0.76011100  0.77341900  0.15987600  1
  P  P6  1  0.86164600  0.16300300  0.13263900  1
  P  P7  1  0.22658100  0.23988900  0.34012400  1
  P  P8  1  0.77341900  0.76011100  0.65987600  1
  P  P9  1  0.13835400  0.83699700  0.86736100  1
  P  P10  1  0.23988900  0.22658100  0.84012400  1
  P  P11  1  0.16300300  0.86164600  0.63263900  1
  O  O12  1  0.67046700  0.31670500  0.44267300  1
  O  O13  1  0.87724600  0.89545800  0.39715600  1
  O  O14  1  0.89989300  0.90730500  0.15285400  1
  O  O15  1  0.89545800  0.87724600  0.89715600  1
  O  O16  1  0.92510900  0.57296400  0.09429900  1
  O  O17  1  0.90730500  0.89989300  0.65285400  1
  O  O18  1  0.69349800  0.70489600  0.27814000  1
  O  O19  1  0.42703600  0.07489100  0.40570100  1
  O  O20  1  0.31670500  0.67046700  0.94267300  1
  O  O21  1  0.56047400  0.92747600  0.09303700  1
  O  O22  1  0.29510400  0.30650200  0.22186000  1
  O  O23  1  0.92747600  0.56047400  0.59303700  1
  O  O24  1  0.75177400  0.24822600  0.25000000  1
  O  O25  1  0.07252400  0.43952600  0.40696300  1
  O  O26  1  0.70489600  0.69349800  0.77814000  1
  O  O27  1  0.43952600  0.07252400  0.90696300  1
  O  O28  1  0.68329500  0.32953300  0.05732700  1
  O  O29  1  0.57296400  0.92510900  0.59429900  1
  O  O30  1  0.30650200  0.29510400  0.72186000  1
  O  O31  1  0.09269500  0.10010700  0.34714600  1
  O  O32  1  0.07489100  0.42703600  0.90570100  1
  O  O33  1  0.10454200  0.12275400  0.10284400  1
  O  O34  1  0.10010700  0.09269500  0.84714600  1
  O  O35  1  0.24822600  0.75177400  0.75000000  1
  O  O36  1  0.12275400  0.10454200  0.60284400  1
  O  O37  1  0.32953300  0.68329500  0.55732700  1
