# generated using pymatgen
data_Mn3CrO8
_symmetry_space_group_name_H-M   'P 1'
_cell_length_a   8.25126700
_cell_length_b   8.25126700
_cell_length_c   8.25126700
_cell_angle_alpha   90.00000000
_cell_angle_beta   90.00000000
_cell_angle_gamma   90.00000000
_symmetry_Int_Tables_number   1
_chemical_formula_structural   Mn3CrO8
_chemical_formula_sum   'Mn12 Cr4 O32'
_cell_volume   561.77437030
_cell_formula_units_Z   4
loop_
 _symmetry_equiv_pos_site_id
 _symmetry_equiv_pos_as_xyz
  1  'x, y, z'
loop_
 _atom_site_type_symbol
 _atom_site_label
 _atom_site_symmetry_multiplicity
 _atom_site_fract_x
 _atom_site_fract_y
 _atom_site_fract_z
 _atom_site_occupancy
  Mn  Mn0  1  0.62402600  0.62597400  0.12500000  1
  Mn  Mn1  1  0.62500000  0.87597400  0.37402600  1
  Mn  Mn2  1  0.62597400  0.12500000  0.62402600  1
  Mn  Mn3  1  0.87402600  0.87500000  0.12402600  1
  Mn  Mn4  1  0.87500000  0.12402600  0.87402600  1
  Mn  Mn5  1  0.87597400  0.37402600  0.62500000  1
  Mn  Mn6  1  0.12402600  0.87402600  0.87500000  1
  Mn  Mn7  1  0.12500000  0.62402600  0.62597400  1
  Mn  Mn8  1  0.12597400  0.37500000  0.37597400  1
  Mn  Mn9  1  0.37402600  0.62500000  0.87597400  1
  Mn  Mn10  1  0.37500000  0.37597400  0.12597400  1
  Mn  Mn11  1  0.37597400  0.12597400  0.37500000  1
  Cr  Cr12  1  0.62500000  0.37500000  0.87500000  1
  Cr  Cr13  1  0.87500000  0.62500000  0.37500000  1
  Cr  Cr14  1  0.12500000  0.12500000  0.12500000  1
  Cr  Cr15  1  0.37500000  0.87500000  0.62500000  1
  O  O16  1  0.60800000  0.61050200  0.89121900  1
  O  O17  1  0.60878100  0.39200000  0.11050200  1
  O  O18  1  0.61090100  0.11090100  0.38909900  1
  O  O19  1  0.63949800  0.64200000  0.35878100  1
  O  O20  1  0.61050200  0.89121900  0.60800000  1
  O  O21  1  0.63909900  0.86090100  0.13909900  1
  O  O22  1  0.64121900  0.13949800  0.85800000  1
  O  O23  1  0.64200000  0.35878100  0.63949800  1
  O  O24  1  0.85800000  0.64121900  0.13949800  1
  O  O25  1  0.85878100  0.86050200  0.35800000  1
  O  O26  1  0.86090100  0.13909900  0.63909900  1
  O  O27  1  0.88949800  0.10878100  0.10800000  1
  O  O28  1  0.86050200  0.35800000  0.85878100  1
  O  O29  1  0.88909900  0.88909900  0.88909900  1
  O  O30  1  0.89121900  0.60800000  0.61050200  1
  O  O31  1  0.89200000  0.38949800  0.39121900  1
  O  O32  1  0.10800000  0.88949800  0.10878100  1
  O  O33  1  0.10878100  0.10800000  0.88949800  1
  O  O34  1  0.11090100  0.38909900  0.61090100  1
  O  O35  1  0.13949800  0.85800000  0.64121900  1
  O  O36  1  0.11050200  0.60878100  0.39200000  1
  O  O37  1  0.13909900  0.63909900  0.86090100  1
  O  O38  1  0.14121900  0.36050200  0.14200000  1
  O  O39  1  0.14200000  0.14121900  0.36050200  1
  O  O40  1  0.35800000  0.85878100  0.86050200  1
  O  O41  1  0.35878100  0.63949800  0.64200000  1
  O  O42  1  0.36090100  0.36090100  0.36090100  1
  O  O43  1  0.38949800  0.39121900  0.89200000  1
  O  O44  1  0.36050200  0.14200000  0.14121900  1
  O  O45  1  0.38909900  0.61090100  0.11090100  1
  O  O46  1  0.39121900  0.89200000  0.38949800  1
  O  O47  1  0.39200000  0.11050200  0.60878100  1
