# generated using pymatgen
data_Mn(SO4)2
_symmetry_space_group_name_H-M   'P 1'
_cell_length_a   8.85318530
_cell_length_b   8.85318530
_cell_length_c   8.85318482
_cell_angle_alpha   55.78007191
_cell_angle_beta   55.78007191
_cell_angle_gamma   55.78007735
_symmetry_Int_Tables_number   1
_chemical_formula_structural   Mn(SO4)2
_chemical_formula_sum   'Mn3 S6 O24'
_cell_volume   442.64732633
_cell_formula_units_Z   3
loop_
 _symmetry_equiv_pos_site_id
 _symmetry_equiv_pos_as_xyz
  1  'x, y, z'
loop_
 _atom_site_type_symbol
 _atom_site_label
 _atom_site_symmetry_multiplicity
 _atom_site_fract_x
 _atom_site_fract_y
 _atom_site_fract_z
 _atom_site_occupancy
  Mn  Mn0  1  0.35210800  0.35210800  0.35210800  1
  Mn  Mn1  1  0.64413800  0.64413800  0.64413800  1
  Mn  Mn2  1  0.84814600  0.84814600  0.84814600  1
  S  S3  1  0.03565900  0.46704500  0.74745100  1
  S  S4  1  0.46704500  0.74745100  0.03565900  1
  S  S5  1  0.74745100  0.03565900  0.46704500  1
  S  S6  1  0.25410500  0.95457100  0.53616500  1
  S  S7  1  0.53616500  0.25410500  0.95457100  1
  S  S8  1  0.95457100  0.53616500  0.25410500  1
  O  O9  1  0.10593600  0.52357100  0.29536400  1
  O  O10  1  0.29536400  0.10593600  0.52357100  1
  O  O11  1  0.00502600  0.33923200  0.94769500  1
  O  O12  1  0.52357100  0.29536400  0.10593600  1
  O  O13  1  0.02246800  0.66444900  0.70747600  1
  O  O14  1  0.23592100  0.38490600  0.61331300  1
  O  O15  1  0.38490600  0.61331300  0.23592100  1
  O  O16  1  0.33923200  0.94769500  0.00502600  1
  O  O17  1  0.61331300  0.23592100  0.38490600  1
  O  O18  1  0.04779900  0.97838700  0.68102600  1
  O  O19  1  0.28957100  0.96893700  0.35118000  1
  O  O20  1  0.35118000  0.28957100  0.96893700  1
  O  O21  1  0.66444900  0.70747600  0.02246800  1
  O  O22  1  0.70747600  0.02246800  0.66444900  1
  O  O23  1  0.94769500  0.00502600  0.33923200  1
  O  O24  1  0.37955700  0.75617900  0.64234900  1
  O  O25  1  0.68102600  0.04779900  0.97838700  1
  O  O26  1  0.64234900  0.37955700  0.75617900  1
  O  O27  1  0.75617900  0.64234900  0.37955700  1
  O  O28  1  0.96893700  0.35118000  0.28957100  1
  O  O29  1  0.49867800  0.67926200  0.89468700  1
  O  O30  1  0.97838700  0.68102600  0.04779900  1
  O  O31  1  0.67926200  0.89468700  0.49867800  1
  O  O32  1  0.89468700  0.49867800  0.67926200  1
