# generated using pymatgen
data_Ba10LiW7O30
_symmetry_space_group_name_H-M   'P 1'
_cell_length_a   5.89782005
_cell_length_b   5.89782005
_cell_length_c   24.94210600
_cell_angle_alpha   90.00000000
_cell_angle_beta   90.00000000
_cell_angle_gamma   120.00000052
_symmetry_Int_Tables_number   1
_chemical_formula_structural   Ba10LiW7O30
_chemical_formula_sum   'Ba10 Li1 W7 O30'
_cell_volume   751.35777445
_cell_formula_units_Z   1
loop_
 _symmetry_equiv_pos_site_id
 _symmetry_equiv_pos_as_xyz
  1  'x, y, z'
loop_
 _atom_site_type_symbol
 _atom_site_label
 _atom_site_symmetry_multiplicity
 _atom_site_fract_x
 _atom_site_fract_y
 _atom_site_fract_z
 _atom_site_occupancy
  Ba  Ba0  1  0.00000000  0.00000000  0.46069600  1
  Ba  Ba1  1  0.00000000  0.00000000  0.03104100  1
  Ba  Ba2  1  0.00000000  0.00000000  0.75950500  1
  Ba  Ba3  1  0.33333300  0.66666700  0.14802100  1
  Ba  Ba4  1  0.33333300  0.66666700  0.35172000  1
  Ba  Ba5  1  0.33333300  0.66666700  0.64945800  1
  Ba  Ba6  1  0.33333300  0.66666700  0.85890400  1
  Ba  Ba7  1  0.66666700  0.33333300  0.25103800  1
  Ba  Ba8  1  0.66666700  0.33333300  0.55097700  1
  Ba  Ba9  1  0.66666700  0.33333300  0.94244200  1
  Li  Li10  1  0.66666700  0.33333300  0.81881400  1
  W  W11  1  0.00000000  0.00000000  0.19628200  1
  W  W12  1  0.00000000  0.00000000  0.89724600  1
  W  W13  1  0.66666700  0.33333300  0.10034500  1
  W  W14  1  0.66666700  0.33333300  0.40032900  1
  W  W15  1  0.66666700  0.33333300  0.70089700  1
  W  W16  1  0.00000000  0.00000000  0.30511400  1
  W  W17  1  0.00000000  0.00000000  0.59992900  1
  O  O18  1  0.83182900  0.66365800  0.64772200  1
  O  O19  1  0.84226800  0.68453600  0.85057100  1
  O  O20  1  0.35038400  0.17519200  0.34719900  1
  O  O21  1  0.33903900  0.16952000  0.15631700  1
  O  O22  1  0.51113600  0.02227200  0.73841000  1
  O  O23  1  0.68983800  0.84491900  0.24775900  1
  O  O24  1  0.51101600  0.02203300  0.06447800  1
  O  O25  1  0.51070300  0.02140600  0.43754600  1
  O  O26  1  0.69599200  0.84799600  0.55819900  1
  O  O27  1  0.69548000  0.84774000  0.94298700  1
  O  O28  1  0.82480800  0.17519200  0.34719900  1
  O  O29  1  0.15226000  0.84774000  0.94298700  1
  O  O30  1  0.51101600  0.48898400  0.06447800  1
  O  O31  1  0.51070300  0.48929700  0.43754600  1
  O  O32  1  0.15200400  0.84799600  0.55819900  1
  O  O33  1  0.83048000  0.16952000  0.15631700  1
  O  O34  1  0.83182900  0.16817100  0.64772200  1
  O  O35  1  0.84226800  0.15773200  0.85057100  1
  O  O36  1  0.51113600  0.48886400  0.73841000  1
  O  O37  1  0.15508100  0.84491900  0.24775900  1
  O  O38  1  0.97796700  0.48898400  0.06447800  1
  O  O39  1  0.97859400  0.48929700  0.43754600  1
  O  O40  1  0.15200400  0.30400800  0.55819900  1
  O  O41  1  0.15226000  0.30452000  0.94298700  1
  O  O42  1  0.97772800  0.48886400  0.73841000  1
  O  O43  1  0.15508100  0.31016200  0.24775900  1
  O  O44  1  0.33634200  0.16817100  0.64772200  1
  O  O45  1  0.31546400  0.15773200  0.85057100  1
  O  O46  1  0.83048000  0.66096100  0.15631700  1
  O  O47  1  0.82480800  0.64961600  0.34719900  1
