# generated using pymatgen
data_K2W3O10
_symmetry_space_group_name_H-M   'P 1'
_cell_length_a   3.88825900
_cell_length_b   11.29373200
_cell_length_c   33.20060235
_cell_angle_alpha   70.70714367
_cell_angle_beta   90.00000000
_cell_angle_gamma   90.00000000
_symmetry_Int_Tables_number   1
_chemical_formula_structural   K2W3O10
_chemical_formula_sum   'K12 W18 O60'
_cell_volume   1376.06198164
_cell_formula_units_Z   6
loop_
 _symmetry_equiv_pos_site_id
 _symmetry_equiv_pos_as_xyz
  1  'x, y, z'
loop_
 _atom_site_type_symbol
 _atom_site_label
 _atom_site_symmetry_multiplicity
 _atom_site_fract_x
 _atom_site_fract_y
 _atom_site_fract_z
 _atom_site_occupancy
  K  K0  1  0.51601600  0.36421500  0.04745900  1
  K  K1  1  0.50512500  0.71428400  0.65202800  1
  K  K2  1  0.53565600  0.11318500  0.15240100  1
  K  K3  1  0.53565600  0.88681500  0.34759900  1
  K  K4  1  0.50512500  0.28571600  0.84797200  1
  K  K5  1  0.51601600  0.63578500  0.45254100  1
  K  K6  1  0.48398400  0.36421500  0.54745900  1
  K  K7  1  0.49487500  0.71428400  0.15202800  1
  K  K8  1  0.46434400  0.11318500  0.65240100  1
  K  K9  1  0.46434400  0.88681500  0.84759900  1
  K  K10  1  0.49487500  0.28571600  0.34797200  1
  K  K11  1  0.48398400  0.63578500  0.95254100  1
  W  W12  1  0.96692700  0.59803300  0.84888600  1
  W  W13  1  0.03728800  0.99389100  0.44856300  1
  W  W14  1  0.03492000  0.15273300  0.26427500  1
  W  W15  1  0.03067400  0.70686200  0.55430600  1
  W  W16  1  0.02927300  0.50000000  0.75000000  1
  W  W17  1  0.03067400  0.29313800  0.94569400  1
  W  W18  1  0.96692700  0.40196700  0.65111400  1
  W  W19  1  0.03492000  0.84726700  0.23572500  1
  W  W20  1  0.03728800  0.00610900  0.05143700  1
  W  W21  1  0.96271200  0.99389100  0.94856300  1
  W  W22  1  0.96508000  0.15273300  0.76427500  1
  W  W23  1  0.03307300  0.59803300  0.34888600  1
  W  W24  1  0.96932600  0.70686200  0.05430600  1
  W  W25  1  0.97072700  0.50000000  0.25000000  1
  W  W26  1  0.96932600  0.29313800  0.44569400  1
  W  W27  1  0.96508000  0.84726700  0.73572500  1
  W  W28  1  0.96271200  0.00610900  0.55143700  1
  W  W29  1  0.03307300  0.40196700  0.15111400  1
  O  O30  1  0.99646900  0.83933500  0.58953500  1
  O  O31  1  0.48223300  0.58446900  0.84861700  1
  O  O32  1  0.01128900  0.33528500  0.10844200  1
  O  O33  1  0.99391700  0.68203000  0.72959900  1
  O  O34  1  0.01481900  0.25000700  0.19708700  1
  O  O35  1  0.00256900  0.87958000  0.50907100  1
  O  O36  1  0.51938500  0.99499500  0.45286400  1
  O  O37  1  0.52066000  0.15791800  0.25940200  1
  O  O38  1  0.02049200  0.07430100  0.32073200  1
  O  O39  1  0.01420200  0.38200300  0.98179000  1
  O  O40  1  0.99424000  0.49557000  0.80786500  1
  O  O41  1  0.99975700  0.41887700  0.89223400  1
  O  O42  1  0.51413300  0.71801800  0.55602600  1
  O  O43  1  0.01802300  0.89283700  0.41737400  1
  O  O44  1  0.50670500  0.50000000  0.75000000  1
  O  O45  1  0.01075400  0.00000000  0.25000000  1
  O  O46  1  0.51413300  0.28198200  0.94397400  1
  O  O47  1  0.99975700  0.58112300  0.60776600  1
  O  O48  1  0.99424000  0.50443000  0.69213500  1
  O  O49  1  0.01802300  0.10716300  0.08262600  1
  O  O50  1  0.01420200  0.61799700  0.51821000  1
  O  O51  1  0.00256900  0.12042000  0.99092900  1
  O  O52  1  0.99391700  0.31797000  0.77040100  1
  O  O53  1  0.48223300  0.41553100  0.65138300  1
  O  O54  1  0.02049200  0.92569900  0.17926800  1
  O  O55  1  0.52066000  0.84208200  0.24059800  1
  O  O56  1  0.99646900  0.16066500  0.91046500  1
  O  O57  1  0.51938500  0.00500500  0.04713600  1
  O  O58  1  0.01481900  0.74999300  0.30291300  1
  O  O59  1  0.01128900  0.66471500  0.39155800  1
  O  O60  1  0.98871100  0.33528500  0.60844200  1
  O  O61  1  0.98518100  0.25000700  0.69708700  1
  O  O62  1  0.48061500  0.99499500  0.95286400  1
  O  O63  1  0.00353100  0.83933500  0.08953500  1
  O  O64  1  0.47934000  0.15791800  0.75940200  1
  O  O65  1  0.97950800  0.07430100  0.82073200  1
  O  O66  1  0.51776700  0.58446900  0.34861700  1
  O  O67  1  0.00608300  0.68203000  0.22959900  1
  O  O68  1  0.99743100  0.87958000  0.00907100  1
  O  O69  1  0.98579800  0.38200300  0.48179000  1
  O  O70  1  0.98197700  0.89283700  0.91737400  1
  O  O71  1  0.00576000  0.49557000  0.30786500  1
  O  O72  1  0.00024300  0.41887700  0.39223400  1
  O  O73  1  0.48586700  0.71801800  0.05602600  1
  O  O74  1  0.98924600  0.00000000  0.75000000  1
  O  O75  1  0.49329500  0.50000000  0.25000000  1
  O  O76  1  0.98197700  0.10716300  0.58262600  1
  O  O77  1  0.48586700  0.28198200  0.44397400  1
  O  O78  1  0.00024300  0.58112300  0.10776600  1
  O  O79  1  0.00576000  0.50443000  0.19213500  1
  O  O80  1  0.98579800  0.61799700  0.01821000  1
  O  O81  1  0.97950800  0.92569900  0.67926800  1
  O  O82  1  0.47934000  0.84208200  0.74059800  1
  O  O83  1  0.48061500  0.00500500  0.54713600  1
  O  O84  1  0.99743100  0.12042000  0.49092900  1
  O  O85  1  0.98518100  0.74999300  0.80291300  1
  O  O86  1  0.00608300  0.31797000  0.27040100  1
  O  O87  1  0.98871100  0.66471500  0.89155800  1
  O  O88  1  0.51776700  0.41553100  0.15138300  1
  O  O89  1  0.00353100  0.16066500  0.41046500  1
