# generated using pymatgen
data_Mn3Cr2Te3O16
_symmetry_space_group_name_H-M   'P 1'
_cell_length_a   6.30961875
_cell_length_b   6.30961875
_cell_length_c   9.15261717
_cell_angle_alpha   86.11180241
_cell_angle_beta   86.11180241
_cell_angle_gamma   57.17517651
_symmetry_Int_Tables_number   1
_chemical_formula_structural   Mn3Cr2Te3O16
_chemical_formula_sum   'Mn3 Cr2 Te3 O16'
_cell_volume   305.28360879
_cell_formula_units_Z   1
loop_
 _symmetry_equiv_pos_site_id
 _symmetry_equiv_pos_as_xyz
  1  'x, y, z'
loop_
 _atom_site_type_symbol
 _atom_site_label
 _atom_site_symmetry_multiplicity
 _atom_site_fract_x
 _atom_site_fract_y
 _atom_site_fract_z
 _atom_site_occupancy
  Mn  Mn0  1  0.83185100  0.83185100  0.78924600  1
  Mn  Mn1  1  0.16212800  0.66245600  0.29441300  1
  Mn  Mn2  1  0.66245600  0.16212800  0.29441300  1
  Cr  Cr3  1  0.67418100  0.67418100  0.49971200  1
  Cr  Cr4  1  0.34793100  0.34793100  0.02646500  1
  Te  Te5  1  0.33360800  0.83303900  0.78774900  1
  Te  Te6  1  0.83303900  0.33360800  0.78774900  1
  Te  Te7  1  0.16590900  0.16590900  0.28750200  1
  O  O8  1  0.34366200  0.84565500  0.39836900  1
  O  O9  1  0.52492500  0.52492500  0.66009600  1
  O  O10  1  0.64563000  0.64563000  0.90837000  1
  O  O11  1  0.01593700  0.01593700  0.67653400  1
  O  O12  1  0.01043100  0.01043100  0.19390100  1
  O  O13  1  0.84565500  0.34366200  0.39836900  1
  O  O14  1  0.49972000  0.95248600  0.65943000  1
  O  O15  1  0.95248600  0.49972000  0.65943000  1
  O  O16  1  0.15736000  0.15736000  0.89521500  1
  O  O17  1  0.83720700  0.83720700  0.40363300  1
  O  O18  1  0.04299800  0.46448400  0.15189700  1
  O  O19  1  0.46448400  0.04299800  0.15189700  1
  O  O20  1  0.31612700  0.31612700  0.39747900  1
  O  O21  1  0.18318800  0.67741900  0.89741200  1
  O  O22  1  0.46851300  0.46851300  0.16753500  1
  O  O23  1  0.67741900  0.18318800  0.89741200  1
