# generated using pymatgen
data_Li2Mn2(PO4)3
_symmetry_space_group_name_H-M   'P 1'
_cell_length_a   8.36619602
_cell_length_b   8.39546461
_cell_length_c   9.03076649
_cell_angle_alpha   88.11472659
_cell_angle_beta   60.02146972
_cell_angle_gamma   118.19579875
_symmetry_Int_Tables_number   1
_chemical_formula_structural   Li2Mn2(PO4)3
_chemical_formula_sum   'Li4 Mn4 P6 O24'
_cell_volume   453.19009546
_cell_formula_units_Z   2
loop_
 _symmetry_equiv_pos_site_id
 _symmetry_equiv_pos_as_xyz
  1  'x, y, z'
loop_
 _atom_site_type_symbol
 _atom_site_label
 _atom_site_symmetry_multiplicity
 _atom_site_fract_x
 _atom_site_fract_y
 _atom_site_fract_z
 _atom_site_occupancy
  Li  Li0  1  0.46531700  0.22833600  0.13962500  1
  Li  Li1  1  0.35443800  0.35523100  0.45269200  1
  Li  Li2  1  0.64556200  0.64476900  0.54730800  1
  Li  Li3  1  0.53468300  0.77166400  0.86037500  1
  Mn  Mn4  1  0.20230400  0.85396100  0.44479400  1
  Mn  Mn5  1  0.20902500  0.35263500  0.92453100  1
  Mn  Mn6  1  0.79097500  0.64736500  0.07546900  1
  Mn  Mn7  1  0.79769600  0.14603900  0.55520600  1
  P  P8  1  0.28620700  0.54012500  0.25269200  1
  P  P9  1  0.28724000  0.75890300  0.75011400  1
  P  P10  1  0.00729400  0.04312300  0.73792300  1
  P  P11  1  0.99270600  0.95687700  0.26207700  1
  P  P12  1  0.71276000  0.24109700  0.24988600  1
  P  P13  1  0.71379300  0.45987500  0.74730800  1
  O  O14  1  0.18833300  0.98296000  0.26699600  1
  O  O15  1  0.21178600  0.67415500  0.31694300  1
  O  O16  1  0.32515300  0.54209700  0.06841100  1
  O  O17  1  0.10664400  0.11950500  0.09187400  1
  O  O18  1  0.12055700  0.32677800  0.39461700  1
  O  O19  1  0.25041300  0.75272500  0.59992400  1
  O  O20  1  0.07756700  0.69078100  0.94128000  1
  O  O21  1  0.49794700  0.59957100  0.24598400  1
  O  O22  1  0.47267600  0.95649900  0.72745000  1
  O  O23  1  0.15093200  0.24700300  0.72942400  1
  O  O24  1  0.36493600  0.62138300  0.75068900  1
  O  O25  1  0.18318100  0.04147600  0.55567900  1
  O  O26  1  0.81681900  0.95852400  0.44432100  1
  O  O27  1  0.63506400  0.37861700  0.24931100  1
  O  O28  1  0.84906800  0.75299700  0.27057600  1
  O  O29  1  0.52732400  0.04350100  0.27255000  1
  O  O30  1  0.50205300  0.40042900  0.75401600  1
  O  O31  1  0.92243300  0.30921900  0.05872000  1
  O  O32  1  0.74958700  0.24727500  0.40007600  1
  O  O33  1  0.87944300  0.67322200  0.60538300  1
  O  O34  1  0.89335600  0.88049500  0.90812600  1
  O  O35  1  0.67484700  0.45790300  0.93158900  1
  O  O36  1  0.78821400  0.32584500  0.68305700  1
  O  O37  1  0.81166700  0.01704000  0.73300400  1
