# generated using pymatgen
data_Na3VO3
_symmetry_space_group_name_H-M   'P 1'
_cell_length_a   6.16399258
_cell_length_b   6.31020587
_cell_length_c   10.68769402
_cell_angle_alpha   89.99917441
_cell_angle_beta   90.00655522
_cell_angle_gamma   87.49498535
_symmetry_Int_Tables_number   1
_chemical_formula_structural   Na3VO3
_chemical_formula_sum   'Na12 V4 O12'
_cell_volume   415.31195631
_cell_formula_units_Z   4
loop_
 _symmetry_equiv_pos_site_id
 _symmetry_equiv_pos_as_xyz
  1  'x, y, z'
loop_
 _atom_site_type_symbol
 _atom_site_label
 _atom_site_symmetry_multiplicity
 _atom_site_fract_x
 _atom_site_fract_y
 _atom_site_fract_z
 _atom_site_occupancy
  Na  Na0  1  0.04341700  0.89218300  0.77865600  1
  Na  Na1  1  0.35218900  0.86557500  0.00952300  1
  Na  Na2  1  0.52040900  0.98243000  0.28633500  1
  Na  Na3  1  0.04343600  0.39216800  0.72129500  1
  Na  Na4  1  0.47962000  0.51757800  0.78630600  1
  Na  Na5  1  0.35216700  0.36559300  0.49048500  1
  Na  Na6  1  0.64783000  0.63441200  0.50951000  1
  Na  Na7  1  0.52037100  0.48242700  0.21369000  1
  Na  Na8  1  0.95655900  0.60783500  0.27870300  1
  Na  Na9  1  0.47960100  0.01756900  0.71366700  1
  Na  Na10  1  0.64781000  0.13441900  0.99048000  1
  Na  Na11  1  0.95658000  0.10782300  0.22134400  1
  V  V12  1  0.16654900  0.82361400  0.49507400  1
  V  V13  1  0.16656600  0.32385000  0.00494700  1
  V  V14  1  0.83343900  0.67615000  0.99505500  1
  V  V15  1  0.83345200  0.17637100  0.50493100  1
  O  O16  1  0.13726600  0.61869200  0.93934400  1
  O  O17  1  0.31468900  0.69548300  0.35884900  1
  O  O18  1  0.26375800  0.66731200  0.63441700  1
  O  O19  1  0.73634200  0.83259300  0.13432800  1
  O  O20  1  0.68538500  0.80445500  0.85896200  1
  O  O21  1  0.86283100  0.88140200  0.43939000  1
  O  O22  1  0.13717500  0.11859800  0.56060200  1
  O  O23  1  0.31461600  0.19554100  0.14103300  1
  O  O24  1  0.26365400  0.16740400  0.86568200  1
  O  O25  1  0.73625000  0.33269200  0.36559400  1
  O  O26  1  0.68530500  0.30452200  0.64114300  1
  O  O27  1  0.86273300  0.38131000  0.06065500  1
