# generated using pymatgen
data_CaF3
_symmetry_space_group_name_H-M   'P 1'
_cell_length_a   4.19537598
_cell_length_b   4.19537598
_cell_length_c   4.19537598
_cell_angle_alpha   126.16099866
_cell_angle_beta   126.16099866
_cell_angle_gamma   79.62368947
_symmetry_Int_Tables_number   1
_chemical_formula_structural   CaF3
_chemical_formula_sum   'Ca1 F3'
_cell_volume   46.50649908
_cell_formula_units_Z   1
loop_
 _symmetry_equiv_pos_site_id
 _symmetry_equiv_pos_as_xyz
  1  'x, y, z'
loop_
 _atom_site_type_symbol
 _atom_site_label
 _atom_site_symmetry_multiplicity
 _atom_site_fract_x
 _atom_site_fract_y
 _atom_site_fract_z
 _atom_site_occupancy
  Ca  Ca0  1  0.00000000  0.00000000  0.00000000  1
  F  F1  1  0.75000000  0.25000000  0.50000000  1
  F  F2  1  0.25000000  0.75000000  0.50000000  1
  F  F3  1  0.50000000  0.50000000  0.00000000  1
