# generated using pymatgen
data_Fe23O32
_symmetry_space_group_name_H-M   'P 1'
_cell_length_a   8.32335898
_cell_length_b   8.32335898
_cell_length_c   8.32335846
_cell_angle_alpha   89.66883657
_cell_angle_beta   89.66883657
_cell_angle_gamma   89.66883198
_symmetry_Int_Tables_number   1
_chemical_formula_structural   Fe23O32
_chemical_formula_sum   'Fe23 O32'
_cell_volume   576.59937942
_cell_formula_units_Z   1
loop_
 _symmetry_equiv_pos_site_id
 _symmetry_equiv_pos_as_xyz
  1  'x, y, z'
loop_
 _atom_site_type_symbol
 _atom_site_label
 _atom_site_symmetry_multiplicity
 _atom_site_fract_x
 _atom_site_fract_y
 _atom_site_fract_z
 _atom_site_occupancy
  Fe  Fe0  1  0.62424300  0.11978000  0.11978000  1
  Fe  Fe1  1  0.75313600  0.99773300  0.75313600  1
  Fe  Fe2  1  0.50000000  0.00000000  0.50000000  1
  Fe  Fe3  1  0.24686400  0.00226700  0.24686400  1
  Fe  Fe4  1  0.88022000  0.88022000  0.37575700  1
  Fe  Fe5  1  0.37575700  0.88022000  0.88022000  1
  Fe  Fe6  1  0.99773300  0.75313600  0.75313600  1
  Fe  Fe7  1  0.24664500  0.75335500  0.50000000  1
  Fe  Fe8  1  0.75313600  0.75313600  0.99773300  1
  Fe  Fe9  1  0.50000000  0.75335500  0.24664500  1
  Fe  Fe10  1  0.62930600  0.62930600  0.62930600  1
  Fe  Fe11  1  0.11978000  0.62424300  0.11978000  1
  Fe  Fe12  1  0.00000000  0.50000000  0.50000000  1
  Fe  Fe13  1  0.24664500  0.50000000  0.75335500  1
  Fe  Fe14  1  0.75335500  0.50000000  0.24664500  1
  Fe  Fe15  1  0.50000000  0.50000000  0.00000000  1
  Fe  Fe16  1  0.88022000  0.37575700  0.88022000  1
  Fe  Fe17  1  0.37069400  0.37069400  0.37069400  1
  Fe  Fe18  1  0.75335500  0.24664500  0.50000000  1
  Fe  Fe19  1  0.50000000  0.24664500  0.75335500  1
  Fe  Fe20  1  0.00226700  0.24686400  0.24686400  1
  Fe  Fe21  1  0.24686400  0.24686400  0.00226700  1
  Fe  Fe22  1  0.11978000  0.11978000  0.62424300  1
  O  O23  1  0.73322400  0.99934100  0.51546300  1
  O  O24  1  0.02037900  0.02037900  0.26277700  1
  O  O25  1  0.26277700  0.02037900  0.02037900  1
  O  O26  1  0.26677600  0.00065900  0.48453700  1
  O  O27  1  0.51546300  0.99934100  0.73322400  1
  O  O28  1  0.97962100  0.97962100  0.73722300  1
  O  O29  1  0.73722300  0.97962100  0.97962100  1
  O  O30  1  0.48453700  0.00065900  0.26677600  1
  O  O31  1  0.76286000  0.76286000  0.76286000  1
  O  O32  1  0.49663500  0.76740300  0.49663500  1
  O  O33  1  0.24879100  0.77099200  0.24879100  1
  O  O34  1  0.75120900  0.75120900  0.22900800  1
  O  O35  1  0.97962100  0.73722300  0.97962100  1
  O  O36  1  0.99934100  0.73322400  0.51546300  1
  O  O37  1  0.22900800  0.75120900  0.75120900  1
  O  O38  1  0.51546300  0.73322400  0.99934100  1
  O  O39  1  0.99934100  0.51546300  0.73322400  1
  O  O40  1  0.73322400  0.51546300  0.99934100  1
  O  O41  1  0.50336500  0.50336500  0.23259700  1
  O  O42  1  0.49663500  0.49663500  0.76740300  1
  O  O43  1  0.23259700  0.50336500  0.50336500  1
  O  O44  1  0.76740300  0.49663500  0.49663500  1
  O  O45  1  0.00065900  0.48453700  0.26677600  1
  O  O46  1  0.26677600  0.48453700  0.00065900  1
  O  O47  1  0.00065900  0.26677600  0.48453700  1
  O  O48  1  0.24879100  0.24879100  0.77099200  1
  O  O49  1  0.48453700  0.26677600  0.00065900  1
  O  O50  1  0.02037900  0.26277700  0.02037900  1
  O  O51  1  0.77099200  0.24879100  0.24879100  1
  O  O52  1  0.75120900  0.22900800  0.75120900  1
  O  O53  1  0.50336500  0.23259700  0.50336500  1
  O  O54  1  0.23714000  0.23714000  0.23714000  1
