# generated using pymatgen
data_Na3Mn2P2(CO7)2
_symmetry_space_group_name_H-M   'P 1'
_cell_length_a   8.34082200
_cell_length_b   8.42943169
_cell_length_c   10.30290951
_cell_angle_alpha   107.29543336
_cell_angle_beta   107.02882701
_cell_angle_gamma   103.22961021
_symmetry_Int_Tables_number   1
_chemical_formula_structural   Na3Mn2P2(CO7)2
_chemical_formula_sum   'Na6 Mn4 P4 C4 O28'
_cell_volume   620.44669418
_cell_formula_units_Z   2
loop_
 _symmetry_equiv_pos_site_id
 _symmetry_equiv_pos_as_xyz
  1  'x, y, z'
loop_
 _atom_site_type_symbol
 _atom_site_label
 _atom_site_symmetry_multiplicity
 _atom_site_fract_x
 _atom_site_fract_y
 _atom_site_fract_z
 _atom_site_occupancy
  Na  Na0  1  0.75314000  0.74185300  0.23477800  1
  Na  Na1  1  0.47074500  0.01935700  0.24569000  1
  Na  Na2  1  0.97942800  0.48022600  0.22957600  1
  Na  Na3  1  0.51625700  0.00499400  0.76259600  1
  Na  Na4  1  0.23406500  0.28264900  0.75252200  1
  Na  Na5  1  0.76437400  0.76290000  0.77269900  1
  Mn  Mn6  1  0.94980100  0.18972800  0.34888000  1
  Mn  Mn7  1  0.44481000  0.68888300  0.35189800  1
  Mn  Mn8  1  0.56208400  0.30717800  0.64954100  1
  Mn  Mn9  1  0.06016000  0.80305100  0.65082400  1
  P  P10  1  0.19799600  0.93746900  0.42676600  1
  P  P11  1  0.69915600  0.45352200  0.42759300  1
  P  P12  1  0.30090800  0.55868000  0.57535500  1
  P  P13  1  0.80495500  0.04204000  0.57023300  1
  C  C14  1  0.77739700  0.03200300  0.08228800  1
  C  C15  1  0.28268800  0.53128300  0.08541500  1
  C  C16  1  0.71757700  0.46590200  0.91711900  1
  C  C17  1  0.22076900  0.97609300  0.91596700  1
  O  O18  1  0.30787000  0.05821100  0.04917300  1
  O  O19  1  0.79354200  0.54316200  0.05427900  1
  O  O20  1  0.42820800  0.67562000  0.15047600  1
  O  O21  1  0.92300000  0.17223000  0.14516300  1
  O  O22  1  0.72857400  0.98692200  0.18116400  1
  O  O23  1  0.23692200  0.48866000  0.18677800  1
  O  O24  1  0.29226500  0.83673300  0.33761300  1
  O  O25  1  0.08131900  0.00144900  0.32486600  1
  O  O26  1  0.77817000  0.35174700  0.32925600  1
  O  O27  1  0.59337100  0.54116300  0.33533700  1
  O  O28  1  0.15048700  0.42022200  0.43024900  1
  O  O29  1  0.57316200  0.32315900  0.46587500  1
  O  O30  1  0.07093100  0.80105500  0.46265200  1
  O  O31  1  0.66070100  0.89963900  0.41897700  1
  O  O32  1  0.33761800  0.08750700  0.57350700  1
  O  O33  1  0.43841900  0.68557000  0.53937000  1
  O  O34  1  0.93745100  0.16803500  0.53379800  1
  O  O35  1  0.84318500  0.59857100  0.57632100  1
  O  O36  1  0.23043300  0.67988100  0.67450400  1
  O  O37  1  0.40205800  0.47618400  0.67016600  1
  O  O38  1  0.71717900  0.13736500  0.66349700  1
  O  O39  1  0.90890200  0.95369700  0.66231500  1
  O  O40  1  0.76697800  0.51686500  0.82246000  1
  O  O41  1  0.26088400  0.01971500  0.81151400  1
  O  O42  1  0.57426800  0.31975600  0.84949600  1
  O  O43  1  0.07758000  0.83224200  0.85412500  1
  O  O44  1  0.69557300  0.94942500  0.94589000  1
  O  O45  1  0.20254400  0.44950100  0.95143700  1
