# generated using pymatgen
data_LiCr2O4
_symmetry_space_group_name_H-M   'P 1'
_cell_length_a   10.27369481
_cell_length_b   8.41940014
_cell_length_c   8.32037127
_cell_angle_alpha   90.45099410
_cell_angle_beta   144.44057561
_cell_angle_gamma   65.16581592
_symmetry_Int_Tables_number   1
_chemical_formula_structural   LiCr2O4
_chemical_formula_sum   'Li4 Cr8 O16'
_cell_volume   294.21412844
_cell_formula_units_Z   4
loop_
 _symmetry_equiv_pos_site_id
 _symmetry_equiv_pos_as_xyz
  1  'x, y, z'
loop_
 _atom_site_type_symbol
 _atom_site_label
 _atom_site_symmetry_multiplicity
 _atom_site_fract_x
 _atom_site_fract_y
 _atom_site_fract_z
 _atom_site_occupancy
  Li  Li0  1  0.00214000  0.99886000  0.00272900  1
  Li  Li1  1  0.50151600  0.99751500  0.75057000  1
  Li  Li2  1  0.50304500  0.49964600  0.24976200  1
  Li  Li3  1  0.99405000  0.50341700  0.49437800  1
  Cr  Cr4  1  0.24532700  0.00213600  0.87067600  1
  Cr  Cr5  1  0.25145900  0.24964700  0.12537500  1
  Cr  Cr6  1  0.24759900  0.75263700  0.62258300  1
  Cr  Cr7  1  0.25832400  0.49665700  0.38436500  1
  Cr  Cr8  1  0.75254100  0.99933400  0.37741900  1
  Cr  Cr9  1  0.75162200  0.75120700  0.62548900  1
  Cr  Cr10  1  0.74794600  0.24973500  0.12273800  1
  Cr  Cr11  1  0.74855200  0.50288900  0.87257200  1
  O  O12  1  0.22584800  0.99687000  0.61056600  1
  O  O13  1  0.23135300  0.77102100  0.83775300  1
  O  O14  1  0.22864600  0.49702000  0.11831600  1
  O  O15  1  0.27784300  0.00493800  0.14751700  1
  O  O16  1  0.22767100  0.27524200  0.33416700  1
  O  O17  1  0.27343600  0.22948200  0.91893700  1
  O  O18  1  0.25926400  0.50793400  0.61468900  1
  O  O19  1  0.26952400  0.72689100  0.40976300  1
  O  O20  1  0.72562000  0.77148400  0.37225800  1
  O  O21  1  0.72193900  0.99640000  0.59091500  1
  O  O22  1  0.70927500  0.28399900  0.83798000  1
  O  O23  1  0.77348200  0.22451000  0.38638300  1
  O  O24  1  0.70740700  0.50858500  0.07177200  1
  O  O25  1  0.78727600  0.99196500  0.17009500  1
  O  O26  1  0.78993800  0.72174500  0.89755900  1
  O  O27  1  0.78067800  0.50586400  0.66277400  1
