# generated using pymatgen
data_Na2FePCO7
_symmetry_space_group_name_H-M   'P 1'
_cell_length_a   6.54783900
_cell_length_b   10.35370943
_cell_length_c   10.39842459
_cell_angle_alpha   60.64408856
_cell_angle_beta   89.47581116
_cell_angle_gamma   89.27039871
_symmetry_Int_Tables_number   1
_chemical_formula_structural   Na2FePCO7
_chemical_formula_sum   'Na8 Fe4 P4 C4 O28'
_cell_volume   614.37957727
_cell_formula_units_Z   4
loop_
 _symmetry_equiv_pos_site_id
 _symmetry_equiv_pos_as_xyz
  1  'x, y, z'
loop_
 _atom_site_type_symbol
 _atom_site_label
 _atom_site_symmetry_multiplicity
 _atom_site_fract_x
 _atom_site_fract_y
 _atom_site_fract_z
 _atom_site_occupancy
  Na  Na0  1  0.25895300  0.34072900  0.57794800  1
  Na  Na1  1  0.26155700  0.84195300  0.07705400  1
  Na  Na2  1  0.01284000  0.99461300  0.74176400  1
  Na  Na3  1  0.48568300  0.49523200  0.24110900  1
  Na  Na4  1  0.98952600  0.50652500  0.75660500  1
  Na  Na5  1  0.98914200  0.00637300  0.25642100  1
  Na  Na6  1  0.72307000  0.15857200  0.92152500  1
  Na  Na7  1  0.74112100  0.65886400  0.42252500  1
  Fe  Fe8  1  0.74576600  0.71922200  0.93476000  1
  Fe  Fe9  1  0.75385000  0.21892100  0.43501000  1
  Fe  Fe10  1  0.26444200  0.78055200  0.56532300  1
  Fe  Fe11  1  0.26429300  0.28067400  0.06531000  1
  P  P12  1  0.24821300  0.64220900  0.93349100  1
  P  P13  1  0.25071100  0.14242300  0.43334300  1
  P  P14  1  0.75321600  0.85719400  0.56680000  1
  P  P15  1  0.75467100  0.35731200  0.06665700  1
  C  C16  1  0.75077900  0.33315500  0.60275800  1
  C  C17  1  0.75563100  0.83294300  0.10305200  1
  C  C18  1  0.23833600  0.16732800  0.89762400  1
  C  C19  1  0.24666800  0.66735500  0.39747500  1
  O  O20  1  0.23380400  0.11042600  0.81354400  1
  O  O21  1  0.25823600  0.61071100  0.31323000  1
  O  O22  1  0.76338100  0.91392000  0.95821300  1
  O  O23  1  0.72822900  0.41370700  0.45880500  1
  O  O24  1  0.75601400  0.18946700  0.65343100  1
  O  O25  1  0.73464800  0.69029200  0.15318400  1
  O  O26  1  0.06224800  0.72838400  0.94921000  1
  O  O27  1  0.43898600  0.71459000  0.95904900  1
  O  O28  1  0.06182500  0.21716800  0.46307400  1
  O  O29  1  0.43849600  0.22583900  0.44524700  1
  O  O30  1  0.75450900  0.84995600  0.71888500  1
  O  O31  1  0.74478500  0.34969000  0.21886900  1
  O  O32  1  0.25061200  0.97601200  0.55462800  1
  O  O33  1  0.24832200  0.47597700  0.05498900  1
  O  O34  1  0.76445200  0.52353500  0.94508600  1
  O  O35  1  0.76317400  0.02338100  0.44507200  1
  O  O36  1  0.24610100  0.65045300  0.78109700  1
  O  O37  1  0.24012800  0.15110000  0.28099100  1
  O  O38  1  0.56491900  0.78127700  0.54515600  1
  O  O39  1  0.94067700  0.77381500  0.54804200  1
  O  O40  1  0.94180600  0.27328700  0.04992700  1
  O  O41  1  0.56570900  0.28237500  0.04290800  1
  O  O42  1  0.24368300  0.31072400  0.84674200  1
  O  O43  1  0.24321000  0.81082200  0.34681000  1
  O  O44  1  0.24231300  0.58586100  0.54207900  1
  O  O45  1  0.24416400  0.08604100  0.04221700  1
  O  O46  1  0.76610700  0.39017700  0.68572800  1
  O  O47  1  0.76607400  0.88886400  0.18723400  1
