# generated using pymatgen
data_CaPm3
_symmetry_space_group_name_H-M   'P 1'
_cell_length_a   7.44430008
_cell_length_b   7.44430008
_cell_length_c   5.97301700
_cell_angle_alpha   90.00000000
_cell_angle_beta   90.00000000
_cell_angle_gamma   120.00000067
_symmetry_Int_Tables_number   1
_chemical_formula_structural   CaPm3
_chemical_formula_sum   'Ca2 Pm6'
_cell_volume   286.66331678
_cell_formula_units_Z   2
loop_
 _symmetry_equiv_pos_site_id
 _symmetry_equiv_pos_as_xyz
  1  'x, y, z'
loop_
 _atom_site_type_symbol
 _atom_site_label
 _atom_site_symmetry_multiplicity
 _atom_site_fract_x
 _atom_site_fract_y
 _atom_site_fract_z
 _atom_site_occupancy
  Ca  Ca0  1  0.33333300  0.66666700  0.75000000  1
  Ca  Ca1  1  0.66666700  0.33333300  0.25000000  1
  Pm  Pm2  1  0.16441500  0.32883000  0.25000000  1
  Pm  Pm3  1  0.67117000  0.83558500  0.25000000  1
  Pm  Pm4  1  0.16441500  0.83558500  0.25000000  1
  Pm  Pm5  1  0.83558500  0.67117000  0.75000000  1
  Pm  Pm6  1  0.32883000  0.16441500  0.75000000  1
  Pm  Pm7  1  0.83558500  0.16441500  0.75000000  1
