# generated using pymatgen
data_Ba4Ti11O26
_symmetry_space_group_name_H-M   'P 1'
_cell_length_a   10.02808846
_cell_length_b   10.02808846
_cell_length_c   16.62102509
_cell_angle_alpha   67.76692849
_cell_angle_beta   67.76692849
_cell_angle_gamma   46.17982174
_symmetry_Int_Tables_number   1
_chemical_formula_structural   Ba4Ti11O26
_chemical_formula_sum   'Ba8 Ti22 O52'
_cell_volume   1099.23711664
_cell_formula_units_Z   2
loop_
 _symmetry_equiv_pos_site_id
 _symmetry_equiv_pos_as_xyz
  1  'x, y, z'
loop_
 _atom_site_type_symbol
 _atom_site_label
 _atom_site_symmetry_multiplicity
 _atom_site_fract_x
 _atom_site_fract_y
 _atom_site_fract_z
 _atom_site_occupancy
  Ba  Ba0  1  0.09279500  0.61143000  0.05955800  1
  Ba  Ba1  1  0.61143000  0.09279500  0.05955800  1
  Ba  Ba2  1  0.88454300  0.88454300  0.45474600  1
  Ba  Ba3  1  0.38397100  0.38397100  0.44948400  1
  Ba  Ba4  1  0.11545700  0.11545700  0.54525400  1
  Ba  Ba5  1  0.61602900  0.61602900  0.55051600  1
  Ba  Ba6  1  0.90720500  0.38857000  0.94044200  1
  Ba  Ba7  1  0.38857000  0.90720500  0.94044200  1
  Ti  Ti8  1  0.49142100  0.49142100  0.11781700  1
  Ti  Ti9  1  0.98150000  0.98150000  0.12145700  1
  Ti  Ti10  1  0.13573400  0.13573400  0.16811700  1
  Ti  Ti11  1  0.64041500  0.64041500  0.16755100  1
  Ti  Ti12  1  0.26515000  0.26515000  0.24542200  1
  Ti  Ti13  1  0.23534200  0.73508000  0.26200800  1
  Ti  Ti14  1  0.73508000  0.23534200  0.26200800  1
  Ti  Ti15  1  0.86267600  0.37781300  0.32705100  1
  Ti  Ti16  1  0.37781300  0.86267600  0.32705100  1
  Ti  Ti17  1  0.99828400  0.52509300  0.37686100  1
  Ti  Ti18  1  0.52509300  0.99828400  0.37686100  1
  Ti  Ti19  1  0.00171600  0.47490700  0.62313900  1
  Ti  Ti20  1  0.47490700  0.00171600  0.62313900  1
  Ti  Ti21  1  0.13732400  0.62218700  0.67294900  1
  Ti  Ti22  1  0.62218700  0.13732400  0.67294900  1
  Ti  Ti23  1  0.76465800  0.26492000  0.73799200  1
  Ti  Ti24  1  0.26492000  0.76465800  0.73799200  1
  Ti  Ti25  1  0.73485000  0.73485000  0.75457800  1
  Ti  Ti26  1  0.86426600  0.86426600  0.83188300  1
  Ti  Ti27  1  0.35958500  0.35958500  0.83244900  1
  Ti  Ti28  1  0.50857900  0.50857900  0.88218300  1
  Ti  Ti29  1  0.01850000  0.01850000  0.87854300  1
  O  O30  1  0.50000000  0.50000000  0.00000000  1
  O  O31  1  0.00000000  0.00000000  0.00000000  1
  O  O32  1  0.60586300  0.60586300  0.07454000  1
  O  O33  1  0.11805800  0.11805800  0.07095200  1
  O  O34  1  0.24416800  0.24416800  0.13378400  1
  O  O35  1  0.74173100  0.74173100  0.10595100  1
  O  O36  1  0.87991300  0.87991300  0.15879500  1
  O  O37  1  0.37195000  0.37195000  0.17013400  1
  O  O38  1  0.24300900  0.73632300  0.13885100  1
  O  O39  1  0.73632300  0.24300900  0.13885100  1
  O  O40  1  0.86508100  0.36461800  0.20033300  1
  O  O41  1  0.36461800  0.86508100  0.20033300  1
  O  O42  1  0.00418900  0.48425500  0.26812700  1
  O  O43  1  0.48425500  0.00418900  0.26812700  1
  O  O44  1  0.49572500  0.49572500  0.24371000  1
  O  O45  1  0.00194200  0.00194200  0.23861900  1
  O  O46  1  0.13498800  0.13498800  0.30022600  1
  O  O47  1  0.62656700  0.62656700  0.29949400  1
  O  O48  1  0.26396100  0.26396100  0.36691200  1
  O  O49  1  0.76031300  0.76031300  0.38442900  1
  O  O50  1  0.12304400  0.63251100  0.33080300  1
  O  O51  1  0.63251100  0.12304400  0.33080300  1
  O  O52  1  0.25221800  0.76259500  0.36641200  1
  O  O53  1  0.76259500  0.25221800  0.36641200  1
  O  O54  1  0.88130000  0.39256400  0.42863000  1
  O  O55  1  0.39256400  0.88130000  0.42863000  1
  O  O56  1  0.00000000  0.50000000  0.50000000  1
  O  O57  1  0.50000000  0.00000000  0.50000000  1
  O  O58  1  0.11870000  0.60743600  0.57137000  1
  O  O59  1  0.60743600  0.11870000  0.57137000  1
  O  O60  1  0.74778200  0.23740500  0.63358800  1
  O  O61  1  0.23740500  0.74778200  0.63358800  1
  O  O62  1  0.87695600  0.36748900  0.66919700  1
  O  O63  1  0.36748900  0.87695600  0.66919700  1
  O  O64  1  0.73603900  0.73603900  0.63308800  1
  O  O65  1  0.23968700  0.23968700  0.61557100  1
  O  O66  1  0.86501200  0.86501200  0.69977400  1
  O  O67  1  0.37343300  0.37343300  0.70050600  1
  O  O68  1  0.99805800  0.99805800  0.76138100  1
  O  O69  1  0.50427500  0.50427500  0.75629000  1
  O  O70  1  0.99581100  0.51574500  0.73187300  1
  O  O71  1  0.51574500  0.99581100  0.73187300  1
  O  O72  1  0.63538200  0.13491900  0.79966700  1
  O  O73  1  0.13491900  0.63538200  0.79966700  1
  O  O74  1  0.75699100  0.26367700  0.86114900  1
  O  O75  1  0.26367700  0.75699100  0.86114900  1
  O  O76  1  0.12008700  0.12008700  0.84120500  1
  O  O77  1  0.62805000  0.62805000  0.82986600  1
  O  O78  1  0.75583200  0.75583200  0.86621600  1
  O  O79  1  0.25826900  0.25826900  0.89404900  1
  O  O80  1  0.88194200  0.88194200  0.92904800  1
  O  O81  1  0.39413700  0.39413700  0.92546000  1
