# generated using pymatgen
data_Li4V3Fe3(SbO8)2
_symmetry_space_group_name_H-M   'P 1'
_cell_length_a   5.95466995
_cell_length_b   5.88185817
_cell_length_c   9.77913926
_cell_angle_alpha   89.99526609
_cell_angle_beta   89.42493248
_cell_angle_gamma   119.49221495
_symmetry_Int_Tables_number   1
_chemical_formula_structural   Li4V3Fe3(SbO8)2
_chemical_formula_sum   'Li4 V3 Fe3 Sb2 O16'
_cell_volume   298.10819922
_cell_formula_units_Z   1
loop_
 _symmetry_equiv_pos_site_id
 _symmetry_equiv_pos_as_xyz
  1  'x, y, z'
loop_
 _atom_site_type_symbol
 _atom_site_label
 _atom_site_symmetry_multiplicity
 _atom_site_fract_x
 _atom_site_fract_y
 _atom_site_fract_z
 _atom_site_occupancy
  Li  Li0  1  0.34352800  0.67227000  0.89893000  1
  Li  Li1  1  0.99663700  0.99800800  0.98957200  1
  Li  Li2  1  0.99566200  0.99716700  0.48916900  1
  Li  Li3  1  0.67256000  0.33698900  0.39749500  1
  V  V4  1  0.65506900  0.82756300  0.22349100  1
  V  V5  1  0.82640100  0.64518200  0.71751200  1
  V  V6  1  0.82490900  0.17870400  0.71596800  1
  Fe  Fe7  1  0.16120600  0.81294500  0.20884000  1
  Fe  Fe8  1  0.16135900  0.34819500  0.20893300  1
  Fe  Fe9  1  0.33530600  0.16656700  0.71232700  1
  Sb  Sb10  1  0.33146100  0.66565700  0.48976800  1
  Sb  Sb11  1  0.66063800  0.32992100  0.99288200  1
  O  O12  1  0.15739500  0.83005400  0.59487100  1
  O  O13  1  0.04033300  0.52142100  0.35035600  1
  O  O14  1  0.37650000  0.68948900  0.10609400  1
  O  O15  1  0.97619500  0.98715200  0.29956900  1
  O  O16  1  0.97544200  0.98534800  0.79960000  1
  O  O17  1  0.15604000  0.32610800  0.59404000  1
  O  O18  1  0.49104400  0.96544700  0.34677000  1
  O  O19  1  0.49055800  0.52608000  0.34671500  1
  O  O20  1  0.32597800  0.16217900  0.09340800  1
  O  O21  1  0.66343200  0.83133100  0.59845200  1
  O  O22  1  0.53182000  0.49139900  0.84580600  1
  O  O23  1  0.53260900  0.04115300  0.84511400  1
  O  O24  1  0.68520500  0.34736700  0.60355000  1
  O  O25  1  0.83190400  0.66473500  0.09621600  1
  O  O26  1  0.96812600  0.48577900  0.84662800  1
  O  O27  1  0.83267900  0.16609100  0.09576000  1
