# generated using pymatgen
data_Te6Mo2W
_symmetry_space_group_name_H-M   'P 1'
_cell_length_a   3.55223323
_cell_length_b   3.55223323
_cell_length_c   32.57431000
_cell_angle_alpha   90.00000000
_cell_angle_beta   90.00000000
_cell_angle_gamma   119.99998574
_symmetry_Int_Tables_number   1
_chemical_formula_structural   Te6Mo2W
_chemical_formula_sum   'Te6 Mo2 W1'
_cell_volume   355.96628451
_cell_formula_units_Z   1
loop_
 _symmetry_equiv_pos_site_id
 _symmetry_equiv_pos_as_xyz
  1  'x, y, z'
loop_
 _atom_site_type_symbol
 _atom_site_label
 _atom_site_symmetry_multiplicity
 _atom_site_fract_x
 _atom_site_fract_y
 _atom_site_fract_z
 _atom_site_occupancy
  Te  Te0  1  0.00000000  0.00000000  0.40267800  1
  Te  Te1  1  0.33333300  0.66666700  0.05997100  1
  Te  Te2  1  0.33333300  0.66666700  0.52254200  1
  Te  Te3  1  0.33333300  0.66666700  0.17136400  1
  Te  Te4  1  0.33333300  0.66666700  0.63405900  1
  Te  Te5  1  0.00000000  0.00000000  0.29128600  1
  Mo  Mo6  1  0.00000000  0.00000000  0.11564800  1
  Mo  Mo7  1  0.33333300  0.66666700  0.34697900  1
  W  W8  1  0.00000000  0.00000000  0.57831400  1
