# generated using pymatgen
data_Mn2OF3
_symmetry_space_group_name_H-M   'P 1'
_cell_length_a   5.81309784
_cell_length_b   5.81309784
_cell_length_c   4.85173525
_cell_angle_alpha   86.97630579
_cell_angle_beta   86.97630579
_cell_angle_gamma   66.64752210
_symmetry_Int_Tables_number   1
_chemical_formula_structural   Mn2OF3
_chemical_formula_sum   'Mn4 O2 F6'
_cell_volume   150.21992303
_cell_formula_units_Z   2
loop_
 _symmetry_equiv_pos_site_id
 _symmetry_equiv_pos_as_xyz
  1  'x, y, z'
loop_
 _atom_site_type_symbol
 _atom_site_label
 _atom_site_symmetry_multiplicity
 _atom_site_fract_x
 _atom_site_fract_y
 _atom_site_fract_z
 _atom_site_occupancy
  Mn  Mn0  1  0.00000000  0.50000000  0.50000000  1
  Mn  Mn1  1  0.50000000  0.00000000  0.50000000  1
  Mn  Mn2  1  0.50000000  0.50000000  0.00000000  1
  Mn  Mn3  1  0.00000000  0.00000000  0.00000000  1
  O  O4  1  0.65691100  0.65691100  0.69179100  1
  O  O5  1  0.34308900  0.34308900  0.30820900  1
  F  F6  1  0.64936500  0.15341100  0.80206100  1
  F  F7  1  0.15341100  0.64936500  0.80206100  1
  F  F8  1  0.15080800  0.15080800  0.69305800  1
  F  F9  1  0.84919200  0.84919200  0.30694200  1
  F  F10  1  0.35063500  0.84658900  0.19793900  1
  F  F11  1  0.84658900  0.35063500  0.19793900  1
