# generated using pymatgen
data_TiV3Sn2(PO4)6
_symmetry_space_group_name_H-M   'P 1'
_cell_length_a   9.01225029
_cell_length_b   9.01225029
_cell_length_c   9.01225078
_cell_angle_alpha   57.38759542
_cell_angle_beta   57.38759542
_cell_angle_gamma   57.38760118
_symmetry_Int_Tables_number   1
_chemical_formula_structural   TiV3Sn2(PO4)6
_chemical_formula_sum   'Ti1 V3 Sn2 P6 O24'
_cell_volume   486.47195308
_cell_formula_units_Z   1
loop_
 _symmetry_equiv_pos_site_id
 _symmetry_equiv_pos_as_xyz
  1  'x, y, z'
loop_
 _atom_site_type_symbol
 _atom_site_label
 _atom_site_symmetry_multiplicity
 _atom_site_fract_x
 _atom_site_fract_y
 _atom_site_fract_z
 _atom_site_occupancy
  Ti  Ti0  1  0.14750200  0.14750200  0.14750200  1
  V  V1  1  0.64722700  0.64722700  0.64722700  1
  V  V2  1  0.85141000  0.85141000  0.85141000  1
  V  V3  1  0.35354200  0.35354200  0.35354200  1
  Sn  Sn4  1  0.99661300  0.99661300  0.99661300  1
  Sn  Sn5  1  0.50032700  0.50032700  0.50032700  1
  P  P6  1  0.24990100  0.53719900  0.96446900  1
  P  P7  1  0.96446900  0.24990100  0.53719900  1
  P  P8  1  0.53719900  0.96446900  0.24990100  1
  P  P9  1  0.46167500  0.03667100  0.75099000  1
  P  P10  1  0.03667100  0.75099000  0.46167500  1
  P  P11  1  0.75099000  0.46167500  0.03667100  1
  O  O12  1  0.12582300  0.28917200  0.50752600  1
  O  O13  1  0.50752600  0.12582300  0.28917200  1
  O  O14  1  0.28917200  0.50752600  0.12582300  1
  O  O15  1  0.07692900  0.72131500  0.93943700  1
  O  O16  1  0.20796900  0.37227600  0.00072100  1
  O  O17  1  0.42169100  0.55822300  0.77929100  1
  O  O18  1  0.93943700  0.07692900  0.72131500  1
  O  O19  1  0.77929100  0.42169100  0.55822300  1
  O  O20  1  0.62404200  0.00729500  0.78940200  1
  O  O21  1  0.55822300  0.77929100  0.42169100  1
  O  O22  1  0.27762900  0.06352600  0.92483300  1
  O  O23  1  0.00729500  0.78940200  0.62404200  1
  O  O24  1  0.00072100  0.20796900  0.37227600  1
  O  O25  1  0.72131500  0.93943700  0.07692900  1
  O  O26  1  0.43462100  0.22273300  0.57987800  1
  O  O27  1  0.37227600  0.00072100  0.20796900  1
  O  O28  1  0.22273300  0.57987800  0.43462100  1
  O  O29  1  0.06352600  0.92483300  0.27762900  1
  O  O30  1  0.57987800  0.43462100  0.22273300  1
  O  O31  1  0.78940200  0.62404200  0.00729500  1
  O  O32  1  0.92483300  0.27762900  0.06352600  1
  O  O33  1  0.71338600  0.49016500  0.87457000  1
  O  O34  1  0.49016500  0.87457000  0.71338600  1
  O  O35  1  0.87457000  0.71338600  0.49016500  1
