# generated using pymatgen
data_Li4Ti2Fe3Sn3O16
_symmetry_space_group_name_H-M   'P 1'
_cell_length_a   6.14569061
_cell_length_b   6.11981398
_cell_length_c   9.71552208
_cell_angle_alpha   89.98846993
_cell_angle_beta   89.47525317
_cell_angle_gamma   119.84896779
_symmetry_Int_Tables_number   1
_chemical_formula_structural   Li4Ti2Fe3Sn3O16
_chemical_formula_sum   'Li4 Ti2 Fe3 Sn3 O16'
_cell_volume   316.91287139
_cell_formula_units_Z   1
loop_
 _symmetry_equiv_pos_site_id
 _symmetry_equiv_pos_as_xyz
  1  'x, y, z'
loop_
 _atom_site_type_symbol
 _atom_site_label
 _atom_site_symmetry_multiplicity
 _atom_site_fract_x
 _atom_site_fract_y
 _atom_site_fract_z
 _atom_site_occupancy
  Li  Li0  1  0.34221400  0.67107100  0.89157000  1
  Li  Li1  1  0.98090200  0.99076500  0.98835200  1
  Li  Li2  1  0.98513800  0.99236700  0.49971500  1
  Li  Li3  1  0.66511700  0.33293000  0.39870400  1
  Ti  Ti4  1  0.35135900  0.67497100  0.50103100  1
  Ti  Ti5  1  0.69911200  0.34961500  0.98284500  1
  Fe  Fe6  1  0.65588900  0.82938300  0.21814800  1
  Fe  Fe7  1  0.83131700  0.65415400  0.71542800  1
  Fe  Fe8  1  0.83141900  0.17719000  0.71552500  1
  Sn  Sn9  1  0.16958000  0.83030900  0.21350200  1
  Sn  Sn10  1  0.17023800  0.33966400  0.21386400  1
  Sn  Sn11  1  0.34256700  0.17100500  0.71319900  1
  O  O12  1  0.17137700  0.83092700  0.59323900  1
  O  O13  1  0.02929900  0.51540700  0.34148000  1
  O  O14  1  0.34084800  0.66999200  0.09769700  1
  O  O15  1  0.98953700  0.99485900  0.31253700  1
  O  O16  1  0.99489100  0.99721900  0.80195600  1
  O  O17  1  0.17107400  0.34024800  0.59337600  1
  O  O18  1  0.47687300  0.95552900  0.34615100  1
  O  O19  1  0.47569800  0.52006500  0.34694300  1
  O  O20  1  0.32407800  0.16155400  0.09467000  1
  O  O21  1  0.65030100  0.82496100  0.59248700  1
  O  O22  1  0.52582700  0.48051000  0.84732300  1
  O  O23  1  0.52620400  0.04533800  0.84749200  1
  O  O24  1  0.67263700  0.33632800  0.60197500  1
  O  O25  1  0.83213300  0.66153500  0.09283600  1
  O  O26  1  0.96185000  0.48083900  0.85289000  1
  O  O27  1  0.83252100  0.17156300  0.09290300  1
