# generated using pymatgen
data_Ti3Fe2Te(PO4)6
_symmetry_space_group_name_H-M   'P 1'
_cell_length_a   8.64726101
_cell_length_b   8.64726101
_cell_length_c   8.64726146
_cell_angle_alpha   61.30084732
_cell_angle_beta   61.30084732
_cell_angle_gamma   61.30085330
_symmetry_Int_Tables_number   1
_chemical_formula_structural   Ti3Fe2Te(PO4)6
_chemical_formula_sum   'Ti3 Fe2 Te1 P6 O24'
_cell_volume   470.58481012
_cell_formula_units_Z   1
loop_
 _symmetry_equiv_pos_site_id
 _symmetry_equiv_pos_as_xyz
  1  'x, y, z'
loop_
 _atom_site_type_symbol
 _atom_site_label
 _atom_site_symmetry_multiplicity
 _atom_site_fract_x
 _atom_site_fract_y
 _atom_site_fract_z
 _atom_site_occupancy
  Ti  Ti0  1  0.85589900  0.85589900  0.85589900  1
  Ti  Ti1  1  0.64479500  0.64479500  0.64479500  1
  Ti  Ti2  1  0.35701700  0.35701700  0.35701700  1
  Fe  Fe3  1  0.99648000  0.99648000  0.99648000  1
  Fe  Fe4  1  0.50047700  0.50047700  0.50047700  1
  Te  Te5  1  0.14540000  0.14540000  0.14540000  1
  P  P6  1  0.74309500  0.46217400  0.04311500  1
  P  P7  1  0.46217400  0.04311500  0.74309500  1
  P  P8  1  0.04311500  0.74309500  0.46217400  1
  P  P9  1  0.95074400  0.25267600  0.55392300  1
  P  P10  1  0.55392300  0.95074400  0.25267600  1
  P  P11  1  0.25267600  0.55392300  0.95074400  1
  O  O12  1  0.88879900  0.67187200  0.50921300  1
  O  O13  1  0.67187200  0.50921300  0.88879900  1
  O  O14  1  0.93748400  0.09266900  0.74446000  1
  O  O15  1  0.50921300  0.88879900  0.67187200  1
  O  O16  1  0.97689500  0.18525600  0.40318800  1
  O  O17  1  0.75784700  0.41007800  0.56945300  1
  O  O18  1  0.74446000  0.93748400  0.09266900  1
  O  O19  1  0.56945300  0.75784700  0.41007800  1
  O  O20  1  0.81746300  0.61272000  0.00077600  1
  O  O21  1  0.41007800  0.56945300  0.75784700  1
  O  O22  1  0.89794900  0.26447700  0.05182100  1
  O  O23  1  0.61272000  0.00077600  0.81746300  1
  O  O24  1  0.40318800  0.97689500  0.18525600  1
  O  O25  1  0.09266900  0.74446000  0.93748400  1
  O  O26  1  0.58872500  0.44584700  0.23809100  1
  O  O27  1  0.18525600  0.40318800  0.97689500  1
  O  O28  1  0.44584700  0.23809100  0.58872500  1
  O  O29  1  0.26447700  0.05182100  0.89794900  1
  O  O30  1  0.23809100  0.58872500  0.44584700  1
  O  O31  1  0.00077600  0.81746300  0.61272000  1
  O  O32  1  0.50241500  0.11374600  0.31296200  1
  O  O33  1  0.05182100  0.89794900  0.26447700  1
  O  O34  1  0.31296200  0.50241500  0.11374600  1
  O  O35  1  0.11374600  0.31296200  0.50241500  1
