# generated using pymatgen
data_Ti3MnFe2(PO4)6
_symmetry_space_group_name_H-M   'P 1'
_cell_length_a   8.57079413
_cell_length_b   8.57079413
_cell_length_c   8.57079320
_cell_angle_alpha   61.18992963
_cell_angle_beta   61.18992963
_cell_angle_gamma   61.18993207
_symmetry_Int_Tables_number   1
_chemical_formula_structural   Ti3MnFe2(PO4)6
_chemical_formula_sum   'Ti3 Mn1 Fe2 P6 O24'
_cell_volume   457.10989942
_cell_formula_units_Z   1
loop_
 _symmetry_equiv_pos_site_id
 _symmetry_equiv_pos_as_xyz
  1  'x, y, z'
loop_
 _atom_site_type_symbol
 _atom_site_label
 _atom_site_symmetry_multiplicity
 _atom_site_fract_x
 _atom_site_fract_y
 _atom_site_fract_z
 _atom_site_occupancy
  Ti  Ti0  1  0.85701800  0.85701800  0.85701800  1
  Ti  Ti1  1  0.64521900  0.64521900  0.64521900  1
  Ti  Ti2  1  0.35402300  0.35402300  0.35402300  1
  Mn  Mn3  1  0.14315800  0.14315800  0.14315800  1
  Fe  Fe4  1  0.00289900  0.00289900  0.00289900  1
  Fe  Fe5  1  0.50136200  0.50136200  0.50136200  1
  P  P6  1  0.95190400  0.24779500  0.54750800  1
  P  P7  1  0.54750800  0.95190400  0.24779500  1
  P  P8  1  0.74507300  0.46007400  0.04391200  1
  P  P9  1  0.46007400  0.04391200  0.74507300  1
  P  P10  1  0.04391200  0.74507300  0.46007400  1
  P  P11  1  0.24779500  0.54750800  0.95190400  1
  O  O12  1  0.88734100  0.66613900  0.52077100  1
  O  O13  1  0.66613900  0.52077100  0.88734100  1
  O  O14  1  0.94182200  0.09006600  0.74472200  1
  O  O15  1  0.52077100  0.88734100  0.66613900  1
  O  O16  1  0.97832900  0.18392600  0.39986200  1
  O  O17  1  0.75871700  0.41161300  0.57175200  1
  O  O18  1  0.74472200  0.94182200  0.09006600  1
  O  O19  1  0.57175200  0.75871700  0.41161300  1
  O  O20  1  0.81410400  0.62108700  0.99688800  1
  O  O21  1  0.41161300  0.57175200  0.75871700  1
  O  O22  1  0.89663700  0.26796100  0.04715700  1
  O  O23  1  0.62108700  0.99688800  0.81410400  1
  O  O24  1  0.39986200  0.97832900  0.18392600  1
  O  O25  1  0.09006600  0.74472200  0.94182200  1
  O  O26  1  0.58574000  0.44882700  0.23909800  1
  O  O27  1  0.18392600  0.39986200  0.97832900  1
  O  O28  1  0.44882700  0.23909800  0.58574000  1
  O  O29  1  0.26796100  0.04715700  0.89663700  1
  O  O30  1  0.23909800  0.58574000  0.44882700  1
  O  O31  1  0.99688800  0.81410400  0.62108700  1
  O  O32  1  0.49546100  0.12012000  0.31191300  1
  O  O33  1  0.04715700  0.89663700  0.26796100  1
  O  O34  1  0.31191300  0.49546100  0.12012000  1
  O  O35  1  0.12012000  0.31191300  0.49546100  1
