# generated using pymatgen
data_Li6MnV3(PO4)6
_symmetry_space_group_name_H-M   'P 1'
_cell_length_a   9.06761078
_cell_length_b   8.48538042
_cell_length_c   14.64649091
_cell_angle_alpha   90.46677389
_cell_angle_beta   73.97662815
_cell_angle_gamma   62.10339497
_symmetry_Int_Tables_number   1
_chemical_formula_structural   Li6MnV3(PO4)6
_chemical_formula_sum   'Li12 Mn2 V6 P12 O48'
_cell_volume   944.69441787
_cell_formula_units_Z   2
loop_
 _symmetry_equiv_pos_site_id
 _symmetry_equiv_pos_as_xyz
  1  'x, y, z'
loop_
 _atom_site_type_symbol
 _atom_site_label
 _atom_site_symmetry_multiplicity
 _atom_site_fract_x
 _atom_site_fract_y
 _atom_site_fract_z
 _atom_site_occupancy
  Li  Li0  1  0.15016200  0.25523500  0.33182100  1
  Li  Li1  1  0.14895900  0.79600200  0.13138200  1
  Li  Li2  1  0.15137100  0.29423200  0.63115200  1
  Li  Li3  1  0.14995700  0.72482900  0.46101600  1
  Li  Li4  1  0.15013500  0.22596300  0.96124200  1
  Li  Li5  1  0.14940900  0.75501600  0.83199200  1
  Li  Li6  1  0.84983800  0.24476500  0.16817900  1
  Li  Li7  1  0.85004300  0.77517100  0.03898400  1
  Li  Li8  1  0.84986500  0.27403700  0.53875800  1
  Li  Li9  1  0.85104100  0.70399800  0.36861800  1
  Li  Li10  1  0.84862900  0.20576800  0.86884800  1
  Li  Li11  1  0.85059100  0.74498400  0.66800800  1
  Mn  Mn12  1  0.56065900  0.22330200  0.07271400  1
  Mn  Mn13  1  0.43934100  0.27669800  0.42728600  1
  V  V14  1  0.04629800  0.97602100  0.32610700  1
  V  V15  1  0.04515100  0.47802000  0.82574300  1
  V  V16  1  0.56577600  0.71816300  0.57156800  1
  V  V17  1  0.43422400  0.78183700  0.92843200  1
  V  V18  1  0.95370200  0.52397900  0.17389300  1
  V  V19  1  0.95484900  0.02198000  0.67425700  1
  P  P20  1  0.25092100  0.08483200  0.12532300  1
  P  P21  1  0.25122200  0.01865400  0.47919600  1
  P  P22  1  0.24917200  0.52197200  0.26920200  1
  P  P23  1  0.25021900  0.02053600  0.77010200  1
  P  P24  1  0.25234600  0.58372500  0.62390000  1
  P  P25  1  0.25014100  0.52130300  0.97797100  1
  P  P26  1  0.74877800  0.48134600  0.02080400  1
  P  P27  1  0.74907900  0.41516800  0.37467700  1
  P  P28  1  0.75082800  0.97802800  0.23079900  1
  P  P29  1  0.74978100  0.47946400  0.72989800  1
  P  P30  1  0.74985900  0.97869700  0.52202900  1
  P  P31  1  0.74765400  0.91627500  0.87610000  1
  O  O32  1  0.09862900  0.25922000  0.10454800  1
  O  O33  1  0.19123400  0.06729900  0.23323400  1
  O  O34  1  0.09656400  0.61614700  0.07749900  1
  O  O35  1  0.09732000  0.11549300  0.57813600  1
  O  O36  1  0.09891000  0.47725000  0.26671700  1
  O  O37  1  0.42173300  0.09012300  0.09922400  1
  O  O38  1  0.26355100  0.17679000  0.43172700  1
  O  O39  1  0.19375500  0.71933700  0.25097400  1
  O  O40  1  0.19456600  0.21801500  0.75317000  1
  O  O41  1  0.26135100  0.50322000  0.37143700  1
  O  O42  1  0.42379800  0.39062800  0.19298200  1
  O  O43  1  0.09823600  0.75737300  0.60445800  1
  O  O44  1  0.26507300  0.92650000  0.06214400  1
  O  O45  1  0.26976400  0.42358200  0.55977400  1
  O  O46  1  0.57620200  0.10937200  0.30701800  1
  O  O47  1  0.19393200  0.56520900  0.73132900  1
  O  O48  1  0.19326000  0.92295800  0.41684200  1
  O  O49  1  0.18976600  0.42670500  0.91586500  1
  O  O50  1  0.73864900  0.99678000  0.12856300  1
  O  O51  1  0.58021000  0.61489100  0.00291500  1
  O  O52  1  0.58079400  0.11322800  0.50680300  1
  O  O53  1  0.09691000  0.97864800  0.76882100  1
  O  O54  1  0.73644900  0.32321000  0.06827300  1
  O  O55  1  0.57826700  0.40987700  0.40077600  1
  O  O56  1  0.42082300  0.59321700  0.59867400  1
  O  O57  1  0.26246300  0.67998700  0.93145900  1
  O  O58  1  0.90109000  0.02275000  0.23328300  1
  O  O59  1  0.41979000  0.88510900  0.49708500  1
  O  O60  1  0.41920600  0.38677200  0.99319700  1
  O  O61  1  0.26551000  0.99839300  0.87259400  1
  O  O62  1  0.80674000  0.57704200  0.08315800  1
  O  O63  1  0.81023400  0.07329500  0.58413500  1
  O  O64  1  0.80876600  0.43270100  0.26676600  1
  O  O65  1  0.42045900  0.89025500  0.69359300  1
  O  O66  1  0.73492700  0.57350000  0.43785600  1
  O  O67  1  0.73023600  0.07641800  0.94022600  1
  O  O68  1  0.90137100  0.24078000  0.39545200  1
  O  O69  1  0.57954100  0.60974500  0.80640700  1
  O  O70  1  0.73449000  0.50160700  0.62740600  1
  O  O71  1  0.80624500  0.78066300  0.24902600  1
  O  O72  1  0.80543400  0.28198500  0.74683000  1
  O  O73  1  0.73753700  0.82001300  0.56854100  1
  O  O74  1  0.57917700  0.90678300  0.90132600  1
  O  O75  1  0.90309000  0.52135200  0.73117900  1
  O  O76  1  0.90343600  0.88385300  0.42250100  1
  O  O77  1  0.90268000  0.38450700  0.92186400  1
  O  O78  1  0.80606800  0.93479100  0.76867100  1
  O  O79  1  0.90176400  0.74262700  0.89554200  1
