# generated using pymatgen
data_AgBiO3
_symmetry_space_group_name_H-M   'P 1'
_cell_length_a   6.77314519
_cell_length_b   6.77314519
_cell_length_c   3.52090400
_cell_angle_alpha   90.00000000
_cell_angle_beta   90.00000000
_cell_angle_gamma   106.97232313
_symmetry_Int_Tables_number   1
_chemical_formula_structural   AgBiO3
_chemical_formula_sum   'Ag2 Bi2 O6'
_cell_volume   154.48821400
_cell_formula_units_Z   2
loop_
 _symmetry_equiv_pos_site_id
 _symmetry_equiv_pos_as_xyz
  1  'x, y, z'
loop_
 _atom_site_type_symbol
 _atom_site_label
 _atom_site_symmetry_multiplicity
 _atom_site_fract_x
 _atom_site_fract_y
 _atom_site_fract_z
 _atom_site_occupancy
  Ag  Ag0  1  0.00000000  0.00000000  0.00000000  1
  Ag  Ag1  1  0.50000000  0.50000000  0.00000000  1
  Bi  Bi2  1  0.00000000  0.50000000  0.50000000  1
  Bi  Bi3  1  0.50000000  0.00000000  0.50000000  1
  O  O4  1  0.04675100  0.31163900  0.00000000  1
  O  O5  1  0.31163900  0.04675100  0.00000000  1
  O  O6  1  0.35748800  0.64251200  0.50000000  1
  O  O7  1  0.64251200  0.35748800  0.50000000  1
  O  O8  1  0.95324900  0.68836100  0.00000000  1
  O  O9  1  0.68836100  0.95324900  0.00000000  1
