# generated using pymatgen
data_Li5TiMn9O20
_symmetry_space_group_name_H-M   'P 1'
_cell_length_a   5.79943457
_cell_length_b   5.79857525
_cell_length_c   23.90658115
_cell_angle_alpha   89.84437043
_cell_angle_beta   97.04773164
_cell_angle_gamma   120.08419086
_symmetry_Int_Tables_number   1
_chemical_formula_structural   Li5TiMn9O20
_chemical_formula_sum   'Li10 Ti2 Mn18 O40'
_cell_volume   688.76661790
_cell_formula_units_Z   2
loop_
 _symmetry_equiv_pos_site_id
 _symmetry_equiv_pos_as_xyz
  1  'x, y, z'
loop_
 _atom_site_type_symbol
 _atom_site_label
 _atom_site_symmetry_multiplicity
 _atom_site_fract_x
 _atom_site_fract_y
 _atom_site_fract_z
 _atom_site_occupancy
  Li  Li0  1  0.99455800  0.00276000  0.99891700  1
  Li  Li1  1  0.70188900  0.34736600  0.04953600  1
  Li  Li2  1  0.50568200  0.74740100  0.25084300  1
  Li  Li3  1  0.79961400  0.40150200  0.20052900  1
  Li  Li4  1  0.60135900  0.79453400  0.39927900  1
  Li  Li5  1  0.29874500  0.14770600  0.45047400  1
  Li  Li6  1  0.10082900  0.55206400  0.65066800  1
  Li  Li7  1  0.40093300  0.20060600  0.59859900  1
  Li  Li8  1  0.19694200  0.60087000  0.79906900  1
  Li  Li9  1  0.89868000  0.95361000  0.85036000  1
  Ti  Ti10  1  0.25127200  0.87512400  0.12506000  1
  Ti  Ti11  1  0.75172800  0.87690000  0.62448400  1
  Mn  Mn12  1  0.34961100  0.67297000  0.02447700  1
  Mn  Mn13  1  0.25031400  0.37422200  0.12500900  1
  Mn  Mn14  1  0.05346100  0.77158500  0.32479000  1
  Mn  Mn15  1  0.75028800  0.87403800  0.12505700  1
  Mn  Mn16  1  0.15016800  0.07555600  0.22570300  1
  Mn  Mn17  1  0.05332400  0.27150000  0.32539400  1
  Mn  Mn18  1  0.55245400  0.27048800  0.32475100  1
  Mn  Mn19  1  0.34728000  0.67355000  0.52371000  1
  Mn  Mn20  1  0.84919000  0.67300300  0.52354300  1
  Mn  Mn21  1  0.95001700  0.47179900  0.42422000  1
  Mn  Mn22  1  0.64837100  0.57477700  0.72545900  1
  Mn  Mn23  1  0.15073400  0.07682600  0.72551600  1
  Mn  Mn24  1  0.44643700  0.97728800  0.92511500  1
  Mn  Mn25  1  0.84942100  0.17547000  0.52372400  1
  Mn  Mn26  1  0.44650800  0.47759300  0.92449700  1
  Mn  Mn27  1  0.64845800  0.07632300  0.72561400  1
  Mn  Mn28  1  0.54836200  0.27732500  0.82539900  1
  Mn  Mn29  1  0.94695700  0.47803800  0.92505700  1
  O  O30  1  0.08396700  0.53670100  0.07695000  1
  O  O31  1  0.53978200  0.99173500  0.07670300  1
  O  O32  1  0.33549900  0.94100300  0.27725600  1
  O  O33  1  0.53431200  0.54278900  0.07755600  1
  O  O34  1  0.44881800  0.71871100  0.16824600  1
  O  O35  1  0.05177800  0.02969900  0.08181400  1
  O  O36  1  0.21511100  0.60300800  0.37227000  1
  O  O37  1  0.41693800  0.21223100  0.17334100  1
  O  O38  1  0.96146100  0.75685300  0.17343500  1
  O  O39  1  0.88986100  0.94061500  0.27812000  1
  O  O40  1  0.33737100  0.38806900  0.27803700  1
  O  O41  1  0.13181000  0.78742000  0.47639800  1
  O  O42  1  0.13374500  0.34248400  0.47706300  1
  O  O43  1  0.04373700  0.52172000  0.56624500  1
  O  O44  1  0.24744300  0.11853900  0.36703200  1
  O  O45  1  0.96590900  0.20581800  0.17244000  1
  O  O46  1  0.76759800  0.60241400  0.37152900  1
  O  O47  1  0.85932000  0.42305700  0.28305400  1
  O  O48  1  0.65423100  0.82706800  0.48208200  1
  O  O49  1  0.01813600  0.00863800  0.57051900  1
  O  O50  1  0.76733200  0.15498400  0.37228700  1
  O  O51  1  0.36541100  0.96180000  0.77274600  1
  O  O52  1  0.56226600  0.55396400  0.57079700  1
  O  O53  1  0.68673100  0.34267700  0.47662100  1
  O  O54  1  0.48240000  0.74243800  0.67835800  1
  O  O55  1  0.84339600  0.92264200  0.76707000  1
  O  O56  1  0.93707600  0.74193000  0.67857500  1
  O  O57  1  0.25191400  0.63089500  0.88287700  1
  O  O58  1  0.56116400  0.00835700  0.57064200  1
  O  O59  1  0.45468700  0.22868500  0.68292100  1
  O  O60  1  0.36407400  0.40745200  0.77235400  1
  O  O61  1  0.16397500  0.80764400  0.97281300  1
  O  O62  1  0.81031100  0.40663200  0.77262600  1
  O  O63  1  0.60960100  0.80776800  0.97187000  1
  O  O64  1  0.16295100  0.36087000  0.97179800  1
  O  O65  1  0.28443000  0.14627500  0.87764900  1
  O  O66  1  0.93663200  0.19727800  0.67849000  1
  O  O67  1  0.73146500  0.59351000  0.87763200  1
  O  O68  1  0.73166300  0.14647000  0.87807200  1
  O  O69  1  0.64090100  0.32528300  0.96689000  1
