# generated using pymatgen
data_CoSb3(PO4)6
_symmetry_space_group_name_H-M   'P 1'
_cell_length_a   8.82811531
_cell_length_b   8.82811531
_cell_length_c   8.82811578
_cell_angle_alpha   58.00566635
_cell_angle_beta   58.00566635
_cell_angle_gamma   58.00566592
_symmetry_Int_Tables_number   1
_chemical_formula_structural   CoSb3(PO4)6
_chemical_formula_sum   'Co1 Sb3 P6 O24'
_cell_volume   464.25100345
_cell_formula_units_Z   1
loop_
 _symmetry_equiv_pos_site_id
 _symmetry_equiv_pos_as_xyz
  1  'x, y, z'
loop_
 _atom_site_type_symbol
 _atom_site_label
 _atom_site_symmetry_multiplicity
 _atom_site_fract_x
 _atom_site_fract_y
 _atom_site_fract_z
 _atom_site_occupancy
  Co  Co0  1  0.14408300  0.14408300  0.14408300  1
  Sb  Sb1  1  0.85686300  0.85686300  0.85686300  1
  Sb  Sb2  1  0.64352600  0.64352600  0.64352600  1
  Sb  Sb3  1  0.35671200  0.35671200  0.35671200  1
  P  P4  1  0.52971200  0.96488300  0.24791800  1
  P  P5  1  0.24791800  0.52971200  0.96488300  1
  P  P6  1  0.96488300  0.24791800  0.52971200  1
  P  P7  1  0.04030000  0.75830600  0.45440900  1
  P  P8  1  0.75830600  0.45440900  0.04030000  1
  P  P9  1  0.45440900  0.04030000  0.75830600  1
  O  O10  1  0.48528500  0.86792900  0.72448600  1
  O  O11  1  0.86792900  0.72448600  0.48528500  1
  O  O12  1  0.71949400  0.94032200  0.07665700  1
  O  O13  1  0.72448600  0.48528500  0.86792900  1
  O  O14  1  0.55928200  0.78139200  0.42349200  1
  O  O15  1  0.36139900  0.98994600  0.22307600  1
  O  O16  1  0.07665700  0.71949400  0.94032200  1
  O  O17  1  0.42349200  0.55928200  0.78139200  1
  O  O18  1  0.78139200  0.42349200  0.55928200  1
  O  O19  1  0.01490700  0.77080900  0.63650400  1
  O  O20  1  0.06069500  0.92991300  0.27822600  1
  O  O21  1  0.77080900  0.63650400  0.01490700  1
  O  O22  1  0.22307600  0.36139900  0.98994600  1
  O  O23  1  0.94032200  0.07665700  0.71949400  1
  O  O24  1  0.98994600  0.22307600  0.36139900  1
  O  O25  1  0.21791400  0.57424700  0.44310500  1
  O  O26  1  0.57424700  0.44310500  0.21791400  1
  O  O27  1  0.92991300  0.27822600  0.06069500  1
  O  O28  1  0.63650400  0.01490700  0.77080900  1
  O  O29  1  0.44310500  0.21791400  0.57424700  1
  O  O30  1  0.27499100  0.51644100  0.13277400  1
  O  O31  1  0.27822600  0.06069500  0.92991300  1
  O  O32  1  0.13277400  0.27499100  0.51644100  1
  O  O33  1  0.51644100  0.13277400  0.27499100  1
