# generated using pymatgen
data_MnNb4O12
_symmetry_space_group_name_H-M   'P 1'
_cell_length_a   7.68108031
_cell_length_b   9.08301280
_cell_length_c   14.30221999
_cell_angle_alpha   77.90636676
_cell_angle_beta   98.73450423
_cell_angle_gamma   112.61364216
_symmetry_Int_Tables_number   1
_chemical_formula_structural   MnNb4O12
_chemical_formula_sum   'Mn4 Nb16 O48'
_cell_volume   897.85693090
_cell_formula_units_Z   4
loop_
 _symmetry_equiv_pos_site_id
 _symmetry_equiv_pos_as_xyz
  1  'x, y, z'
loop_
 _atom_site_type_symbol
 _atom_site_label
 _atom_site_symmetry_multiplicity
 _atom_site_fract_x
 _atom_site_fract_y
 _atom_site_fract_z
 _atom_site_occupancy
  Mn  Mn0  1  0.94977800  0.31699800  0.97637000  1
  Mn  Mn1  1  0.44973300  0.06695700  0.22648200  1
  Mn  Mn2  1  0.44966200  0.56692600  0.72640000  1
  Mn  Mn3  1  0.94974100  0.81690700  0.47632900  1
  Nb  Nb4  1  0.99984000  0.98740700  0.98996700  1
  Nb  Nb5  1  0.49979600  0.23751800  0.73997200  1
  Nb  Nb6  1  0.49974100  0.73752100  0.23997200  1
  Nb  Nb7  1  0.99983400  0.48736000  0.48998500  1
  Nb  Nb8  1  0.23607200  0.63898000  0.87291200  1
  Nb  Nb9  1  0.73609700  0.88888500  0.62298700  1
  Nb  Nb10  1  0.73605300  0.38888300  0.12298700  1
  Nb  Nb11  1  0.23603000  0.13895700  0.37293100  1
  Nb  Nb12  1  0.24686900  0.36973500  0.12895600  1
  Nb  Nb13  1  0.74703200  0.61986700  0.87896400  1
  Nb  Nb14  1  0.74705000  0.11982800  0.37899400  1
  Nb  Nb15  1  0.24684200  0.86974200  0.62894500  1
  Nb  Nb16  1  0.50936600  0.00798600  0.99313200  1
  Nb  Nb17  1  0.00922000  0.25784100  0.74322000  1
  Nb  Nb18  1  0.00922800  0.75788000  0.24318200  1
  Nb  Nb19  1  0.50934600  0.50797900  0.49311700  1
  O  O20  1  0.71803800  0.69170700  0.72305300  1
  O  O21  1  0.21833100  0.94176600  0.47293300  1
  O  O22  1  0.21835000  0.44178200  0.97293900  1
  O  O23  1  0.71808300  0.19174300  0.22305500  1
  O  O24  1  0.90079200  0.83083600  0.89344500  1
  O  O25  1  0.40096200  0.08037600  0.64384300  1
  O  O26  1  0.40097000  0.58039000  0.14384600  1
  O  O27  1  0.90073200  0.33080200  0.39346400  1
  O  O28  1  0.25201800  0.05997400  0.97342500  1
  O  O29  1  0.75183800  0.30956000  0.72322800  1
  O  O30  1  0.75180700  0.80956600  0.22326600  1
  O  O31  1  0.25203700  0.55998700  0.47344700  1
  O  O32  1  0.93707700  0.51895900  0.88663000  1
  O  O33  1  0.43693700  0.76879000  0.63688800  1
  O  O34  1  0.43703500  0.26880700  0.13690200  1
  O  O35  1  0.93709800  0.01892200  0.38664800  1
  O  O36  1  0.50158100  0.08867700  0.85084700  1
  O  O37  1  0.00127600  0.33846400  0.60087700  1
  O  O38  1  0.00125200  0.83847500  0.10086900  1
  O  O39  1  0.50158500  0.58867900  0.35083800  1
  O  O40  1  0.31083900  0.78437600  0.95407000  1
  O  O41  1  0.81110600  0.03415800  0.70419400  1
  O  O42  1  0.81111000  0.53416400  0.20419000  1
  O  O43  1  0.31084900  0.28436000  0.45407700  1
  O  O44  1  0.69182300  0.22834700  0.00904200  1
  O  O45  1  0.19129100  0.47823600  0.75891000  1
  O  O46  1  0.19131500  0.97824200  0.25893000  1
  O  O47  1  0.69180800  0.72833300  0.50903500  1
  O  O48  1  0.44992300  0.94435500  0.13371300  1
  O  O49  1  0.94959400  0.19320600  0.88390500  1
  O  O50  1  0.94954800  0.69316100  0.38388100  1
  O  O51  1  0.44990400  0.44427300  0.63368800  1
  O  O52  1  0.98894100  0.42332600  0.08931700  1
  O  O53  1  0.48857300  0.67296100  0.83902600  1
  O  O54  1  0.48862500  0.17296500  0.33908900  1
  O  O55  1  0.98890000  0.92327600  0.58928000  1
  O  O56  1  0.69388900  0.92625800  0.99956600  1
  O  O57  1  0.19359100  0.17613400  0.74915000  1
  O  O58  1  0.19363000  0.67616400  0.24917000  1
  O  O59  1  0.69388700  0.42625800  0.49957000  1
  O  O60  1  0.02782600  0.16856300  0.06595600  1
  O  O61  1  0.52832100  0.41852900  0.81607600  1
  O  O62  1  0.52842500  0.91859700  0.31616800  1
  O  O63  1  0.02780900  0.66852900  0.56594700  1
  O  O64  1  0.17457600  0.27985100  0.25387100  1
  O  O65  1  0.67499200  0.53022100  0.00395800  1
  O  O66  1  0.67498000  0.03021500  0.50398200  1
  O  O67  1  0.17460000  0.77983200  0.75388300  1
