# generated using pymatgen
data_CrBiO4
_symmetry_space_group_name_H-M   'P 1'
_cell_length_a   6.14323713
_cell_length_b   6.14323713
_cell_length_c   6.14323713
_cell_angle_alpha   106.03681455
_cell_angle_beta   106.03681455
_cell_angle_gamma   116.58276592
_symmetry_Int_Tables_number   1
_chemical_formula_structural   CrBiO4
_chemical_formula_sum   'Cr2 Bi2 O8'
_cell_volume   176.38533475
_cell_formula_units_Z   2
loop_
 _symmetry_equiv_pos_site_id
 _symmetry_equiv_pos_as_xyz
  1  'x, y, z'
loop_
 _atom_site_type_symbol
 _atom_site_label
 _atom_site_symmetry_multiplicity
 _atom_site_fract_x
 _atom_site_fract_y
 _atom_site_fract_z
 _atom_site_occupancy
  Cr  Cr0  1  0.75000000  0.25000000  0.50000000  1
  Cr  Cr1  1  0.50000000  0.50000000  0.00000000  1
  Bi  Bi2  1  0.00000000  0.00000000  0.00000000  1
  Bi  Bi3  1  0.25000000  0.75000000  0.50000000  1
  O  O4  1  0.92239700  0.60162300  0.67922500  1
  O  O5  1  0.39837700  0.07760300  0.32077500  1
  O  O6  1  0.92239700  0.24317200  0.32077500  1
  O  O7  1  0.75682800  0.07760300  0.67922500  1
  O  O8  1  0.49317200  0.67239700  0.82077500  1
  O  O9  1  0.32760300  0.50682800  0.17922500  1
  O  O10  1  0.85162300  0.67239700  0.17922500  1
  O  O11  1  0.32760300  0.14837700  0.82077500  1
