# generated using pymatgen
data_Li7V6(OF)12
_symmetry_space_group_name_H-M   'P 1'
_cell_length_a   4.94772061
_cell_length_b   7.54699175
_cell_length_c   22.18021280
_cell_angle_alpha   84.15610301
_cell_angle_beta   90.28301003
_cell_angle_gamma   90.38902860
_symmetry_Int_Tables_number   1
_chemical_formula_structural   Li7V6(OF)12
_chemical_formula_sum   'Li14 V12 O24 F24'
_cell_volume   823.88740519
_cell_formula_units_Z   2
loop_
 _symmetry_equiv_pos_site_id
 _symmetry_equiv_pos_as_xyz
  1  'x, y, z'
loop_
 _atom_site_type_symbol
 _atom_site_label
 _atom_site_symmetry_multiplicity
 _atom_site_fract_x
 _atom_site_fract_y
 _atom_site_fract_z
 _atom_site_occupancy
  Li  Li0  1  0.74401000  0.52195000  0.12280300  1
  Li  Li1  1  0.76031100  0.02901100  0.12381500  1
  Li  Li2  1  0.25389500  0.64050900  0.21203300  1
  Li  Li3  1  0.25950900  0.12820200  0.20200700  1
  Li  Li4  1  0.23621900  0.23207200  0.30640700  1
  Li  Li5  1  0.75556300  0.67956200  0.45861700  1
  Li  Li6  1  0.74248300  0.20682100  0.45595800  1
  Li  Li7  1  0.26593500  0.78980500  0.53658100  1
  Li  Li8  1  0.25768800  0.31213600  0.54446000  1
  Li  Li9  1  0.23450600  0.89538100  0.64032600  1
  Li  Li10  1  0.74630400  0.87055100  0.78331900  1
  Li  Li11  1  0.75992900  0.35795500  0.78944700  1
  Li  Li12  1  0.25278600  0.98127000  0.87276300  1
  Li  Li13  1  0.22427100  0.54135500  0.95243600  1
  V  V14  1  0.23021500  0.78413400  0.05573500  1
  V  V15  1  0.27097100  0.27938200  0.05283000  1
  V  V16  1  0.76265500  0.88388700  0.27964100  1
  V  V17  1  0.73076400  0.39015200  0.27881900  1
  V  V18  1  0.26085400  0.93801300  0.38743100  1
  V  V19  1  0.22296400  0.46047000  0.38880000  1
  V  V20  1  0.76759800  0.55048500  0.61396400  1
  V  V21  1  0.73189900  0.05790700  0.61199500  1
  V  V22  1  0.26533000  0.60378300  0.72301700  1
  V  V23  1  0.22265400  0.12700900  0.72202800  1
  V  V24  1  0.72888200  0.72939700  0.94724100  1
  V  V25  1  0.76162400  0.21252500  0.94531900  1
  O  O26  1  0.95113400  0.68855700  0.01391800  1
  O  O27  1  0.11466800  0.98765700  0.06153200  1
  O  O28  1  0.56096000  0.19029700  0.01350000  1
  O  O29  1  0.38479400  0.48508600  0.05902900  1
  O  O30  1  0.88192600  0.68061500  0.27208900  1
  O  O31  1  0.06112600  0.98391300  0.31912500  1
  O  O32  1  0.59477300  0.18528800  0.27048900  1
  O  O33  1  0.43172400  0.47792100  0.32375200  1
  O  O34  1  0.55842400  0.85192700  0.34394800  1
  O  O35  1  0.94944800  0.35608900  0.35124400  1
  O  O36  1  0.10865700  0.66659800  0.39519700  1
  O  O37  1  0.38715800  0.14131500  0.39263400  1
  O  O38  1  0.59491300  0.85335800  0.60445700  1
  O  O39  1  0.88210300  0.34603800  0.60583000  1
  O  O40  1  0.06312200  0.64789200  0.65336400  1
  O  O41  1  0.43298500  0.14637200  0.65790700  1
  O  O42  1  0.55902100  0.51951500  0.67767000  1
  O  O43  1  0.38726300  0.80935800  0.72692700  1
  O  O44  1  0.94920400  0.02094100  0.68514700  1
  O  O45  1  0.10573800  0.33217500  0.72919300  1
  O  O46  1  0.62031300  0.52282100  0.94229300  1
  O  O47  1  0.44220600  0.81071100  0.98888000  1
  O  O48  1  0.88732000  0.01108300  0.94273400  1
  O  O49  1  0.06083700  0.31448900  0.98759100  1
  F  F50  1  0.54923400  0.79238300  0.10371900  1
  F  F51  1  0.96272700  0.28608200  0.10523000  1
  F  F52  1  0.07739400  0.66971500  0.13020100  1
  F  F53  1  0.43730200  0.16808500  0.12757100  1
  F  F54  1  0.57980800  0.50376300  0.20144800  1
  F  F55  1  0.45126500  0.87557400  0.22785500  1
  F  F56  1  0.92492900  0.99552200  0.20344000  1
  F  F57  1  0.07220900  0.35463300  0.23475000  1
  F  F58  1  0.95857400  0.95894700  0.43738800  1
  F  F59  1  0.54407500  0.45956900  0.43904100  1
  F  F60  1  0.43955600  0.83318100  0.46062700  1
  F  F61  1  0.08015300  0.33962900  0.46481700  1
  F  F62  1  0.92741400  0.66256100  0.53731000  1
  F  F63  1  0.57944200  0.17065700  0.53489000  1
  F  F64  1  0.45473700  0.54488100  0.56140800  1
  F  F65  1  0.07236400  0.01956700  0.56866300  1
  F  F66  1  0.95343900  0.62873100  0.77049800  1
  F  F67  1  0.07128200  0.00533100  0.79846200  1
  F  F68  1  0.53879900  0.12152100  0.77459800  1
  F  F69  1  0.43893000  0.50027700  0.79303000  1
  F  F70  1  0.58148700  0.83381000  0.87243900  1
  F  F71  1  0.90336400  0.32535800  0.87392600  1
  F  F72  1  0.05181300  0.71936800  0.90077900  1
  F  F73  1  0.44726000  0.18833400  0.90083800  1
