# generated using pymatgen
data_Cd3Ga
_symmetry_space_group_name_H-M   'P 1'
_cell_length_a   6.38921705
_cell_length_b   6.38921705
_cell_length_c   5.05762700
_cell_angle_alpha   90.00000000
_cell_angle_beta   90.00000000
_cell_angle_gamma   119.99999015
_symmetry_Int_Tables_number   1
_chemical_formula_structural   Cd3Ga
_chemical_formula_sum   'Cd6 Ga2'
_cell_volume   178.80215775
_cell_formula_units_Z   2
loop_
 _symmetry_equiv_pos_site_id
 _symmetry_equiv_pos_as_xyz
  1  'x, y, z'
loop_
 _atom_site_type_symbol
 _atom_site_label
 _atom_site_symmetry_multiplicity
 _atom_site_fract_x
 _atom_site_fract_y
 _atom_site_fract_z
 _atom_site_occupancy
  Cd  Cd0  1  0.16796600  0.33593200  0.25000000  1
  Cd  Cd1  1  0.66406800  0.83203400  0.25000000  1
  Cd  Cd2  1  0.16796600  0.83203400  0.25000000  1
  Cd  Cd3  1  0.83203400  0.66406800  0.75000000  1
  Cd  Cd4  1  0.33593200  0.16796600  0.75000000  1
  Cd  Cd5  1  0.83203400  0.16796600  0.75000000  1
  Ga  Ga6  1  0.33333300  0.66666700  0.75000000  1
  Ga  Ga7  1  0.66666700  0.33333300  0.25000000  1
