# generated using pymatgen
data_ZrO2
_symmetry_space_group_name_H-M   'P 1'
_cell_length_a   5.48193022
_cell_length_b   5.48193022
_cell_length_c   5.80707742
_cell_angle_alpha   72.71573860
_cell_angle_beta   72.71573860
_cell_angle_gamma   110.71162198
_symmetry_Int_Tables_number   1
_chemical_formula_structural   ZrO2
_chemical_formula_sum   'Zr3 O6'
_cell_volume   139.16470109
_cell_formula_units_Z   3
loop_
 _symmetry_equiv_pos_site_id
 _symmetry_equiv_pos_as_xyz
  1  'x, y, z'
loop_
 _atom_site_type_symbol
 _atom_site_label
 _atom_site_symmetry_multiplicity
 _atom_site_fract_x
 _atom_site_fract_y
 _atom_site_fract_z
 _atom_site_occupancy
  Zr  Zr0  1  0.31640200  0.68359800  0.00000000  1
  Zr  Zr1  1  0.68359800  0.31640200  0.00000000  1
  Zr  Zr2  1  0.50000000  0.50000000  0.50000000  1
  O  O3  1  0.67170600  0.67170600  0.73191400  1
  O  O4  1  0.53820900  0.87566100  0.21012300  1
  O  O5  1  0.12433900  0.46179100  0.78987700  1
  O  O6  1  0.46179100  0.12433900  0.78987700  1
  O  O7  1  0.87566100  0.53820900  0.21012300  1
  O  O8  1  0.32829400  0.32829400  0.26808600  1
