# generated using pymatgen
data_Li3V4O7F5
_symmetry_space_group_name_H-M   'P 1'
_cell_length_a   5.06156016
_cell_length_b   5.38341428
_cell_length_c   8.93655243
_cell_angle_alpha   106.74377441
_cell_angle_beta   89.06743876
_cell_angle_gamma   117.40143075
_symmetry_Int_Tables_number   1
_chemical_formula_structural   Li3V4O7F5
_chemical_formula_sum   'Li3 V4 O7 F5'
_cell_volume   205.07454269
_cell_formula_units_Z   1
loop_
 _symmetry_equiv_pos_site_id
 _symmetry_equiv_pos_as_xyz
  1  'x, y, z'
loop_
 _atom_site_type_symbol
 _atom_site_label
 _atom_site_symmetry_multiplicity
 _atom_site_fract_x
 _atom_site_fract_y
 _atom_site_fract_z
 _atom_site_occupancy
  Li  Li0  1  0.79625600  0.61170900  0.60073900  1
  Li  Li1  1  0.55597500  0.13526800  0.85475400  1
  Li  Li2  1  0.43730800  0.86753100  0.13808700  1
  V  V3  1  0.80136100  0.50978200  0.26080300  1
  V  V4  1  0.52805500  0.98410900  0.48123800  1
  V  V5  1  0.19875800  0.47196100  0.76104800  1
  V  V6  1  0.01547500  0.02212800  0.99792300  1
  O  O7  1  0.81746000  0.26087300  0.68068000  1
  O  O8  1  0.79824800  0.21091400  0.07018000  1
  O  O9  1  0.72418200  0.25083700  0.37654200  1
  O  O10  1  0.68279100  0.74466800  0.43750100  1
  O  O11  1  0.24670000  0.26446600  0.87893900  1
  O  O12  1  0.18118100  0.76741300  0.93302400  1
  O  O13  1  0.18842300  0.74884600  0.30820100  1
  F  F14  1  0.74276700  0.72890900  0.12291700  1
  F  F15  1  0.67754800  0.76709600  0.80770900  1
  F  F16  1  0.32372300  0.24403300  0.18097600  1
  F  F17  1  0.34307600  0.27220400  0.58016400  1
  F  F18  1  0.25009000  0.76988400  0.63131600  1
