# generated using pymatgen
data_TiFe2Ni3(PO4)6
_symmetry_space_group_name_H-M   'P 1'
_cell_length_a   8.41873234
_cell_length_b   8.41873234
_cell_length_c   8.41873241
_cell_angle_alpha   61.86089388
_cell_angle_beta   61.86089388
_cell_angle_gamma   61.86090231
_symmetry_Int_Tables_number   1
_chemical_formula_structural   TiFe2Ni3(PO4)6
_chemical_formula_sum   'Ti1 Fe2 Ni3 P6 O24'
_cell_volume   439.49446238
_cell_formula_units_Z   1
loop_
 _symmetry_equiv_pos_site_id
 _symmetry_equiv_pos_as_xyz
  1  'x, y, z'
loop_
 _atom_site_type_symbol
 _atom_site_label
 _atom_site_symmetry_multiplicity
 _atom_site_fract_x
 _atom_site_fract_y
 _atom_site_fract_z
 _atom_site_occupancy
  Ti  Ti0  1  0.85295300  0.85295300  0.85295300  1
  Fe  Fe1  1  0.00225200  0.00225200  0.00225200  1
  Fe  Fe2  1  0.50111600  0.50111600  0.50111600  1
  Ni  Ni3  1  0.14477500  0.14477500  0.14477500  1
  Ni  Ni4  1  0.35767200  0.35767200  0.35767200  1
  Ni  Ni5  1  0.64308600  0.64308600  0.64308600  1
  P  P6  1  0.54997900  0.25088900  0.94863700  1
  P  P7  1  0.94863700  0.54997900  0.25088900  1
  P  P8  1  0.25088900  0.94863700  0.54997900  1
  P  P9  1  0.74855000  0.04892500  0.44945100  1
  P  P10  1  0.04892500  0.44945100  0.74855000  1
  P  P11  1  0.44945100  0.74855000  0.04892500  1
  O  O12  1  0.32566700  0.10075200  0.51219500  1
  O  O13  1  0.51219500  0.32566700  0.10075200  1
  O  O14  1  0.90373300  0.06198800  0.25036300  1
  O  O15  1  0.10075200  0.51219500  0.32566700  1
  O  O16  1  0.83175600  0.98462900  0.60931600  1
  O  O17  1  0.60179700  0.25117000  0.44648500  1
  O  O18  1  0.06198800  0.25036300  0.90373300  1
  O  O19  1  0.25117000  0.44648500  0.60179700  1
  O  O20  1  0.39777600  0.17354100  0.99774300  1
  O  O21  1  0.44648500  0.60179700  0.25117000  1
  O  O22  1  0.75524900  0.09383100  0.93003900  1
  O  O23  1  0.99774300  0.39777600  0.17354100  1
  O  O24  1  0.98462900  0.60931600  0.83175600  1
  O  O25  1  0.25036300  0.90373300  0.06198800  1
  O  O26  1  0.56842900  0.39936600  0.74452400  1
  O  O27  1  0.60931600  0.83175600  0.98462900  1
  O  O28  1  0.74452400  0.56842900  0.39936600  1
  O  O29  1  0.93003900  0.75524900  0.09383100  1
  O  O30  1  0.39936600  0.74452400  0.56842900  1
  O  O31  1  0.17354100  0.99774300  0.39777600  1
  O  O32  1  0.90388300  0.49562600  0.66185300  1
  O  O33  1  0.09383100  0.93003900  0.75524900  1
  O  O34  1  0.49562600  0.66185300  0.90388300  1
  O  O35  1  0.66185300  0.90388300  0.49562600  1
