# generated using pymatgen
data_Ti3NbCu2(PO4)6
_symmetry_space_group_name_H-M   'P 1'
_cell_length_a   8.70457104
_cell_length_b   8.70457104
_cell_length_c   8.70457128
_cell_angle_alpha   60.13465480
_cell_angle_beta   60.13465480
_cell_angle_gamma   60.13465860
_symmetry_Int_Tables_number   1
_chemical_formula_structural   Ti3NbCu2(PO4)6
_chemical_formula_sum   'Ti3 Nb1 Cu2 P6 O24'
_cell_volume   467.78887216
_cell_formula_units_Z   1
loop_
 _symmetry_equiv_pos_site_id
 _symmetry_equiv_pos_as_xyz
  1  'x, y, z'
loop_
 _atom_site_type_symbol
 _atom_site_label
 _atom_site_symmetry_multiplicity
 _atom_site_fract_x
 _atom_site_fract_y
 _atom_site_fract_z
 _atom_site_occupancy
  Ti  Ti0  1  0.14241400  0.14241400  0.14241400  1
  Ti  Ti1  1  0.35832300  0.35832300  0.35832300  1
  Ti  Ti2  1  0.64246000  0.64246000  0.64246000  1
  Nb  Nb3  1  0.85879000  0.85879000  0.85879000  1
  Cu  Cu4  1  0.00235100  0.00235100  0.00235100  1
  Cu  Cu5  1  0.49995400  0.49995400  0.49995400  1
  P  P6  1  0.74855000  0.04201100  0.45528200  1
  P  P7  1  0.04201100  0.45528200  0.74855000  1
  P  P8  1  0.53504100  0.25549200  0.96057200  1
  P  P9  1  0.96057200  0.53504100  0.25549200  1
  P  P10  1  0.25549200  0.96057200  0.53504100  1
  P  P11  1  0.45528200  0.74855000  0.04201100  1
  O  O12  1  0.30422400  0.12540600  0.49936500  1
  O  O13  1  0.49936500  0.30422400  0.12540600  1
  O  O14  1  0.91598900  0.05888500  0.26999800  1
  O  O15  1  0.12540600  0.49936500  0.30422400  1
  O  O16  1  0.80195300  0.00382500  0.62033400  1
  O  O17  1  0.58379200  0.22892100  0.44036300  1
  O  O18  1  0.05888500  0.26999800  0.91598900  1
  O  O19  1  0.22892100  0.44036300  0.58379200  1
  O  O20  1  0.37497300  0.19757900  0.99928300  1
  O  O21  1  0.44036300  0.58379200  0.22892100  1
  O  O22  1  0.72533800  0.08854800  0.94258600  1
  O  O23  1  0.99928300  0.37497300  0.19757900  1
  O  O24  1  0.00382500  0.62033400  0.80195300  1
  O  O25  1  0.26999800  0.91598900  0.05888500  1
  O  O26  1  0.55727500  0.41713700  0.77176500  1
  O  O27  1  0.62033400  0.80195300  0.00382500  1
  O  O28  1  0.77176500  0.55727500  0.41713700  1
  O  O29  1  0.94258600  0.72533800  0.08854800  1
  O  O30  1  0.41713700  0.77176500  0.55727500  1
  O  O31  1  0.19757900  0.99928300  0.37497300  1
  O  O32  1  0.87562300  0.49835700  0.69724200  1
  O  O33  1  0.08854800  0.94258600  0.72533800  1
  O  O34  1  0.49835700  0.69724200  0.87562300  1
  O  O35  1  0.69724200  0.87562300  0.49835700  1
