# generated using pymatgen
data_V2O5
_symmetry_space_group_name_H-M   'P 1'
_cell_length_a   5.35981900
_cell_length_b   8.95097200
_cell_length_c   10.22974289
_cell_angle_alpha   65.40908859
_cell_angle_beta   90.00000000
_cell_angle_gamma   90.00000000
_symmetry_Int_Tables_number   1
_chemical_formula_structural   V2O5
_chemical_formula_sum   'V8 O20'
_cell_volume   446.26543405
_cell_formula_units_Z   4
loop_
 _symmetry_equiv_pos_site_id
 _symmetry_equiv_pos_as_xyz
  1  'x, y, z'
loop_
 _atom_site_type_symbol
 _atom_site_label
 _atom_site_symmetry_multiplicity
 _atom_site_fract_x
 _atom_site_fract_y
 _atom_site_fract_z
 _atom_site_occupancy
  V  V0  1  0.50334900  0.20681300  0.11713100  1
  V  V1  1  0.99665100  0.70681300  0.11713100  1
  V  V2  1  0.06873900  0.29232200  0.38205200  1
  V  V3  1  0.43126100  0.79232200  0.38205200  1
  V  V4  1  0.56873900  0.20767800  0.61794800  1
  V  V5  1  0.93126100  0.70767800  0.61794800  1
  V  V6  1  0.00334900  0.29318700  0.88286900  1
  V  V7  1  0.49665100  0.79318700  0.88286900  1
  O  O8  1  0.29974600  0.22989300  0.97247900  1
  O  O9  1  0.20025400  0.72989300  0.97247900  1
  O  O10  1  0.47540300  0.00106500  0.24631300  1
  O  O11  1  0.02459700  0.50106500  0.24631300  1
  O  O12  1  0.42039200  0.33281800  0.18850400  1
  O  O13  1  0.95937700  0.16219900  0.32341200  1
  O  O14  1  0.07960800  0.83281800  0.18850400  1
  O  O15  1  0.54062300  0.66219900  0.32341200  1
  O  O16  1  0.35670900  0.21111300  0.48277900  1
  O  O17  1  0.85670900  0.28888700  0.51722100  1
  O  O18  1  0.14329100  0.71111300  0.48277900  1
  O  O19  1  0.64329100  0.78888700  0.51722100  1
  O  O20  1  0.45937700  0.33780100  0.67658800  1
  O  O21  1  0.92039200  0.16718200  0.81149600  1
  O  O22  1  0.04062300  0.83780100  0.67658800  1
  O  O23  1  0.57960800  0.66718200  0.81149600  1
  O  O24  1  0.97540300  0.49893500  0.75368700  1
  O  O25  1  0.52459700  0.99893500  0.75368700  1
  O  O26  1  0.79974600  0.27010700  0.02752100  1
  O  O27  1  0.70025400  0.77010700  0.02752100  1
