# generated using pymatgen
data_TiNi3Sb2(PO4)6
_symmetry_space_group_name_H-M   'P 1'
_cell_length_a   8.67319522
_cell_length_b   8.67319522
_cell_length_c   8.67319519
_cell_angle_alpha   60.36387508
_cell_angle_beta   60.36387508
_cell_angle_gamma   60.36387715
_symmetry_Int_Tables_number   1
_chemical_formula_structural   TiNi3Sb2(PO4)6
_chemical_formula_sum   'Ti1 Ni3 Sb2 P6 O24'
_cell_volume   465.13855644
_cell_formula_units_Z   1
loop_
 _symmetry_equiv_pos_site_id
 _symmetry_equiv_pos_as_xyz
  1  'x, y, z'
loop_
 _atom_site_type_symbol
 _atom_site_label
 _atom_site_symmetry_multiplicity
 _atom_site_fract_x
 _atom_site_fract_y
 _atom_site_fract_z
 _atom_site_occupancy
  Ti  Ti0  1  0.85625800  0.85625800  0.85625800  1
  Ni  Ni1  1  0.15174500  0.15174500  0.15174500  1
  Ni  Ni2  1  0.34797400  0.34797400  0.34797400  1
  Ni  Ni3  1  0.64811500  0.64811500  0.64811500  1
  Sb  Sb4  1  0.01248800  0.01248800  0.01248800  1
  Sb  Sb5  1  0.50193300  0.50193300  0.50193300  1
  P  P6  1  0.54044700  0.24645700  0.95223700  1
  P  P7  1  0.95223700  0.54044700  0.24645700  1
  P  P8  1  0.24645700  0.95223700  0.54044700  1
  P  P9  1  0.74891000  0.04476500  0.46109900  1
  P  P10  1  0.04476500  0.46109900  0.74891000  1
  P  P11  1  0.46109900  0.74891000  0.04476500  1
  O  O12  1  0.31001300  0.09962800  0.51516200  1
  O  O13  1  0.51516200  0.31001300  0.09962800  1
  O  O14  1  0.90462200  0.07683600  0.26310500  1
  O  O15  1  0.09962800  0.51516200  0.31001300  1
  O  O16  1  0.82189100  0.98979200  0.61631500  1
  O  O17  1  0.58904000  0.24846800  0.45551800  1
  O  O18  1  0.07683600  0.26310500  0.90462200  1
  O  O19  1  0.24846800  0.45551800  0.58904000  1
  O  O20  1  0.38894900  0.18804800  0.98217000  1
  O  O21  1  0.45551800  0.58904000  0.24846800  1
  O  O22  1  0.73935300  0.09087500  0.91861100  1
  O  O23  1  0.98217000  0.38894900  0.18804800  1
  O  O24  1  0.98979200  0.61631500  0.82189100  1
  O  O25  1  0.26310500  0.90462200  0.07683600  1
  O  O26  1  0.56315100  0.40967500  0.74584700  1
  O  O27  1  0.61631500  0.82189100  0.98979200  1
  O  O28  1  0.74584700  0.56315100  0.40967500  1
  O  O29  1  0.91861100  0.73935300  0.09087500  1
  O  O30  1  0.40967500  0.74584700  0.56315100  1
  O  O31  1  0.18804800  0.98217000  0.38894900  1
  O  O32  1  0.90433900  0.49069700  0.67546900  1
  O  O33  1  0.09087500  0.91861100  0.73935300  1
  O  O34  1  0.49069700  0.67546900  0.90433900  1
  O  O35  1  0.67546900  0.90433900  0.49069700  1
