# generated using pymatgen
data_Cd3Pd
_symmetry_space_group_name_H-M   'P 1'
_cell_length_a   6.00986632
_cell_length_b   6.00986632
_cell_length_c   4.94933400
_cell_angle_alpha   90.00000000
_cell_angle_beta   90.00000000
_cell_angle_gamma   120.00000353
_symmetry_Int_Tables_number   1
_chemical_formula_structural   Cd3Pd
_chemical_formula_sum   'Cd6 Pd2'
_cell_volume   154.81284896
_cell_formula_units_Z   2
loop_
 _symmetry_equiv_pos_site_id
 _symmetry_equiv_pos_as_xyz
  1  'x, y, z'
loop_
 _atom_site_type_symbol
 _atom_site_label
 _atom_site_symmetry_multiplicity
 _atom_site_fract_x
 _atom_site_fract_y
 _atom_site_fract_z
 _atom_site_occupancy
  Cd  Cd0  1  0.17080800  0.34161600  0.25000000  1
  Cd  Cd1  1  0.65838400  0.82919200  0.25000000  1
  Cd  Cd2  1  0.17080800  0.82919200  0.25000000  1
  Cd  Cd3  1  0.82919200  0.65838400  0.75000000  1
  Cd  Cd4  1  0.34161600  0.17080800  0.75000000  1
  Cd  Cd5  1  0.82919200  0.17080800  0.75000000  1
  Pd  Pd6  1  0.33333300  0.66666700  0.75000000  1
  Pd  Pd7  1  0.66666700  0.33333300  0.25000000  1
