# generated using pymatgen
data_NaCoPO4
_symmetry_space_group_name_H-M   'P 1'
_cell_length_a   5.00488400
_cell_length_b   6.27910200
_cell_length_c   10.29222700
_cell_angle_alpha   90.00000000
_cell_angle_beta   90.00000000
_cell_angle_gamma   90.00000000
_symmetry_Int_Tables_number   1
_chemical_formula_structural   NaCoPO4
_chemical_formula_sum   'Na4 Co4 P4 O16'
_cell_volume   323.44534881
_cell_formula_units_Z   4
loop_
 _symmetry_equiv_pos_site_id
 _symmetry_equiv_pos_as_xyz
  1  'x, y, z'
loop_
 _atom_site_type_symbol
 _atom_site_label
 _atom_site_symmetry_multiplicity
 _atom_site_fract_x
 _atom_site_fract_y
 _atom_site_fract_z
 _atom_site_occupancy
  Na  Na0  1  0.00000000  0.50000000  0.00000000  1
  Na  Na1  1  0.00000000  0.00000000  0.00000000  1
  Na  Na2  1  0.50000000  0.00000000  0.50000000  1
  Na  Na3  1  0.50000000  0.50000000  0.50000000  1
  Co  Co4  1  0.49026700  0.75000000  0.21936500  1
  Co  Co5  1  0.99026700  0.25000000  0.28063500  1
  Co  Co6  1  0.00973300  0.75000000  0.71936500  1
  Co  Co7  1  0.50973300  0.25000000  0.78063500  1
  P  P8  1  0.43350100  0.25000000  0.10621000  1
  P  P9  1  0.93350100  0.75000000  0.39379000  1
  P  P10  1  0.06649900  0.25000000  0.60621000  1
  P  P11  1  0.56649900  0.75000000  0.89379000  1
  O  O12  1  0.66240000  0.75000000  0.03816900  1
  O  O13  1  0.74125300  0.25000000  0.11392400  1
  O  O14  1  0.29895800  0.05394200  0.17556500  1
  O  O15  1  0.29895800  0.44605800  0.17556500  1
  O  O16  1  0.79895800  0.55394200  0.32443500  1
  O  O17  1  0.79895800  0.94605800  0.32443500  1
  O  O18  1  0.24125300  0.75000000  0.38607600  1
  O  O19  1  0.16240000  0.25000000  0.46183100  1
  O  O20  1  0.83760000  0.75000000  0.53816900  1
  O  O21  1  0.75874700  0.25000000  0.61392400  1
  O  O22  1  0.20104200  0.05394200  0.67556500  1
  O  O23  1  0.20104200  0.44605800  0.67556500  1
  O  O24  1  0.70104200  0.55394200  0.82443500  1
  O  O25  1  0.70104200  0.94605800  0.82443500  1
  O  O26  1  0.25874700  0.75000000  0.88607600  1
  O  O27  1  0.33760000  0.25000000  0.96183100  1
