# generated using pymatgen
data_ScAgO3
_symmetry_space_group_name_H-M   'P 1'
_cell_length_a   6.48896906
_cell_length_b   6.48896906
_cell_length_c   3.22046400
_cell_angle_alpha   90.00000000
_cell_angle_beta   90.00000000
_cell_angle_gamma   103.21610448
_symmetry_Int_Tables_number   1
_chemical_formula_structural   ScAgO3
_chemical_formula_sum   'Sc2 Ag2 O6'
_cell_volume   132.01168072
_cell_formula_units_Z   2
loop_
 _symmetry_equiv_pos_site_id
 _symmetry_equiv_pos_as_xyz
  1  'x, y, z'
loop_
 _atom_site_type_symbol
 _atom_site_label
 _atom_site_symmetry_multiplicity
 _atom_site_fract_x
 _atom_site_fract_y
 _atom_site_fract_z
 _atom_site_occupancy
  Sc  Sc0  1  0.00000000  0.50000000  0.50000000  1
  Sc  Sc1  1  0.50000000  0.00000000  0.50000000  1
  Ag  Ag2  1  0.00000000  0.00000000  0.00000000  1
  Ag  Ag3  1  0.50000000  0.50000000  0.00000000  1
  O  O4  1  0.03574100  0.31286200  0.00000000  1
  O  O5  1  0.31286200  0.03574100  0.00000000  1
  O  O6  1  0.36375400  0.63624600  0.50000000  1
  O  O7  1  0.63624600  0.36375400  0.50000000  1
  O  O8  1  0.96425900  0.68713800  0.00000000  1
  O  O9  1  0.68713800  0.96425900  0.00000000  1
