# generated using pymatgen
data_Mg(NO3)2
_symmetry_space_group_name_H-M   'P 1'
_cell_length_a   7.46552200
_cell_length_b   7.53533800
_cell_length_c   15.32750300
_cell_angle_alpha   90.00000000
_cell_angle_beta   90.00000000
_cell_angle_gamma   90.00000000
_symmetry_Int_Tables_number   1
_chemical_formula_structural   Mg(NO3)2
_chemical_formula_sum   'Mg8 N16 O48'
_cell_volume   862.25223137
_cell_formula_units_Z   8
loop_
 _symmetry_equiv_pos_site_id
 _symmetry_equiv_pos_as_xyz
  1  'x, y, z'
loop_
 _atom_site_type_symbol
 _atom_site_label
 _atom_site_symmetry_multiplicity
 _atom_site_fract_x
 _atom_site_fract_y
 _atom_site_fract_z
 _atom_site_occupancy
  Mg  Mg0  1  0.78784400  0.01966700  0.37773700  1
  Mg  Mg1  1  0.75561300  0.02611400  0.87358600  1
  Mg  Mg2  1  0.25561300  0.47388600  0.87358600  1
  Mg  Mg3  1  0.28784400  0.48033300  0.37773700  1
  Mg  Mg4  1  0.78784400  0.51966700  0.62226300  1
  Mg  Mg5  1  0.75561300  0.52611400  0.12641400  1
  Mg  Mg6  1  0.25561300  0.97388600  0.12641400  1
  Mg  Mg7  1  0.28784400  0.98033300  0.62226300  1
  N  N8  1  0.09363100  0.13833800  0.78569000  1
  N  N9  1  0.12959600  0.15979300  0.29351800  1
  N  N10  1  0.93752500  0.17003900  0.55170400  1
  N  N11  1  0.92039700  0.17669700  0.04700400  1
  N  N12  1  0.42039700  0.32330300  0.04700400  1
  N  N13  1  0.43752500  0.32996100  0.55170400  1
  N  N14  1  0.62959600  0.34020700  0.29351800  1
  N  N15  1  0.59363100  0.36166200  0.78569000  1
  N  N16  1  0.09363100  0.63833800  0.21431000  1
  N  N17  1  0.12959600  0.65979300  0.70648200  1
  N  N18  1  0.93752500  0.67003900  0.44829600  1
  N  N19  1  0.92039700  0.67669700  0.95299600  1
  N  N20  1  0.42039700  0.82330300  0.95299600  1
  N  N21  1  0.43752500  0.82996100  0.44829600  1
  N  N22  1  0.62959600  0.84020700  0.70648200  1
  N  N23  1  0.59363100  0.86166200  0.21431000  1
  O  O24  1  0.95852000  0.04183800  0.77184300  1
  O  O25  1  0.03153000  0.05118000  0.05016300  1
  O  O26  1  0.04263600  0.03935800  0.55649500  1
  O  O27  1  0.10105600  0.04154500  0.23694700  1
  O  O28  1  0.22476200  0.14000600  0.73384900  1
  O  O29  1  0.04343300  0.15747600  0.36450700  1
  O  O30  1  0.81413400  0.17215900  0.49528800  1
  O  O31  1  0.80448400  0.17992700  0.98674300  1
  O  O32  1  0.09671300  0.23506400  0.85338200  1
  O  O33  1  0.45430100  0.20093500  0.60365900  1
  O  O34  1  0.42340800  0.20075400  0.10313300  1
  O  O35  1  0.74228800  0.21895200  0.28015300  1
  O  O36  1  0.24228800  0.28104800  0.28015300  1
  O  O37  1  0.92340800  0.29924600  0.10313300  1
  O  O38  1  0.95430100  0.29906500  0.60365900  1
  O  O39  1  0.59671300  0.26493600  0.85338200  1
  O  O40  1  0.30448400  0.32007300  0.98674300  1
  O  O41  1  0.31413400  0.32784100  0.49528800  1
  O  O42  1  0.54343300  0.34252400  0.36450700  1
  O  O43  1  0.72476200  0.35999400  0.73384900  1
  O  O44  1  0.60105600  0.45845500  0.23694700  1
  O  O45  1  0.54263600  0.46064200  0.55649500  1
  O  O46  1  0.53153000  0.44882000  0.05016300  1
  O  O47  1  0.45852000  0.45816200  0.77184300  1
  O  O48  1  0.95852000  0.54183800  0.22815700  1
  O  O49  1  0.03153000  0.55118000  0.94983700  1
  O  O50  1  0.04263600  0.53935800  0.44350500  1
  O  O51  1  0.10105600  0.54154500  0.76305300  1
  O  O52  1  0.22476200  0.64000600  0.26615100  1
  O  O53  1  0.04343300  0.65747600  0.63549300  1
  O  O54  1  0.81413400  0.67215900  0.50471200  1
  O  O55  1  0.80448400  0.67992700  0.01325700  1
  O  O56  1  0.09671300  0.73506400  0.14661800  1
  O  O57  1  0.45430100  0.70093500  0.39634100  1
  O  O58  1  0.42340800  0.70075400  0.89686700  1
  O  O59  1  0.74228800  0.71895200  0.71984700  1
  O  O60  1  0.24228800  0.78104800  0.71984700  1
  O  O61  1  0.92340800  0.79924600  0.89686700  1
  O  O62  1  0.95430100  0.79906500  0.39634100  1
  O  O63  1  0.59671300  0.76493600  0.14661800  1
  O  O64  1  0.30448400  0.82007300  0.01325700  1
  O  O65  1  0.31413400  0.82784100  0.50471200  1
  O  O66  1  0.54343300  0.84252400  0.63549300  1
  O  O67  1  0.72476200  0.85999400  0.26615100  1
  O  O68  1  0.60105600  0.95845500  0.76305300  1
  O  O69  1  0.54263600  0.96064200  0.44350500  1
  O  O70  1  0.53153000  0.94882000  0.94983700  1
  O  O71  1  0.45852000  0.95816200  0.22815700  1
