# generated using pymatgen
data_NbFe3Ni2(PO4)6
_symmetry_space_group_name_H-M   'P 1'
_cell_length_a   8.52372739
_cell_length_b   8.52372739
_cell_length_c   8.52372725
_cell_angle_alpha   61.01512470
_cell_angle_beta   61.01512470
_cell_angle_gamma   61.01512520
_symmetry_Int_Tables_number   1
_chemical_formula_structural   NbFe3Ni2(PO4)6
_chemical_formula_sum   'Nb1 Fe3 Ni2 P6 O24'
_cell_volume   447.91046721
_cell_formula_units_Z   1
loop_
 _symmetry_equiv_pos_site_id
 _symmetry_equiv_pos_as_xyz
  1  'x, y, z'
loop_
 _atom_site_type_symbol
 _atom_site_label
 _atom_site_symmetry_multiplicity
 _atom_site_fract_x
 _atom_site_fract_y
 _atom_site_fract_z
 _atom_site_occupancy
  Nb  Nb0  1  0.85725000  0.85725000  0.85725000  1
  Fe  Fe1  1  0.14640500  0.14640500  0.14640500  1
  Fe  Fe2  1  0.35613800  0.35613800  0.35613800  1
  Fe  Fe3  1  0.64382900  0.64382900  0.64382900  1
  Ni  Ni4  1  0.00597900  0.00597900  0.00597900  1
  Ni  Ni5  1  0.50085300  0.50085300  0.50085300  1
  P  P6  1  0.44696600  0.74694500  0.04838700  1
  P  P7  1  0.74694500  0.04838700  0.44696600  1
  P  P8  1  0.04838700  0.44696600  0.74694500  1
  P  P9  1  0.95387900  0.54048900  0.25631000  1
  P  P10  1  0.25631000  0.95387900  0.54048900  1
  P  P11  1  0.54048900  0.25631000  0.95387900  1
  O  O12  1  0.50538700  0.31759100  0.11127600  1
  O  O13  1  0.11127600  0.50538700  0.31759100  1
  O  O14  1  0.25521000  0.90939200  0.06160600  1
  O  O15  1  0.31759100  0.11127600  0.50538700  1
  O  O16  1  0.61201000  0.81957600  0.99417000  1
  O  O17  1  0.44388600  0.59211200  0.24381000  1
  O  O18  1  0.90939200  0.06160600  0.25521000  1
  O  O19  1  0.59211200  0.24381000  0.44388600  1
  O  O20  1  0.99642400  0.39061500  0.18038900  1
  O  O21  1  0.24381000  0.44388600  0.59211200  1
  O  O22  1  0.93726600  0.74245000  0.09300200  1
  O  O23  1  0.18038900  0.99642400  0.39061500  1
  O  O24  1  0.81957600  0.99417000  0.61201000  1
  O  O25  1  0.06160600  0.25521000  0.90939200  1
  O  O26  1  0.75559400  0.55869700  0.41019000  1
  O  O27  1  0.99417000  0.61201000  0.81957600  1
  O  O28  1  0.41019000  0.75559400  0.55869700  1
  O  O29  1  0.09300200  0.93726600  0.74245000  1
  O  O30  1  0.55869700  0.41019000  0.75559400  1
  O  O31  1  0.39061500  0.18038900  0.99642400  1
  O  O32  1  0.68067000  0.89014100  0.49510500  1
  O  O33  1  0.74245000  0.09300200  0.93726600  1
  O  O34  1  0.89014100  0.49510500  0.68067000  1
  O  O35  1  0.49510500  0.68067000  0.89014100  1
