# generated using pymatgen
data_Hf2N2O
_symmetry_space_group_name_H-M   'P 1'
_cell_length_a   8.72431700
_cell_length_b   8.73437401
_cell_length_c   8.72327746
_cell_angle_alpha   109.29064490
_cell_angle_beta   109.41605369
_cell_angle_gamma   109.57742337
_symmetry_Int_Tables_number   1
_chemical_formula_structural   Hf2N2O
_chemical_formula_sum   'Hf16 N16 O8'
_cell_volume   512.52060805
_cell_formula_units_Z   8
loop_
 _symmetry_equiv_pos_site_id
 _symmetry_equiv_pos_as_xyz
  1  'x, y, z'
loop_
 _atom_site_type_symbol
 _atom_site_label
 _atom_site_symmetry_multiplicity
 _atom_site_fract_x
 _atom_site_fract_y
 _atom_site_fract_z
 _atom_site_occupancy
  Hf  Hf0  1  0.75186200  0.96736800  0.20744800  1
  Hf  Hf1  1  0.99570900  0.98851300  0.99000300  1
  Hf  Hf2  1  0.02992500  0.77554600  0.24370500  1
  Hf  Hf3  1  0.52847800  0.27896700  0.25379600  1
  Hf  Hf4  1  0.50219100  0.50274100  0.00321900  1
  Hf  Hf5  1  0.48916900  0.99138500  0.48877000  1
  Hf  Hf6  1  0.25894300  0.54192200  0.28974700  1
  Hf  Hf7  1  0.29722800  0.26674600  0.54773300  1
  Hf  Hf8  1  0.71236900  0.74640300  0.46157800  1
  Hf  Hf9  1  0.78563400  0.25131600  0.04447500  1
  Hf  Hf10  1  0.20592500  0.74728100  0.95980400  1
  Hf  Hf11  1  0.74979400  0.46219600  0.71574800  1
  Hf  Hf12  1  0.01026200  0.49904200  0.50092500  1
  Hf  Hf13  1  0.97291100  0.21650200  0.75010600  1
  Hf  Hf14  1  0.46623600  0.71637400  0.74395900  1
  Hf  Hf15  1  0.24077600  0.02809300  0.78718100  1
  N  N16  1  0.73179700  0.96872500  0.96077800  1
  N  N17  1  0.75710900  0.22617700  0.27419100  1
  N  N18  1  0.45252100  0.48196300  0.22481300  1
  N  N19  1  0.77198800  0.73439300  0.24131800  1
  N  N20  1  0.49311600  0.22913300  0.46056900  1
  N  N21  1  0.22883200  0.27096700  0.76368600  1
  N  N22  1  0.98654700  0.53171100  0.25718400  1
  N  N23  1  0.51301500  0.77690700  0.54516300  1
  N  N24  1  0.95314500  0.72910000  0.96740100  1
  N  N25  1  0.54853800  0.51544400  0.77854000  1
  N  N26  1  0.22537000  0.44987600  0.48433300  1
  N  N27  1  0.27897600  0.76721100  0.22801000  1
  N  N28  1  0.96161200  0.95057600  0.72598200  1
  N  N29  1  0.24026400  0.77301800  0.72484100  1
  N  N30  1  0.00620200  0.46280500  0.73703000  1
  N  N31  1  0.27233600  0.03753800  0.04321300  1
  O  O32  1  0.53927400  0.26441000  0.98365100  1
  O  O33  1  0.73906600  0.01650200  0.46950300  1
  O  O34  1  0.04122400  0.27354500  0.02758000  1
  O  O35  1  0.72478100  0.23478600  0.77489100  1
  O  O36  1  0.77260000  0.54950900  0.51646400  1
  O  O37  1  0.03705500  0.04796400  0.27661600  1
  O  O38  1  0.46595600  0.73933300  0.01448600  1
  O  O39  1  0.26126300  0.98801400  0.53155700  1
