# generated using pymatgen
data_Na2Ni3O7
_symmetry_space_group_name_H-M   'P 1'
_cell_length_a   7.05327100
_cell_length_b   7.08947289
_cell_length_c   7.09093324
_cell_angle_alpha   64.18566316
_cell_angle_beta   64.11791233
_cell_angle_gamma   64.40100549
_symmetry_Int_Tables_number   1
_chemical_formula_structural   Na2Ni3O7
_chemical_formula_sum   'Na4 Ni6 O14'
_cell_volume   274.05761872
_cell_formula_units_Z   2
loop_
 _symmetry_equiv_pos_site_id
 _symmetry_equiv_pos_as_xyz
  1  'x, y, z'
loop_
 _atom_site_type_symbol
 _atom_site_label
 _atom_site_symmetry_multiplicity
 _atom_site_fract_x
 _atom_site_fract_y
 _atom_site_fract_z
 _atom_site_occupancy
  Na  Na0  1  0.13493200  0.28259500  0.56313800  1
  Na  Na1  1  0.19796900  0.95153500  0.35835300  1
  Na  Na2  1  0.02856800  0.63399600  0.83090600  1
  Na  Na3  1  0.42246600  0.20785500  0.86911300  1
  Ni  Ni4  1  0.28831200  0.57227100  0.14440000  1
  Ni  Ni5  1  0.57688000  0.14335300  0.28374200  1
  Ni  Ni6  1  0.00126300  0.99830000  0.00130700  1
  Ni  Ni7  1  0.85186200  0.71560800  0.42798600  1
  Ni  Ni8  1  0.43064000  0.85249900  0.71408700  1
  Ni  Ni9  1  0.71384400  0.42934600  0.86035200  1
  O  O10  1  0.30521300  0.27730900  0.22872900  1
  O  O11  1  0.29782700  0.87212100  0.00768200  1
  O  O12  1  0.57965500  0.43905900  0.15787500  1
  O  O13  1  0.87045000  0.00797900  0.29327800  1
  O  O14  1  0.14346000  0.62009400  0.42271000  1
  O  O15  1  0.99026300  0.70305400  0.13676500  1
  O  O16  1  0.47380000  0.12532600  0.57727000  1
  O  O17  1  0.55308500  0.85357900  0.41787100  1
  O  O18  1  0.79801300  0.44626900  0.56971700  1
  O  O19  1  0.13824500  0.94399000  0.72641700  1
  O  O20  1  0.41694600  0.55889400  0.85401000  1
  O  O21  1  0.72788500  0.72043700  0.72278300  1
  O  O22  1  0.71056000  0.13288600  0.98884200  1
  O  O23  1  0.99378500  0.29209700  0.90151000  1
