# generated using pymatgen
data_Zr2N2O
_symmetry_space_group_name_H-M   'P 1'
_cell_length_a   8.87817142
_cell_length_b   8.86681041
_cell_length_c   8.88235056
_cell_angle_alpha   109.63386236
_cell_angle_beta   109.41723867
_cell_angle_gamma   109.36006206
_symmetry_Int_Tables_number   1
_chemical_formula_structural   Zr2N2O
_chemical_formula_sum   'Zr16 N16 O8'
_cell_volume   538.28005548
_cell_formula_units_Z   8
loop_
 _symmetry_equiv_pos_site_id
 _symmetry_equiv_pos_as_xyz
  1  'x, y, z'
loop_
 _atom_site_type_symbol
 _atom_site_label
 _atom_site_symmetry_multiplicity
 _atom_site_fract_x
 _atom_site_fract_y
 _atom_site_fract_z
 _atom_site_occupancy
  Zr  Zr0  1  0.95809800  0.24411400  0.20755000  1
  Zr  Zr1  1  0.50712500  0.00715700  0.99697600  1
  Zr  Zr2  1  0.79047100  0.03440600  0.75846900  1
  Zr  Zr3  1  0.70377700  0.46205500  0.23998600  1
  Zr  Zr4  1  0.75061300  0.77816900  0.03133200  1
  Zr  Zr5  1  0.74787600  0.28422900  0.52887500  1
  Zr  Zr6  1  0.49959100  0.49892400  0.50162700  1
  Zr  Zr7  1  0.45851300  0.25215500  0.71325700  1
  Zr  Zr8  1  0.53258200  0.74198900  0.29011500  1
  Zr  Zr9  1  0.00857300  0.50674800  0.99683700  1
  Zr  Zr10  1  0.00475100  0.99552700  0.50717000  1
  Zr  Zr11  1  0.25713700  0.72352900  0.46946300  1
  Zr  Zr12  1  0.24620800  0.21733100  0.95913500  1
  Zr  Zr13  1  0.21957200  0.96176400  0.25591900  1
  Zr  Zr14  1  0.28577700  0.53916900  0.75247900  1
  Zr  Zr15  1  0.03940500  0.75158600  0.78840400  1
  N  N16  1  0.73989300  0.22922300  0.27496800  1
  N  N17  1  0.46832600  0.22790500  0.45218300  1
  N  N18  1  0.77305000  0.72871400  0.25938300  1
  N  N19  1  0.04370900  0.27427900  0.01370800  1
  N  N20  1  0.45673100  0.46545700  0.23046100  1
  N  N21  1  0.27243200  0.73696300  0.22297300  1
  N  N22  1  0.51417100  0.23794600  0.96469000  1
  N  N23  1  0.98539500  0.95020500  0.72365200  1
  N  N24  1  0.54145100  0.53575900  0.77144000  1
  N  N25  1  0.95805900  0.73202300  0.99212900  1
  N  N26  1  0.53238500  0.77271300  0.54528000  1
  N  N27  1  0.22403300  0.27182900  0.73689200  1
  N  N28  1  0.02888400  0.48532800  0.75876900  1
  N  N29  1  0.72701100  0.98722900  0.95715700  1
  N  N30  1  0.23380300  0.96424900  0.50669700  1
  N  N31  1  0.26312000  0.77201800  0.72922800  1
  O  O32  1  0.76151400  0.03671500  0.49214400  1
  O  O33  1  0.27262500  0.01028300  0.04347300  1
  O  O34  1  0.96956900  0.51113700  0.24286600  1
  O  O35  1  0.72651200  0.25842300  0.77141700  1
  O  O36  1  0.01512200  0.05376700  0.27750200  1
  O  O37  1  0.48466200  0.76075800  0.03499700  1
  O  O38  1  0.77163500  0.54716900  0.53726200  1
  O  O39  1  0.22583900  0.45105500  0.46313600  1
