# generated using pymatgen
data_Zr2N2O
_symmetry_space_group_name_H-M   'P 1'
_cell_length_a   9.61810066
_cell_length_b   9.61810066
_cell_length_c   5.88464355
_cell_angle_alpha   74.17728958
_cell_angle_beta   74.17728958
_cell_angle_gamma   119.90248273
_symmetry_Int_Tables_number   1
_chemical_formula_structural   Zr2N2O
_chemical_formula_sum   'Zr12 N12 O6'
_cell_volume   395.80975646
_cell_formula_units_Z   6
loop_
 _symmetry_equiv_pos_site_id
 _symmetry_equiv_pos_as_xyz
  1  'x, y, z'
loop_
 _atom_site_type_symbol
 _atom_site_label
 _atom_site_symmetry_multiplicity
 _atom_site_fract_x
 _atom_site_fract_y
 _atom_site_fract_z
 _atom_site_occupancy
  Zr  Zr0  1  0.52293300  0.68639300  0.93922200  1
  Zr  Zr1  1  0.31360700  0.47706700  0.56077800  1
  Zr  Zr2  1  0.02941800  0.19247300  0.41321200  1
  Zr  Zr3  1  0.80752700  0.97058200  0.08678800  1
  Zr  Zr4  1  0.35854200  0.85914100  0.42599900  1
  Zr  Zr5  1  0.64145800  0.14085900  0.57400100  1
  Zr  Zr6  1  0.19247300  0.02941800  0.91321200  1
  Zr  Zr7  1  0.47706700  0.31360700  0.06077800  1
  Zr  Zr8  1  0.14085900  0.64145800  0.07400100  1
  Zr  Zr9  1  0.85914100  0.35854200  0.92599900  1
  Zr  Zr10  1  0.97058200  0.80752700  0.58678800  1
  Zr  Zr11  1  0.68639300  0.52293300  0.43922200  1
  N  N12  1  0.31666600  0.68333400  0.25000000  1
  N  N13  1  0.95059600  0.35096300  0.24836200  1
  N  N14  1  0.64903700  0.04940400  0.25163800  1
  N  N15  1  0.35096300  0.95059600  0.74836200  1
  N  N16  1  0.68333400  0.31666600  0.75000000  1
  N  N17  1  0.31854100  0.38602900  0.24451000  1
  N  N18  1  0.68145900  0.61397100  0.75549000  1
  N  N19  1  0.38602900  0.31854100  0.74451000  1
  N  N20  1  0.04940400  0.64903700  0.75163800  1
  N  N21  1  0.98619800  0.01380200  0.25000000  1
  N  N22  1  0.61397100  0.68145900  0.25549000  1
  N  N23  1  0.01380200  0.98619800  0.75000000  1
  O  O24  1  0.71633700  0.98448000  0.75301200  1
  O  O25  1  0.35154200  0.64845800  0.75000000  1
  O  O26  1  0.28366300  0.01552000  0.24698800  1
  O  O27  1  0.01552000  0.28366300  0.74698800  1
  O  O28  1  0.64845800  0.35154200  0.25000000  1
  O  O29  1  0.98448000  0.71633700  0.25301200  1
