# generated using pymatgen
data_Sc2H6(SeO4)3
_symmetry_space_group_name_H-M   'P 1'
_cell_length_a   9.04317363
_cell_length_b   9.04317363
_cell_length_c   9.04317405
_cell_angle_alpha   65.94271163
_cell_angle_beta   65.94271163
_cell_angle_gamma   65.94270995
_symmetry_Int_Tables_number   1
_chemical_formula_structural   Sc2H6(SeO4)3
_chemical_formula_sum   'Sc4 H12 Se6 O24'
_cell_volume   590.22185414
_cell_formula_units_Z   2
loop_
 _symmetry_equiv_pos_site_id
 _symmetry_equiv_pos_as_xyz
  1  'x, y, z'
loop_
 _atom_site_type_symbol
 _atom_site_label
 _atom_site_symmetry_multiplicity
 _atom_site_fract_x
 _atom_site_fract_y
 _atom_site_fract_z
 _atom_site_occupancy
  Sc  Sc0  1  0.15820300  0.15820300  0.15820300  1
  Sc  Sc1  1  0.39207000  0.39207000  0.39207000  1
  Sc  Sc2  1  0.89207000  0.89207000  0.89207000  1
  Sc  Sc3  1  0.65820300  0.65820300  0.65820300  1
  H  H4  1  0.92133200  0.20588500  0.88373900  1
  H  H5  1  0.88609100  0.24414400  0.71207300  1
  H  H6  1  0.74414400  0.38609100  0.21207300  1
  H  H7  1  0.70588500  0.42133200  0.38373900  1
  H  H8  1  0.38609100  0.21207300  0.74414400  1
  H  H9  1  0.42133200  0.38373900  0.70588500  1
  H  H10  1  0.88373900  0.92133200  0.20588500  1
  H  H11  1  0.71207300  0.88609100  0.24414400  1
  H  H12  1  0.38373900  0.70588500  0.42133200  1
  H  H13  1  0.24414400  0.71207300  0.88609100  1
  H  H14  1  0.21207300  0.74414400  0.38609100  1
  H  H15  1  0.20588500  0.88373900  0.92133200  1
  Se  Se16  1  0.99899400  0.45874100  0.37348700  1
  Se  Se17  1  0.95874100  0.49899400  0.87348700  1
  Se  Se18  1  0.45874100  0.37348700  0.99899400  1
  Se  Se19  1  0.87348700  0.95874100  0.49899400  1
  Se  Se20  1  0.49899400  0.87348700  0.95874100  1
  Se  Se21  1  0.37348700  0.99899400  0.45874100  1
  O  O22  1  0.90976800  0.15336700  0.81411100  1
  O  O23  1  0.96519000  0.30681700  0.03226800  1
  O  O24  1  0.48407300  0.14252700  0.39862000  1
  O  O25  1  0.80681700  0.46519000  0.53226800  1
  O  O26  1  0.35437400  0.02273100  0.26861400  1
  O  O27  1  0.30681700  0.03226800  0.96519000  1
  O  O28  1  0.89862000  0.64252700  0.98407300  1
  O  O29  1  0.76861400  0.52273100  0.85437400  1
  O  O30  1  0.65336700  0.40976800  0.31411100  1
  O  O31  1  0.40976800  0.31411100  0.65336700  1
  O  O32  1  0.85437400  0.76861400  0.52273100  1
  O  O33  1  0.98407300  0.89862000  0.64252700  1
  O  O34  1  0.46519000  0.53226800  0.80681700  1
  O  O35  1  0.39862000  0.48407300  0.14252700  1
  O  O36  1  0.26861400  0.35437400  0.02273100  1
  O  O37  1  0.81411100  0.90976800  0.15336700  1
  O  O38  1  0.02273100  0.26861400  0.35437400  1
  O  O39  1  0.14252700  0.39862000  0.48407300  1
  O  O40  1  0.53226800  0.80681700  0.46519000  1
  O  O41  1  0.31411100  0.65336700  0.40976800  1
  O  O42  1  0.52273100  0.85437400  0.76861400  1
  O  O43  1  0.64252700  0.98407300  0.89862000  1
  O  O44  1  0.15336700  0.81411100  0.90976800  1
  O  O45  1  0.03226800  0.96519000  0.30681700  1
