# generated using pymatgen
data_Ti3CrSn2(PO4)6
_symmetry_space_group_name_H-M   'P 1'
_cell_length_a   9.01241058
_cell_length_b   9.01241058
_cell_length_c   9.01241045
_cell_angle_alpha   57.24201194
_cell_angle_beta   57.24201194
_cell_angle_gamma   57.24200800
_symmetry_Int_Tables_number   1
_chemical_formula_structural   Ti3CrSn2(PO4)6
_chemical_formula_sum   'Ti3 Cr1 Sn2 P6 O24'
_cell_volume   484.73934559
_cell_formula_units_Z   1
loop_
 _symmetry_equiv_pos_site_id
 _symmetry_equiv_pos_as_xyz
  1  'x, y, z'
loop_
 _atom_site_type_symbol
 _atom_site_label
 _atom_site_symmetry_multiplicity
 _atom_site_fract_x
 _atom_site_fract_y
 _atom_site_fract_z
 _atom_site_occupancy
  Ti  Ti0  1  0.85296000  0.85296000  0.85296000  1
  Ti  Ti1  1  0.64881300  0.64881300  0.64881300  1
  Ti  Ti2  1  0.35111300  0.35111300  0.35111300  1
  Cr  Cr3  1  0.14690200  0.14690200  0.14690200  1
  Sn  Sn4  1  0.00286200  0.00286200  0.00286200  1
  Sn  Sn5  1  0.50141100  0.50141100  0.50141100  1
  P  P6  1  0.24962500  0.53481900  0.96229100  1
  P  P7  1  0.96229100  0.24962500  0.53481900  1
  P  P8  1  0.46195500  0.03864200  0.75065800  1
  P  P9  1  0.03864200  0.75065800  0.46195500  1
  P  P10  1  0.75065800  0.46195500  0.03864200  1
  P  P11  1  0.53481900  0.96229100  0.24962500  1
  O  O12  1  0.71042200  0.49601400  0.87456600  1
  O  O13  1  0.49601400  0.87456600  0.71042200  1
  O  O14  1  0.07770000  0.72027300  0.93859200  1
  O  O15  1  0.87456600  0.71042200  0.49601400  1
  O  O16  1  0.21588500  0.37227100  0.98940600  1
  O  O17  1  0.42313300  0.56354400  0.77871200  1
  O  O18  1  0.93859200  0.07770000  0.72027300  1
  O  O19  1  0.77871200  0.42313300  0.56354400  1
  O  O20  1  0.62629700  0.00560100  0.78914000  1
  O  O21  1  0.56354400  0.77871200  0.42313300  1
  O  O22  1  0.27755200  0.06037000  0.92298100  1
  O  O23  1  0.00560100  0.78914000  0.62629700  1
  O  O24  1  0.98940600  0.21588500  0.37227100  1
  O  O25  1  0.72027300  0.93859200  0.07770000  1
  O  O26  1  0.43884800  0.22152500  0.57611100  1
  O  O27  1  0.37227100  0.98940600  0.21588500  1
  O  O28  1  0.22152500  0.57611100  0.43884800  1
  O  O29  1  0.06037000  0.92298100  0.27755200  1
  O  O30  1  0.57611100  0.43884800  0.22152500  1
  O  O31  1  0.78914000  0.62629700  0.00560100  1
  O  O32  1  0.12773700  0.28835500  0.50291300  1
  O  O33  1  0.92298100  0.27755200  0.06037000  1
  O  O34  1  0.50291300  0.12773700  0.28835500  1
  O  O35  1  0.28835500  0.50291300  0.12773700  1
