# generated using pymatgen
data_Zr2N2O
_symmetry_space_group_name_H-M   'P 1'
_cell_length_a   7.04354973
_cell_length_b   7.04354973
_cell_length_c   16.67824352
_cell_angle_alpha   79.55875590
_cell_angle_beta   79.55875590
_cell_angle_gamma   27.56168387
_symmetry_Int_Tables_number   1
_chemical_formula_structural   Zr2N2O
_chemical_formula_sum   'Zr12 N12 O6'
_cell_volume   376.13214155
_cell_formula_units_Z   6
loop_
 _symmetry_equiv_pos_site_id
 _symmetry_equiv_pos_as_xyz
  1  'x, y, z'
loop_
 _atom_site_type_symbol
 _atom_site_label
 _atom_site_symmetry_multiplicity
 _atom_site_fract_x
 _atom_site_fract_y
 _atom_site_fract_z
 _atom_site_occupancy
  Zr  Zr0  1  0.96982600  0.96982600  0.15454700  1
  Zr  Zr1  1  0.96338000  0.96338000  0.65218000  1
  Zr  Zr2  1  0.37156600  0.37156600  0.98749600  1
  Zr  Zr3  1  0.30467300  0.30467300  0.81714100  1
  Zr  Zr4  1  0.36540900  0.36540900  0.49650100  1
  Zr  Zr5  1  0.69532700  0.69532700  0.18285900  1
  Zr  Zr6  1  0.30296000  0.30296000  0.31535800  1
  Zr  Zr7  1  0.62843400  0.62843400  0.01250400  1
  Zr  Zr8  1  0.69704000  0.69704000  0.68464200  1
  Zr  Zr9  1  0.63459100  0.63459100  0.50349900  1
  Zr  Zr10  1  0.03017400  0.03017400  0.84545300  1
  Zr  Zr11  1  0.03662000  0.03662000  0.34782000  1
  N  N12  1  0.46622400  0.46622400  0.07892200  1
  N  N13  1  0.47438500  0.47438500  0.57787800  1
  N  N14  1  0.82654700  0.82654700  0.23397700  1
  N  N15  1  0.87236100  0.87236100  0.89440900  1
  N  N16  1  0.82835200  0.82835200  0.73556300  1
  N  N17  1  0.79591000  0.79591000  0.56242500  1
  N  N18  1  0.12763900  0.12763900  0.10559100  1
  N  N19  1  0.17345300  0.17345300  0.76602300  1
  N  N20  1  0.20409000  0.20409000  0.43757500  1
  N  N21  1  0.17164800  0.17164800  0.26443700  1
  N  N22  1  0.53377600  0.53377600  0.92107800  1
  N  N23  1  0.52561500  0.52561500  0.42212200  1
  O  O24  1  0.79197900  0.79197900  0.05978000  1
  O  O25  1  0.87424000  0.87424000  0.38696000  1
  O  O26  1  0.20802100  0.20802100  0.94022000  1
  O  O27  1  0.12576000  0.12576000  0.61304000  1
  O  O28  1  0.49977300  0.49977300  0.74984600  1
  O  O29  1  0.50022700  0.50022700  0.25015400  1
