# generated using pymatgen
data_Li4Ti3V3(CoO8)2
_symmetry_space_group_name_H-M   'P 1'
_cell_length_a   5.85120882
_cell_length_b   5.85269614
_cell_length_c   9.72125565
_cell_angle_alpha   90.10384517
_cell_angle_beta   89.56768176
_cell_angle_gamma   119.89205009
_symmetry_Int_Tables_number   1
_chemical_formula_structural   Li4Ti3V3(CoO8)2
_chemical_formula_sum   'Li4 Ti3 V3 Co2 O16'
_cell_volume   288.61074733
_cell_formula_units_Z   1
loop_
 _symmetry_equiv_pos_site_id
 _symmetry_equiv_pos_as_xyz
  1  'x, y, z'
loop_
 _atom_site_type_symbol
 _atom_site_label
 _atom_site_symmetry_multiplicity
 _atom_site_fract_x
 _atom_site_fract_y
 _atom_site_fract_z
 _atom_site_occupancy
  Li  Li0  1  0.33487600  0.66783000  0.88972700  1
  Li  Li1  1  0.99826600  0.99888900  0.99710900  1
  Li  Li2  1  0.99420700  0.99808300  0.49953400  1
  Li  Li3  1  0.66770100  0.33386200  0.39111000  1
  Ti  Ti4  1  0.17160400  0.83284400  0.21572300  1
  Ti  Ti5  1  0.17169100  0.33890100  0.21587800  1
  Ti  Ti6  1  0.33793100  0.16648300  0.71963900  1
  V  V7  1  0.66434400  0.83245600  0.21250900  1
  V  V8  1  0.83629000  0.18111100  0.71238700  1
  V  V9  1  0.83286900  0.65545600  0.71317200  1
  Co  Co10  1  0.33969300  0.66916000  0.49151500  1
  Co  Co11  1  0.66960600  0.33366500  0.99219300  1
  O  O12  1  0.15086900  0.83037200  0.60597900  1
  O  O13  1  0.03419400  0.51750300  0.33128100  1
  O  O14  1  0.33346600  0.66626200  0.10272500  1
  O  O15  1  0.99859500  0.99984800  0.31591700  1
  O  O16  1  0.99420600  0.99769600  0.81280000  1
  O  O17  1  0.15401200  0.32174200  0.60584800  1
  O  O18  1  0.48587900  0.96380900  0.33129700  1
  O  O19  1  0.48656500  0.52283000  0.33106800  1
  O  O20  1  0.32154900  0.16043500  0.10455800  1
  O  O21  1  0.67912400  0.84232800  0.61033800  1
  O  O22  1  0.52523600  0.48770600  0.82911400  1
  O  O23  1  0.52058800  0.03669100  0.83004700  1
  O  O24  1  0.66436000  0.33202400  0.60101000  1
  O  O25  1  0.83294400  0.67862800  0.10596000  1
  O  O26  1  0.96680600  0.48047300  0.83313900  1
  O  O27  1  0.83253000  0.15321200  0.10626200  1
