# generated using pymatgen
data_VOF3
_symmetry_space_group_name_H-M   'P 1'
_cell_length_a   5.46281000
_cell_length_b   5.52763180
_cell_length_c   10.89258904
_cell_angle_alpha   91.75705130
_cell_angle_beta   91.67764443
_cell_angle_gamma   118.34329524
_symmetry_Int_Tables_number   1
_chemical_formula_structural   VOF3
_chemical_formula_sum   'V4 O4 F12'
_cell_volume   288.99053710
_cell_formula_units_Z   4
loop_
 _symmetry_equiv_pos_site_id
 _symmetry_equiv_pos_as_xyz
  1  'x, y, z'
loop_
 _atom_site_type_symbol
 _atom_site_label
 _atom_site_symmetry_multiplicity
 _atom_site_fract_x
 _atom_site_fract_y
 _atom_site_fract_z
 _atom_site_occupancy
  V  V0  1  0.95726900  0.94077600  0.02622700  1
  V  V1  1  0.97638900  0.95703500  0.52099200  1
  V  V2  1  0.46037800  0.47556600  0.77784900  1
  V  V3  1  0.52374100  0.54382400  0.27248300  1
  O  O4  1  0.77418800  0.69557000  0.59517800  1
  O  O5  1  0.75149500  0.68370400  0.10885200  1
  O  O6  1  0.74771600  0.81763800  0.35885500  1
  O  O7  1  0.25943700  0.33169800  0.88771000  1
  F  F8  1  0.17180400  0.83023600  0.95034000  1
  F  F9  1  0.21824900  0.87209700  0.45215000  1
  F  F10  1  0.22780000  0.15007200  0.14051700  1
  F  F11  1  0.25443700  0.17552100  0.64798400  1
  F  F12  1  0.32378000  0.66830300  0.70193100  1
  F  F13  1  0.30487500  0.64981300  0.19456500  1
  F  F14  1  0.70807600  0.35444300  0.78249600  1
  F  F15  1  0.68096800  0.32924000  0.27380000  1
  F  F16  1  0.72974300  0.80837100  0.86277000  1
  F  F17  1  0.81105000  0.16518200  0.02972600  1
  F  F18  1  0.84207000  0.19154500  0.53235100  1
  F  F19  1  0.27653400  0.35936500  0.38322500  1
