# generated using pymatgen
data_Mn7Nb(PO4)12
_symmetry_space_group_name_H-M   'P 1'
_cell_length_a   8.49535600
_cell_length_b   8.52217817
_cell_length_c   11.85042674
_cell_angle_alpha   90.02923117
_cell_angle_beta   90.01057879
_cell_angle_gamma   90.03000537
_symmetry_Int_Tables_number   1
_chemical_formula_structural   Mn7Nb(PO4)12
_chemical_formula_sum   'Mn7 Nb1 P12 O48'
_cell_volume   857.95806054
_cell_formula_units_Z   1
loop_
 _symmetry_equiv_pos_site_id
 _symmetry_equiv_pos_as_xyz
  1  'x, y, z'
loop_
 _atom_site_type_symbol
 _atom_site_label
 _atom_site_symmetry_multiplicity
 _atom_site_fract_x
 _atom_site_fract_y
 _atom_site_fract_z
 _atom_site_occupancy
  Mn  Mn0  1  0.96642000  0.24982500  0.38271100  1
  Mn  Mn1  1  0.53547900  0.25038200  0.61903300  1
  Mn  Mn2  1  0.03484200  0.24981700  0.88253700  1
  Mn  Mn3  1  0.46654200  0.24964700  0.11736100  1
  Mn  Mn4  1  0.53534100  0.75072000  0.88037400  1
  Mn  Mn5  1  0.96514500  0.75061300  0.11644400  1
  Mn  Mn6  1  0.03356000  0.74950900  0.61891500  1
  Nb  Nb7  1  0.46905000  0.74972000  0.37591100  1
  P  P8  1  0.24555600  0.04220200  0.50414200  1
  P  P9  1  0.75003000  0.46527600  0.99943900  1
  P  P10  1  0.25015200  0.53598900  0.00014800  1
  P  P11  1  0.75765200  0.96877600  0.50396300  1
  P  P12  1  0.39110000  0.10679300  0.85493000  1
  P  P13  1  0.10925400  0.10664000  0.14447000  1
  P  P14  1  0.61033500  0.38154600  0.35407800  1
  P  P15  1  0.89181500  0.39327700  0.64506700  1
  P  P16  1  0.09611600  0.60537100  0.35374200  1
  P  P17  1  0.39011200  0.60278900  0.64959800  1
  P  P18  1  0.61273600  0.89957400  0.13642500  1
  P  P19  1  0.89194600  0.89299900  0.85428600  1
  O  O20  1  0.64572100  0.06354400  0.57870900  1
  O  O21  1  0.86432800  0.06201400  0.42513300  1
  O  O22  1  0.90187300  0.07397400  0.84142200  1
  O  O23  1  0.60476900  0.07824800  0.15196300  1
  O  O24  1  0.15862400  0.15038100  0.42132000  1
  O  O25  1  0.34035400  0.14773600  0.58454400  1
  O  O26  1  0.43860300  0.16061300  0.97245000  1
  O  O27  1  0.06046900  0.15987500  0.02680300  1
  O  O28  1  0.22115000  0.15145200  0.82483400  1
  O  O29  1  0.27979600  0.14978500  0.17392700  1
  O  O30  1  0.51355900  0.17827100  0.77256000  1
  O  O31  1  0.98956000  0.17707500  0.22847900  1
  O  O32  1  0.01208300  0.32096800  0.72834500  1
  O  O33  1  0.48852700  0.31172200  0.27228700  1
  O  O34  1  0.78012900  0.33914200  0.32423100  1
  O  O35  1  0.72166800  0.34971400  0.67575300  1
  O  O36  1  0.56200400  0.33622400  0.47356500  1
  O  O37  1  0.93893100  0.34080800  0.52693400  1
  O  O38  1  0.84070300  0.35422500  0.91931900  1
  O  O39  1  0.65794500  0.35806900  0.08075200  1
  O  O40  1  0.09274800  0.42546000  0.34068800  1
  O  O41  1  0.40020600  0.42251600  0.66151300  1
  O  O42  1  0.14159900  0.43962500  0.92326900  1
  O  O43  1  0.35752200  0.43981800  0.07763800  1
  O  O44  1  0.64157000  0.56101800  0.92244100  1
  O  O45  1  0.85924400  0.56137000  0.07570900  1
  O  O46  1  0.59858300  0.56361600  0.34249000  1
  O  O47  1  0.90132300  0.57411900  0.65865000  1
  O  O48  1  0.34152000  0.64618100  0.92001300  1
  O  O49  1  0.15852500  0.64514400  0.08136300  1
  O  O50  1  0.05645900  0.66014100  0.47281500  1
  O  O51  1  0.43765700  0.65823500  0.53049400  1
  O  O52  1  0.22026300  0.64965500  0.67658600  1
  O  O53  1  0.26869800  0.65085900  0.32550800  1
  O  O54  1  0.51152100  0.67789900  0.72957700  1
  O  O55  1  0.97843800  0.68054400  0.27128100  1
  O  O56  1  0.01385700  0.81966200  0.77282300  1
  O  O57  1  0.49297200  0.82455700  0.22034900  1
  O  O58  1  0.72272500  0.84743200  0.82271500  1
  O  O59  1  0.77930700  0.85015200  0.17117300  1
  O  O60  1  0.56625200  0.84399800  0.01984300  1
  O  O61  1  0.93995800  0.84054100  0.97227400  1
  O  O62  1  0.66054200  0.86119600  0.42361600  1
  O  O63  1  0.84376900  0.85733200  0.58483700  1
  O  O64  1  0.09854200  0.92562100  0.15803100  1
  O  O65  1  0.40137000  0.92600800  0.84036000  1
  O  O66  1  0.13921200  0.94197100  0.57914500  1
  O  O67  1  0.35163800  0.94002500  0.42789300  1
