# generated using pymatgen
data_Ca2Ti6N2O11
_symmetry_space_group_name_H-M   'P 1'
_cell_length_a   7.64547296
_cell_length_b   7.64547296
_cell_length_c   9.39857038
_cell_angle_alpha   80.56721647
_cell_angle_beta   80.56721647
_cell_angle_gamma   28.81153147
_symmetry_Int_Tables_number   1
_chemical_formula_structural   Ca2Ti6N2O11
_chemical_formula_sum   'Ca2 Ti6 N2 O11'
_cell_volume   260.94341242
_cell_formula_units_Z   1
loop_
 _symmetry_equiv_pos_site_id
 _symmetry_equiv_pos_as_xyz
  1  'x, y, z'
loop_
 _atom_site_type_symbol
 _atom_site_label
 _atom_site_symmetry_multiplicity
 _atom_site_fract_x
 _atom_site_fract_y
 _atom_site_fract_z
 _atom_site_occupancy
  Ca  Ca0  1  0.55959600  0.55959600  0.25801000  1
  Ca  Ca1  1  0.45855600  0.45855600  0.79885100  1
  Ti  Ti2  1  0.12199100  0.12199100  0.92192800  1
  Ti  Ti3  1  0.15746000  0.15746000  0.56509300  1
  Ti  Ti4  1  0.24316600  0.24316600  0.22810000  1
  Ti  Ti5  1  0.77329400  0.77329400  0.75313800  1
  Ti  Ti6  1  0.83503000  0.83503000  0.42076700  1
  Ti  Ti7  1  0.87741300  0.87741300  0.09652400  1
  N  N8  1  0.75958400  0.75958400  0.25353900  1
  N  N9  1  0.35404500  0.35404500  0.09171000  1
  O  O10  1  0.05837300  0.05837300  0.70674700  1
  O  O11  1  0.11544200  0.11544200  0.39456600  1
  O  O12  1  0.14807300  0.14807300  0.10884200  1
  O  O13  1  0.64084000  0.64084000  0.88712500  1
  O  O14  1  0.69668200  0.69668200  0.57268600  1
  O  O15  1  0.23918000  0.23918000  0.75482600  1
  O  O16  1  0.30123800  0.30123800  0.42792600  1
  O  O17  1  0.84486000  0.84486000  0.88888500  1
  O  O18  1  0.87439700  0.87439700  0.60436800  1
  O  O19  1  0.94043200  0.94043200  0.28212900  1
  O  O20  1  0.00035000  0.00035000  0.98424200  1
