# generated using pymatgen
data_Mn8O13F3
_symmetry_space_group_name_H-M   'P 1'
_cell_length_a   5.97357800
_cell_length_b   4.52668400
_cell_length_c   9.34988514
_cell_angle_alpha   85.87592186
_cell_angle_beta   90.00000000
_cell_angle_gamma   90.00000000
_symmetry_Int_Tables_number   1
_chemical_formula_structural   Mn8O13F3
_chemical_formula_sum   'Mn8 O13 F3'
_cell_volume   252.17091442
_cell_formula_units_Z   1
loop_
 _symmetry_equiv_pos_site_id
 _symmetry_equiv_pos_as_xyz
  1  'x, y, z'
loop_
 _atom_site_type_symbol
 _atom_site_label
 _atom_site_symmetry_multiplicity
 _atom_site_fract_x
 _atom_site_fract_y
 _atom_site_fract_z
 _atom_site_occupancy
  Mn  Mn0  1  0.00000000  0.00348500  0.00071800  1
  Mn  Mn1  1  0.75069100  0.53919900  0.26436300  1
  Mn  Mn2  1  0.50000000  0.97005000  0.98667400  1
  Mn  Mn3  1  0.00000000  0.01007900  0.50493900  1
  Mn  Mn4  1  0.74266800  0.47283900  0.73970200  1
  Mn  Mn5  1  0.24930900  0.53919900  0.26436300  1
  Mn  Mn6  1  0.50000000  0.00327800  0.50090400  1
  Mn  Mn7  1  0.25733200  0.47283900  0.73970200  1
  O  O8  1  0.75103200  0.78352900  0.08988500  1
  O  O9  1  0.74806800  0.20592900  0.90766400  1
  O  O10  1  0.00000000  0.74082200  0.34002600  1
  O  O11  1  0.25193200  0.20592900  0.90766400  1
  O  O12  1  0.75135600  0.22375300  0.41564900  1
  O  O13  1  0.50000000  0.73700500  0.34347000  1
  O  O14  1  0.24896800  0.78352900  0.08988500  1
  O  O15  1  0.75036800  0.77925100  0.58338500  1
  O  O16  1  0.00000000  0.26840300  0.66140600  1
  O  O17  1  0.24963200  0.77925100  0.58338500  1
  O  O18  1  0.50000000  0.27210500  0.66116200  1
  O  O19  1  0.24864400  0.22375300  0.41564900  1
  O  O20  1  0.50000000  0.67542200  0.82345600  1
  F  F21  1  0.00000000  0.30827000  0.17193000  1
  F  F22  1  0.00000000  0.68513600  0.82813900  1
  F  F23  1  0.50000000  0.31694700  0.17588000  1
