# generated using pymatgen
data_Co3Te
_symmetry_space_group_name_H-M   'P 1'
_cell_length_a   4.52223150
_cell_length_b   4.52223150
_cell_length_c   4.52223150
_cell_angle_alpha   130.97710446
_cell_angle_beta   130.97710446
_cell_angle_gamma   71.84945778
_symmetry_Int_Tables_number   1
_chemical_formula_structural   Co3Te
_chemical_formula_sum   'Co3 Te1'
_cell_volume   51.56138655
_cell_formula_units_Z   1
loop_
 _symmetry_equiv_pos_site_id
 _symmetry_equiv_pos_as_xyz
  1  'x, y, z'
loop_
 _atom_site_type_symbol
 _atom_site_label
 _atom_site_symmetry_multiplicity
 _atom_site_fract_x
 _atom_site_fract_y
 _atom_site_fract_z
 _atom_site_occupancy
  Co  Co0  1  0.75000000  0.25000000  0.50000000  1
  Co  Co1  1  0.25000000  0.75000000  0.50000000  1
  Co  Co2  1  0.50000000  0.50000000  0.00000000  1
  Te  Te3  1  0.00000000  0.00000000  0.00000000  1
