# generated using pymatgen
data_VOF2
_symmetry_space_group_name_H-M   'P 1'
_cell_length_a   5.18583200
_cell_length_b   5.18740460
_cell_length_c   13.41250391
_cell_angle_alpha   88.68015720
_cell_angle_beta   89.13714980
_cell_angle_gamma   60.69916134
_symmetry_Int_Tables_number   1
_chemical_formula_structural   VOF2
_chemical_formula_sum   'V6 O6 F12'
_cell_volume   314.56218425
_cell_formula_units_Z   6
loop_
 _symmetry_equiv_pos_site_id
 _symmetry_equiv_pos_as_xyz
  1  'x, y, z'
loop_
 _atom_site_type_symbol
 _atom_site_label
 _atom_site_symmetry_multiplicity
 _atom_site_fract_x
 _atom_site_fract_y
 _atom_site_fract_z
 _atom_site_occupancy
  V  V0  1  0.96975300  0.99476600  0.50696500  1
  V  V1  1  0.00485800  0.97732100  0.00752800  1
  V  V2  1  0.69956700  0.64385800  0.17346500  1
  V  V3  1  0.31881100  0.30973000  0.33921500  1
  V  V4  1  0.65924200  0.64193400  0.67400100  1
  V  V5  1  0.31185400  0.32686100  0.84108600  1
  O  O6  1  0.98998200  0.42479100  0.24712100  1
  O  O7  1  0.92190300  0.75791700  0.08072000  1
  O  O8  1  0.24879100  0.08940400  0.41424900  1
  O  O9  1  0.58703800  0.42191500  0.74884000  1
  O  O10  1  0.75150700  0.92134800  0.58157700  1
  O  O11  1  0.09270000  0.25278600  0.91647300  1
  F  F12  1  0.59360900  0.00964000  0.24674800  1
  F  F13  1  0.93514300  0.33427700  0.58251100  1
  F  F14  1  0.68325100  0.06672100  0.91105500  1
  F  F15  1  0.73509800  0.34079200  0.07992700  1
  F  F16  1  0.66412000  0.27097500  0.41395100  1
  F  F17  1  0.00137500  0.60611100  0.74944600  1
  F  F18  1  0.39930500  0.01236900  0.74463600  1
  F  F19  1  0.40465300  0.59392500  0.24948300  1
  F  F20  1  0.34156600  0.73285000  0.57772700  1
  F  F21  1  0.27811600  0.66627500  0.91597400  1
  F  F22  1  0.34275100  0.92632100  0.08512600  1
  F  F23  1  0.06500700  0.67711600  0.41217700  1
