# generated using pymatgen
data_Cr3Pt
_symmetry_space_group_name_H-M   'P 1'
_cell_length_a   5.36343752
_cell_length_b   5.36343752
_cell_length_c   4.12203100
_cell_angle_alpha   90.00000000
_cell_angle_beta   90.00000000
_cell_angle_gamma   119.99999402
_symmetry_Int_Tables_number   1
_chemical_formula_structural   Cr3Pt
_chemical_formula_sum   'Cr6 Pt2'
_cell_volume   102.69004928
_cell_formula_units_Z   2
loop_
 _symmetry_equiv_pos_site_id
 _symmetry_equiv_pos_as_xyz
  1  'x, y, z'
loop_
 _atom_site_type_symbol
 _atom_site_label
 _atom_site_symmetry_multiplicity
 _atom_site_fract_x
 _atom_site_fract_y
 _atom_site_fract_z
 _atom_site_occupancy
  Cr  Cr0  1  0.15122300  0.30244600  0.25000000  1
  Cr  Cr1  1  0.69755400  0.84877700  0.25000000  1
  Cr  Cr2  1  0.15122300  0.84877700  0.25000000  1
  Cr  Cr3  1  0.84877700  0.69755400  0.75000000  1
  Cr  Cr4  1  0.30244600  0.15122300  0.75000000  1
  Cr  Cr5  1  0.84877700  0.15122300  0.75000000  1
  Pt  Pt6  1  0.33333300  0.66666700  0.75000000  1
  Pt  Pt7  1  0.66666700  0.33333300  0.25000000  1
