# generated using pymatgen
data_V2O3
_symmetry_space_group_name_H-M   'P 1'
_cell_length_a   3.77723367
_cell_length_b   5.48081738
_cell_length_c   12.03636200
_cell_angle_alpha   90.00005659
_cell_angle_beta   90.00000358
_cell_angle_gamma   71.75774272
_symmetry_Int_Tables_number   1
_chemical_formula_structural   V2O3
_chemical_formula_sum   'V8 O12'
_cell_volume   236.65724923
_cell_formula_units_Z   4
loop_
 _symmetry_equiv_pos_site_id
 _symmetry_equiv_pos_as_xyz
  1  'x, y, z'
loop_
 _atom_site_type_symbol
 _atom_site_label
 _atom_site_symmetry_multiplicity
 _atom_site_fract_x
 _atom_site_fract_y
 _atom_site_fract_z
 _atom_site_occupancy
  V  V0  1  0.61217500  0.32715600  0.34102400  1
  V  V1  1  0.61217400  0.82715300  0.15897700  1
  V  V2  1  0.84006000  0.28855900  0.04975300  1
  V  V3  1  0.84005600  0.78856000  0.45024800  1
  V  V4  1  0.38786800  0.17288100  0.84102500  1
  V  V5  1  0.38786800  0.67287800  0.65897300  1
  V  V6  1  0.15989100  0.21141600  0.54981800  1
  V  V7  1  0.15988600  0.71142400  0.95018100  1
  O  O8  1  0.93030000  0.08602300  0.89168300  1
  O  O9  1  0.06965800  0.41399900  0.39173500  1
  O  O10  1  0.93030100  0.58602400  0.60831700  1
  O  O11  1  0.06965900  0.91400100  0.10826500  1
  O  O12  1  0.31939000  0.04142600  0.69378000  1
  O  O13  1  0.68068300  0.45857500  0.19376400  1
  O  O14  1  0.31939300  0.54142700  0.80622100  1
  O  O15  1  0.68068300  0.95857400  0.30623600  1
  O  O16  1  0.32571100  0.31850400  0.00490000  1
  O  O17  1  0.67426500  0.18145800  0.50497200  1
  O  O18  1  0.32571000  0.81850300  0.49510000  1
  O  O19  1  0.67427100  0.68146000  0.99503000  1
