# generated using pymatgen
data_CoH5SeClO5
_symmetry_space_group_name_H-M   'P 1'
_cell_length_a   7.38482600
_cell_length_b   9.47725600
_cell_length_c   17.36121500
_cell_angle_alpha   90.00000000
_cell_angle_beta   90.00000000
_cell_angle_gamma   90.00000000
_symmetry_Int_Tables_number   1
_chemical_formula_structural   CoH5SeClO5
_chemical_formula_sum   'Co8 H40 Se8 Cl8 O40'
_cell_volume   1215.07474523
_cell_formula_units_Z   8
loop_
 _symmetry_equiv_pos_site_id
 _symmetry_equiv_pos_as_xyz
  1  'x, y, z'
loop_
 _atom_site_type_symbol
 _atom_site_label
 _atom_site_symmetry_multiplicity
 _atom_site_fract_x
 _atom_site_fract_y
 _atom_site_fract_z
 _atom_site_occupancy
  Co  Co0  1  0.00000000  0.00000000  0.00000000  1
  Co  Co1  1  0.00000000  0.00000000  0.50000000  1
  Co  Co2  1  0.93645400  0.15150100  0.75000000  1
  Co  Co3  1  0.43645400  0.34849900  0.25000000  1
  Co  Co4  1  0.50000000  0.50000000  0.00000000  1
  Co  Co5  1  0.50000000  0.50000000  0.50000000  1
  Co  Co6  1  0.56354600  0.65150100  0.75000000  1
  Co  Co7  1  0.06354600  0.84849900  0.25000000  1
  H  H8  1  0.60287200  0.04569000  0.56290000  1
  H  H9  1  0.60287200  0.04569000  0.93710000  1
  H  H10  1  0.59821100  0.08578700  0.70306600  1
  H  H11  1  0.59821100  0.08578700  0.79693400  1
  H  H12  1  0.26181000  0.15395300  0.16551800  1
  H  H13  1  0.26181000  0.15395300  0.33448200  1
  H  H14  1  0.73584100  0.20145100  0.20590300  1
  H  H15  1  0.73584100  0.20145100  0.29409700  1
  H  H16  1  0.39728100  0.23306000  0.10933800  1
  H  H17  1  0.39728100  0.23306000  0.39066200  1
  H  H18  1  0.89728100  0.26694000  0.60933800  1
  H  H19  1  0.89728100  0.26694000  0.89066200  1
  H  H20  1  0.23584100  0.29854900  0.79409700  1
  H  H21  1  0.23584100  0.29854900  0.70590300  1
  H  H22  1  0.76181000  0.34604700  0.83448200  1
  H  H23  1  0.76181000  0.34604700  0.66551800  1
  H  H24  1  0.09821100  0.41421300  0.29693400  1
  H  H25  1  0.09821100  0.41421300  0.20306600  1
  H  H26  1  0.10287200  0.45431000  0.06290000  1
  H  H27  1  0.10287200  0.45431000  0.43710000  1
  H  H28  1  0.89712800  0.54569000  0.56290000  1
  H  H29  1  0.89712800  0.54569000  0.93710000  1
  H  H30  1  0.90178900  0.58578700  0.70306600  1
  H  H31  1  0.90178900  0.58578700  0.79693400  1
  H  H32  1  0.23819000  0.65395300  0.16551800  1
  H  H33  1  0.23819000  0.65395300  0.33448200  1
  H  H34  1  0.76415900  0.70145100  0.20590300  1
  H  H35  1  0.76415900  0.70145100  0.29409700  1
  H  H36  1  0.10271900  0.73306000  0.10933800  1
  H  H37  1  0.10271900  0.73306000  0.39066200  1
  H  H38  1  0.60271900  0.76694000  0.60933800  1
  H  H39  1  0.60271900  0.76694000  0.89066200  1
  H  H40  1  0.26415900  0.79854900  0.70590300  1
  H  H41  1  0.26415900  0.79854900  0.79409700  1
  H  H42  1  0.73819000  0.84604700  0.66551800  1
  H  H43  1  0.73819000  0.84604700  0.83448200  1
  H  H44  1  0.40178900  0.91421300  0.20306600  1
  H  H45  1  0.40178900  0.91421300  0.29693400  1
  H  H46  1  0.39712800  0.95431000  0.06290000  1
  H  H47  1  0.39712800  0.95431000  0.43710000  1
  Se  Se48  1  0.34208700  0.18487700  0.55137700  1
  Se  Se49  1  0.34208700  0.18487700  0.94862300  1
  Se  Se50  1  0.84208700  0.31512300  0.05137700  1
  Se  Se51  1  0.84208700  0.31512300  0.44862300  1
  Se  Se52  1  0.15791300  0.68487700  0.55137700  1
  Se  Se53  1  0.15791300  0.68487700  0.94862300  1
  Se  Se54  1  0.65791300  0.81512300  0.05137700  1
  Se  Se55  1  0.65791300  0.81512300  0.44862300  1
  Cl  Cl56  1  0.97889100  0.02449100  0.14885000  1
  Cl  Cl57  1  0.97889100  0.02449100  0.35115000  1
  Cl  Cl58  1  0.47889100  0.47550900  0.85115000  1
  Cl  Cl59  1  0.47889100  0.47550900  0.64885000  1
  Cl  Cl60  1  0.52110900  0.52449100  0.14885000  1
  Cl  Cl61  1  0.52110900  0.52449100  0.35115000  1
  Cl  Cl62  1  0.02110900  0.97550900  0.64885000  1
  Cl  Cl63  1  0.02110900  0.97550900  0.85115000  1
  O  O64  1  0.27087300  0.04353500  0.00293400  1
  O  O65  1  0.27087300  0.04353500  0.49706600  1
  O  O66  1  0.67325900  0.08338500  0.75000000  1
  O  O67  1  0.53123500  0.10669900  0.60036800  1
  O  O68  1  0.53123500  0.10669900  0.89963200  1
  O  O69  1  0.37985600  0.20100800  0.16379200  1
  O  O70  1  0.37985600  0.20100800  0.33620800  1
  O  O71  1  0.94747300  0.21537500  0.51808300  1
  O  O72  1  0.94747300  0.21537500  0.98191700  1
  O  O73  1  0.20776000  0.23777300  0.75000000  1
  O  O74  1  0.70776000  0.26222700  0.25000000  1
  O  O75  1  0.44747300  0.28462500  0.01808300  1
  O  O76  1  0.44747300  0.28462500  0.48191700  1
  O  O77  1  0.87985700  0.29899200  0.83620800  1
  O  O78  1  0.87985700  0.29899200  0.66379200  1
  O  O79  1  0.03123500  0.39330100  0.10036800  1
  O  O80  1  0.03123500  0.39330100  0.39963200  1
  O  O81  1  0.17325900  0.41661500  0.25000000  1
  O  O82  1  0.77087300  0.45646500  0.99706600  1
  O  O83  1  0.77087300  0.45646500  0.50293400  1
  O  O84  1  0.22912700  0.54353500  0.00293400  1
  O  O85  1  0.22912700  0.54353500  0.49706600  1
  O  O86  1  0.82674100  0.58338500  0.75000000  1
  O  O87  1  0.96876500  0.60669900  0.60036800  1
  O  O88  1  0.96876500  0.60669900  0.89963200  1
  O  O89  1  0.12014400  0.70100800  0.16379200  1
  O  O90  1  0.12014400  0.70100800  0.33620800  1
  O  O91  1  0.55252700  0.71537500  0.51808300  1
  O  O92  1  0.55252700  0.71537500  0.98191700  1
  O  O93  1  0.29224000  0.73777300  0.75000000  1
  O  O94  1  0.79224000  0.76222700  0.25000000  1
  O  O95  1  0.05252700  0.78462500  0.01808300  1
  O  O96  1  0.05252700  0.78462500  0.48191700  1
  O  O97  1  0.62014300  0.79899200  0.66379200  1
  O  O98  1  0.62014300  0.79899200  0.83620800  1
  O  O99  1  0.46876500  0.89330100  0.10036800  1
  O  O100  1  0.46876500  0.89330100  0.39963200  1
  O  O101  1  0.32674100  0.91661500  0.25000000  1
  O  O102  1  0.72912700  0.95646500  0.50293400  1
  O  O103  1  0.72912700  0.95646500  0.99706600  1
