# generated using pymatgen
data_Na5Co2As(CO4)4
_symmetry_space_group_name_H-M   'P 1'
_cell_length_a   10.00958724
_cell_length_b   10.00958724
_cell_length_c   9.90830843
_cell_angle_alpha   60.37775736
_cell_angle_beta   60.37775736
_cell_angle_gamma   90.75962414
_symmetry_Int_Tables_number   1
_chemical_formula_structural   Na5Co2As(CO4)4
_chemical_formula_sum   'Na10 Co4 As2 C8 O32'
_cell_volume   705.27421381
_cell_formula_units_Z   2
loop_
 _symmetry_equiv_pos_site_id
 _symmetry_equiv_pos_as_xyz
  1  'x, y, z'
loop_
 _atom_site_type_symbol
 _atom_site_label
 _atom_site_symmetry_multiplicity
 _atom_site_fract_x
 _atom_site_fract_y
 _atom_site_fract_z
 _atom_site_occupancy
  Na  Na0  1  0.91274200  0.08725800  0.75000000  1
  Na  Na1  1  0.90534800  0.65192000  0.17941900  1
  Na  Na2  1  0.90551800  0.65209200  0.76234400  1
  Na  Na3  1  0.65192000  0.90534800  0.67941900  1
  Na  Na4  1  0.34790800  0.09448200  0.73765600  1
  Na  Na5  1  0.65209200  0.90551800  0.26234400  1
  Na  Na6  1  0.34808000  0.09465200  0.32058100  1
  Na  Na7  1  0.09448200  0.34790800  0.23765600  1
  Na  Na8  1  0.09465200  0.34808000  0.82058100  1
  Na  Na9  1  0.08725800  0.91274200  0.25000000  1
  Co  Co10  1  0.50000000  0.00000000  0.00000000  1
  Co  Co11  1  0.50000000  0.50000000  0.50000000  1
  Co  Co12  1  0.50000000  0.50000000  0.00000000  1
  Co  Co13  1  0.00000000  0.50000000  0.50000000  1
  As  As14  1  0.87212300  0.12787700  0.25000000  1
  As  As15  1  0.12787700  0.87212300  0.75000000  1
  C  C16  1  0.71327300  0.28632300  0.57392700  1
  C  C17  1  0.64218200  0.71701700  0.06918700  1
  C  C18  1  0.28298300  0.35781800  0.43081300  1
  C  C19  1  0.28632300  0.71327300  0.07392700  1
  C  C20  1  0.71367700  0.28672700  0.92607300  1
  C  C21  1  0.71701700  0.64218200  0.56918700  1
  C  C22  1  0.35781800  0.28298300  0.93081300  1
  C  C23  1  0.28672700  0.71367700  0.42607300  1
  O  O24  1  0.85861600  0.31304700  0.53859000  1
  O  O25  1  0.64631300  0.68749600  0.20982300  1
  O  O26  1  0.68331000  0.40131300  0.46634000  1
  O  O27  1  0.64741400  0.86150900  0.95443000  1
  O  O28  1  0.60281800  0.14178800  0.71166100  1
  O  O29  1  0.94246200  0.05586700  0.39251000  1
  O  O30  1  0.95432700  0.33752200  0.10522700  1
  O  O31  1  0.64354800  0.60849000  0.03391300  1
  O  O32  1  0.31304700  0.85861600  0.03859000  1
  O  O33  1  0.39151000  0.35645200  0.46608700  1
  O  O34  1  0.94413300  0.05753800  0.10749000  1
  O  O35  1  0.66247800  0.04567300  0.39477300  1
  O  O36  1  0.85821200  0.39718200  0.78833900  1
  O  O37  1  0.68749600  0.64631300  0.70982300  1
  O  O38  1  0.13849100  0.35258600  0.54557000  1
  O  O39  1  0.40131300  0.68331000  0.96634000  1
  O  O40  1  0.86150900  0.64741400  0.45443000  1
  O  O41  1  0.59868700  0.31669000  0.03366000  1
  O  O42  1  0.31250400  0.35368700  0.29017700  1
  O  O43  1  0.14178800  0.60281800  0.21166100  1
  O  O44  1  0.33752200  0.95432700  0.60522700  1
  O  O45  1  0.05586700  0.94246200  0.89251000  1
  O  O46  1  0.68695300  0.14138400  0.96141000  1
  O  O47  1  0.60849000  0.64354800  0.53391300  1
  O  O48  1  0.35645200  0.39151000  0.96608700  1
  O  O49  1  0.05753800  0.94413300  0.60749000  1
  O  O50  1  0.04567300  0.66247800  0.89477300  1
  O  O51  1  0.39718200  0.85821200  0.28833900  1
  O  O52  1  0.35258600  0.13849100  0.04557000  1
  O  O53  1  0.31669000  0.59868700  0.53366000  1
  O  O54  1  0.35368700  0.31250400  0.79017700  1
  O  O55  1  0.14138400  0.68695300  0.46141000  1
