# generated using pymatgen
data_BaO
_symmetry_space_group_name_H-M   'P 1'
_cell_length_a   3.92385990
_cell_length_b   3.92385990
_cell_length_c   52.70602800
_cell_angle_alpha   90.00000000
_cell_angle_beta   90.00000000
_cell_angle_gamma   120.17806991
_symmetry_Int_Tables_number   1
_chemical_formula_structural   BaO
_chemical_formula_sum   'Ba16 O16'
_cell_volume   701.51317146
_cell_formula_units_Z   16
loop_
 _symmetry_equiv_pos_site_id
 _symmetry_equiv_pos_as_xyz
  1  'x, y, z'
loop_
 _atom_site_type_symbol
 _atom_site_label
 _atom_site_symmetry_multiplicity
 _atom_site_fract_x
 _atom_site_fract_y
 _atom_site_fract_z
 _atom_site_occupancy
  Ba  Ba0  1  0.72528400  0.27471600  0.25000000  1
  Ba  Ba1  1  0.21613500  0.78386500  0.56274600  1
  Ba  Ba2  1  0.21613500  0.78386500  0.93725400  1
  Ba  Ba3  1  0.58222900  0.41777100  0.62528500  1
  Ba  Ba4  1  0.58222900  0.41777100  0.87471500  1
  Ba  Ba5  1  0.06441400  0.93558600  0.18748000  1
  Ba  Ba6  1  0.06441400  0.93558600  0.31252000  1
  Ba  Ba7  1  0.50000000  0.50000000  0.00000000  1
  Ba  Ba8  1  0.50000000  0.50000000  0.50000000  1
  Ba  Ba9  1  0.93558600  0.06441400  0.68748000  1
  Ba  Ba10  1  0.93558600  0.06441400  0.81252000  1
  Ba  Ba11  1  0.41777100  0.58222900  0.12528500  1
  Ba  Ba12  1  0.41777100  0.58222900  0.37471500  1
  Ba  Ba13  1  0.78386500  0.21613500  0.06274600  1
  Ba  Ba14  1  0.78386500  0.21613500  0.43725400  1
  Ba  Ba15  1  0.27471600  0.72528400  0.75000000  1
  O  O16  1  0.16164800  0.83835200  0.03076900  1
  O  O17  1  0.09241200  0.90758800  0.09441300  1
  O  O18  1  0.74067200  0.25932800  0.15637800  1
  O  O19  1  0.09241200  0.90758800  0.40558700  1
  O  O20  1  0.74067200  0.25932800  0.34362200  1
  O  O21  1  0.16164800  0.83835200  0.46923100  1
  O  O22  1  0.60695500  0.39304500  0.71837900  1
  O  O23  1  0.60695500  0.39304500  0.78162200  1
  O  O24  1  0.39304500  0.60695500  0.21837900  1
  O  O25  1  0.83835200  0.16164800  0.53076900  1
  O  O26  1  0.83835200  0.16164800  0.96923100  1
  O  O27  1  0.25932800  0.74067200  0.65637800  1
  O  O28  1  0.39304500  0.60695500  0.28162100  1
  O  O29  1  0.90758800  0.09241200  0.59441300  1
  O  O30  1  0.90758800  0.09241200  0.90558700  1
  O  O31  1  0.25932800  0.74067200  0.84362200  1
