# generated using pymatgen
data_CrCl
_symmetry_space_group_name_H-M   'P 1'
_cell_length_a   4.11087956
_cell_length_b   4.11087956
_cell_length_c   6.93098900
_cell_angle_alpha   90.00000000
_cell_angle_beta   90.00000000
_cell_angle_gamma   119.99999287
_symmetry_Int_Tables_number   1
_chemical_formula_structural   CrCl
_chemical_formula_sum   'Cr2 Cl2'
_cell_volume   101.43676211
_cell_formula_units_Z   2
loop_
 _symmetry_equiv_pos_site_id
 _symmetry_equiv_pos_as_xyz
  1  'x, y, z'
loop_
 _atom_site_type_symbol
 _atom_site_label
 _atom_site_symmetry_multiplicity
 _atom_site_fract_x
 _atom_site_fract_y
 _atom_site_fract_z
 _atom_site_occupancy
  Cr  Cr0  1  0.66666700  0.33333300  0.87068500  1
  Cr  Cr1  1  0.33333300  0.66666700  0.37068500  1
  Cl  Cl2  1  0.66666700  0.33333300  0.50431500  1
  Cl  Cl3  1  0.33333300  0.66666700  0.00431500  1
