# generated using pymatgen
data_V4(OF3)3
_symmetry_space_group_name_H-M   'P 1'
_cell_length_a   5.25598100
_cell_length_b   5.39599854
_cell_length_c   17.35092185
_cell_angle_alpha   83.30600588
_cell_angle_beta   81.83523788
_cell_angle_gamma   61.00712620
_symmetry_Int_Tables_number   1
_chemical_formula_structural   V4(OF3)3
_chemical_formula_sum   'V8 O6 F18'
_cell_volume   425.41410414
_cell_formula_units_Z   2
loop_
 _symmetry_equiv_pos_site_id
 _symmetry_equiv_pos_as_xyz
  1  'x, y, z'
loop_
 _atom_site_type_symbol
 _atom_site_label
 _atom_site_symmetry_multiplicity
 _atom_site_fract_x
 _atom_site_fract_y
 _atom_site_fract_z
 _atom_site_occupancy
  V  V0  1  0.37992700  0.34033200  0.87102700  1
  V  V1  1  0.86950600  0.90507300  0.38030500  1
  V  V2  1  0.74642400  0.74698300  0.74952900  1
  V  V3  1  0.23339000  0.26937500  0.24440000  1
  V  V4  1  0.11020300  0.15352200  0.62804400  1
  V  V5  1  0.64310100  0.62226800  0.12450700  1
  V  V6  1  0.99397300  0.97130300  0.00225500  1
  V  V7  1  0.47817600  0.51725300  0.49180100  1
  O  O8  1  0.76477300  0.18616000  0.43366400  1
  O  O9  1  0.47270700  0.07280200  0.81430700  1
  O  O10  1  0.25128300  0.67255600  0.42073400  1
  O  O11  1  0.01675700  0.42225900  0.68483100  1
  O  O12  1  0.01559800  0.41068600  0.17223400  1
  O  O13  1  0.81624600  0.78727300  0.04082200  1
  F  F14  1  0.76544400  0.16348800  0.91284100  1
  F  F15  1  0.28794300  0.67409600  0.93592300  1
  F  F16  1  0.96549100  0.95023700  0.70954500  1
  F  F17  1  0.46671300  0.46591900  0.21170200  1
  F  F18  1  0.21050100  0.19923100  0.96233400  1
  F  F19  1  0.98467400  0.58450200  0.83847600  1
  F  F20  1  0.49581700  0.08227800  0.33170600  1
  F  F21  1  0.28603000  0.28820700  0.53741100  1
  F  F22  1  0.97604000  0.56629000  0.31773000  1
  F  F23  1  0.50778600  0.91489300  0.66210300  1
  F  F24  1  0.71318600  0.71113100  0.46211500  1
  F  F25  1  0.73593600  0.33075300  0.58094400  1
  F  F26  1  0.52505000  0.54587900  0.79016200  1
  F  F27  1  0.05028000  0.03036300  0.28876300  1
  F  F28  1  0.54376200  0.94064900  0.18788800  1
  F  F29  1  0.72042700  0.31317400  0.06053900  1
  F  F30  1  0.22587600  0.81472600  0.56565200  1
  F  F31  1  0.24698000  0.84633700  0.08570800  1
