# generated using pymatgen
data_Mn12O7F17
_symmetry_space_group_name_H-M   'P 1'
_cell_length_a   4.81704300
_cell_length_b   5.87091141
_cell_length_c   15.71437074
_cell_angle_alpha   89.37090013
_cell_angle_beta   89.91654495
_cell_angle_gamma   86.34148885
_symmetry_Int_Tables_number   1
_chemical_formula_structural   Mn12O7F17
_chemical_formula_sum   'Mn12 O7 F17'
_cell_volume   443.47667600
_cell_formula_units_Z   1
loop_
 _symmetry_equiv_pos_site_id
 _symmetry_equiv_pos_as_xyz
  1  'x, y, z'
loop_
 _atom_site_type_symbol
 _atom_site_label
 _atom_site_symmetry_multiplicity
 _atom_site_fract_x
 _atom_site_fract_y
 _atom_site_fract_z
 _atom_site_occupancy
  Mn  Mn0  1  0.96188700  0.16240400  0.58927300  1
  Mn  Mn1  1  0.00027700  0.84139500  0.75551900  1
  Mn  Mn2  1  0.03366700  0.19026000  0.92686700  1
  Mn  Mn3  1  0.96788400  0.17524700  0.25063500  1
  Mn  Mn4  1  0.99157200  0.85586600  0.41283400  1
  Mn  Mn5  1  0.98008200  0.85768900  0.07994500  1
  Mn  Mn6  1  0.52513900  0.32912400  0.42048700  1
  Mn  Mn7  1  0.51910500  0.33622500  0.08012200  1
  Mn  Mn8  1  0.50489700  0.34330600  0.74908200  1
  Mn  Mn9  1  0.48297200  0.63581500  0.91179200  1
  Mn  Mn10  1  0.50624700  0.65003500  0.58096000  1
  Mn  Mn11  1  0.49992300  0.64241900  0.24589900  1
  O  O12  1  0.76610300  0.12165500  0.69537200  1
  O  O13  1  0.78088800  0.12641100  0.35850300  1
  O  O14  1  0.79902400  0.13152700  0.02859300  1
  O  O15  1  0.71437200  0.37249600  0.52752100  1
  O  O16  1  0.70610000  0.37573700  0.18880300  1
  O  O17  1  0.31115200  0.39343100  0.97409700  1
  O  O18  1  0.28895400  0.59680500  0.80656600  1
  F  F19  1  0.75037700  0.85919600  0.86509000  1
  F  F20  1  0.76241500  0.87958100  0.52448600  1
  F  F21  1  0.76319100  0.87646700  0.18991900  1
  F  F22  1  0.75300200  0.36568800  0.85186100  1
  F  F23  1  0.74160200  0.61460500  0.69274400  1
  F  F24  1  0.73336400  0.62089300  0.35800200  1
  F  F25  1  0.72916500  0.63049800  0.01737500  1
  F  F26  1  0.26529300  0.39095500  0.64419500  1
  F  F27  1  0.26973300  0.61062300  0.46620100  1
  F  F28  1  0.25540800  0.61491100  0.13218600  1
  F  F29  1  0.27738600  0.38034400  0.31556200  1
  F  F30  1  0.23844600  0.10654700  0.81360100  1
  F  F31  1  0.21319100  0.11675900  0.48415800  1
  F  F32  1  0.22060700  0.89279900  0.63682100  1
  F  F33  1  0.24012800  0.88915400  0.97759800  1
  F  F34  1  0.21858500  0.12129900  0.14790100  1
  F  F35  1  0.22786200  0.89183100  0.29942900  1
