# generated using pymatgen
data_Na8V2O7
_symmetry_space_group_name_H-M   'P 1'
_cell_length_a   11.26064300
_cell_length_b   8.83079400
_cell_length_c   10.25497767
_cell_angle_alpha   72.67790613
_cell_angle_beta   90.00000000
_cell_angle_gamma   90.00000000
_symmetry_Int_Tables_number   1
_chemical_formula_structural   Na8V2O7
_chemical_formula_sum   'Na32 V8 O28'
_cell_volume   973.50916900
_cell_formula_units_Z   4
loop_
 _symmetry_equiv_pos_site_id
 _symmetry_equiv_pos_as_xyz
  1  'x, y, z'
loop_
 _atom_site_type_symbol
 _atom_site_label
 _atom_site_symmetry_multiplicity
 _atom_site_fract_x
 _atom_site_fract_y
 _atom_site_fract_z
 _atom_site_occupancy
  Na  Na0  1  0.52493500  0.87747400  0.92732600  1
  Na  Na1  1  0.53846700  0.91748000  0.64236500  1
  Na  Na2  1  0.25924400  0.89394600  0.53310100  1
  Na  Na3  1  0.97506500  0.87747400  0.42732600  1
  Na  Na4  1  0.05212000  0.74586100  0.71376400  1
  Na  Na5  1  0.96153300  0.91748000  0.14236500  1
  Na  Na6  1  0.74945400  0.71348700  0.57078200  1
  Na  Na7  1  0.24075600  0.89394600  0.03310100  1
  Na  Na8  1  0.53058500  0.57018100  0.85385200  1
  Na  Na9  1  0.49742300  0.65832000  0.52072700  1
  Na  Na10  1  0.44788000  0.74586100  0.21376400  1
  Na  Na11  1  0.77013900  0.49951100  0.87285900  1
  Na  Na12  1  0.75054600  0.71348700  0.07078200  1
  Na  Na13  1  0.27013900  0.50048900  0.62714100  1
  Na  Na14  1  0.96941500  0.57018100  0.35385200  1
  Na  Na15  1  0.99742300  0.34168000  0.97927300  1
  Na  Na16  1  0.00257700  0.65832000  0.02072700  1
  Na  Na17  1  0.03058500  0.42981900  0.64614800  1
  Na  Na18  1  0.72986100  0.49951100  0.37285900  1
  Na  Na19  1  0.24945400  0.28651300  0.92921800  1
  Na  Na20  1  0.22986100  0.50048900  0.12714100  1
  Na  Na21  1  0.55212000  0.25413900  0.78623600  1
  Na  Na22  1  0.50257700  0.34168000  0.47927300  1
  Na  Na23  1  0.46941500  0.42981900  0.14614800  1
  Na  Na24  1  0.75924400  0.10605400  0.96689900  1
  Na  Na25  1  0.25054600  0.28651300  0.42921800  1
  Na  Na26  1  0.03846700  0.08252000  0.85763500  1
  Na  Na27  1  0.94788000  0.25413900  0.28623600  1
  Na  Na28  1  0.02493500  0.12252600  0.57267400  1
  Na  Na29  1  0.74075600  0.10605400  0.46689900  1
  Na  Na30  1  0.46153300  0.08252000  0.35763500  1
  Na  Na31  1  0.47506500  0.12252600  0.07267400  1
  V  V32  1  0.79772300  0.90831200  0.77522700  1
  V  V33  1  0.70227700  0.90831200  0.27522700  1
  V  V34  1  0.28564800  0.69193800  0.84715300  1
  V  V35  1  0.21435200  0.69193800  0.34715300  1
  V  V36  1  0.78564800  0.30806200  0.65284700  1
  V  V37  1  0.71435200  0.30806200  0.15284700  1
  V  V38  1  0.29772300  0.09168800  0.72477300  1
  V  V39  1  0.20227700  0.09168800  0.22477300  1
  O  O40  1  0.88987500  0.89026700  0.93706400  1
  O  O41  1  0.19761600  0.89655200  0.78015100  1
  O  O42  1  0.88982000  0.90045500  0.61986400  1
  O  O43  1  0.61012500  0.89026700  0.43706400  1
  O  O44  1  0.67408600  0.74996900  0.81564800  1
  O  O45  1  0.30238400  0.89655200  0.28015100  1
  O  O46  1  0.61018000  0.90045500  0.11986400  1
  O  O47  1  0.38417400  0.68178700  0.69758900  1
  O  O48  1  0.82591400  0.74996900  0.31564800  1
  O  O49  1  0.15045900  0.54395900  0.89509100  1
  O  O50  1  0.11508000  0.66896700  0.50667300  1
  O  O51  1  0.11582600  0.68178700  0.19758900  1
  O  O52  1  0.34954100  0.54395900  0.39509100  1
  O  O53  1  0.61508000  0.33103300  0.99332700  1
  O  O54  1  0.38492000  0.66896700  0.00667300  1
  O  O55  1  0.65045900  0.45604100  0.60490900  1
  O  O56  1  0.88417400  0.31821300  0.80241100  1
  O  O57  1  0.88492000  0.33103300  0.49332700  1
  O  O58  1  0.84954100  0.45604100  0.10490900  1
  O  O59  1  0.17408600  0.25003100  0.68435200  1
  O  O60  1  0.61582600  0.31821300  0.30241100  1
  O  O61  1  0.38982000  0.09954500  0.88013600  1
  O  O62  1  0.69761600  0.10344800  0.71984900  1
  O  O63  1  0.32591400  0.25003100  0.18435200  1
  O  O64  1  0.38987500  0.10973300  0.56293600  1
  O  O65  1  0.11018000  0.09954500  0.38013600  1
  O  O66  1  0.80238400  0.10344800  0.21984900  1
  O  O67  1  0.11012500  0.10973300  0.06293600  1
