# generated using pymatgen
data_Ti3Cu2Te(PO4)6
_symmetry_space_group_name_H-M   'P 1'
_cell_length_a   8.76566804
_cell_length_b   8.76566804
_cell_length_c   8.76566742
_cell_angle_alpha   59.83031264
_cell_angle_beta   59.83031264
_cell_angle_gamma   59.83031229
_symmetry_Int_Tables_number   1
_chemical_formula_structural   Ti3Cu2Te(PO4)6
_chemical_formula_sum   'Ti3 Cu2 Te1 P6 O24'
_cell_volume   474.42131360
_cell_formula_units_Z   1
loop_
 _symmetry_equiv_pos_site_id
 _symmetry_equiv_pos_as_xyz
  1  'x, y, z'
loop_
 _atom_site_type_symbol
 _atom_site_label
 _atom_site_symmetry_multiplicity
 _atom_site_fract_x
 _atom_site_fract_y
 _atom_site_fract_z
 _atom_site_occupancy
  Ti  Ti0  1  0.14190800  0.14190800  0.14190800  1
  Ti  Ti1  1  0.35729200  0.35729200  0.35729200  1
  Ti  Ti2  1  0.64206100  0.64206100  0.64206100  1
  Cu  Cu3  1  0.00431600  0.00431600  0.00431600  1
  Cu  Cu4  1  0.50024600  0.50024600  0.50024600  1
  Te  Te5  1  0.85724300  0.85724300  0.85724300  1
  P  P6  1  0.53188900  0.25894800  0.96159300  1
  P  P7  1  0.96159300  0.53188900  0.25894800  1
  P  P8  1  0.25894800  0.96159300  0.53188900  1
  P  P9  1  0.74899100  0.04376600  0.45008600  1
  P  P10  1  0.04376600  0.45008600  0.74899100  1
  P  P11  1  0.45008600  0.74899100  0.04376600  1
  O  O12  1  0.31905100  0.12064600  0.48583700  1
  O  O13  1  0.48583700  0.31905100  0.12064600  1
  O  O14  1  0.91652800  0.06037700  0.26378700  1
  O  O15  1  0.12064600  0.48583700  0.31905100  1
  O  O16  1  0.80029600  0.02236600  0.60549300  1
  O  O17  1  0.58431500  0.23057500  0.42713400  1
  O  O18  1  0.06037700  0.26378700  0.91652800  1
  O  O19  1  0.23057500  0.42713400  0.58431500  1
  O  O20  1  0.37435900  0.19748600  0.00069200  1
  O  O21  1  0.42713400  0.58431500  0.23057500  1
  O  O22  1  0.72355100  0.09695400  0.95121100  1
  O  O23  1  0.00069200  0.37435900  0.19748600  1
  O  O24  1  0.02236600  0.60549300  0.80029600  1
  O  O25  1  0.26378700  0.91652800  0.06037700  1
  O  O26  1  0.55108200  0.42306000  0.77204200  1
  O  O27  1  0.60549300  0.80029600  0.02236600  1
  O  O28  1  0.77204200  0.55108200  0.42306000  1
  O  O29  1  0.95121100  0.72355100  0.09695400  1
  O  O30  1  0.42306000  0.77204200  0.55108200  1
  O  O31  1  0.19748600  0.00069200  0.37435900  1
  O  O32  1  0.87351800  0.50112600  0.70017700  1
  O  O33  1  0.09695400  0.95121100  0.72355100  1
  O  O34  1  0.50112600  0.70017700  0.87351800  1
  O  O35  1  0.70017700  0.87351800  0.50112600  1
