# generated using pymatgen
data_V2O3F
_symmetry_space_group_name_H-M   'P 1'
_cell_length_a   4.67878334
_cell_length_b   4.67878334
_cell_length_c   15.17475200
_cell_angle_alpha   90.00000000
_cell_angle_beta   90.00000000
_cell_angle_gamma   93.43689447
_symmetry_Int_Tables_number   1
_chemical_formula_structural   V2O3F
_chemical_formula_sum   'V10 O15 F5'
_cell_volume   331.59323445
_cell_formula_units_Z   5
loop_
 _symmetry_equiv_pos_site_id
 _symmetry_equiv_pos_as_xyz
  1  'x, y, z'
loop_
 _atom_site_type_symbol
 _atom_site_label
 _atom_site_symmetry_multiplicity
 _atom_site_fract_x
 _atom_site_fract_y
 _atom_site_fract_z
 _atom_site_occupancy
  V  V0  1  0.99068200  0.00931800  0.19974400  1
  V  V1  1  0.99667500  0.00332500  0.39977300  1
  V  V2  1  0.99667500  0.00332500  0.60022700  1
  V  V3  1  0.98848100  0.01151900  0.00000000  1
  V  V4  1  0.99068200  0.00931800  0.80025600  1
  V  V5  1  0.45348800  0.54651200  0.50000000  1
  V  V6  1  0.53258600  0.46741400  0.10018400  1
  V  V7  1  0.53258600  0.46741400  0.89981600  1
  V  V8  1  0.53703800  0.46296200  0.69946600  1
  V  V9  1  0.53703800  0.46296200  0.30053500  1
  O  O10  1  0.79972500  0.20027500  0.69985000  1
  O  O11  1  0.79639800  0.20360200  0.89988000  1
  O  O12  1  0.79972500  0.20027500  0.30015000  1
  O  O13  1  0.79639800  0.20360200  0.10012000  1
  O  O14  1  0.30382200  0.31183600  0.59982200  1
  O  O15  1  0.30382200  0.31183600  0.40017800  1
  O  O16  1  0.30602800  0.30778000  0.20030400  1
  O  O17  1  0.30322700  0.31074600  0.00000000  1
  O  O18  1  0.30602800  0.30778000  0.79969600  1
  O  O19  1  0.68816400  0.69617800  0.59982200  1
  O  O20  1  0.68816400  0.69617800  0.40017800  1
  O  O21  1  0.69222000  0.69397200  0.20030400  1
  O  O22  1  0.68925400  0.69677300  0.00000000  1
  O  O23  1  0.69222000  0.69397200  0.79969600  1
  O  O24  1  0.19188500  0.80811500  0.50000000  1
  F  F25  1  0.79399200  0.20600800  0.50000000  1
  F  F26  1  0.19924900  0.80075100  0.29918700  1
  F  F27  1  0.19724900  0.80275100  0.09959600  1
  F  F28  1  0.19924900  0.80075100  0.70081300  1
  F  F29  1  0.19724900  0.80275100  0.90040400  1
