# generated using pymatgen
data_Co6OF11
_symmetry_space_group_name_H-M   'P 1'
_cell_length_a   10.50284079
_cell_length_b   10.50284079
_cell_length_c   3.20603100
_cell_angle_alpha   90.00000000
_cell_angle_beta   90.00000000
_cell_angle_gamma   142.45768313
_symmetry_Int_Tables_number   1
_chemical_formula_structural   Co6OF11
_chemical_formula_sum   'Co6 O1 F11'
_cell_volume   215.49942125
_cell_formula_units_Z   1
loop_
 _symmetry_equiv_pos_site_id
 _symmetry_equiv_pos_as_xyz
  1  'x, y, z'
loop_
 _atom_site_type_symbol
 _atom_site_label
 _atom_site_symmetry_multiplicity
 _atom_site_fract_x
 _atom_site_fract_y
 _atom_site_fract_z
 _atom_site_occupancy
  Co  Co0  1  0.00104400  0.99895600  0.00000000  1
  Co  Co1  1  0.49182500  0.50817400  0.50000000  1
  Co  Co2  1  0.66329100  0.33670900  0.00000000  1
  Co  Co3  1  0.83176600  0.16823400  0.50000000  1
  Co  Co4  1  0.16970500  0.83029500  0.50000000  1
  Co  Co5  1  0.34142100  0.65857900  0.00000000  1
  O  O6  1  0.40267600  0.59732400  0.50000000  1
  F  F7  1  0.69652800  0.69302400  0.00000000  1
  F  F8  1  0.30697600  0.30347200  0.00000000  1
  F  F9  1  0.96851900  0.63556100  0.00000000  1
  F  F10  1  0.59493900  0.40506100  0.50000000  1
  F  F11  1  0.72888500  0.27111500  0.50000000  1
  F  F12  1  0.06628000  0.93372000  0.50000000  1
  F  F13  1  0.36443900  0.03148100  0.00000000  1
  F  F14  1  0.63809300  0.97288300  0.00000000  1
  F  F15  1  0.93529300  0.06470700  0.50000000  1
  F  F16  1  0.27097300  0.72902700  0.50000000  1
  F  F17  1  0.02711700  0.36190700  0.00000000  1
