# generated using pymatgen
data_Mn6O5F7
_symmetry_space_group_name_H-M   'P 1'
_cell_length_a   4.64884000
_cell_length_b   5.70497975
_cell_length_c   7.95124372
_cell_angle_alpha   86.92211851
_cell_angle_beta   89.12974736
_cell_angle_gamma   88.68444698
_symmetry_Int_Tables_number   1
_chemical_formula_structural   Mn6O5F7
_chemical_formula_sum   'Mn6 O5 F7'
_cell_volume   210.49893852
_cell_formula_units_Z   1
loop_
 _symmetry_equiv_pos_site_id
 _symmetry_equiv_pos_as_xyz
  1  'x, y, z'
loop_
 _atom_site_type_symbol
 _atom_site_label
 _atom_site_symmetry_multiplicity
 _atom_site_fract_x
 _atom_site_fract_y
 _atom_site_fract_z
 _atom_site_occupancy
  Mn  Mn0  1  0.49660100  0.49976800  0.00542100  1
  Mn  Mn1  1  0.52675000  0.81033500  0.64774900  1
  Mn  Mn2  1  0.50071800  0.17071800  0.33747500  1
  Mn  Mn3  1  0.00059500  0.34800400  0.69713900  1
  Mn  Mn4  1  0.97920200  0.66396300  0.31375600  1
  Mn  Mn5  1  0.00496100  0.99609100  0.99664800  1
  O  O6  1  0.81678500  0.71502400  0.09157500  1
  O  O7  1  0.69137200  0.52594100  0.78061300  1
  O  O8  1  0.69628600  0.87884500  0.41971100  1
  O  O9  1  0.31602500  0.46366600  0.23423800  1
  O  O10  1  0.19306400  0.28092400  0.90783300  1
  F  F11  1  0.79641200  0.36264400  0.45794000  1
  F  F12  1  0.79208700  0.03047900  0.77003100  1
  F  F13  1  0.71894100  0.19907800  0.10930500  1
  F  F14  1  0.28846200  0.14229500  0.57738100  1
  F  F15  1  0.29121700  0.79880600  0.87837100  1
  F  F16  1  0.17512400  0.63899800  0.54876400  1
  F  F17  1  0.21539900  0.97442200  0.22605200  1
