# generated using pymatgen
data_Mo(WS3)2
_symmetry_space_group_name_H-M   'P 1'
_cell_length_a   3.18817565
_cell_length_b   3.18817565
_cell_length_c   29.11487800
_cell_angle_alpha   90.00000000
_cell_angle_beta   90.00000000
_cell_angle_gamma   119.99999267
_symmetry_Int_Tables_number   1
_chemical_formula_structural   Mo(WS3)2
_chemical_formula_sum   'Mo1 W2 S6'
_cell_volume   256.28908969
_cell_formula_units_Z   1
loop_
 _symmetry_equiv_pos_site_id
 _symmetry_equiv_pos_as_xyz
  1  'x, y, z'
loop_
 _atom_site_type_symbol
 _atom_site_label
 _atom_site_symmetry_multiplicity
 _atom_site_fract_x
 _atom_site_fract_y
 _atom_site_fract_z
 _atom_site_occupancy
  Mo  Mo0  1  0.66666700  0.33333300  0.00000000  1
  W  W1  1  0.33333300  0.66666700  0.76866600  1
  W  W2  1  0.33333300  0.66666700  0.23133400  1
  S  S3  1  0.33333300  0.66666700  0.05383500  1
  S  S4  1  0.66666700  0.33333300  0.71459500  1
  S  S5  1  0.66666700  0.33333300  0.17727500  1
  S  S6  1  0.66666700  0.33333300  0.82272500  1
  S  S7  1  0.66666700  0.33333300  0.28540500  1
  S  S8  1  0.33333300  0.66666700  0.94616500  1
