# generated using pymatgen
data_U2AlCu3
_symmetry_space_group_name_H-M   'P 1'
_cell_length_a   5.45124419
_cell_length_b   5.45124419
_cell_length_c   7.67106100
_cell_angle_alpha   90.00000000
_cell_angle_beta   90.00000000
_cell_angle_gamma   120.00000225
_symmetry_Int_Tables_number   1
_chemical_formula_structural   U2AlCu3
_chemical_formula_sum   'U4 Al2 Cu6'
_cell_volume   197.41371939
_cell_formula_units_Z   2
loop_
 _symmetry_equiv_pos_site_id
 _symmetry_equiv_pos_as_xyz
  1  'x, y, z'
loop_
 _atom_site_type_symbol
 _atom_site_label
 _atom_site_symmetry_multiplicity
 _atom_site_fract_x
 _atom_site_fract_y
 _atom_site_fract_z
 _atom_site_occupancy
  U  U0  1  0.33333300  0.66666700  0.41429400  1
  U  U1  1  0.66666700  0.33333300  0.91429400  1
  U  U2  1  0.66666700  0.33333300  0.58570600  1
  U  U3  1  0.33333300  0.66666700  0.08570600  1
  Al  Al4  1  0.00000000  0.00000000  0.50000000  1
  Al  Al5  1  0.00000000  0.00000000  0.00000000  1
  Cu  Cu6  1  0.17480900  0.82519100  0.75000000  1
  Cu  Cu7  1  0.34961800  0.17480900  0.25000000  1
  Cu  Cu8  1  0.82519100  0.17480900  0.25000000  1
  Cu  Cu9  1  0.65038200  0.82519100  0.75000000  1
  Cu  Cu10  1  0.17480900  0.34961800  0.75000000  1
  Cu  Cu11  1  0.82519100  0.65038200  0.25000000  1
