# generated using pymatgen
data_V2O3F
_symmetry_space_group_name_H-M   'P 1'
_cell_length_a   4.72532832
_cell_length_b   4.72532832
_cell_length_c   15.05490700
_cell_angle_alpha   90.00000000
_cell_angle_beta   90.00000000
_cell_angle_gamma   94.56432734
_symmetry_Int_Tables_number   1
_chemical_formula_structural   V2O3F
_chemical_formula_sum   'V10 O15 F5'
_cell_volume   335.09083666
_cell_formula_units_Z   5
loop_
 _symmetry_equiv_pos_site_id
 _symmetry_equiv_pos_as_xyz
  1  'x, y, z'
loop_
 _atom_site_type_symbol
 _atom_site_label
 _atom_site_symmetry_multiplicity
 _atom_site_fract_x
 _atom_site_fract_y
 _atom_site_fract_z
 _atom_site_occupancy
  V  V0  1  0.99939000  0.00061000  0.39995300  1
  V  V1  1  0.99939000  0.00061000  0.60004700  1
  V  V2  1  0.99764800  0.00235200  0.80022400  1
  V  V3  1  0.99764800  0.00235200  0.19977600  1
  V  V4  1  0.99310600  0.00689400  0.00000000  1
  V  V5  1  0.44967000  0.55033000  0.69968400  1
  V  V6  1  0.44967000  0.55033000  0.30031600  1
  V  V7  1  0.54361000  0.45639000  0.10054100  1
  V  V8  1  0.54361000  0.45639000  0.89945900  1
  V  V9  1  0.54824300  0.45175700  0.50000000  1
  O  O10  1  0.80104900  0.19895100  0.89969500  1
  O  O11  1  0.80104900  0.19895100  0.10030500  1
  O  O12  1  0.80513600  0.19486400  0.50000000  1
  O  O13  1  0.30501400  0.31083600  0.79963700  1
  O  O14  1  0.30771600  0.30889800  0.59992700  1
  O  O15  1  0.30771600  0.30889800  0.40007300  1
  O  O16  1  0.30501400  0.31083600  0.20036300  1
  O  O17  1  0.31028100  0.30419600  0.00000000  1
  O  O18  1  0.68916400  0.69498600  0.79963700  1
  O  O19  1  0.69110200  0.69228400  0.59992700  1
  O  O20  1  0.69110200  0.69228400  0.40007300  1
  O  O21  1  0.68916400  0.69498600  0.20036300  1
  O  O22  1  0.69580400  0.68971900  0.00000000  1
  O  O23  1  0.19313800  0.80686200  0.70019000  1
  O  O24  1  0.19313800  0.80686200  0.29981000  1
  F  F25  1  0.80033600  0.19966400  0.70013000  1
  F  F26  1  0.80033600  0.19966400  0.29987000  1
  F  F27  1  0.19810100  0.80189900  0.50000000  1
  F  F28  1  0.19682800  0.80317200  0.90048900  1
  F  F29  1  0.19682800  0.80317200  0.09951100  1
