# generated using pymatgen
data_CrFe2(PO4)3
_symmetry_space_group_name_H-M   'P 1'
_cell_length_a   8.41161380
_cell_length_b   8.41161380
_cell_length_c   8.41161396
_cell_angle_alpha   61.60072097
_cell_angle_beta   61.60072097
_cell_angle_gamma   61.60071638
_symmetry_Int_Tables_number   1
_chemical_formula_structural   CrFe2(PO4)3
_chemical_formula_sum   'Cr2 Fe4 P6 O24'
_cell_volume   435.95693239
_cell_formula_units_Z   2
loop_
 _symmetry_equiv_pos_site_id
 _symmetry_equiv_pos_as_xyz
  1  'x, y, z'
loop_
 _atom_site_type_symbol
 _atom_site_label
 _atom_site_symmetry_multiplicity
 _atom_site_fract_x
 _atom_site_fract_y
 _atom_site_fract_z
 _atom_site_occupancy
  Cr  Cr0  1  0.00000000  0.00000000  0.00000000  1
  Cr  Cr1  1  0.50000000  0.50000000  0.50000000  1
  Fe  Fe2  1  0.14611000  0.14611000  0.14611000  1
  Fe  Fe3  1  0.35389000  0.35389000  0.35389000  1
  Fe  Fe4  1  0.64611000  0.64611000  0.64611000  1
  Fe  Fe5  1  0.85389000  0.85389000  0.85389000  1
  P  P6  1  0.75000000  0.04840000  0.45160000  1
  P  P7  1  0.04840000  0.45160000  0.75000000  1
  P  P8  1  0.45160000  0.75000000  0.04840000  1
  P  P9  1  0.54840000  0.25000000  0.95160000  1
  P  P10  1  0.95160000  0.54840000  0.25000000  1
  P  P11  1  0.25000000  0.95160000  0.54840000  1
  O  O12  1  0.32467500  0.10548100  0.50495300  1
  O  O13  1  0.50495300  0.32467500  0.10548100  1
  O  O14  1  0.90517200  0.06300300  0.24810300  1
  O  O15  1  0.10548100  0.50495300  0.32467500  1
  O  O16  1  0.82467500  0.00495300  0.60548100  1
  O  O17  1  0.59482800  0.25189700  0.43699700  1
  O  O18  1  0.06300300  0.24810300  0.90517200  1
  O  O19  1  0.25189700  0.43699700  0.59482800  1
  O  O20  1  0.39451900  0.17532500  0.99504700  1
  O  O21  1  0.43699700  0.59482800  0.25189700  1
  O  O22  1  0.75189700  0.09482800  0.93699700  1
  O  O23  1  0.99504700  0.39451900  0.17532500  1
  O  O24  1  0.00495300  0.60548100  0.82467500  1
  O  O25  1  0.24810300  0.90517200  0.06300300  1
  O  O26  1  0.56300300  0.40517200  0.74810300  1
  O  O27  1  0.60548100  0.82467500  0.00495300  1
  O  O28  1  0.74810300  0.56300300  0.40517200  1
  O  O29  1  0.93699700  0.75189700  0.09482800  1
  O  O30  1  0.40517200  0.74810300  0.56300300  1
  O  O31  1  0.17532500  0.99504700  0.39451900  1
  O  O32  1  0.89451900  0.49504700  0.67532500  1
  O  O33  1  0.09482800  0.93699700  0.75189700  1
  O  O34  1  0.49504700  0.67532500  0.89451900  1
  O  O35  1  0.67532500  0.89451900  0.49504700  1
