data_image0
_chemical_formula_structural       Hg2Na4Pb2
_chemical_formula_sum              "Hg2 Na4 Pb2"
_cell_length_a       5.97029
_cell_length_b       6.14953
_cell_length_c       6.14953
_cell_angle_alpha    101.584
_cell_angle_beta     90
_cell_angle_gamma    90

_space_group_name_H-M_alt    "P 1"
_space_group_IT_number       1

loop_
  _space_group_symop_operation_xyz
  'x, y, z'

loop_
  _atom_site_type_symbol
  _atom_site_label
  _atom_site_symmetry_multiplicity
  _atom_site_fract_x
  _atom_site_fract_y
  _atom_site_fract_z
  _atom_site_occupancy
  Hg  Hg1       1.0  0.00000  0.00000  0.00000  1.0000
  Hg  Hg2       1.0  0.50000  0.00000  0.00000  1.0000
  Na  Na1       1.0  0.75000  0.51100  0.13300  1.0000
  Na  Na2       1.0  0.25000  0.86700  0.48900  1.0000
  Na  Na3       1.0  0.75000  0.13300  0.51100  1.0000
  Na  Na4       1.0  0.25000  0.48900  0.86700  1.0000
  Pb  Pb1       1.0  0.25000  0.34200  0.34200  1.0000
  Pb  Pb2       1.0  0.75000  0.65800  0.65800  1.0000
