# generated using pymatgen
data_Fe5O3F7
_symmetry_space_group_name_H-M   'P 1'
_cell_length_a   4.77664600
_cell_length_b   4.79276300
_cell_length_c   15.84445600
_cell_angle_alpha   90.00000000
_cell_angle_beta   90.00000000
_cell_angle_gamma   90.00000000
_symmetry_Int_Tables_number   1
_chemical_formula_structural   Fe5O3F7
_chemical_formula_sum   'Fe10 O6 F14'
_cell_volume   362.73239494
_cell_formula_units_Z   2
loop_
 _symmetry_equiv_pos_site_id
 _symmetry_equiv_pos_as_xyz
  1  'x, y, z'
loop_
 _atom_site_type_symbol
 _atom_site_label
 _atom_site_symmetry_multiplicity
 _atom_site_fract_x
 _atom_site_fract_y
 _atom_site_fract_z
 _atom_site_occupancy
  Fe  Fe0  1  0.78357500  0.01497000  0.79200700  1
  Fe  Fe1  1  0.75736900  0.00895900  0.00000000  1
  Fe  Fe2  1  0.78357500  0.01497000  0.20799300  1
  Fe  Fe3  1  0.77134200  0.97021100  0.40462400  1
  Fe  Fe4  1  0.77134200  0.97021100  0.59537600  1
  Fe  Fe5  1  0.22865800  0.47021100  0.90462400  1
  Fe  Fe6  1  0.21642500  0.51497000  0.29200700  1
  Fe  Fe7  1  0.22865800  0.47021100  0.09537600  1
  Fe  Fe8  1  0.24263100  0.50895900  0.50000000  1
  Fe  Fe9  1  0.21642500  0.51497000  0.70799300  1
  O  O10  1  0.94352100  0.80801800  0.29950300  1
  O  O11  1  0.95220300  0.79988100  0.50000000  1
  O  O12  1  0.94352100  0.80801800  0.70049700  1
  O  O13  1  0.05647900  0.30801800  0.79950300  1
  O  O14  1  0.04779700  0.29988100  0.00000000  1
  O  O15  1  0.05647900  0.30801800  0.20049700  1
  F  F16  1  0.94744000  0.80288200  0.89246800  1
  F  F17  1  0.94744000  0.80288200  0.10753200  1
  F  F18  1  0.05256000  0.30288200  0.39246800  1
  F  F19  1  0.05256000  0.30288200  0.60753200  1
  F  F20  1  0.45219500  0.70689800  0.79832500  1
  F  F21  1  0.45114700  0.70211300  0.00000000  1
  F  F22  1  0.45219500  0.70689800  0.20167500  1
  F  F23  1  0.44481600  0.69154600  0.39055200  1
  F  F24  1  0.44481600  0.69154600  0.60944800  1
  F  F25  1  0.55518400  0.19154600  0.89055200  1
  F  F26  1  0.54780500  0.20689800  0.29832500  1
  F  F27  1  0.55518400  0.19154600  0.10944800  1
  F  F28  1  0.54780500  0.20689800  0.70167500  1
  F  F29  1  0.54885300  0.20211300  0.50000000  1
