# generated using pymatgen
data_Li3V(BO3)2
_symmetry_space_group_name_H-M   'P 1'
_cell_length_a   8.08237495
_cell_length_b   8.35224704
_cell_length_c   8.38950465
_cell_angle_alpha   105.46478394
_cell_angle_beta   104.87387680
_cell_angle_gamma   77.02537771
_symmetry_Int_Tables_number   1
_chemical_formula_structural   Li3V(BO3)2
_chemical_formula_sum   'Li12 V4 B8 O24'
_cell_volume   520.09022096
_cell_formula_units_Z   4
loop_
 _symmetry_equiv_pos_site_id
 _symmetry_equiv_pos_as_xyz
  1  'x, y, z'
loop_
 _atom_site_type_symbol
 _atom_site_label
 _atom_site_symmetry_multiplicity
 _atom_site_fract_x
 _atom_site_fract_y
 _atom_site_fract_z
 _atom_site_occupancy
  Li  Li0  1  0.11585200  0.54593300  0.29387600  1
  Li  Li1  1  0.11585100  0.04578000  0.79373800  1
  Li  Li2  1  0.88414500  0.45422300  0.70626100  1
  Li  Li3  1  0.88414700  0.95406700  0.20612400  1
  Li  Li4  1  0.42497400  0.53248700  0.13296300  1
  Li  Li5  1  0.42506900  0.03262600  0.63283700  1
  Li  Li6  1  0.57493400  0.46737500  0.86716200  1
  Li  Li7  1  0.57502800  0.96751500  0.36703700  1
  Li  Li8  1  0.72789400  0.66127400  0.18791700  1
  Li  Li9  1  0.72804100  0.16140500  0.68787100  1
  Li  Li10  1  0.27195500  0.33859600  0.81213300  1
  Li  Li11  1  0.27210200  0.83872600  0.31208700  1
  V  V12  1  0.78072700  0.84586900  0.79300100  1
  V  V13  1  0.21928400  0.65412700  0.70700100  1
  V  V14  1  0.78099900  0.34577400  0.29311000  1
  V  V15  1  0.21900700  0.15422300  0.20688900  1
  B  B16  1  0.59682000  0.17261100  0.98798500  1
  B  B17  1  0.59684600  0.67266200  0.48800300  1
  B  B18  1  0.40315300  0.82733600  0.01199600  1
  B  B19  1  0.40318000  0.32738800  0.51201400  1
  B  B20  1  0.07652900  0.66774700  0.99864500  1
  B  B21  1  0.07659300  0.16765300  0.49880000  1
  B  B22  1  0.92340600  0.33234700  0.00120000  1
  B  B23  1  0.92347100  0.83225400  0.50135700  1
  O  O24  1  0.28967600  0.85466500  0.86018300  1
  O  O25  1  0.28960700  0.35459100  0.36025300  1
  O  O26  1  0.71039100  0.14541000  0.13974700  1
  O  O27  1  0.71032000  0.64533600  0.63981900  1
  O  O28  1  0.07254700  0.20893700  0.00132400  1
  O  O29  1  0.07254000  0.70895600  0.50156800  1
  O  O30  1  0.92746000  0.79104600  0.99843600  1
  O  O31  1  0.92745000  0.29106200  0.49867900  1
  O  O32  1  0.61163500  0.54661300  0.34136300  1
  O  O33  1  0.61142600  0.04640700  0.84129200  1
  O  O34  1  0.38857900  0.45359200  0.65870800  1
  O  O35  1  0.38837000  0.95338500  0.15863600  1
  O  O36  1  0.48366500  0.31902100  0.98133400  1
  O  O37  1  0.48376100  0.81906100  0.48148800  1
  O  O38  1  0.51623500  0.68093500  0.01850800  1
  O  O39  1  0.51633200  0.18097600  0.51866300  1
  O  O40  1  0.18896600  0.64624400  0.14452000  1
  O  O41  1  0.18904200  0.14611900  0.64450100  1
  O  O42  1  0.81095900  0.35387900  0.85549800  1
  O  O43  1  0.81103500  0.85375800  0.35548100  1
  O  O44  1  0.89721500  0.43414700  0.16183500  1
  O  O45  1  0.89706600  0.93417300  0.66184100  1
  O  O46  1  0.10293200  0.56583100  0.83815800  1
  O  O47  1  0.10278300  0.06585700  0.33816300  1
