# generated using pymatgen
data_Fe6O5F7
_symmetry_space_group_name_H-M   'P 1'
_cell_length_a   4.77820100
_cell_length_b   5.69610227
_cell_length_c   7.82525621
_cell_angle_alpha   85.45839227
_cell_angle_beta   88.27198822
_cell_angle_gamma   87.89294719
_symmetry_Int_Tables_number   1
_chemical_formula_structural   Fe6O5F7
_chemical_formula_sum   'Fe6 O5 F7'
_cell_volume   212.08930394
_cell_formula_units_Z   1
loop_
 _symmetry_equiv_pos_site_id
 _symmetry_equiv_pos_as_xyz
  1  'x, y, z'
loop_
 _atom_site_type_symbol
 _atom_site_label
 _atom_site_symmetry_multiplicity
 _atom_site_fract_x
 _atom_site_fract_y
 _atom_site_fract_z
 _atom_site_occupancy
  Fe  Fe0  1  0.52626800  0.85146800  0.67428900  1
  Fe  Fe1  1  0.51940600  0.47657100  0.00026900  1
  Fe  Fe2  1  0.47003600  0.18711200  0.33319000  1
  Fe  Fe3  1  0.98864800  0.32584700  0.66721600  1
  Fe  Fe4  1  0.01893700  0.66007200  0.33108600  1
  Fe  Fe5  1  0.96412000  0.00584600  0.99572500  1
  O  O6  1  0.80666300  0.04305500  0.77159400  1
  O  O7  1  0.69636900  0.19415000  0.11077200  1
  O  O8  1  0.69514600  0.54444200  0.76909900  1
  O  O9  1  0.30472300  0.12599300  0.56493400  1
  O  O10  1  0.31855900  0.46733800  0.22007900  1
  F  F11  1  0.80109200  0.35978400  0.43849600  1
  F  F12  1  0.80451400  0.70178200  0.09176300  1
  F  F13  1  0.69741900  0.86469500  0.43108200  1
  F  F14  1  0.29711300  0.80050200  0.90550800  1
  F  F15  1  0.19654100  0.97310300  0.21887500  1
  F  F16  1  0.19840300  0.62510500  0.57630200  1
  F  F17  1  0.19604400  0.29313200  0.89971800  1
