# generated using pymatgen
data_Co3I
_symmetry_space_group_name_H-M   'P 1'
_cell_length_a   6.39008307
_cell_length_b   6.39008307
_cell_length_c   3.87323300
_cell_angle_alpha   90.00000000
_cell_angle_beta   90.00000000
_cell_angle_gamma   119.99999035
_symmetry_Int_Tables_number   1
_chemical_formula_structural   Co3I
_chemical_formula_sum   'Co6 I2'
_cell_volume   136.96742937
_cell_formula_units_Z   2
loop_
 _symmetry_equiv_pos_site_id
 _symmetry_equiv_pos_as_xyz
  1  'x, y, z'
loop_
 _atom_site_type_symbol
 _atom_site_label
 _atom_site_symmetry_multiplicity
 _atom_site_fract_x
 _atom_site_fract_y
 _atom_site_fract_z
 _atom_site_occupancy
  Co  Co0  1  0.12694500  0.25388900  0.25000000  1
  Co  Co1  1  0.74611100  0.87305500  0.25000000  1
  Co  Co2  1  0.12694500  0.87305500  0.25000000  1
  Co  Co3  1  0.87305500  0.74611100  0.75000000  1
  Co  Co4  1  0.25388900  0.12694500  0.75000000  1
  Co  Co5  1  0.87305500  0.12694500  0.75000000  1
  I  I6  1  0.33333300  0.66666700  0.75000000  1
  I  I7  1  0.66666700  0.33333300  0.25000000  1
