# generated using pymatgen
data_Fe5O3F7
_symmetry_space_group_name_H-M   'P 1'
_cell_length_a   4.79750687
_cell_length_b   4.79750687
_cell_length_c   15.68223063
_cell_angle_alpha   89.69444578
_cell_angle_beta   89.69444578
_cell_angle_gamma   91.39170608
_symmetry_Int_Tables_number   1
_chemical_formula_structural   Fe5O3F7
_chemical_formula_sum   'Fe10 O6 F14'
_cell_volume   360.82636215
_cell_formula_units_Z   2
loop_
 _symmetry_equiv_pos_site_id
 _symmetry_equiv_pos_as_xyz
  1  'x, y, z'
loop_
 _atom_site_type_symbol
 _atom_site_label
 _atom_site_symmetry_multiplicity
 _atom_site_fract_x
 _atom_site_fract_y
 _atom_site_fract_z
 _atom_site_occupancy
  Fe  Fe0  1  0.97905200  0.95400200  0.99397900  1
  Fe  Fe1  1  0.03425900  0.03457100  0.19920700  1
  Fe  Fe2  1  0.96542900  0.96574100  0.40079400  1
  Fe  Fe3  1  0.04599800  0.02094800  0.60602100  1
  Fe  Fe4  1  0.02893900  0.97106100  0.80000000  1
  Fe  Fe5  1  0.50059400  0.49309800  0.10079300  1
  Fe  Fe6  1  0.50690200  0.49940600  0.49920700  1
  Fe  Fe7  1  0.50098100  0.49901900  0.30000000  1
  Fe  Fe8  1  0.47392700  0.51414400  0.69523400  1
  Fe  Fe9  1  0.48585600  0.52607300  0.90476600  1
  O  O10  1  0.18999800  0.81983700  0.70054600  1
  O  O11  1  0.18016300  0.81000200  0.89945400  1
  O  O12  1  0.33292500  0.33037400  0.20024200  1
  O  O13  1  0.31033800  0.31039500  0.58964000  1
  O  O14  1  0.68960500  0.68966200  0.01036000  1
  O  O15  1  0.66962600  0.66707500  0.39975800  1
  F  F16  1  0.19855600  0.79844100  0.09635500  1
  F  F17  1  0.20555700  0.79444300  0.30000000  1
  F  F18  1  0.20155900  0.80144400  0.50364500  1
  F  F19  1  0.28289400  0.28366500  0.00920900  1
  F  F20  1  0.28871200  0.28653200  0.39819600  1
  F  F21  1  0.29294300  0.30204300  0.80260300  1
  F  F22  1  0.71346800  0.71128800  0.20180400  1
  F  F23  1  0.71633500  0.71710600  0.59079100  1
  F  F24  1  0.69795700  0.70705700  0.79739700  1
  F  F25  1  0.80289900  0.19571100  0.09498000  1
  F  F26  1  0.80428900  0.19710100  0.50502000  1
  F  F27  1  0.79527700  0.20472300  0.30000000  1
  F  F28  1  0.79519600  0.19023300  0.89893300  1
  F  F29  1  0.80976700  0.20480400  0.70106700  1
