# generated using pymatgen
data_Ti3NiSn2(PO4)6
_symmetry_space_group_name_H-M   'P 1'
_cell_length_a   9.02905786
_cell_length_b   9.02905786
_cell_length_c   9.02905799
_cell_angle_alpha   57.00993510
_cell_angle_beta   57.00993510
_cell_angle_gamma   57.00993516
_symmetry_Int_Tables_number   1
_chemical_formula_structural   Ti3NiSn2(PO4)6
_chemical_formula_sum   'Ti3 Ni1 Sn2 P6 O24'
_cell_volume   484.60700416
_cell_formula_units_Z   1
loop_
 _symmetry_equiv_pos_site_id
 _symmetry_equiv_pos_as_xyz
  1  'x, y, z'
loop_
 _atom_site_type_symbol
 _atom_site_label
 _atom_site_symmetry_multiplicity
 _atom_site_fract_x
 _atom_site_fract_y
 _atom_site_fract_z
 _atom_site_occupancy
  Ti  Ti0  1  0.85559800  0.85559800  0.85559800  1
  Ti  Ti1  1  0.64796400  0.64796400  0.64796400  1
  Ti  Ti2  1  0.34802500  0.34802500  0.34802500  1
  Ni  Ni3  1  0.15027900  0.15027900  0.15027900  1
  Sn  Sn4  1  0.01410000  0.01410000  0.01410000  1
  Sn  Sn5  1  0.49657600  0.49657600  0.49657600  1
  P  P6  1  0.53541800  0.95800500  0.24983600  1
  P  P7  1  0.24983600  0.53541800  0.95800500  1
  P  P8  1  0.03806100  0.74709700  0.46599400  1
  P  P9  1  0.74709700  0.46599400  0.03806100  1
  P  P10  1  0.46599400  0.03806100  0.74709700  1
  P  P11  1  0.95800500  0.24983600  0.53541800  1
  O  O12  1  0.50374900  0.87516100  0.70347900  1
  O  O13  1  0.87516100  0.70347900  0.50374900  1
  O  O14  1  0.71761100  0.93673100  0.07376000  1
  O  O15  1  0.70347900  0.50374900  0.87516100  1
  O  O16  1  0.37064700  0.97390600  0.23264700  1
  O  O17  1  0.57753500  0.77813400  0.42186800  1
  O  O18  1  0.07376000  0.71761100  0.93673100  1
  O  O19  1  0.42186800  0.57753500  0.77813400  1
  O  O20  1  0.00600800  0.78346900  0.63069600  1
  O  O21  1  0.77813400  0.42186800  0.57753500  1
  O  O22  1  0.05774500  0.91900200  0.28149900  1
  O  O23  1  0.78346900  0.63069600  0.00600800  1
  O  O24  1  0.23264700  0.37064700  0.97390600  1
  O  O25  1  0.93673100  0.07376000  0.71761100  1
  O  O26  1  0.22231800  0.57106900  0.44197200  1
  O  O27  1  0.97390600  0.23264700  0.37064700  1
  O  O28  1  0.57106900  0.44197200  0.22231800  1
  O  O29  1  0.91900200  0.28149900  0.05774500  1
  O  O30  1  0.44197200  0.22231800  0.57106900  1
  O  O31  1  0.63069600  0.00600800  0.78346900  1
  O  O32  1  0.27973000  0.50294400  0.13136400  1
  O  O33  1  0.28149900  0.05774500  0.91900200  1
  O  O34  1  0.13136400  0.27973000  0.50294400  1
  O  O35  1  0.50294400  0.13136400  0.27973000  1
