# generated using pymatgen
data_Li3Cu2(SO4)3
_symmetry_space_group_name_H-M   'P 1'
_cell_length_a   8.86443300
_cell_length_b   8.67725000
_cell_length_c   14.74947206
_cell_angle_alpha   57.03206618
_cell_angle_beta   90.00000000
_cell_angle_gamma   90.00000000
_symmetry_Int_Tables_number   1
_chemical_formula_structural   Li3Cu2(SO4)3
_chemical_formula_sum   'Li12 Cu8 S12 O48'
_cell_volume   951.82848221
_cell_formula_units_Z   4
loop_
 _symmetry_equiv_pos_site_id
 _symmetry_equiv_pos_as_xyz
  1  'x, y, z'
loop_
 _atom_site_type_symbol
 _atom_site_label
 _atom_site_symmetry_multiplicity
 _atom_site_fract_x
 _atom_site_fract_y
 _atom_site_fract_z
 _atom_site_occupancy
  Li  Li0  1  0.92643400  0.39560700  0.68999900  1
  Li  Li1  1  0.48506900  0.69863600  0.34615100  1
  Li  Li2  1  0.22388800  0.00749900  0.17344200  1
  Li  Li3  1  0.72388800  0.99250100  0.32655800  1
  Li  Li4  1  0.42643400  0.60439300  0.81000100  1
  Li  Li5  1  0.98506900  0.30136400  0.15384900  1
  Li  Li6  1  0.01493100  0.69863600  0.84615100  1
  Li  Li7  1  0.57356600  0.39560700  0.18999900  1
  Li  Li8  1  0.27611200  0.00749900  0.67344200  1
  Li  Li9  1  0.77611200  0.99250100  0.82655800  1
  Li  Li10  1  0.51493100  0.30136400  0.65384900  1
  Li  Li11  1  0.07356600  0.60439300  0.31000100  1
  Cu  Cu12  1  0.96105600  0.31652100  0.91402100  1
  Cu  Cu13  1  0.46105600  0.68347900  0.58597900  1
  Cu  Cu14  1  0.04360200  0.85640900  0.39811800  1
  Cu  Cu15  1  0.54360200  0.14359100  0.10188200  1
  Cu  Cu16  1  0.45639800  0.85640900  0.89811800  1
  Cu  Cu17  1  0.95639800  0.14359100  0.60188200  1
  Cu  Cu18  1  0.53894400  0.31652100  0.41402100  1
  Cu  Cu19  1  0.03894400  0.68347900  0.08597900  1
  S  S20  1  0.74620000  0.57063400  0.49473000  1
  S  S21  1  0.63022800  0.26530100  0.85132200  1
  S  S22  1  0.89521000  0.95988300  0.16025400  1
  S  S23  1  0.13022800  0.73469900  0.64867800  1
  S  S24  1  0.39521000  0.04011700  0.33974600  1
  S  S25  1  0.24620000  0.42936600  0.00527000  1
  S  S26  1  0.75380000  0.57063400  0.99473000  1
  S  S27  1  0.60479000  0.95988300  0.66025400  1
  S  S28  1  0.86977200  0.26530100  0.35132200  1
  S  S29  1  0.10479000  0.04011700  0.83974600  1
  S  S30  1  0.36977200  0.73469900  0.14867800  1
  S  S31  1  0.25380000  0.42936600  0.50527000  1
  O  O32  1  0.13811200  0.57343100  0.44566800  1
  O  O33  1  0.11106500  0.13493000  0.89689800  1
  O  O34  1  0.32385400  0.44166800  0.59249800  1
  O  O35  1  0.40860800  0.84588500  0.19653900  1
  O  O36  1  0.62905100  0.53730900  0.57785100  1
  O  O37  1  0.79718800  0.30712300  0.82612300  1
  O  O38  1  0.60966100  0.15322200  0.96896900  1
  O  O39  1  0.00660400  0.86149500  0.25393600  1
  O  O40  1  0.74417200  0.96903800  0.20123000  1
  O  O41  1  0.81159100  0.75817600  0.44769300  1
  O  O42  1  0.54018400  0.43474100  0.79714400  1
  O  O43  1  0.04018400  0.56525900  0.70285600  1
  O  O44  1  0.95778200  0.15152800  0.08986600  1
  O  O45  1  0.45778200  0.84847200  0.41013400  1
  O  O46  1  0.31159100  0.24182400  0.05230700  1
  O  O47  1  0.24417200  0.03096200  0.29877000  1
  O  O48  1  0.10966100  0.84677800  0.53103100  1
  O  O49  1  0.50660400  0.13850500  0.24606400  1
  O  O50  1  0.29718800  0.69287700  0.67387700  1
  O  O51  1  0.12905100  0.46269100  0.92214900  1
  O  O52  1  0.82385400  0.55833200  0.90750200  1
  O  O53  1  0.61106500  0.86507000  0.60310200  1
  O  O54  1  0.90860800  0.15411500  0.30346100  1
  O  O55  1  0.63811200  0.42656900  0.05433200  1
  O  O56  1  0.36188800  0.57343100  0.94566800  1
  O  O57  1  0.09139200  0.84588500  0.69653900  1
  O  O58  1  0.38893500  0.13493000  0.39689800  1
  O  O59  1  0.17614600  0.44166800  0.09249800  1
  O  O60  1  0.87094900  0.53730900  0.07785100  1
  O  O61  1  0.70281200  0.30712300  0.32612300  1
  O  O62  1  0.49339600  0.86149500  0.75393600  1
  O  O63  1  0.89033900  0.15322200  0.46896900  1
  O  O64  1  0.75582800  0.96903800  0.70123000  1
  O  O65  1  0.68840900  0.75817600  0.94769300  1
  O  O66  1  0.54221800  0.15152800  0.58986600  1
  O  O67  1  0.04221800  0.84847200  0.91013400  1
  O  O68  1  0.95981600  0.43474100  0.29714400  1
  O  O69  1  0.45981600  0.56525900  0.20285600  1
  O  O70  1  0.18840900  0.24182400  0.55230700  1
  O  O71  1  0.25582800  0.03096200  0.79877000  1
  O  O72  1  0.99339600  0.13850500  0.74606400  1
  O  O73  1  0.39033900  0.84677800  0.03103100  1
  O  O74  1  0.20281200  0.69287700  0.17387700  1
  O  O75  1  0.37094900  0.46269100  0.42214900  1
  O  O76  1  0.59139200  0.15411500  0.80346100  1
  O  O77  1  0.67614600  0.55833200  0.40750200  1
  O  O78  1  0.88893500  0.86507000  0.10310200  1
  O  O79  1  0.86188800  0.42656900  0.55433200  1
