# generated using pymatgen
data_V6O5F19
_symmetry_space_group_name_H-M   'P 1'
_cell_length_a   5.38595700
_cell_length_b   5.55161076
_cell_length_c   14.99450906
_cell_angle_alpha   79.43885695
_cell_angle_beta   89.67589109
_cell_angle_gamma   88.28328811
_symmetry_Int_Tables_number   1
_chemical_formula_structural   V6O5F19
_chemical_formula_sum   'V6 O5 F19'
_cell_volume   440.55398624
_cell_formula_units_Z   1
loop_
 _symmetry_equiv_pos_site_id
 _symmetry_equiv_pos_as_xyz
  1  'x, y, z'
loop_
 _atom_site_type_symbol
 _atom_site_label
 _atom_site_symmetry_multiplicity
 _atom_site_fract_x
 _atom_site_fract_y
 _atom_site_fract_z
 _atom_site_occupancy
  V  V0  1  0.05816100  0.98129100  0.99435900  1
  V  V1  1  0.45508400  0.80155200  0.32912100  1
  V  V2  1  0.00112600  0.69351200  0.66594200  1
  V  V3  1  0.56540600  0.52713300  0.00608200  1
  V  V4  1  0.96324000  0.28948200  0.33740800  1
  V  V5  1  0.48278400  0.21582800  0.66523300  1
  O  O6  1  0.29502000  0.79784700  0.97715200  1
  O  O7  1  0.22716300  0.63696200  0.31045800  1
  O  O8  1  0.29220200  0.45736300  0.64580700  1
  O  O9  1  0.79490800  0.70112400  0.02371500  1
  O  O10  1  0.79524100  0.05047300  0.35679000  1
  F  F11  1  0.20881500  0.97509000  0.64513700  1
  F  F12  1  0.71953800  0.87625700  0.68842200  1
  F  F13  1  0.05516200  0.94758700  0.11394300  1
  F  F14  1  0.43617200  0.80527700  0.44698000  1
  F  F15  1  0.07689700  0.59844600  0.78186400  1
  F  F16  1  0.59580300  0.88535200  0.22117900  1
  F  F17  1  0.93519700  0.69796800  0.55026200  1
  F  F18  1  0.55998800  0.54783500  0.88703200  1
  F  F19  1  0.20304700  0.27266300  0.97457300  1
  F  F20  1  0.70861200  0.53372300  0.35865700  1
  F  F21  1  0.76744600  0.37903500  0.68830600  1
  F  F22  1  0.40042200  0.46432800  0.11020300  1
  F  F23  1  0.09399900  0.29835300  0.44503400  1
  F  F24  1  0.42492700  0.09708900  0.78070900  1
  F  F25  1  0.92730100  0.40088000  0.21958400  1
  F  F26  1  0.57457800  0.19185900  0.55378200  1
  F  F27  1  0.89621300  0.03304300  0.88969100  1
  F  F28  1  0.27343400  0.11948200  0.30779800  1
  F  F29  1  0.71211600  0.22316700  0.02477800  1
