# generated using pymatgen
data_Fe5(OF4)2
_symmetry_space_group_name_H-M   'P 1'
_cell_length_a   4.81939100
_cell_length_b   7.98772788
_cell_length_c   10.08367213
_cell_angle_alpha   108.05289454
_cell_angle_beta   90.00000000
_cell_angle_gamma   90.00000000
_symmetry_Int_Tables_number   1
_chemical_formula_structural   Fe5(OF4)2
_chemical_formula_sum   'Fe10 O4 F16'
_cell_volume   369.07105755
_cell_formula_units_Z   2
loop_
 _symmetry_equiv_pos_site_id
 _symmetry_equiv_pos_as_xyz
  1  'x, y, z'
loop_
 _atom_site_type_symbol
 _atom_site_label
 _atom_site_symmetry_multiplicity
 _atom_site_fract_x
 _atom_site_fract_y
 _atom_site_fract_z
 _atom_site_occupancy
  Fe  Fe0  1  0.46347500  0.30871200  0.88794500  1
  Fe  Fe1  1  0.52221200  0.10160400  0.29446400  1
  Fe  Fe2  1  0.49300700  0.91563300  0.70151100  1
  Fe  Fe3  1  0.48484800  0.68728500  0.08980000  1
  Fe  Fe4  1  0.52545500  0.50696500  0.49675000  1
  Fe  Fe5  1  0.02221200  0.59839600  0.80553600  1
  Fe  Fe6  1  0.02545500  0.19303500  0.60325000  1
  Fe  Fe7  1  0.99300700  0.78436700  0.39848900  1
  Fe  Fe8  1  0.96347500  0.39128800  0.21205500  1
  Fe  Fe9  1  0.98484800  0.01271500  0.01020000  1
  O  O10  1  0.81062200  0.55091900  0.36849200  1
  O  O11  1  0.79242200  0.16893700  0.19080800  1
  O  O12  1  0.31062200  0.14908100  0.73150800  1
  O  O13  1  0.29242200  0.53106300  0.90919200  1
  F  F14  1  0.80169600  0.75177700  0.97438500  1
  F  F15  1  0.81337600  0.95797700  0.57453700  1
  F  F16  1  0.79525400  0.37676600  0.78019500  1
  F  F17  1  0.70165000  0.08161100  0.88890600  1
  F  F18  1  0.71119600  0.66870700  0.69149700  1
  F  F19  1  0.70688700  0.44370900  0.06492300  1
  F  F20  1  0.68544700  0.86554300  0.27329000  1
  F  F21  1  0.69245100  0.24437700  0.47972800  1
  F  F22  1  0.31337600  0.74202300  0.52546300  1
  F  F23  1  0.29525400  0.32323400  0.31980500  1
  F  F24  1  0.30169600  0.94822300  0.12561500  1
  F  F25  1  0.19245100  0.45562300  0.62027200  1
  F  F26  1  0.21119600  0.03129300  0.40850300  1
  F  F27  1  0.18544700  0.83445700  0.82671000  1
  F  F28  1  0.20688700  0.25629100  0.03507700  1
  F  F29  1  0.20165000  0.61838900  0.21109400  1
