# generated using pymatgen
data_TbCeO4
_symmetry_space_group_name_H-M   'P 1'
_cell_length_a   7.74088885
_cell_length_b   7.74088885
_cell_length_c   7.74088885
_cell_angle_alpha   60.00000000
_cell_angle_beta   60.00000000
_cell_angle_gamma   60.00000000
_symmetry_Int_Tables_number   1
_chemical_formula_structural   TbCeO4
_chemical_formula_sum   'Tb4 Ce4 O16'
_cell_volume   327.98765458
_cell_formula_units_Z   4
loop_
 _symmetry_equiv_pos_site_id
 _symmetry_equiv_pos_as_xyz
  1  'x, y, z'
loop_
 _atom_site_type_symbol
 _atom_site_label
 _atom_site_symmetry_multiplicity
 _atom_site_fract_x
 _atom_site_fract_y
 _atom_site_fract_z
 _atom_site_occupancy
  Tb  Tb0  1  0.37375900  0.87872300  0.37375900  1
  Tb  Tb1  1  0.87872300  0.37375900  0.37375900  1
  Tb  Tb2  1  0.37375900  0.37375900  0.37375900  1
  Tb  Tb3  1  0.37375900  0.37375900  0.87872300  1
  Ce  Ce4  1  0.37392500  0.87535800  0.87535800  1
  Ce  Ce5  1  0.87535800  0.37392500  0.87535800  1
  Ce  Ce6  1  0.87535800  0.87535800  0.37392500  1
  Ce  Ce7  1  0.87535800  0.87535800  0.87535800  1
  O  O8  1  0.99376800  0.99376800  0.50623200  1
  O  O9  1  0.75014000  0.24986000  0.24986000  1
  O  O10  1  0.24986000  0.75014000  0.24986000  1
  O  O11  1  0.00000000  0.00000000  0.00000000  1
  O  O12  1  0.50000000  0.50000000  0.50000000  1
  O  O13  1  0.24986000  0.75014000  0.75014000  1
  O  O14  1  0.75014000  0.24986000  0.75014000  1
  O  O15  1  0.50623200  0.99376800  0.99376800  1
  O  O16  1  0.50623200  0.99376800  0.50623200  1
  O  O17  1  0.25000000  0.25000000  0.25000000  1
  O  O18  1  0.75014000  0.75014000  0.24986000  1
  O  O19  1  0.99376800  0.50623200  0.50623200  1
  O  O20  1  0.75000000  0.75000000  0.75000000  1
  O  O21  1  0.24986000  0.24986000  0.75014000  1
  O  O22  1  0.99376800  0.50623200  0.99376800  1
  O  O23  1  0.50623200  0.50623200  0.99376800  1
