# generated using pymatgen
data_CrIr3
_symmetry_space_group_name_H-M   'P 1'
_cell_length_a   5.43872027
_cell_length_b   5.43872027
_cell_length_c   4.31806400
_cell_angle_alpha   90.00000000
_cell_angle_beta   90.00000000
_cell_angle_gamma   120.00000333
_symmetry_Int_Tables_number   1
_chemical_formula_structural   CrIr3
_chemical_formula_sum   'Cr2 Ir6'
_cell_volume   110.61477422
_cell_formula_units_Z   2
loop_
 _symmetry_equiv_pos_site_id
 _symmetry_equiv_pos_as_xyz
  1  'x, y, z'
loop_
 _atom_site_type_symbol
 _atom_site_label
 _atom_site_symmetry_multiplicity
 _atom_site_fract_x
 _atom_site_fract_y
 _atom_site_fract_z
 _atom_site_occupancy
  Cr  Cr0  1  0.33333300  0.66666700  0.75000000  1
  Cr  Cr1  1  0.66666700  0.33333300  0.25000000  1
  Ir  Ir2  1  0.16922700  0.33845300  0.25000000  1
  Ir  Ir3  1  0.66154700  0.83077300  0.25000000  1
  Ir  Ir4  1  0.16922700  0.83077300  0.25000000  1
  Ir  Ir5  1  0.83077300  0.66154700  0.75000000  1
  Ir  Ir6  1  0.33845300  0.16922700  0.75000000  1
  Ir  Ir7  1  0.83077300  0.16922700  0.75000000  1
