# generated using pymatgen
data_Fe3(OF3)2
_symmetry_space_group_name_H-M   'P 1'
_cell_length_a   4.76498900
_cell_length_b   5.62400900
_cell_length_c   10.01543655
_cell_angle_alpha   86.35532590
_cell_angle_beta   90.00000000
_cell_angle_gamma   90.00000000
_symmetry_Int_Tables_number   1
_chemical_formula_structural   Fe3(OF3)2
_chemical_formula_sum   'Fe6 O4 F12'
_cell_volume   267.85424221
_cell_formula_units_Z   2
loop_
 _symmetry_equiv_pos_site_id
 _symmetry_equiv_pos_as_xyz
  1  'x, y, z'
loop_
 _atom_site_type_symbol
 _atom_site_label
 _atom_site_symmetry_multiplicity
 _atom_site_fract_x
 _atom_site_fract_y
 _atom_site_fract_z
 _atom_site_occupancy
  Fe  Fe0  1  0.50000000  0.50000000  0.00000000  1
  Fe  Fe1  1  0.97987900  0.25597000  0.23937200  1
  Fe  Fe2  1  0.47987900  0.74403000  0.26062800  1
  Fe  Fe3  1  0.00000000  0.50000000  0.50000000  1
  Fe  Fe4  1  0.52012100  0.25597000  0.73937200  1
  Fe  Fe5  1  0.02012100  0.74403000  0.76062800  1
  O  O6  1  0.68035300  0.48019700  0.16997700  1
  O  O7  1  0.18035300  0.51980300  0.33002300  1
  O  O8  1  0.81964700  0.48019700  0.66997700  1
  O  O9  1  0.31964700  0.51980300  0.83002300  1
  F  F10  1  0.19697400  0.29299400  0.07561100  1
  F  F11  1  0.31160800  0.76299800  0.07634100  1
  F  F12  1  0.76298300  0.97985800  0.19189500  1
  F  F13  1  0.26298300  0.02014200  0.30810500  1
  F  F14  1  0.81160800  0.23700200  0.42365900  1
  F  F15  1  0.69697400  0.70700600  0.42438900  1
  F  F16  1  0.30302600  0.29299400  0.57561100  1
  F  F17  1  0.18839200  0.76299800  0.57634100  1
  F  F18  1  0.73701700  0.97985800  0.69189500  1
  F  F19  1  0.23701700  0.02014200  0.80810500  1
  F  F20  1  0.68839200  0.23700200  0.92365900  1
  F  F21  1  0.80302600  0.70700600  0.92438900  1
