# generated using pymatgen
data_Ge2N2O
_symmetry_space_group_name_H-M   'P 1'
_cell_length_a   5.86309147
_cell_length_b   5.86309147
_cell_length_c   14.37925300
_cell_angle_alpha   90.00000000
_cell_angle_beta   90.00000000
_cell_angle_gamma   119.99999397
_symmetry_Int_Tables_number   1
_chemical_formula_structural   Ge2N2O
_chemical_formula_sum   'Ge16 N16 O8'
_cell_volume   428.07544999
_cell_formula_units_Z   8
loop_
 _symmetry_equiv_pos_site_id
 _symmetry_equiv_pos_as_xyz
  1  'x, y, z'
loop_
 _atom_site_type_symbol
 _atom_site_label
 _atom_site_symmetry_multiplicity
 _atom_site_fract_x
 _atom_site_fract_y
 _atom_site_fract_z
 _atom_site_occupancy
  Ge  Ge0  1  0.66666700  0.33333300  0.95493600  1
  Ge  Ge1  1  0.66666700  0.33333300  0.33057400  1
  Ge  Ge2  1  0.50000000  0.00000000  0.50000000  1
  Ge  Ge3  1  0.83154900  0.16845100  0.16492300  1
  Ge  Ge4  1  0.66309800  0.83154900  0.83507700  1
  Ge  Ge5  1  0.16845100  0.33690200  0.83507700  1
  Ge  Ge6  1  0.00000000  0.00000000  0.62924000  1
  Ge  Ge7  1  0.50000000  0.50000000  0.50000000  1
  Ge  Ge8  1  0.00000000  0.00000000  0.37076000  1
  Ge  Ge9  1  0.00000000  0.00000000  0.00000000  1
  Ge  Ge10  1  0.33690200  0.16845100  0.16492300  1
  Ge  Ge11  1  0.83154900  0.66309800  0.16492300  1
  Ge  Ge12  1  0.16845100  0.83154900  0.83507700  1
  Ge  Ge13  1  0.00000000  0.50000000  0.50000000  1
  Ge  Ge14  1  0.33333300  0.66666700  0.66942600  1
  Ge  Ge15  1  0.33333300  0.66666700  0.04506400  1
  N  N16  1  0.66666700  0.33333300  0.08719800  1
  N  N17  1  0.82268100  0.17731900  0.41652300  1
  N  N18  1  0.84393900  0.15606100  0.91260400  1
  N  N19  1  0.17731900  0.35463900  0.58347700  1
  N  N20  1  0.64536100  0.82268100  0.58347700  1
  N  N21  1  0.68787800  0.84393900  0.08739600  1
  N  N22  1  0.15606100  0.31212200  0.08739600  1
  N  N23  1  0.00000000  0.00000000  0.76053800  1
  N  N24  1  0.00000000  0.00000000  0.23946200  1
  N  N25  1  0.84393900  0.68787800  0.91260400  1
  N  N26  1  0.31212200  0.15606100  0.91260400  1
  N  N27  1  0.82268100  0.64536100  0.41652300  1
  N  N28  1  0.35463900  0.17731900  0.41652300  1
  N  N29  1  0.15606100  0.84393900  0.08739600  1
  N  N30  1  0.17731900  0.82268100  0.58347700  1
  N  N31  1  0.33333300  0.66666700  0.91280200  1
  O  O32  1  0.52082000  0.47918000  0.24244300  1
  O  O33  1  0.66666700  0.33333300  0.56441900  1
  O  O34  1  0.95835900  0.47918000  0.24244300  1
  O  O35  1  0.52082000  0.04164100  0.24244300  1
  O  O36  1  0.04164100  0.52082000  0.75755700  1
  O  O37  1  0.47918000  0.95835900  0.75755700  1
  O  O38  1  0.33333300  0.66666700  0.43558100  1
  O  O39  1  0.47918000  0.52082000  0.75755700  1
