# generated using pymatgen
data_Fe5(OF4)2
_symmetry_space_group_name_H-M   'P 1'
_cell_length_a   4.78946544
_cell_length_b   4.78901339
_cell_length_c   16.14784200
_cell_angle_alpha   90.00000000
_cell_angle_beta   90.00000000
_cell_angle_gamma   90.70801286
_symmetry_Int_Tables_number   1
_chemical_formula_structural   Fe5(OF4)2
_chemical_formula_sum   'Fe10 O4 F16'
_cell_volume   370.35177225
_cell_formula_units_Z   2
loop_
 _symmetry_equiv_pos_site_id
 _symmetry_equiv_pos_as_xyz
  1  'x, y, z'
loop_
 _atom_site_type_symbol
 _atom_site_label
 _atom_site_symmetry_multiplicity
 _atom_site_fract_x
 _atom_site_fract_y
 _atom_site_fract_z
 _atom_site_occupancy
  Fe  Fe0  1  0.95575000  0.95751000  0.00000000  1
  Fe  Fe1  1  0.02781500  0.02637200  0.20122700  1
  Fe  Fe2  1  0.00437600  0.98861500  0.40486400  1
  Fe  Fe3  1  0.00437600  0.98861500  0.59513600  1
  Fe  Fe4  1  0.02781500  0.02637200  0.79877300  1
  Fe  Fe5  1  0.49588000  0.49706200  0.09931400  1
  Fe  Fe6  1  0.47227200  0.52535600  0.50000000  1
  Fe  Fe7  1  0.49619800  0.48865300  0.29412500  1
  Fe  Fe8  1  0.49619800  0.48865300  0.70587500  1
  Fe  Fe9  1  0.49588000  0.49706200  0.90068600  1
  O  O10  1  0.20836100  0.79704500  0.50000000  1
  O  O11  1  0.32034100  0.31876700  0.18669200  1
  O  O12  1  0.32034100  0.31876700  0.81330800  1
  O  O13  1  0.67901500  0.68028300  0.00000000  1
  F  F14  1  0.19432100  0.80147800  0.08948900  1
  F  F15  1  0.20291300  0.79650400  0.29897600  1
  F  F16  1  0.20291300  0.79650400  0.70102400  1
  F  F17  1  0.19432100  0.80147800  0.91051100  1
  F  F18  1  0.28716800  0.28887200  0.00000000  1
  F  F19  1  0.30573900  0.30376000  0.40276600  1
  F  F20  1  0.30573900  0.30376000  0.59723400  1
  F  F21  1  0.71571500  0.71467900  0.18672300  1
  F  F22  1  0.69053600  0.68765200  0.40052600  1
  F  F23  1  0.69053600  0.68765200  0.59947400  1
  F  F24  1  0.71571500  0.71467900  0.81327700  1
  F  F25  1  0.80069700  0.19544400  0.08969700  1
  F  F26  1  0.78006200  0.22096500  0.50000000  1
  F  F27  1  0.80415600  0.19599800  0.30187500  1
  F  F28  1  0.80069700  0.19544400  0.91030300  1
  F  F29  1  0.80415600  0.19599800  0.69812500  1
