# generated using pymatgen
data_Na2V2O5
_symmetry_space_group_name_H-M   'P 1'
_cell_length_a   5.34774800
_cell_length_b   6.60973900
_cell_length_c   17.00700400
_cell_angle_alpha   90.00000000
_cell_angle_beta   90.00000000
_cell_angle_gamma   90.00000000
_symmetry_Int_Tables_number   1
_chemical_formula_structural   Na2V2O5
_chemical_formula_sum   'Na8 V8 O20'
_cell_volume   601.15028672
_cell_formula_units_Z   4
loop_
 _symmetry_equiv_pos_site_id
 _symmetry_equiv_pos_as_xyz
  1  'x, y, z'
loop_
 _atom_site_type_symbol
 _atom_site_label
 _atom_site_symmetry_multiplicity
 _atom_site_fract_x
 _atom_site_fract_y
 _atom_site_fract_z
 _atom_site_occupancy
  Na  Na0  1  0.77615600  0.59450100  0.94326500  1
  Na  Na1  1  0.22384400  0.59450100  0.44326500  1
  Na  Na2  1  0.27615600  0.90549900  0.94326500  1
  Na  Na3  1  0.72384400  0.90549900  0.44326500  1
  Na  Na4  1  0.27615600  0.09450100  0.55673500  1
  Na  Na5  1  0.72384400  0.09450100  0.05673500  1
  Na  Na6  1  0.77615600  0.40549900  0.55673500  1
  Na  Na7  1  0.22384400  0.40549900  0.05673500  1
  V  V8  1  0.29234700  0.59410100  0.65060900  1
  V  V9  1  0.70765300  0.59410100  0.15060900  1
  V  V10  1  0.79234700  0.90589900  0.65060900  1
  V  V11  1  0.20765300  0.90589900  0.15060900  1
  V  V12  1  0.20765300  0.09410100  0.34939100  1
  V  V13  1  0.79234700  0.09410100  0.84939100  1
  V  V14  1  0.29234700  0.40589900  0.84939100  1
  V  V15  1  0.70765300  0.40589900  0.34939100  1
  O  O16  1  0.24080900  0.50000000  0.75000000  1
  O  O17  1  0.75919100  0.50000000  0.25000000  1
  O  O18  1  0.21947300  0.55733700  0.93014900  1
  O  O19  1  0.78052700  0.55733700  0.43014900  1
  O  O20  1  0.62986500  0.65731300  0.63825200  1
  O  O21  1  0.37013500  0.65731300  0.13825200  1
  O  O22  1  0.12986500  0.84268700  0.63825200  1
  O  O23  1  0.87013500  0.84268700  0.13825200  1
  O  O24  1  0.71947300  0.94266300  0.93014900  1
  O  O25  1  0.28052700  0.94266300  0.43014900  1
  O  O26  1  0.74080900  0.00000000  0.75000000  1
  O  O27  1  0.25919100  0.00000000  0.25000000  1
  O  O28  1  0.71947300  0.05733700  0.56985100  1
  O  O29  1  0.28052700  0.05733700  0.06985100  1
  O  O30  1  0.12986500  0.15731300  0.86174800  1
  O  O31  1  0.87013500  0.15731300  0.36174800  1
  O  O32  1  0.62986500  0.34268700  0.86174800  1
  O  O33  1  0.37013500  0.34268700  0.36174800  1
  O  O34  1  0.21947300  0.44266300  0.56985100  1
  O  O35  1  0.78052700  0.44266300  0.06985100  1
