# generated using pymatgen
data_Fe5O3F7
_symmetry_space_group_name_H-M   'P 1'
_cell_length_a   4.78275800
_cell_length_b   4.79130403
_cell_length_c   15.80558033
_cell_angle_alpha   90.19050438
_cell_angle_beta   90.17716299
_cell_angle_gamma   92.17349711
_symmetry_Int_Tables_number   1
_chemical_formula_structural   Fe5O3F7
_chemical_formula_sum   'Fe10 O6 F14'
_cell_volume   361.93065700
_cell_formula_units_Z   2
loop_
 _symmetry_equiv_pos_site_id
 _symmetry_equiv_pos_as_xyz
  1  'x, y, z'
loop_
 _atom_site_type_symbol
 _atom_site_label
 _atom_site_symmetry_multiplicity
 _atom_site_fract_x
 _atom_site_fract_y
 _atom_site_fract_z
 _atom_site_occupancy
  Fe  Fe0  1  0.00702000  0.00612700  0.99959100  1
  Fe  Fe1  1  0.97383600  0.97368900  0.20149900  1
  Fe  Fe2  1  0.02044600  0.02280100  0.40190200  1
  Fe  Fe3  1  0.03319800  0.99955200  0.60636400  1
  Fe  Fe4  1  0.00272000  0.99217500  0.79428700  1
  Fe  Fe5  1  0.51563300  0.51533100  0.09721500  1
  Fe  Fe6  1  0.47888000  0.46930200  0.49918100  1
  Fe  Fe7  1  0.49891100  0.49959800  0.29979700  1
  Fe  Fe8  1  0.47121300  0.51125400  0.69439500  1
  Fe  Fe9  1  0.50204100  0.49914500  0.91223000  1
  O  O10  1  0.18769500  0.80716200  0.69677900  1
  O  O11  1  0.30416900  0.30204600  0.00288400  1
  O  O12  1  0.32292800  0.32115200  0.39540800  1
  O  O13  1  0.29892200  0.29884300  0.59167600  1
  O  O14  1  0.70739800  0.70515500  0.00060200  1
  O  O15  1  0.67256200  0.67281800  0.19883700  1
  F  F16  1  0.19838600  0.80172900  0.09501200  1
  F  F17  1  0.20608200  0.79285200  0.29969600  1
  F  F18  1  0.20485800  0.79754000  0.50268700  1
  F  F19  1  0.20321500  0.80117400  0.90493600  1
  F  F20  1  0.29068400  0.29051900  0.19759800  1
  F  F21  1  0.30530500  0.30683700  0.81314500  1
  F  F22  1  0.70623600  0.70499400  0.39895900  1
  F  F23  1  0.70679100  0.70969200  0.58720100  1
  F  F24  1  0.68851200  0.68703800  0.81078600  1
  F  F25  1  0.80227500  0.19784000  0.09487400  1
  F  F26  1  0.80069800  0.20067300  0.50416000  1
  F  F27  1  0.79264400  0.20668200  0.29950300  1
  F  F28  1  0.80514300  0.19833400  0.90302300  1
  F  F29  1  0.79159700  0.20794600  0.69577400  1
