# generated using pymatgen
data_Ca5W3O14
_symmetry_space_group_name_H-M   'P 1'
_cell_length_a   10.52300300
_cell_length_b   10.53165400
_cell_length_c   10.65665500
_cell_angle_alpha   90.00000000
_cell_angle_beta   90.00000000
_cell_angle_gamma   90.00000000
_symmetry_Int_Tables_number   1
_chemical_formula_structural   Ca5W3O14
_chemical_formula_sum   'Ca20 W12 O56'
_cell_volume   1181.01981157
_cell_formula_units_Z   4
loop_
 _symmetry_equiv_pos_site_id
 _symmetry_equiv_pos_as_xyz
  1  'x, y, z'
loop_
 _atom_site_type_symbol
 _atom_site_label
 _atom_site_symmetry_multiplicity
 _atom_site_fract_x
 _atom_site_fract_y
 _atom_site_fract_z
 _atom_site_occupancy
  Ca  Ca0  1  0.50000000  0.00000000  0.00000000  1
  Ca  Ca1  1  0.00000000  0.50000000  0.00000000  1
  Ca  Ca2  1  0.77733100  0.74417900  0.00420700  1
  Ca  Ca3  1  0.27733100  0.75582100  0.00420700  1
  Ca  Ca4  1  0.74246600  0.48081100  0.23721400  1
  Ca  Ca5  1  0.24246600  0.01918900  0.23721400  1
  Ca  Ca6  1  0.24246600  0.51918900  0.26278600  1
  Ca  Ca7  1  0.74246600  0.98081100  0.26278600  1
  Ca  Ca8  1  0.77733100  0.24417900  0.49579300  1
  Ca  Ca9  1  0.27733100  0.25582100  0.49579300  1
  Ca  Ca10  1  0.50000000  0.50000000  0.50000000  1
  Ca  Ca11  1  0.00000000  0.00000000  0.50000000  1
  Ca  Ca12  1  0.72266900  0.74417900  0.50420700  1
  Ca  Ca13  1  0.22266900  0.75582100  0.50420700  1
  Ca  Ca14  1  0.25753400  0.01918900  0.73721400  1
  Ca  Ca15  1  0.75753400  0.48081100  0.73721400  1
  Ca  Ca16  1  0.75753400  0.98081100  0.76278600  1
  Ca  Ca17  1  0.25753400  0.51918900  0.76278600  1
  Ca  Ca18  1  0.22266900  0.25582100  0.99579300  1
  Ca  Ca19  1  0.72266900  0.24417900  0.99579300  1
  W  W20  1  0.00000000  0.00000000  0.00000000  1
  W  W21  1  0.50000000  0.50000000  0.00000000  1
  W  W22  1  0.99763900  0.25570500  0.24673000  1
  W  W23  1  0.49763900  0.24429500  0.24673000  1
  W  W24  1  0.99763900  0.75570500  0.25327000  1
  W  W25  1  0.49763900  0.74429500  0.25327000  1
  W  W26  1  0.50000000  0.00000000  0.50000000  1
  W  W27  1  0.00000000  0.50000000  0.50000000  1
  W  W28  1  0.00236100  0.24429500  0.74673000  1
  W  W29  1  0.50236100  0.25570500  0.74673000  1
  W  W30  1  0.00236100  0.74429500  0.75327000  1
  W  W31  1  0.50236100  0.75570500  0.75327000  1
  O  O32  1  0.66859300  0.55753800  0.01499900  1
  O  O33  1  0.16859300  0.94246200  0.01499900  1
  O  O34  1  0.55154000  0.37107900  0.12116600  1
  O  O35  1  0.05154000  0.12892100  0.12116600  1
  O  O36  1  0.93666500  0.88564600  0.13231800  1
  O  O37  1  0.43666500  0.61435400  0.13231800  1
  O  O38  1  0.86646500  0.32326100  0.13689900  1
  O  O39  1  0.36646500  0.17673900  0.13689900  1
  O  O40  1  0.63170400  0.81173000  0.15095300  1
  O  O41  1  0.13170400  0.68827000  0.15095300  1
  O  O42  1  0.61049700  0.12422000  0.16076100  1
  O  O43  1  0.11049700  0.37578000  0.16076100  1
  O  O44  1  0.88817400  0.63379500  0.16936200  1
  O  O45  1  0.38817400  0.86620500  0.16936200  1
  O  O46  1  0.38817400  0.36620500  0.33063800  1
  O  O47  1  0.88817400  0.13379500  0.33063800  1
  O  O48  1  0.11049700  0.87578000  0.33923900  1
  O  O49  1  0.61049700  0.62422000  0.33923900  1
  O  O50  1  0.13170400  0.18827000  0.34904700  1
  O  O51  1  0.63170400  0.31173000  0.34904700  1
  O  O52  1  0.36646500  0.67673900  0.36310100  1
  O  O53  1  0.86646500  0.82326100  0.36310100  1
  O  O54  1  0.93666500  0.38564600  0.36768200  1
  O  O55  1  0.43666500  0.11435400  0.36768200  1
  O  O56  1  0.55154000  0.87107900  0.37883400  1
  O  O57  1  0.05154000  0.62892100  0.37883400  1
  O  O58  1  0.16859300  0.44246200  0.48500100  1
  O  O59  1  0.66859300  0.05753800  0.48500100  1
  O  O60  1  0.83140700  0.55753800  0.51499900  1
  O  O61  1  0.33140700  0.94246200  0.51499900  1
  O  O62  1  0.94846000  0.37107900  0.62116600  1
  O  O63  1  0.44846000  0.12892100  0.62116600  1
  O  O64  1  0.56333500  0.88564600  0.63231800  1
  O  O65  1  0.06333500  0.61435400  0.63231800  1
  O  O66  1  0.63353500  0.32326100  0.63689900  1
  O  O67  1  0.13353500  0.17673900  0.63689900  1
  O  O68  1  0.86829600  0.81173000  0.65095300  1
  O  O69  1  0.36829600  0.68827000  0.65095300  1
  O  O70  1  0.38950300  0.37578000  0.66076100  1
  O  O71  1  0.88950300  0.12422000  0.66076100  1
  O  O72  1  0.61182600  0.63379500  0.66936200  1
  O  O73  1  0.11182600  0.86620500  0.66936200  1
  O  O74  1  0.11182600  0.36620500  0.83063800  1
  O  O75  1  0.61182600  0.13379500  0.83063800  1
  O  O76  1  0.38950300  0.87578000  0.83923900  1
  O  O77  1  0.88950300  0.62422000  0.83923900  1
  O  O78  1  0.86829600  0.31173000  0.84904700  1
  O  O79  1  0.36829600  0.18827000  0.84904700  1
  O  O80  1  0.63353500  0.82326100  0.86310100  1
  O  O81  1  0.13353500  0.67673900  0.86310100  1
  O  O82  1  0.56333500  0.38564600  0.86768200  1
  O  O83  1  0.06333500  0.11435400  0.86768200  1
  O  O84  1  0.94846000  0.87107900  0.87883400  1
  O  O85  1  0.44846000  0.62892100  0.87883400  1
  O  O86  1  0.83140700  0.05753800  0.98500100  1
  O  O87  1  0.33140700  0.44246200  0.98500100  1
