# generated using pymatgen
data_Na2NiO2
_symmetry_space_group_name_H-M   'P 1'
_cell_length_a   6.02490632
_cell_length_b   6.18836803
_cell_length_c   10.62102944
_cell_angle_alpha   90.00000832
_cell_angle_beta   91.80115433
_cell_angle_gamma   90.00001467
_symmetry_Int_Tables_number   1
_chemical_formula_structural   Na2NiO2
_chemical_formula_sum   'Na8 Ni4 O8'
_cell_volume   395.80239600
_cell_formula_units_Z   4
loop_
 _symmetry_equiv_pos_site_id
 _symmetry_equiv_pos_as_xyz
  1  'x, y, z'
loop_
 _atom_site_type_symbol
 _atom_site_label
 _atom_site_symmetry_multiplicity
 _atom_site_fract_x
 _atom_site_fract_y
 _atom_site_fract_z
 _atom_site_occupancy
  Na  Na0  1  0.99997100  0.74998600  0.49999900  1
  Na  Na1  1  0.75002800  0.24998600  0.75000100  1
  Na  Na2  1  0.49998100  0.74998000  0.00001300  1
  Na  Na3  1  0.25001800  0.24998000  0.24998700  1
  Na  Na4  1  0.75002800  0.75001400  0.75000100  1
  Na  Na5  1  0.49998100  0.25002000  0.00001300  1
  Na  Na6  1  0.25001800  0.75002000  0.24998700  1
  Na  Na7  1  0.99997100  0.25001400  0.49999900  1
  Ni  Ni8  1  0.50003800  0.50000000  0.49993400  1
  Ni  Ni9  1  0.24996300  0.00000000  0.75006600  1
  Ni  Ni10  1  0.00015900  0.50000000  0.99998400  1
  Ni  Ni11  1  0.74984500  0.00000000  0.25001700  1
  O  O12  1  0.75065000  0.50000000  0.58357200  1
  O  O13  1  0.50069100  0.00000000  0.83357800  1
  O  O14  1  0.25079200  0.50000000  0.08361000  1
  O  O15  1  0.00058800  0.00000000  0.33355600  1
  O  O16  1  0.99935000  0.00000000  0.66642800  1
  O  O17  1  0.74941100  0.50000000  0.91644400  1
  O  O18  1  0.49920600  0.00000000  0.16638900  1
  O  O19  1  0.24930900  0.50000000  0.41642200  1
