# generated using pymatgen
data_Ti2Fe(PO4)3
_symmetry_space_group_name_H-M   'P 1'
_cell_length_a   8.55884731
_cell_length_b   8.55884731
_cell_length_c   8.55884699
_cell_angle_alpha   61.21308375
_cell_angle_beta   61.21308375
_cell_angle_gamma   61.21308592
_symmetry_Int_Tables_number   1
_chemical_formula_structural   Ti2Fe(PO4)3
_chemical_formula_sum   'Ti4 Fe2 P6 O24'
_cell_volume   455.43009548
_cell_formula_units_Z   2
loop_
 _symmetry_equiv_pos_site_id
 _symmetry_equiv_pos_as_xyz
  1  'x, y, z'
loop_
 _atom_site_type_symbol
 _atom_site_label
 _atom_site_symmetry_multiplicity
 _atom_site_fract_x
 _atom_site_fract_y
 _atom_site_fract_z
 _atom_site_occupancy
  Ti  Ti0  1  0.85668500  0.85668500  0.85668500  1
  Ti  Ti1  1  0.64331500  0.64331500  0.64331500  1
  Ti  Ti2  1  0.35668500  0.35668500  0.35668500  1
  Ti  Ti3  1  0.14331500  0.14331500  0.14331500  1
  Fe  Fe4  1  0.00000000  0.00000000  0.00000000  1
  Fe  Fe5  1  0.50000000  0.50000000  0.50000000  1
  P  P6  1  0.75000000  0.45746700  0.04253300  1
  P  P7  1  0.45746700  0.04253300  0.75000000  1
  P  P8  1  0.04253300  0.75000000  0.45746700  1
  P  P9  1  0.95746700  0.25000000  0.54253300  1
  P  P10  1  0.54253300  0.95746700  0.25000000  1
  P  P11  1  0.25000000  0.54253300  0.95746700  1
  O  O12  1  0.88417400  0.68388600  0.49962100  1
  O  O13  1  0.68388600  0.49962100  0.88417400  1
  O  O14  1  0.94310200  0.09076500  0.73757000  1
  O  O15  1  0.49962100  0.88417400  0.68388600  1
  O  O16  1  0.99962100  0.18388600  0.38417400  1
  O  O17  1  0.76243000  0.40923500  0.55689800  1
  O  O18  1  0.73757000  0.94310200  0.09076500  1
  O  O19  1  0.55689800  0.76243000  0.40923500  1
  O  O20  1  0.81611400  0.61582600  0.00037900  1
  O  O21  1  0.40923500  0.55689800  0.76243000  1
  O  O22  1  0.90923500  0.26243000  0.05689800  1
  O  O23  1  0.61582600  0.00037900  0.81611400  1
  O  O24  1  0.38417400  0.99962100  0.18388600  1
  O  O25  1  0.09076500  0.73757000  0.94310200  1
  O  O26  1  0.59076500  0.44310200  0.23757000  1
  O  O27  1  0.18388600  0.38417400  0.99962100  1
  O  O28  1  0.44310200  0.23757000  0.59076500  1
  O  O29  1  0.26243000  0.05689800  0.90923500  1
  O  O30  1  0.23757000  0.59076500  0.44310200  1
  O  O31  1  0.00037900  0.81611400  0.61582600  1
  O  O32  1  0.50037900  0.11582600  0.31611400  1
  O  O33  1  0.05689800  0.90923500  0.26243000  1
  O  O34  1  0.31611400  0.50037900  0.11582600  1
  O  O35  1  0.11582600  0.31611400  0.50037900  1
