# generated using pymatgen
data_Ce3Tm
_symmetry_space_group_name_H-M   'P 1'
_cell_length_a   6.96817426
_cell_length_b   6.96817426
_cell_length_c   5.70686800
_cell_angle_alpha   90.00000000
_cell_angle_beta   90.00000000
_cell_angle_gamma   120.00000245
_symmetry_Int_Tables_number   1
_chemical_formula_structural   Ce3Tm
_chemical_formula_sum   'Ce6 Tm2'
_cell_volume   239.97525072
_cell_formula_units_Z   2
loop_
 _symmetry_equiv_pos_site_id
 _symmetry_equiv_pos_as_xyz
  1  'x, y, z'
loop_
 _atom_site_type_symbol
 _atom_site_label
 _atom_site_symmetry_multiplicity
 _atom_site_fract_x
 _atom_site_fract_y
 _atom_site_fract_z
 _atom_site_occupancy
  Ce  Ce0  1  0.16703400  0.33406800  0.25000000  1
  Ce  Ce1  1  0.66593200  0.83296600  0.25000000  1
  Ce  Ce2  1  0.16703400  0.83296600  0.25000000  1
  Ce  Ce3  1  0.83296600  0.66593200  0.75000000  1
  Ce  Ce4  1  0.33406800  0.16703400  0.75000000  1
  Ce  Ce5  1  0.83296600  0.16703400  0.75000000  1
  Tm  Tm6  1  0.33333300  0.66666700  0.75000000  1
  Tm  Tm7  1  0.66666700  0.33333300  0.25000000  1
