# generated using pymatgen
data_Mn12O7F17
_symmetry_space_group_name_H-M   'P 1'
_cell_length_a   4.83184700
_cell_length_b   5.82377079
_cell_length_c   15.75863188
_cell_angle_alpha   89.36444970
_cell_angle_beta   89.10096664
_cell_angle_gamma   87.87955758
_symmetry_Int_Tables_number   1
_chemical_formula_structural   Mn12O7F17
_chemical_formula_sum   'Mn12 O7 F17'
_cell_volume   443.05840136
_cell_formula_units_Z   1
loop_
 _symmetry_equiv_pos_site_id
 _symmetry_equiv_pos_as_xyz
  1  'x, y, z'
loop_
 _atom_site_type_symbol
 _atom_site_label
 _atom_site_symmetry_multiplicity
 _atom_site_fract_x
 _atom_site_fract_y
 _atom_site_fract_z
 _atom_site_occupancy
  Mn  Mn0  1  0.95725900  0.16444900  0.58862700  1
  Mn  Mn1  1  0.00551900  0.83299700  0.75390800  1
  Mn  Mn2  1  0.04416100  0.18547700  0.92142800  1
  Mn  Mn3  1  0.94562000  0.15958400  0.24710600  1
  Mn  Mn4  1  0.00439300  0.85503200  0.41211000  1
  Mn  Mn5  1  0.97037900  0.84514900  0.08797600  1
  Mn  Mn6  1  0.52793700  0.32420200  0.41852800  1
  Mn  Mn7  1  0.49277100  0.36125600  0.08388700  1
  Mn  Mn8  1  0.51061500  0.34148300  0.74910900  1
  Mn  Mn9  1  0.48023400  0.63921900  0.91253600  1
  Mn  Mn10  1  0.50108400  0.64620500  0.57946600  1
  Mn  Mn11  1  0.53243700  0.65561800  0.24682600  1
  O  O12  1  0.76610500  0.12150700  0.69497800  1
  O  O13  1  0.79213700  0.11370700  0.35951100  1
  O  O14  1  0.76740600  0.88309500  0.19815300  1
  O  O15  1  0.70848400  0.36991700  0.52808700  1
  O  O16  1  0.70926800  0.40011400  0.18622900  1
  O  O17  1  0.30001200  0.39964300  0.97718200  1
  O  O18  1  0.29156600  0.58839600  0.80793400  1
  F  F19  1  0.75985300  0.13126700  0.03003600  1
  F  F20  1  0.75345600  0.86402800  0.86575600  1
  F  F21  1  0.76304600  0.87732300  0.52231800  1
  F  F22  1  0.75530600  0.36773900  0.85278900  1
  F  F23  1  0.73646600  0.61422000  0.69102600  1
  F  F24  1  0.74792300  0.61117400  0.36252000  1
  F  F25  1  0.72077000  0.63136800  0.01738900  1
  F  F26  1  0.26228700  0.39110700  0.64493800  1
  F  F27  1  0.26746300  0.61244500  0.46560100  1
  F  F28  1  0.25743600  0.61532400  0.13761500  1
  F  F29  1  0.29659100  0.38842300  0.30860100  1
  F  F30  1  0.25366600  0.09480600  0.80653300  1
  F  F31  1  0.20976100  0.12073000  0.48213000  1
  F  F32  1  0.21687700  0.89096000  0.63286700  1
  F  F33  1  0.22177800  0.89133500  0.97988900  1
  F  F34  1  0.20653800  0.13094700  0.14261400  1
  F  F35  1  0.26339600  0.87975500  0.30380100  1
