# generated using pymatgen
data_Tb2WO6
_symmetry_space_group_name_H-M   'P 1'
_cell_length_a   5.63301200
_cell_length_b   10.67104000
_cell_length_c   16.21430500
_cell_angle_alpha   90.00000000
_cell_angle_beta   90.00000000
_cell_angle_gamma   90.00000000
_symmetry_Int_Tables_number   1
_chemical_formula_structural   Tb2WO6
_chemical_formula_sum   'Tb16 W8 O48'
_cell_volume   974.64343616
_cell_formula_units_Z   8
loop_
 _symmetry_equiv_pos_site_id
 _symmetry_equiv_pos_as_xyz
  1  'x, y, z'
loop_
 _atom_site_type_symbol
 _atom_site_label
 _atom_site_symmetry_multiplicity
 _atom_site_fract_x
 _atom_site_fract_y
 _atom_site_fract_z
 _atom_site_occupancy
  Tb  Tb0  1  0.89875800  0.64188400  0.06184800  1
  Tb  Tb1  1  0.39875800  0.85811600  0.06184800  1
  Tb  Tb2  1  0.94897400  0.85482900  0.23054900  1
  Tb  Tb3  1  0.44897400  0.64517100  0.23054900  1
  Tb  Tb4  1  0.94897400  0.35482900  0.26945100  1
  Tb  Tb5  1  0.44897400  0.14517100  0.26945100  1
  Tb  Tb6  1  0.39875800  0.35811600  0.43815200  1
  Tb  Tb7  1  0.89875800  0.14188400  0.43815200  1
  Tb  Tb8  1  0.10124200  0.85811600  0.56184800  1
  Tb  Tb9  1  0.60124200  0.64188400  0.56184800  1
  Tb  Tb10  1  0.55102600  0.85482900  0.73054900  1
  Tb  Tb11  1  0.05102600  0.64517100  0.73054900  1
  Tb  Tb12  1  0.55102600  0.35482900  0.76945100  1
  Tb  Tb13  1  0.05102600  0.14517100  0.76945100  1
  Tb  Tb14  1  0.10124200  0.35811600  0.93815200  1
  Tb  Tb15  1  0.60124200  0.14188400  0.93815200  1
  W  W16  1  0.38940900  0.37906800  0.11987400  1
  W  W17  1  0.88940900  0.12093200  0.11987400  1
  W  W18  1  0.38940900  0.87906800  0.38012600  1
  W  W19  1  0.88940900  0.62093200  0.38012600  1
  W  W20  1  0.11059100  0.37906800  0.61987400  1
  W  W21  1  0.61059100  0.12093200  0.61987400  1
  W  W22  1  0.11059100  0.87906800  0.88012600  1
  W  W23  1  0.61059100  0.62093200  0.88012600  1
  O  O24  1  0.91929400  0.21552600  0.02225400  1
  O  O25  1  0.41929400  0.28447400  0.02225400  1
  O  O26  1  0.12290600  0.45849300  0.07234700  1
  O  O27  1  0.62290600  0.04150700  0.07234700  1
  O  O28  1  0.09421600  0.98879400  0.10686800  1
  O  O29  1  0.59421600  0.51120600  0.10686800  1
  O  O30  1  0.67563200  0.76996200  0.14654900  1
  O  O31  1  0.17563200  0.73003800  0.14654900  1
  O  O32  1  0.65875700  0.26887800  0.17071100  1
  O  O33  1  0.15875700  0.23112200  0.17071100  1
  O  O34  1  0.81654700  0.05929100  0.23097800  1
  O  O35  1  0.31654700  0.44070900  0.23097800  1
  O  O36  1  0.31654700  0.94070900  0.26902200  1
  O  O37  1  0.81654700  0.55929100  0.26902200  1
  O  O38  1  0.65875700  0.76887800  0.32928900  1
  O  O39  1  0.15875700  0.73112200  0.32928900  1
  O  O40  1  0.67563200  0.26996200  0.35345100  1
  O  O41  1  0.17563200  0.23003800  0.35345100  1
  O  O42  1  0.09421600  0.48879400  0.39313200  1
  O  O43  1  0.59421600  0.01120600  0.39313200  1
  O  O44  1  0.12290600  0.95849300  0.42765300  1
  O  O45  1  0.62290600  0.54150700  0.42765300  1
  O  O46  1  0.41929400  0.78447400  0.47774600  1
  O  O47  1  0.91929400  0.71552600  0.47774600  1
  O  O48  1  0.08070600  0.28447400  0.52225400  1
  O  O49  1  0.58070600  0.21552600  0.52225400  1
  O  O50  1  0.37709400  0.45849300  0.57234700  1
  O  O51  1  0.87709400  0.04150700  0.57234700  1
  O  O52  1  0.40578400  0.98879400  0.60686800  1
  O  O53  1  0.90578400  0.51120600  0.60686800  1
  O  O54  1  0.82436800  0.76996200  0.64654900  1
  O  O55  1  0.32436800  0.73003800  0.64654900  1
  O  O56  1  0.84124300  0.26887800  0.67071100  1
  O  O57  1  0.34124300  0.23112200  0.67071100  1
  O  O58  1  0.18345300  0.44070900  0.73097800  1
  O  O59  1  0.68345300  0.05929100  0.73097800  1
  O  O60  1  0.18345300  0.94070900  0.76902200  1
  O  O61  1  0.68345300  0.55929100  0.76902200  1
  O  O62  1  0.84124300  0.76887800  0.82928900  1
  O  O63  1  0.34124300  0.73112200  0.82928900  1
  O  O64  1  0.82436800  0.26996200  0.85345100  1
  O  O65  1  0.32436800  0.23003800  0.85345100  1
  O  O66  1  0.40578400  0.48879400  0.89313200  1
  O  O67  1  0.90578400  0.01120600  0.89313200  1
  O  O68  1  0.37709400  0.95849300  0.92765300  1
  O  O69  1  0.87709400  0.54150700  0.92765300  1
  O  O70  1  0.08070600  0.78447400  0.97774600  1
  O  O71  1  0.58070600  0.71552600  0.97774600  1
