# generated using pymatgen
data_Gd2(WO4)3
_symmetry_space_group_name_H-M   'P 1'
_cell_length_a   10.58607600
_cell_length_b   10.60985400
_cell_length_c   10.87085900
_cell_angle_alpha   90.00000000
_cell_angle_beta   90.00000000
_cell_angle_gamma   90.00000000
_symmetry_Int_Tables_number   1
_chemical_formula_structural   Gd2(WO4)3
_chemical_formula_sum   'Gd8 W12 O48'
_cell_volume   1220.97923508
_cell_formula_units_Z   4
loop_
 _symmetry_equiv_pos_site_id
 _symmetry_equiv_pos_as_xyz
  1  'x, y, z'
loop_
 _atom_site_type_symbol
 _atom_site_label
 _atom_site_symmetry_multiplicity
 _atom_site_fract_x
 _atom_site_fract_y
 _atom_site_fract_z
 _atom_site_occupancy
  Gd  Gd0  1  0.00629800  0.81127300  0.26300000  1
  Gd  Gd1  1  0.18912800  0.49595000  0.73815200  1
  Gd  Gd2  1  0.31087200  0.99595000  0.73815200  1
  Gd  Gd3  1  0.49370200  0.31127300  0.26300000  1
  Gd  Gd4  1  0.50629800  0.68872700  0.26300000  1
  Gd  Gd5  1  0.68912800  0.00405000  0.73815200  1
  Gd  Gd6  1  0.81087200  0.50405000  0.73815200  1
  Gd  Gd7  1  0.99370200  0.18872700  0.26300000  1
  W  W8  1  0.00330300  0.20638200  0.64340100  1
  W  W9  1  0.20557900  0.48841900  0.35730700  1
  W  W10  1  0.24283900  0.24358600  0.00036100  1
  W  W11  1  0.25716100  0.74358600  0.00036100  1
  W  W12  1  0.29442100  0.98841900  0.35730700  1
  W  W13  1  0.49669700  0.70638200  0.64340100  1
  W  W14  1  0.50330300  0.29361800  0.64340100  1
  W  W15  1  0.70557900  0.01158100  0.35730700  1
  W  W16  1  0.74283900  0.25641400  0.00036100  1
  W  W17  1  0.75716100  0.75641400  0.00036100  1
  W  W18  1  0.79442100  0.51158100  0.35730700  1
  W  W19  1  0.99669700  0.79361800  0.64340100  1
  O  O20  1  0.00679200  0.62712600  0.69094600  1
  O  O21  1  0.02060800  0.80566600  0.47946100  1
  O  O22  1  0.11347500  0.61551700  0.29243500  1
  O  O23  1  0.11772200  0.88460400  0.72008900  1
  O  O24  1  0.12300300  0.17032900  0.09501400  1
  O  O25  1  0.12773100  0.00615800  0.31117500  1
  O  O26  1  0.14313600  0.81990400  0.09984300  1
  O  O27  1  0.15530200  0.33471300  0.30528600  1
  O  O28  1  0.16041400  0.15366600  0.68248100  1
  O  O29  1  0.16934800  0.35865300  0.90044300  1
  O  O30  1  0.18166200  0.62483600  0.90582100  1
  O  O31  1  0.19267600  0.48893800  0.52254200  1
  O  O32  1  0.30732400  0.98893800  0.52254200  1
  O  O33  1  0.31833800  0.12483600  0.90582100  1
  O  O34  1  0.33065200  0.85865300  0.90044300  1
  O  O35  1  0.33958600  0.65366600  0.68248100  1
  O  O36  1  0.34469800  0.83471300  0.30528600  1
  O  O37  1  0.35686400  0.31990400  0.09984300  1
  O  O38  1  0.37226900  0.50615800  0.31117500  1
  O  O39  1  0.37699700  0.67032900  0.09501400  1
  O  O40  1  0.38227800  0.38460400  0.72008900  1
  O  O41  1  0.38652500  0.11551700  0.29243500  1
  O  O42  1  0.47939200  0.30566600  0.47946100  1
  O  O43  1  0.49320800  0.12712600  0.69094600  1
  O  O44  1  0.50679200  0.87287400  0.69094600  1
  O  O45  1  0.52060800  0.69433400  0.47946100  1
  O  O46  1  0.61347500  0.88448300  0.29243500  1
  O  O47  1  0.61772200  0.61539600  0.72008900  1
  O  O48  1  0.62300300  0.32967100  0.09501400  1
  O  O49  1  0.62773100  0.49384200  0.31117500  1
  O  O50  1  0.64313600  0.68009600  0.09984300  1
  O  O51  1  0.65530200  0.16528700  0.30528600  1
  O  O52  1  0.66041400  0.34633400  0.68248100  1
  O  O53  1  0.66934800  0.14134700  0.90044300  1
  O  O54  1  0.68166200  0.87516400  0.90582100  1
  O  O55  1  0.69267600  0.01106200  0.52254200  1
  O  O56  1  0.80732400  0.51106200  0.52254200  1
  O  O57  1  0.81833800  0.37516400  0.90582100  1
  O  O58  1  0.83065200  0.64134700  0.90044300  1
  O  O59  1  0.83958600  0.84633400  0.68248100  1
  O  O60  1  0.84469800  0.66528700  0.30528600  1
  O  O61  1  0.85686400  0.18009600  0.09984300  1
  O  O62  1  0.87226900  0.99384200  0.31117500  1
  O  O63  1  0.87699700  0.82967100  0.09501400  1
  O  O64  1  0.88227800  0.11539600  0.72008900  1
  O  O65  1  0.88652500  0.38448300  0.29243500  1
  O  O66  1  0.97939200  0.19433400  0.47946100  1
  O  O67  1  0.99320800  0.37287400  0.69094600  1
