# generated using pymatgen
data_Mn2(SO4)3
_symmetry_space_group_name_H-M   'P 1'
_cell_length_a   9.04432970
_cell_length_b   9.04432970
_cell_length_c   9.04432976
_cell_angle_alpha   55.08772467
_cell_angle_beta   55.08772467
_cell_angle_gamma   55.08772504
_symmetry_Int_Tables_number   1
_chemical_formula_structural   Mn2(SO4)3
_chemical_formula_sum   'Mn4 S6 O24'
_cell_volume   463.36585158
_cell_formula_units_Z   2
loop_
 _symmetry_equiv_pos_site_id
 _symmetry_equiv_pos_as_xyz
  1  'x, y, z'
loop_
 _atom_site_type_symbol
 _atom_site_label
 _atom_site_symmetry_multiplicity
 _atom_site_fract_x
 _atom_site_fract_y
 _atom_site_fract_z
 _atom_site_occupancy
  Mn  Mn0  1  0.14432600  0.14432600  0.14432600  1
  Mn  Mn1  1  0.34592300  0.34592300  0.34592300  1
  Mn  Mn2  1  0.65407700  0.65407700  0.65407700  1
  Mn  Mn3  1  0.85567400  0.85567400  0.85567400  1
  S  S4  1  0.74400100  0.04364200  0.45671200  1
  S  S5  1  0.95635800  0.54328800  0.25599900  1
  S  S6  1  0.54328800  0.25599900  0.95635800  1
  S  S7  1  0.45671200  0.74400100  0.04364200  1
  S  S8  1  0.04364200  0.45671200  0.74400100  1
  S  S9  1  0.25599900  0.95635800  0.54328800  1
  O  O10  1  0.52741100  0.21835300  0.14991200  1
  O  O11  1  0.21835300  0.14991200  0.52741100  1
  O  O12  1  0.78620000  0.02055000  0.60442900  1
  O  O13  1  0.87048900  0.12672500  0.25963000  1
  O  O14  1  0.14991200  0.52741100  0.21835300  1
  O  O15  1  0.74037000  0.12951100  0.87327500  1
  O  O16  1  0.97945000  0.39557100  0.21380000  1
  O  O17  1  0.53608200  0.17225100  0.48783900  1
  O  O18  1  0.82774900  0.51216100  0.46391800  1
  O  O19  1  0.39557100  0.21380000  0.97945000  1
  O  O20  1  0.87327500  0.74037000  0.12951100  1
  O  O21  1  0.51216100  0.46391800  0.82774900  1
  O  O22  1  0.48783900  0.53608200  0.17225100  1
  O  O23  1  0.12672500  0.25963000  0.87048900  1
  O  O24  1  0.60442900  0.78620000  0.02055000  1
  O  O25  1  0.17225100  0.48783900  0.53608200  1
  O  O26  1  0.46391800  0.82774900  0.51216100  1
  O  O27  1  0.02055000  0.60442900  0.78620000  1
  O  O28  1  0.25963000  0.87048900  0.12672500  1
  O  O29  1  0.85008800  0.47258900  0.78164700  1
  O  O30  1  0.12951100  0.87327500  0.74037000  1
  O  O31  1  0.21380000  0.97945000  0.39557100  1
  O  O32  1  0.78164700  0.85008800  0.47258900  1
  O  O33  1  0.47258900  0.78164700  0.85008800  1
