# generated using pymatgen
data_Fe5O3F7
_symmetry_space_group_name_H-M   'P 1'
_cell_length_a   4.78410718
_cell_length_b   4.78880120
_cell_length_c   15.74672736
_cell_angle_alpha   89.99077133
_cell_angle_beta   90.03797696
_cell_angle_gamma   90.15054375
_symmetry_Int_Tables_number   1
_chemical_formula_structural   Fe5O3F7
_chemical_formula_sum   'Fe10 O6 F14'
_cell_volume   360.75837112
_cell_formula_units_Z   2
loop_
 _symmetry_equiv_pos_site_id
 _symmetry_equiv_pos_as_xyz
  1  'x, y, z'
loop_
 _atom_site_type_symbol
 _atom_site_label
 _atom_site_symmetry_multiplicity
 _atom_site_fract_x
 _atom_site_fract_y
 _atom_site_fract_z
 _atom_site_occupancy
  Fe  Fe0  1  0.97473900  0.95290100  0.99334100  1
  Fe  Fe1  1  0.02799900  0.02680300  0.19879000  1
  Fe  Fe2  1  0.02775600  0.01166400  0.40553100  1
  Fe  Fe3  1  0.02443100  0.97021500  0.60039800  1
  Fe  Fe4  1  0.02666100  0.97158900  0.79987000  1
  Fe  Fe5  1  0.50096500  0.49394600  0.09970700  1
  Fe  Fe6  1  0.47105000  0.51067700  0.49292100  1
  Fe  Fe7  1  0.48350100  0.47295600  0.29763000  1
  Fe  Fe8  1  0.48697100  0.51386300  0.70012600  1
  Fe  Fe9  1  0.48859800  0.51981500  0.90660000  1
  O  O10  1  0.20378900  0.79871800  0.50721600  1
  O  O11  1  0.18584300  0.81297200  0.70065600  1
  O  O12  1  0.17237200  0.81436500  0.89963800  1
  O  O13  1  0.32774300  0.31894300  0.19626500  1
  O  O14  1  0.31882500  0.31589700  0.39758900  1
  O  O15  1  0.68486600  0.68605100  0.00920900  1
  F  F16  1  0.19593500  0.79730200  0.09515300  1
  F  F17  1  0.22042700  0.80274500  0.29872700  1
  F  F18  1  0.27967600  0.28778600  0.00828800  1
  F  F19  1  0.29734900  0.30133300  0.59523500  1
  F  F20  1  0.29123800  0.30100800  0.80331700  1
  F  F21  1  0.71135800  0.70241400  0.20057800  1
  F  F22  1  0.70261400  0.70043900  0.39667800  1
  F  F23  1  0.69701200  0.70056300  0.59365300  1
  F  F24  1  0.69912100  0.71281900  0.80072800  1
  F  F25  1  0.80173900  0.19136100  0.09275300  1
  F  F26  1  0.79347400  0.21218200  0.51035400  1
  F  F27  1  0.80951700  0.21026100  0.30116200  1
  F  F28  1  0.79478500  0.18975300  0.89829400  1
  F  F29  1  0.79964400  0.19865400  0.69959100  1
