# generated using pymatgen
data_Na10Mn2O9
_symmetry_space_group_name_H-M   'P 1'
_cell_length_a   6.53032360
_cell_length_b   10.95677565
_cell_length_c   11.33643843
_cell_angle_alpha   62.58610967
_cell_angle_beta   105.54739208
_cell_angle_gamma   86.91099592
_symmetry_Int_Tables_number   1
_chemical_formula_structural   Na10Mn2O9
_chemical_formula_sum   'Na20 Mn4 O18'
_cell_volume   678.63171909
_cell_formula_units_Z   2
loop_
 _symmetry_equiv_pos_site_id
 _symmetry_equiv_pos_as_xyz
  1  'x, y, z'
loop_
 _atom_site_type_symbol
 _atom_site_label
 _atom_site_symmetry_multiplicity
 _atom_site_fract_x
 _atom_site_fract_y
 _atom_site_fract_z
 _atom_site_occupancy
  Na  Na0  1  0.52966900  0.34948200  0.19054500  1
  Na  Na1  1  0.02961600  0.84956900  0.19053500  1
  Na  Na2  1  0.40702400  0.63998600  0.73692700  1
  Na  Na3  1  0.90700500  0.14010300  0.73690800  1
  Na  Na4  1  0.02472500  0.25617800  0.41560100  1
  Na  Na5  1  0.52454900  0.75617900  0.41555600  1
  Na  Na6  1  0.55086300  0.11224700  0.45402500  1
  Na  Na7  1  0.05085200  0.61218200  0.45401100  1
  Na  Na8  1  0.13014600  0.96938200  0.42164900  1
  Na  Na9  1  0.62996500  0.46943800  0.42158400  1
  Na  Na10  1  0.81324600  0.88314200  0.91042200  1
  Na  Na11  1  0.31313000  0.38311400  0.91045600  1
  Na  Na12  1  0.15433800  0.14138200  0.08967900  1
  Na  Na13  1  0.65422000  0.64141200  0.08965200  1
  Na  Na14  1  0.32975300  0.00886300  0.96721500  1
  Na  Na15  1  0.82974500  0.50880700  0.96727100  1
  Na  Na16  1  0.22862100  0.70130100  0.91795100  1
  Na  Na17  1  0.72863100  0.20126000  0.91816600  1
  Na  Na18  1  0.92093900  0.77816700  0.60056300  1
  Na  Na19  1  0.42076400  0.27826400  0.60053300  1
  Mn  Mn20  1  0.36283300  0.97036800  0.72106200  1
  Mn  Mn21  1  0.64618400  0.03496600  0.25456200  1
  Mn  Mn22  1  0.86269700  0.47052900  0.72097400  1
  Mn  Mn23  1  0.14595100  0.53519500  0.25426800  1
  O  O24  1  0.49489700  0.52029500  0.98152100  1
  O  O25  1  0.99490300  0.02030800  0.98152100  1
  O  O26  1  0.18991300  0.13522900  0.66021500  1
  O  O27  1  0.68976000  0.63536400  0.66014100  1
  O  O28  1  0.45622900  0.85860300  0.91018400  1
  O  O29  1  0.95617500  0.35866000  0.91011000  1
  O  O30  1  0.59843800  0.04075700  0.67659900  1
  O  O31  1  0.09842900  0.54078000  0.67656500  1
  O  O32  1  0.21835500  0.85714000  0.66618600  1
  O  O33  1  0.71829100  0.35723000  0.66612500  1
  O  O34  1  0.79779800  0.13024200  0.33151600  1
  O  O35  1  0.29742000  0.63045500  0.33136200  1
  O  O36  1  0.40910500  0.00268000  0.31652900  1
  O  O37  1  0.90905200  0.50265700  0.31643000  1
  O  O38  1  0.50330700  0.13925300  0.06756400  1
  O  O39  1  0.00320200  0.63928300  0.06731100  1
  O  O40  1  0.84863800  0.86616100  0.34522100  1
  O  O41  1  0.34852000  0.36627200  0.34512100  1
