# generated using pymatgen
data_Ti17(NO4)6
_symmetry_space_group_name_H-M   'P 1'
_cell_length_a   10.39777700
_cell_length_b   11.30154485
_cell_length_c   11.47914304
_cell_angle_alpha   99.74432534
_cell_angle_beta   111.59773247
_cell_angle_gamma   109.62832581
_symmetry_Int_Tables_number   1
_chemical_formula_structural   Ti17(NO4)6
_chemical_formula_sum   'Ti34 N12 O48'
_cell_volume   1113.30836956
_cell_formula_units_Z   2
loop_
 _symmetry_equiv_pos_site_id
 _symmetry_equiv_pos_as_xyz
  1  'x, y, z'
loop_
 _atom_site_type_symbol
 _atom_site_label
 _atom_site_symmetry_multiplicity
 _atom_site_fract_x
 _atom_site_fract_y
 _atom_site_fract_z
 _atom_site_occupancy
  Ti  Ti0  1  0.14746000  0.57164600  0.64456300  1
  Ti  Ti1  1  0.17463900  0.07247100  0.57096000  1
  Ti  Ti2  1  0.07274700  0.74830900  0.48342800  1
  Ti  Ti3  1  0.64597200  0.57660600  0.64926800  1
  Ti  Ti4  1  0.67692400  0.07206400  0.57094900  1
  Ti  Ti5  1  0.42772200  0.25065800  0.51973800  1
  Ti  Ti6  1  0.17893200  0.07644000  0.23401300  1
  Ti  Ti7  1  0.32307600  0.92793600  0.42905100  1
  Ti  Ti8  1  0.14743500  0.57257000  0.31124400  1
  Ti  Ti9  1  0.35402800  0.42339400  0.35073200  1
  Ti  Ti10  1  0.57227800  0.74934200  0.48026200  1
  Ti  Ti11  1  0.92725300  0.25169100  0.51657200  1
  Ti  Ti12  1  0.07144600  0.75027800  0.14692400  1
  Ti  Ti13  1  0.67210900  0.07005900  0.23546100  1
  Ti  Ti14  1  0.64066700  0.55285700  0.30559500  1
  Ti  Ti15  1  0.85254000  0.42835400  0.35543700  1
  Ti  Ti16  1  0.82536100  0.92752900  0.42904000  1
  Ti  Ti17  1  0.17940600  0.07705300  0.91022900  1
  Ti  Ti18  1  0.92850900  0.24927400  0.18366400  1
  Ti  Ti19  1  0.14820600  0.57461600  0.97846700  1
  Ti  Ti20  1  0.33421800  0.94274900  0.10163100  1
  Ti  Ti21  1  0.35330700  0.42333500  0.02603700  1
  Ti  Ti22  1  0.57246900  0.74920200  0.15092500  1
  Ti  Ti23  1  0.07149100  0.75072600  0.81633600  1
  Ti  Ti24  1  0.82059400  0.92294700  0.08977100  1
  Ti  Ti25  1  0.64669300  0.57666500  0.97396300  1
  Ti  Ti26  1  0.42753100  0.25079800  0.84907500  1
  Ti  Ti27  1  0.66578200  0.05725100  0.89836900  1
  Ti  Ti28  1  0.85179400  0.42538400  0.02153300  1
  Ti  Ti29  1  0.32789100  0.92994100  0.76453900  1
  Ti  Ti30  1  0.35933300  0.44714300  0.69440500  1
  Ti  Ti31  1  0.92855400  0.24972200  0.85307600  1
  Ti  Ti32  1  0.82106800  0.92356000  0.76598700  1
  Ti  Ti33  1  0.85256500  0.42743000  0.68875600  1
  N  N34  1  0.35213000  0.24936200  0.65835000  1
  N  N35  1  0.85565100  0.24977300  0.66136200  1
  N  N36  1  0.14434900  0.75022700  0.33863800  1
  N  N37  1  0.34534700  0.25046000  0.33807100  1
  N  N38  1  0.64787000  0.75063800  0.34165000  1
  N  N39  1  0.85786700  0.24983400  0.32619800  1
  N  N40  1  0.14456800  0.75082900  0.00649200  1
  N  N41  1  0.34559600  0.25059700  0.97675700  1
  N  N42  1  0.85543200  0.24917100  0.99350800  1
  N  N43  1  0.65440400  0.74940300  0.02324300  1
  N  N44  1  0.14213300  0.75016600  0.67380200  1
  N  N45  1  0.65465300  0.74954000  0.66192900  1
  O  O46  1  0.13984700  0.37728200  0.60979600  1
  O  O47  1  0.01017000  0.11782000  0.52273600  1
  O  O48  1  0.40939200  0.43817800  0.54457900  1
  O  O49  1  0.27998100  0.93562500  0.58255200  1
  O  O50  1  0.22218400  0.06347200  0.41983200  1
  O  O51  1  0.64310900  0.37957800  0.60863200  1
  O  O52  1  0.09686700  0.56500700  0.45980200  1
  O  O53  1  0.51198500  0.11848500  0.52402700  1
  O  O54  1  0.48801500  0.88151500  0.47597300  1
  O  O55  1  0.90313300  0.43499300  0.54019800  1
  O  O56  1  0.01242900  0.11983700  0.19282400  1
  O  O57  1  0.35689100  0.62042200  0.39136800  1
  O  O58  1  0.77781600  0.93652800  0.58016800  1
  O  O59  1  0.59060800  0.56182200  0.45542100  1
  O  O60  1  0.72001900  0.06437500  0.41744800  1
  O  O61  1  0.14289500  0.38182700  0.27678300  1
  O  O62  1  0.40040600  0.44869000  0.20831300  1
  O  O63  1  0.28044700  0.93827800  0.24943000  1
  O  O64  1  0.20182700  0.05230900  0.07612400  1
  O  O65  1  0.09527600  0.56421600  0.12520900  1
  O  O66  1  0.65134100  0.38924000  0.28185300  1
  O  O67  1  0.98983000  0.88218000  0.47726400  1
  O  O68  1  0.51156700  0.10915000  0.18847300  1
  O  O69  1  0.86015300  0.62271800  0.39020400  1
  O  O70  1  0.14183700  0.38095700  0.94539100  1
  O  O71  1  0.48756300  0.87709500  0.14219600  1
  O  O72  1  0.59090700  0.56167000  0.12567200  1
  O  O73  1  0.01134000  0.11922800  0.85496000  1
  O  O74  1  0.35633800  0.61890400  0.05263600  1
  O  O75  1  0.90717500  0.43659800  0.20779900  1
  O  O76  1  0.77982600  0.93391200  0.25099100  1
  O  O77  1  0.72065400  0.06142800  0.08319800  1
  O  O78  1  0.85816300  0.61904300  0.05460900  1
  O  O79  1  0.09282500  0.56340200  0.79220100  1
  O  O80  1  0.98866000  0.88077200  0.14504000  1
  O  O81  1  0.27934600  0.93857200  0.91680200  1
  O  O82  1  0.51243700  0.12290500  0.85780400  1
  O  O83  1  0.40909300  0.43833000  0.87432800  1
  O  O84  1  0.22017400  0.06608800  0.74900900  1
  O  O85  1  0.64366200  0.38109600  0.94736400  1
  O  O86  1  0.34865900  0.61076000  0.71814700  1
  O  O87  1  0.71955300  0.06172200  0.75057000  1
  O  O88  1  0.48843300  0.89085000  0.81152700  1
  O  O89  1  0.79817300  0.94769100  0.92387600  1
  O  O90  1  0.59959400  0.55131000  0.79168700  1
  O  O91  1  0.90472400  0.43578400  0.87479100  1
  O  O92  1  0.98757100  0.88016300  0.80717600  1
  O  O93  1  0.85710500  0.61817300  0.72321700  1
