# generated using pymatgen
data_Li3MnV(PO4)3
_symmetry_space_group_name_H-M   'P 1'
_cell_length_a   8.52430522
_cell_length_b   12.07452882
_cell_length_c   8.75103848
_cell_angle_alpha   90.07425674
_cell_angle_beta   89.86844673
_cell_angle_gamma   91.36596586
_symmetry_Int_Tables_number   1
_chemical_formula_structural   Li3MnV(PO4)3
_chemical_formula_sum   'Li12 Mn4 V4 P12 O48'
_cell_volume   900.45883863
_cell_formula_units_Z   4
loop_
 _symmetry_equiv_pos_site_id
 _symmetry_equiv_pos_as_xyz
  1  'x, y, z'
loop_
 _atom_site_type_symbol
 _atom_site_label
 _atom_site_symmetry_multiplicity
 _atom_site_fract_x
 _atom_site_fract_y
 _atom_site_fract_z
 _atom_site_occupancy
  Li  Li0  1  0.06379000  0.34535700  0.51710400  1
  Li  Li1  1  0.07926400  0.69080200  0.08516300  1
  Li  Li2  1  0.17871500  0.17781300  0.77999200  1
  Li  Li3  1  0.32202500  0.32261000  0.28154700  1
  Li  Li4  1  0.42146800  0.80867100  0.58294700  1
  Li  Li5  1  0.43578000  0.15500900  0.01275000  1
  Li  Li6  1  0.56454400  0.84745600  0.98352400  1
  Li  Li7  1  0.58152500  0.19104000  0.41446500  1
  Li  Li8  1  0.68273300  0.67710100  0.72075100  1
  Li  Li9  1  0.82035500  0.82348100  0.21923700  1
  Li  Li10  1  0.92045600  0.30812700  0.91513700  1
  Li  Li11  1  0.93636900  0.65338100  0.48869700  1
  Mn  Mn12  1  0.25497500  0.60557800  0.52879100  1
  Mn  Mn13  1  0.74646000  0.60900900  0.03826000  1
  Mn  Mn14  1  0.75286000  0.89087300  0.53600000  1
  Mn  Mn15  1  0.75474600  0.10506000  0.97194700  1
  V  V16  1  0.24374300  0.89449600  0.02275000  1
  V  V17  1  0.24508800  0.10750900  0.46238300  1
  V  V18  1  0.25559500  0.39259800  0.96670800  1
  V  V19  1  0.74439800  0.39530700  0.47503600  1
  P  P20  1  0.04445800  0.49001000  0.25180800  1
  P  P21  1  0.11527100  0.84946500  0.38077100  1
  P  P22  1  0.11542500  0.14530900  0.11156900  1
  P  P23  1  0.38415100  0.65339500  0.87921100  1
  P  P24  1  0.38450600  0.35128900  0.61025600  1
  P  P25  1  0.45455700  0.01140900  0.74549300  1
  P  P26  1  0.53981200  0.99078200  0.24776200  1
  P  P27  1  0.61511100  0.64710100  0.38852500  1
  P  P28  1  0.61517400  0.35319700  0.11773300  1
  P  P29  1  0.88469000  0.84885300  0.89118900  1
  P  P30  1  0.88536900  0.14942000  0.61796500  1
  P  P31  1  0.95715000  0.50947800  0.75426900  1
  O  O32  1  0.05504800  0.89652300  0.89797000  1
  O  O33  1  0.05121700  0.44396800  0.87266500  1
  O  O34  1  0.05206500  0.60065000  0.66980800  1
  O  O35  1  0.06071600  0.18517400  0.57601400  1
  O  O36  1  0.10621700  0.58100300  0.36436200  1
  O  O37  1  0.12943900  0.83581900  0.20269400  1
  O  O38  1  0.13779500  0.97386600  0.41881000  1
  O  O39  1  0.13145600  0.24566400  0.99585100  1
  O  O40  1  0.17757900  0.18517900  0.27090500  1
  O  O41  1  0.18813400  0.43171700  0.17736200  1
  O  O42  1  0.23245300  0.78195300  0.47136100  1
  O  O43  1  0.23558700  0.06000100  0.04894000  1
  O  O44  1  0.26375900  0.43294600  0.54760700  1
  O  O45  1  0.26718100  0.72489900  0.96939300  1
  O  O46  1  0.30721300  0.06508200  0.67171700  1
  O  O47  1  0.32995500  0.31356600  0.77204000  1
  O  O48  1  0.35671700  0.53019800  0.92044400  1
  O  O49  1  0.37514100  0.25012800  0.49591600  1
  O  O50  1  0.37368900  0.66728500  0.70206300  1
  O  O51  1  0.39304700  0.91916300  0.85877800  1
  O  O52  1  0.43899500  0.90134200  0.16191900  1
  O  O53  1  0.44105000  0.31489600  0.08005600  1
  O  O54  1  0.44722000  0.60189700  0.38681700  1
  O  O55  1  0.44470800  0.05518400  0.36949800  1
  O  O56  1  0.54385500  0.94546600  0.62589100  1
  O  O57  1  0.55414700  0.39715900  0.60596000  1
  O  O58  1  0.55541100  0.69231300  0.91506100  1
  O  O59  1  0.54815000  0.10223300  0.82984000  1
  O  O60  1  0.59691400  0.08465500  0.13779800  1
  O  O61  1  0.62825500  0.33355600  0.29624600  1
  O  O62  1  0.62943000  0.74505600  0.50803200  1
  O  O63  1  0.63331500  0.47694400  0.08699800  1
  O  O64  1  0.67569300  0.68937700  0.23141000  1
  O  O65  1  0.68354700  0.93571400  0.31820200  1
  O  O66  1  0.73009900  0.28303200  0.02785900  1
  O  O67  1  0.73565700  0.56052600  0.44962800  1
  O  O68  1  0.76450600  0.93229200  0.95222800  1
  O  O69  1  0.77128300  0.22405800  0.52968800  1
  O  O70  1  0.80975700  0.56142600  0.82645000  1
  O  O71  1  0.83491900  0.80911200  0.73092800  1
  O  O72  1  0.87747000  0.74952600  0.00785500  1
  O  O73  1  0.86075200  0.02721300  0.58048300  1
  O  O74  1  0.87906800  0.16803400  0.79458200  1
  O  O75  1  0.89685800  0.41675000  0.64077800  1
  O  O76  1  0.94422300  0.80952600  0.41564500  1
  O  O77  1  0.94615800  0.39999500  0.33802800  1
  O  O78  1  0.95584900  0.55532300  0.13232200  1
  O  O79  1  0.94773900  0.10162000  0.11535400  1
