# generated using pymatgen
data_LiV2P4(HO8)2
_symmetry_space_group_name_H-M   'P 1'
_cell_length_a   9.28830774
_cell_length_b   9.28229812
_cell_length_c   7.77858679
_cell_angle_alpha   78.06653096
_cell_angle_beta   77.89508020
_cell_angle_gamma   116.36518989
_symmetry_Int_Tables_number   1
_chemical_formula_structural   LiV2P4(HO8)2
_chemical_formula_sum   'Li2 V4 P8 H4 O32'
_cell_volume   552.02658683
_cell_formula_units_Z   2
loop_
 _symmetry_equiv_pos_site_id
 _symmetry_equiv_pos_as_xyz
  1  'x, y, z'
loop_
 _atom_site_type_symbol
 _atom_site_label
 _atom_site_symmetry_multiplicity
 _atom_site_fract_x
 _atom_site_fract_y
 _atom_site_fract_z
 _atom_site_occupancy
  Li  Li0  1  0.45924600  0.08952100  0.35615000  1
  Li  Li1  1  0.65832200  0.78639900  0.14393300  1
  V  V2  1  0.24026300  0.25114700  0.50422600  1
  V  V3  1  0.49998500  0.00668100  0.98748500  1
  V  V4  1  0.99765300  0.49502700  0.00193500  1
  V  V5  1  0.75351600  0.74980000  0.50448400  1
  P  P6  1  0.25309800  0.60639700  0.26799600  1
  P  P7  1  0.75201700  0.10214200  0.26496100  1
  P  P8  1  0.64426100  0.49295700  0.23255600  1
  P  P9  1  0.14640900  0.99948300  0.23459300  1
  P  P10  1  0.35449000  0.50383000  0.76806600  1
  P  P11  1  0.85077500  0.00402200  0.76605800  1
  P  P12  1  0.75008000  0.39880500  0.73158800  1
  P  P13  1  0.23833600  0.89393200  0.73589600  1
  H  H14  1  0.75939700  0.26773900  0.51279500  1
  H  H15  1  0.24230900  0.73677000  0.49226900  1
  H  H16  1  0.48424800  0.49145800  0.98736300  1
  H  H17  1  0.01727400  0.00966300  0.01599000  1
  O  O18  1  0.12393200  0.07244200  0.05205700  1
  O  O19  1  0.17660300  0.12883600  0.34456000  1
  O  O20  1  0.01403900  0.18055900  0.63324300  1
  O  O21  1  0.21968000  0.05458900  0.67659500  1
  O  O22  1  0.62594400  0.07126900  0.15188000  1
  O  O23  1  0.12600600  0.56782100  0.16018000  1
  O  O24  1  0.27182800  0.44532100  0.32996400  1
  O  O25  1  0.48598600  0.31522600  0.36471200  1
  O  O26  1  0.67704700  0.13565800  0.43415800  1
  O  O27  1  0.17959700  0.63220900  0.44684700  1
  O  O28  1  0.31490700  0.37455800  0.65914800  1
  O  O29  1  0.19429400  0.52239000  0.82832800  1
  O  O30  1  0.69729900  0.02994700  0.81000800  1
  O  O31  1  0.61349100  0.57173900  0.06372900  1
  O  O32  1  0.92800700  0.26502000  0.13030800  1
  O  O33  1  0.43057400  0.75972800  0.13772100  1
  O  O34  1  0.57517000  0.24324900  0.86307700  1
  O  O35  1  0.06790400  0.73395800  0.87232100  1
  O  O36  1  0.37854700  0.42623700  0.94647700  1
  O  O37  1  0.80314700  0.47131800  0.17313800  1
  O  O38  1  0.31076900  0.99036400  0.18781900  1
  O  O39  1  0.68092300  0.61992300  0.34323100  1
  O  O40  1  0.82541900  0.37217900  0.55279800  1
  O  O41  1  0.31438500  0.87033700  0.55900800  1
  O  O42  1  0.50976400  0.67544200  0.63497300  1
  O  O43  1  0.72825700  0.55373800  0.68121300  1
  O  O44  1  0.87782600  0.43197100  0.84201900  1
  O  O45  1  0.36375400  0.93209000  0.84884000  1
  O  O46  1  0.77085200  0.94391300  0.30863600  1
  O  O47  1  0.99154700  0.82534400  0.36414300  1
  O  O48  1  0.82312900  0.88424100  0.64797600  1
  O  O49  1  0.87667600  0.93361900  0.94254800  1
