# generated using pymatgen
data_Na6Sn2O7
_symmetry_space_group_name_H-M   'P 1'
_cell_length_a   6.26980091
_cell_length_b   6.26980091
_cell_length_c   12.33010895
_cell_angle_alpha   77.95345924
_cell_angle_beta   77.95345924
_cell_angle_gamma   90.50020996
_symmetry_Int_Tables_number   1
_chemical_formula_structural   Na6Sn2O7
_chemical_formula_sum   'Na12 Sn4 O14'
_cell_volume   462.89549782
_cell_formula_units_Z   2
loop_
 _symmetry_equiv_pos_site_id
 _symmetry_equiv_pos_as_xyz
  1  'x, y, z'
loop_
 _atom_site_type_symbol
 _atom_site_label
 _atom_site_symmetry_multiplicity
 _atom_site_fract_x
 _atom_site_fract_y
 _atom_site_fract_z
 _atom_site_occupancy
  Na  Na0  1  0.79418400  0.08038900  0.58838200  1
  Na  Na1  1  0.47415600  0.01430400  0.87091100  1
  Na  Na2  1  0.50000000  0.50000000  0.50000000  1
  Na  Na3  1  0.45508000  0.54492000  0.75000000  1
  Na  Na4  1  0.08038900  0.79418400  0.08838200  1
  Na  Na5  1  0.01430400  0.47415600  0.37091100  1
  Na  Na6  1  0.98569600  0.52584400  0.62908900  1
  Na  Na7  1  0.91961100  0.20581600  0.91161800  1
  Na  Na8  1  0.54492000  0.45508000  0.25000000  1
  Na  Na9  1  0.52584400  0.98569600  0.12908900  1
  Na  Na10  1  0.20581600  0.91961100  0.41161800  1
  Na  Na11  1  0.50000000  0.50000000  0.00000000  1
  Sn  Sn12  1  0.94049700  0.73909700  0.86788900  1
  Sn  Sn13  1  0.26090300  0.05950300  0.63211100  1
  Sn  Sn14  1  0.73909700  0.94049700  0.36788900  1
  Sn  Sn15  1  0.05950300  0.26090300  0.13211100  1
  O  O16  1  0.23469100  0.69432700  0.89978200  1
  O  O17  1  0.69432700  0.23469100  0.39978200  1
  O  O18  1  0.48291800  0.21311400  0.68423400  1
  O  O19  1  0.73770100  0.84404300  0.98901700  1
  O  O20  1  0.97311500  0.02688500  0.75000000  1
  O  O21  1  0.15595700  0.26229900  0.51098300  1
  O  O22  1  0.21311400  0.48291800  0.18423400  1
  O  O23  1  0.78688600  0.51708200  0.81576600  1
  O  O24  1  0.84404300  0.73770100  0.48901700  1
  O  O25  1  0.02688500  0.97311500  0.25000000  1
  O  O26  1  0.26229900  0.15595700  0.01098300  1
  O  O27  1  0.51708200  0.78688600  0.31576600  1
  O  O28  1  0.30567300  0.76530900  0.60021800  1
  O  O29  1  0.76530900  0.30567300  0.10021800  1
