# generated using pymatgen
data_CrO3
_symmetry_space_group_name_H-M   'P 1'
_cell_length_a   5.33827100
_cell_length_b   5.56087100
_cell_length_c   8.66651400
_cell_angle_alpha   90.00000000
_cell_angle_beta   90.00000000
_cell_angle_gamma   90.00000000
_symmetry_Int_Tables_number   1
_chemical_formula_structural   CrO3
_chemical_formula_sum   'Cr4 O12'
_cell_volume   257.26925011
_cell_formula_units_Z   4
loop_
 _symmetry_equiv_pos_site_id
 _symmetry_equiv_pos_as_xyz
  1  'x, y, z'
loop_
 _atom_site_type_symbol
 _atom_site_label
 _atom_site_symmetry_multiplicity
 _atom_site_fract_x
 _atom_site_fract_y
 _atom_site_fract_z
 _atom_site_occupancy
  Cr  Cr0  1  0.57150100  0.22620500  0.31035000  1
  Cr  Cr1  1  0.07150100  0.27379500  0.81035000  1
  Cr  Cr2  1  0.92849900  0.72620500  0.31035000  1
  Cr  Cr3  1  0.42849900  0.77379500  0.81035000  1
  O  O4  1  0.89394000  0.21984100  0.66685000  1
  O  O5  1  0.33112400  0.08110700  0.80475000  1
  O  O6  1  0.41328300  0.27315800  0.46319800  1
  O  O7  1  0.91328300  0.22684200  0.96319800  1
  O  O8  1  0.83112400  0.41889300  0.30475000  1
  O  O9  1  0.39394000  0.28015900  0.16685000  1
  O  O10  1  0.60606000  0.71984100  0.66685000  1
  O  O11  1  0.16887600  0.58110700  0.80475000  1
  O  O12  1  0.08671700  0.77315800  0.46319800  1
  O  O13  1  0.58671700  0.72684200  0.96319800  1
  O  O14  1  0.66887600  0.91889300  0.30475000  1
  O  O15  1  0.10606000  0.78015900  0.16685000  1
