# generated using pymatgen
data_Na6Ti2O7
_symmetry_space_group_name_H-M   'P 1'
_cell_length_a   8.47832027
_cell_length_b   8.47832027
_cell_length_c   11.17925652
_cell_angle_alpha   76.90981353
_cell_angle_beta   76.90981353
_cell_angle_gamma   72.32009374
_symmetry_Int_Tables_number   1
_chemical_formula_structural   Na6Ti2O7
_chemical_formula_sum   'Na18 Ti6 O21'
_cell_volume   734.88977711
_cell_formula_units_Z   3
loop_
 _symmetry_equiv_pos_site_id
 _symmetry_equiv_pos_as_xyz
  1  'x, y, z'
loop_
 _atom_site_type_symbol
 _atom_site_label
 _atom_site_symmetry_multiplicity
 _atom_site_fract_x
 _atom_site_fract_y
 _atom_site_fract_z
 _atom_site_occupancy
  Na  Na0  1  0.97530100  0.66349500  0.88404700  1
  Na  Na1  1  0.66349500  0.97530100  0.88404700  1
  Na  Na2  1  0.87144500  0.56410600  0.37969000  1
  Na  Na3  1  0.56410600  0.87144500  0.37969000  1
  Na  Na4  1  0.42140100  0.74873000  0.87950000  1
  Na  Na5  1  0.74873000  0.42140100  0.87950000  1
  Na  Na6  1  0.54041800  0.54041800  0.62177100  1
  Na  Na7  1  0.87046400  0.19359900  0.61816000  1
  Na  Na8  1  0.19359900  0.87046400  0.61816000  1
  Na  Na9  1  0.12953600  0.80640100  0.38184000  1
  Na  Na10  1  0.80640100  0.12953600  0.38184000  1
  Na  Na11  1  0.45958200  0.45958200  0.37822900  1
  Na  Na12  1  0.57859900  0.25127000  0.12050000  1
  Na  Na13  1  0.25127000  0.57859900  0.12050000  1
  Na  Na14  1  0.12855500  0.43589400  0.62031000  1
  Na  Na15  1  0.43589400  0.12855500  0.62031000  1
  Na  Na16  1  0.33650500  0.02469900  0.11595300  1
  Na  Na17  1  0.02469900  0.33650500  0.11595300  1
  Ti  Ti18  1  0.79363000  0.79363000  0.62819500  1
  Ti  Ti19  1  0.88823500  0.88823500  0.13981700  1
  Ti  Ti20  1  0.64489500  0.64489500  0.12906300  1
  Ti  Ti21  1  0.35510500  0.35510500  0.87093700  1
  Ti  Ti22  1  0.11176500  0.11176500  0.86018300  1
  Ti  Ti23  1  0.20637000  0.20637000  0.37180500  1
  O  O24  1  0.72638300  0.72638300  0.79686000  1
  O  O25  1  0.70057900  0.70057900  0.53869100  1
  O  O26  1  0.78791200  0.78791200  0.05372500  1
  O  O27  1  0.26436900  0.97282000  0.76337700  1
  O  O28  1  0.97282000  0.26436900  0.76337700  1
  O  O29  1  0.97426000  0.27590300  0.41150200  1
  O  O30  1  0.27590300  0.97426000  0.41150200  1
  O  O31  1  0.62278300  0.62278300  0.29717500  1
  O  O32  1  0.74646000  0.44055200  0.08262900  1
  O  O33  1  0.44055200  0.74646000  0.08262900  1
  O  O34  1  0.25354000  0.55944800  0.91737100  1
  O  O35  1  0.55944800  0.25354000  0.91737100  1
  O  O36  1  0.37721700  0.37721700  0.70282500  1
  O  O37  1  0.72409700  0.02574000  0.58849800  1
  O  O38  1  0.02574000  0.72409700  0.58849800  1
  O  O39  1  0.00000000  0.00000000  0.00000000  1
  O  O40  1  0.02718000  0.73563100  0.23662300  1
  O  O41  1  0.73563100  0.02718000  0.23662300  1
  O  O42  1  0.21208800  0.21208800  0.94627500  1
  O  O43  1  0.29942100  0.29942100  0.46130900  1
  O  O44  1  0.27361700  0.27361700  0.20314000  1
