# generated using pymatgen
data_Cs2HfO3
_symmetry_space_group_name_H-M   'P 1'
_cell_length_a   15.19509500
_cell_length_b   7.20583500
_cell_length_c   18.68186553
_cell_angle_alpha   73.46488366
_cell_angle_beta   90.00000000
_cell_angle_gamma   90.00000000
_symmetry_Int_Tables_number   1
_chemical_formula_structural   Cs2HfO3
_chemical_formula_sum   'Cs24 Hf12 O36'
_cell_volume   1960.94767331
_cell_formula_units_Z   12
loop_
 _symmetry_equiv_pos_site_id
 _symmetry_equiv_pos_as_xyz
  1  'x, y, z'
loop_
 _atom_site_type_symbol
 _atom_site_label
 _atom_site_symmetry_multiplicity
 _atom_site_fract_x
 _atom_site_fract_y
 _atom_site_fract_z
 _atom_site_occupancy
  Cs  Cs0  1  0.98972900  0.65382600  0.78323900  1
  Cs  Cs1  1  0.15024300  0.45353900  0.00670500  1
  Cs  Cs2  1  0.91306100  0.72918100  0.53011300  1
  Cs  Cs3  1  0.38986200  0.00380600  0.41613500  1
  Cs  Cs4  1  0.30923600  0.13395100  0.19238700  1
  Cs  Cs5  1  0.41306100  0.27081900  0.96988700  1
  Cs  Cs6  1  0.62392900  0.11654400  0.13307600  1
  Cs  Cs7  1  0.12392900  0.88345600  0.36692400  1
  Cs  Cs8  1  0.48972900  0.34617400  0.71676100  1
  Cs  Cs9  1  0.80923600  0.86604900  0.30761300  1
  Cs  Cs10  1  0.34975700  0.45353900  0.50670500  1
  Cs  Cs11  1  0.88986200  0.99619400  0.08386500  1
  Cs  Cs12  1  0.11013800  0.00380600  0.91613500  1
  Cs  Cs13  1  0.65024300  0.54646100  0.49329500  1
  Cs  Cs14  1  0.19076400  0.13395100  0.69238700  1
  Cs  Cs15  1  0.51027100  0.65382600  0.28323900  1
  Cs  Cs16  1  0.87607100  0.11654400  0.63307600  1
  Cs  Cs17  1  0.37607100  0.88345600  0.86692400  1
  Cs  Cs18  1  0.58693900  0.72918100  0.03011300  1
  Cs  Cs19  1  0.69076400  0.86604900  0.80761300  1
  Cs  Cs20  1  0.61013800  0.99619400  0.58386500  1
  Cs  Cs21  1  0.08693900  0.27081900  0.46988700  1
  Cs  Cs22  1  0.84975700  0.54646100  0.99329500  1
  Cs  Cs23  1  0.01027100  0.34617400  0.21676100  1
  Hf  Hf24  1  0.37416900  0.84112300  0.63328500  1
  Hf  Hf25  1  0.14778200  0.72381000  0.60246700  1
  Hf  Hf26  1  0.24616300  0.53276300  0.78679200  1
  Hf  Hf27  1  0.74616300  0.46723700  0.71320800  1
  Hf  Hf28  1  0.64778200  0.27619000  0.89753300  1
  Hf  Hf29  1  0.87416900  0.15887700  0.86671500  1
  Hf  Hf30  1  0.12583100  0.84112300  0.13328500  1
  Hf  Hf31  1  0.35221800  0.72381000  0.10246700  1
  Hf  Hf32  1  0.25383700  0.53276300  0.28679200  1
  Hf  Hf33  1  0.75383700  0.46723700  0.21320800  1
  Hf  Hf34  1  0.85221800  0.27619000  0.39753300  1
  Hf  Hf35  1  0.62583100  0.15887700  0.36671500  1
  O  O36  1  0.05484100  0.90180700  0.60709200  1
  O  O37  1  0.25961000  0.87689700  0.57742300  1
  O  O38  1  0.35576100  0.66712000  0.73789600  1
  O  O39  1  0.80315000  0.31469000  0.15292300  1
  O  O40  1  0.77115200  0.73250400  0.66026800  1
  O  O41  1  0.45678600  0.72304100  0.58142600  1
  O  O42  1  0.62632800  0.41481900  0.96965600  1
  O  O43  1  0.16153700  0.53274200  0.70415100  1
  O  O44  1  0.66153700  0.46725800  0.79584900  1
  O  O45  1  0.12632800  0.58518100  0.53034400  1
  O  O46  1  0.58820000  0.90784800  0.36292600  1
  O  O47  1  0.95678600  0.27695900  0.91857400  1
  O  O48  1  0.27115200  0.26749600  0.83973200  1
  O  O49  1  0.08820000  0.09215200  0.13707400  1
  O  O50  1  0.85576100  0.33288000  0.76210400  1
  O  O51  1  0.75961000  0.12310300  0.92257700  1
  O  O52  1  0.69685000  0.31469000  0.65292300  1
  O  O53  1  0.55484100  0.09819300  0.89290800  1
  O  O54  1  0.44515900  0.90180700  0.10709200  1
  O  O55  1  0.30315000  0.68531000  0.34707700  1
  O  O56  1  0.24039000  0.87689700  0.07742300  1
  O  O57  1  0.14423900  0.66712000  0.23789600  1
  O  O58  1  0.91180000  0.90784800  0.86292600  1
  O  O59  1  0.72884800  0.73250400  0.16026800  1
  O  O60  1  0.04321400  0.72304100  0.08142600  1
  O  O61  1  0.41180000  0.09215200  0.63707400  1
  O  O62  1  0.87367200  0.41481900  0.46965600  1
  O  O63  1  0.33846300  0.53274200  0.20415100  1
  O  O64  1  0.83846300  0.46725800  0.29584900  1
  O  O65  1  0.37367200  0.58518100  0.03034400  1
  O  O66  1  0.54321400  0.27695900  0.41857400  1
  O  O67  1  0.22884800  0.26749600  0.33973200  1
  O  O68  1  0.19685000  0.68531000  0.84707700  1
  O  O69  1  0.64423900  0.33288000  0.26210400  1
  O  O70  1  0.74039000  0.12310300  0.42257700  1
  O  O71  1  0.94515900  0.09819300  0.39290800  1
