# generated using pymatgen
data_Gd3TaO7
_symmetry_space_group_name_H-M   'P 1'
_cell_length_a   6.54732029
_cell_length_b   6.54732029
_cell_length_c   7.59455200
_cell_angle_alpha   90.00000000
_cell_angle_beta   90.00000000
_cell_angle_gamma   110.73245340
_symmetry_Int_Tables_number   1
_chemical_formula_structural   Gd3TaO7
_chemical_formula_sum   'Gd6 Ta2 O14'
_cell_volume   304.47673159
_cell_formula_units_Z   2
loop_
 _symmetry_equiv_pos_site_id
 _symmetry_equiv_pos_as_xyz
  1  'x, y, z'
loop_
 _atom_site_type_symbol
 _atom_site_label
 _atom_site_symmetry_multiplicity
 _atom_site_fract_x
 _atom_site_fract_y
 _atom_site_fract_z
 _atom_site_occupancy
  Gd  Gd0  1  0.51884800  0.05990500  0.25000000  1
  Gd  Gd1  1  0.94009500  0.48115200  0.75000000  1
  Gd  Gd2  1  0.00000000  0.00000000  0.00000000  1
  Gd  Gd3  1  0.00000000  0.00000000  0.50000000  1
  Gd  Gd4  1  0.05990500  0.51884800  0.25000000  1
  Gd  Gd5  1  0.48115200  0.94009500  0.75000000  1
  Ta  Ta6  1  0.50000000  0.50000000  0.00000000  1
  Ta  Ta7  1  0.50000000  0.50000000  0.50000000  1
  O  O8  1  0.89053200  0.15400000  0.25000000  1
  O  O9  1  0.84600000  0.10946800  0.75000000  1
  O  O10  1  0.81873400  0.56201400  0.03606800  1
  O  O11  1  0.43798600  0.18126600  0.96393200  1
  O  O12  1  0.81873400  0.56201400  0.46393200  1
  O  O13  1  0.43798600  0.18126600  0.53606800  1
  O  O14  1  0.57627500  0.57627500  0.75000000  1
  O  O15  1  0.42372500  0.42372500  0.25000000  1
  O  O16  1  0.18126600  0.43798600  0.53606800  1
  O  O17  1  0.56201400  0.81873400  0.03606800  1
  O  O18  1  0.18126600  0.43798600  0.96393200  1
  O  O19  1  0.56201400  0.81873400  0.46393200  1
  O  O20  1  0.15400000  0.89053200  0.25000000  1
  O  O21  1  0.10946800  0.84600000  0.75000000  1
