# generated using pymatgen
data_Fe3(OF2)2
_symmetry_space_group_name_H-M   'P 1'
_cell_length_a   4.81172900
_cell_length_b   5.74945300
_cell_length_c   7.91761805
_cell_angle_alpha   86.55494639
_cell_angle_beta   90.00000000
_cell_angle_gamma   90.00000000
_symmetry_Int_Tables_number   1
_chemical_formula_structural   Fe3(OF2)2
_chemical_formula_sum   'Fe6 O4 F8'
_cell_volume   218.64356742
_cell_formula_units_Z   2
loop_
 _symmetry_equiv_pos_site_id
 _symmetry_equiv_pos_as_xyz
  1  'x, y, z'
loop_
 _atom_site_type_symbol
 _atom_site_label
 _atom_site_symmetry_multiplicity
 _atom_site_fract_x
 _atom_site_fract_y
 _atom_site_fract_z
 _atom_site_occupancy
  Fe  Fe0  1  0.48527600  0.21976500  0.00159500  1
  Fe  Fe1  1  0.49143400  0.56843900  0.64528400  1
  Fe  Fe2  1  0.52607900  0.90555700  0.32518800  1
  Fe  Fe3  1  0.98527600  0.78023500  0.99840500  1
  Fe  Fe4  1  0.99143400  0.43156100  0.35471600  1
  Fe  Fe5  1  0.02607900  0.09444300  0.67481200  1
  O  O6  1  0.20214800  0.03629200  0.90767800  1
  O  O7  1  0.19916800  0.38887100  0.56073100  1
  O  O8  1  0.70214800  0.96370800  0.09232200  1
  O  O9  1  0.69916800  0.61112900  0.43926900  1
  F  F10  1  0.18639900  0.71128300  0.22703500  1
  F  F11  1  0.30682300  0.87238000  0.56828700  1
  F  F12  1  0.30799300  0.54197200  0.90013700  1
  F  F13  1  0.29468100  0.23163900  0.22952900  1
  F  F14  1  0.68639900  0.28871700  0.77296500  1
  F  F15  1  0.80682300  0.12762000  0.43171300  1
  F  F16  1  0.80799300  0.45802800  0.09986300  1
  F  F17  1  0.79468100  0.76836100  0.77047100  1
