# generated using pymatgen
data_Lu3TaO7
_symmetry_space_group_name_H-M   'P 1'
_cell_length_a   7.34184500
_cell_length_b   7.41175000
_cell_length_c   10.39904400
_cell_angle_alpha   90.00000000
_cell_angle_beta   90.00000000
_cell_angle_gamma   90.00000000
_symmetry_Int_Tables_number   1
_chemical_formula_structural   Lu3TaO7
_chemical_formula_sum   'Lu12 Ta4 O28'
_cell_volume   565.87354304
_cell_formula_units_Z   4
loop_
 _symmetry_equiv_pos_site_id
 _symmetry_equiv_pos_as_xyz
  1  'x, y, z'
loop_
 _atom_site_type_symbol
 _atom_site_label
 _atom_site_symmetry_multiplicity
 _atom_site_fract_x
 _atom_site_fract_y
 _atom_site_fract_z
 _atom_site_occupancy
  Lu  Lu0  1  0.01236800  0.79531400  0.25000000  1
  Lu  Lu1  1  0.25150800  0.96927800  0.51882900  1
  Lu  Lu2  1  0.25150800  0.96927800  0.98117100  1
  Lu  Lu3  1  0.24849200  0.46927800  0.01882900  1
  Lu  Lu4  1  0.24849200  0.46927800  0.48117100  1
  Lu  Lu5  1  0.48763200  0.29531400  0.75000000  1
  Lu  Lu6  1  0.51236800  0.70468600  0.25000000  1
  Lu  Lu7  1  0.75150800  0.53072200  0.51882900  1
  Lu  Lu8  1  0.75150800  0.53072200  0.98117100  1
  Lu  Lu9  1  0.74849200  0.03072200  0.01882900  1
  Lu  Lu10  1  0.74849200  0.03072200  0.48117100  1
  Lu  Lu11  1  0.98763200  0.20468600  0.75000000  1
  Ta  Ta12  1  0.99931200  0.74717500  0.75000000  1
  Ta  Ta13  1  0.50068800  0.24717500  0.25000000  1
  Ta  Ta14  1  0.49931200  0.75282500  0.75000000  1
  Ta  Ta15  1  0.00068800  0.25282500  0.25000000  1
  O  O16  1  0.03706800  0.04400800  0.12314600  1
  O  O17  1  0.03706800  0.04400800  0.37685400  1
  O  O18  1  0.04101800  0.57855200  0.61102800  1
  O  O19  1  0.04101800  0.57855200  0.88897200  1
  O  O20  1  0.24898400  0.34049000  0.25000000  1
  O  O21  1  0.25438600  0.73081900  0.11562900  1
  O  O22  1  0.25438600  0.73081900  0.38437100  1
  O  O23  1  0.24561400  0.23081900  0.61562900  1
  O  O24  1  0.24561400  0.23081900  0.88437100  1
  O  O25  1  0.25101600  0.84049000  0.75000000  1
  O  O26  1  0.45898200  0.07855200  0.11102800  1
  O  O27  1  0.45898200  0.07855200  0.38897200  1
  O  O28  1  0.46293200  0.54400800  0.62314600  1
  O  O29  1  0.46293200  0.54400800  0.87685400  1
  O  O30  1  0.53706800  0.45599200  0.12314600  1
  O  O31  1  0.53706800  0.45599200  0.37685400  1
  O  O32  1  0.54101800  0.92144800  0.61102800  1
  O  O33  1  0.54101800  0.92144800  0.88897200  1
  O  O34  1  0.74898400  0.15951000  0.25000000  1
  O  O35  1  0.75438600  0.76918100  0.11562900  1
  O  O36  1  0.75438600  0.76918100  0.38437100  1
  O  O37  1  0.74561400  0.26918100  0.61562900  1
  O  O38  1  0.74561400  0.26918100  0.88437100  1
  O  O39  1  0.75101600  0.65951000  0.75000000  1
  O  O40  1  0.95898200  0.42144800  0.11102800  1
  O  O41  1  0.95898200  0.42144800  0.38897200  1
  O  O42  1  0.96293200  0.95599200  0.62314600  1
  O  O43  1  0.96293200  0.95599200  0.87685400  1
