# generated using pymatgen
data_Fe3OF5
_symmetry_space_group_name_H-M   'P 1'
_cell_length_a   5.76696258
_cell_length_b   5.76696258
_cell_length_c   7.46106694
_cell_angle_alpha   72.92382646
_cell_angle_beta   72.92382646
_cell_angle_gamma   74.34783480
_symmetry_Int_Tables_number   1
_chemical_formula_structural   Fe3OF5
_chemical_formula_sum   'Fe6 O2 F10'
_cell_volume   222.12047695
_cell_formula_units_Z   2
loop_
 _symmetry_equiv_pos_site_id
 _symmetry_equiv_pos_as_xyz
  1  'x, y, z'
loop_
 _atom_site_type_symbol
 _atom_site_label
 _atom_site_symmetry_multiplicity
 _atom_site_fract_x
 _atom_site_fract_y
 _atom_site_fract_z
 _atom_site_occupancy
  Fe  Fe0  1  0.67840300  0.67840300  0.84364600  1
  Fe  Fe1  1  0.33380700  0.33380700  0.68554200  1
  Fe  Fe2  1  0.66619300  0.66619300  0.31445800  1
  Fe  Fe3  1  0.32159700  0.32159700  0.15635400  1
  Fe  Fe4  1  0.00000000  0.00000000  0.50000000  1
  Fe  Fe5  1  0.00000000  0.00000000  0.00000000  1
  O  O6  1  0.22339100  0.22339100  0.96920100  1
  O  O7  1  0.77660900  0.77660900  0.03079900  1
  F  F8  1  0.63302000  0.03056900  0.66155700  1
  F  F9  1  0.96943100  0.36698000  0.33844300  1
  F  F10  1  0.89445800  0.89445800  0.30486400  1
  F  F11  1  0.56873200  0.56873200  0.63026600  1
  F  F12  1  0.43126800  0.43126800  0.36973400  1
  F  F13  1  0.10554200  0.10554200  0.69513600  1
  F  F14  1  0.36698000  0.96943100  0.33844300  1
  F  F15  1  0.03056900  0.63302000  0.66155700  1
  F  F16  1  0.69190800  0.30809200  0.00000000  1
  F  F17  1  0.30809200  0.69190800  0.00000000  1
