# generated using pymatgen
data_Ce3Hf
_symmetry_space_group_name_H-M   'P 1'
_cell_length_a   5.75111781
_cell_length_b   5.75111781
_cell_length_c   5.75111781
_cell_angle_alpha   131.87770766
_cell_angle_beta   131.87770766
_cell_angle_gamma   70.42224305
_symmetry_Int_Tables_number   1
_chemical_formula_structural   Ce3Hf
_chemical_formula_sum   'Ce3 Hf1'
_cell_volume   103.33845856
_cell_formula_units_Z   1
loop_
 _symmetry_equiv_pos_site_id
 _symmetry_equiv_pos_as_xyz
  1  'x, y, z'
loop_
 _atom_site_type_symbol
 _atom_site_label
 _atom_site_symmetry_multiplicity
 _atom_site_fract_x
 _atom_site_fract_y
 _atom_site_fract_z
 _atom_site_occupancy
  Ce  Ce0  1  0.75000000  0.25000000  0.50000000  1
  Ce  Ce1  1  0.25000000  0.75000000  0.50000000  1
  Ce  Ce2  1  0.50000000  0.50000000  0.00000000  1
  Hf  Hf3  1  0.00000000  0.00000000  0.00000000  1
