# generated using pymatgen
data_Ti17(NO4)6
_symmetry_space_group_name_H-M   'P 1'
_cell_length_a   9.66617600
_cell_length_b   11.29218595
_cell_length_c   11.47860777
_cell_angle_alpha   99.74220008
_cell_angle_beta   90.00622943
_cell_angle_gamma   115.27496377
_symmetry_Int_Tables_number   1
_chemical_formula_structural   Ti17(NO4)6
_chemical_formula_sum   'Ti34 N12 O48'
_cell_volume   1112.94855442
_cell_formula_units_Z   2
loop_
 _symmetry_equiv_pos_site_id
 _symmetry_equiv_pos_as_xyz
  1  'x, y, z'
loop_
 _atom_site_type_symbol
 _atom_site_label
 _atom_site_symmetry_multiplicity
 _atom_site_fract_x
 _atom_site_fract_y
 _atom_site_fract_z
 _atom_site_occupancy
  Ti  Ti0  1  0.93035500  0.57691600  0.92531600  1
  Ti  Ti1  1  0.82336100  0.25055500  0.87295000  1
  Ti  Ti2  1  0.57400500  0.42522100  0.90495200  1
  Ti  Ti3  1  0.39175000  0.05748600  0.84367700  1
  Ti  Ti4  1  0.10229700  0.92309800  0.98293300  1
  Ti  Ti5  1  0.67933700  0.75029200  0.95846000  1
  Ti  Ti6  1  0.89770300  0.07690200  0.01706700  1
  Ti  Ti7  1  0.32066300  0.24970800  0.04154000  1
  Ti  Ti8  1  0.42599500  0.57477900  0.09504800  1
  Ti  Ti9  1  0.06964500  0.42308400  0.07468400  1
  Ti  Ti10  1  0.60825000  0.94251400  0.15632300  1
  Ti  Ti11  1  0.17663900  0.74944500  0.12705000  1
  Ti  Ti12  1  0.67654200  0.74949400  0.28957400  1
  Ti  Ti13  1  0.57593500  0.42894300  0.23786900  1
  Ti  Ti14  1  0.10043400  0.92823100  0.32084400  1
  Ti  Ti15  1  0.39805700  0.07005700  0.17824600  1
  Ti  Ti16  1  0.91213700  0.55308100  0.25857000  1
  Ti  Ti17  1  0.42538200  0.57291200  0.42915800  1
  Ti  Ti18  1  0.06939800  0.42373300  0.39926100  1
  Ti  Ti19  1  0.32224800  0.25047100  0.37346800  1
  Ti  Ti20  1  0.60487900  0.92792500  0.48859200  1
  Ti  Ti21  1  0.17709700  0.74949300  0.45550600  1
  Ti  Ti22  1  0.89552400  0.07697500  0.34088500  1
  Ti  Ti23  1  0.82290300  0.25050700  0.54449400  1
  Ti  Ti24  1  0.93060200  0.57626700  0.60073900  1
  Ti  Ti25  1  0.57461800  0.42708800  0.57084200  1
  Ti  Ti26  1  0.67775200  0.74952900  0.62653200  1
  Ti  Ti27  1  0.39512100  0.07207500  0.51140800  1
  Ti  Ti28  1  0.10447600  0.92302500  0.65911500  1
  Ti  Ti29  1  0.89956600  0.07176900  0.67915600  1
  Ti  Ti30  1  0.42406500  0.57105700  0.76213100  1
  Ti  Ti31  1  0.08786300  0.44691900  0.74143000  1
  Ti  Ti32  1  0.32345800  0.25050600  0.71042600  1
  Ti  Ti33  1  0.60194300  0.92994300  0.82175400  1
  N  N34  1  0.39344400  0.24910600  0.87566000  1
  N  N35  1  0.09534400  0.74948700  0.97177600  1
  N  N36  1  0.60655600  0.75089400  0.12434000  1
  N  N37  1  0.90465600  0.25051300  0.02822400  1
  N  N38  1  0.39207000  0.25008000  0.20754700  1
  N  N39  1  0.10243100  0.75060000  0.29244400  1
  N  N40  1  0.90492000  0.25055400  0.38954000  1
  N  N41  1  0.60569900  0.75024400  0.45816200  1
  N  N42  1  0.39430100  0.24975600  0.54183800  1
  N  N43  1  0.09508000  0.74944600  0.61046000  1
  N  N44  1  0.60793000  0.74992000  0.79245300  1
  N  N45  1  0.89756900  0.24940000  0.70755600  1
  O  O46  1  0.89242400  0.88055100  0.97663700  1
  O  O47  1  0.02926800  0.43837900  0.90461600  1
  O  O48  1  0.47031000  0.56357500  0.92738900  1
  O  O49  1  0.73775400  0.38084900  0.89932600  1
  O  O50  1  0.76121200  0.61869400  0.93623500  1
  O  O51  1  0.65875000  0.93844300  0.99005200  1
  O  O52  1  0.61050500  0.12274800  0.85343600  1
  O  O53  1  0.84635100  0.06626100  0.84224600  1
  O  O54  1  0.52969000  0.43642500  0.07261100  1
  O  O55  1  0.10757600  0.11944900  0.02336300  1
  O  O56  1  0.38949500  0.87725200  0.14656400  1
  O  O57  1  0.34125000  0.06155700  0.00994800  1
  O  O58  1  0.97073200  0.56162100  0.09538400  1
  O  O59  1  0.23878800  0.38130600  0.06376500  1
  O  O60  1  0.15364900  0.93373900  0.15775400  1
  O  O61  1  0.26224600  0.61915100  0.10067400  1
  O  O62  1  0.46776100  0.56636200  0.26058200  1
  O  O63  1  0.65796800  0.93858100  0.32274400  1
  O  O64  1  0.04842000  0.44879800  0.24163100  1
  O  O65  1  0.73764300  0.38940000  0.23184900  1
  O  O66  1  0.89208000  0.88109700  0.31644400  1
  O  O67  1  0.84977900  0.05168700  0.17545000  1
  O  O68  1  0.59760900  0.10914200  0.18466200  1
  O  O69  1  0.76193600  0.62241100  0.26963900  1
  O  O70  1  0.23894300  0.38148600  0.39598900  1
  O  O71  1  0.26339900  0.62017200  0.43958500  1
  O  O72  1  0.10749300  0.11858700  0.35261200  1
  O  O73  1  0.53024700  0.43695700  0.40587100  1
  O  O74  1  0.97141300  0.56187200  0.42517000  1
  O  O75  1  0.39347400  0.88141800  0.47956600  1
  O  O76  1  0.15888000  0.93656300  0.48761300  1
  O  O77  1  0.34435600  0.06470900  0.34403700  1
  O  O78  1  0.65564400  0.93529100  0.65596300  1
  O  O79  1  0.60652600  0.11858200  0.52043400  1
  O  O80  1  0.84112000  0.06343700  0.51238700  1
  O  O81  1  0.73660100  0.37982800  0.56041500  1
  O  O82  1  0.76105700  0.61851400  0.60401100  1
  O  O83  1  0.02858700  0.43812800  0.57483000  1
  O  O84  1  0.89250700  0.88141300  0.64738800  1
  O  O85  1  0.46975300  0.56304300  0.59412900  1
  O  O86  1  0.10792000  0.11890300  0.68355600  1
  O  O87  1  0.15022100  0.94831300  0.82455000  1
  O  O88  1  0.53223900  0.43363800  0.73941800  1
  O  O89  1  0.34203200  0.06141900  0.67725600  1
  O  O90  1  0.23806400  0.37758900  0.73036100  1
  O  O91  1  0.26235700  0.61060000  0.76815100  1
  O  O92  1  0.40239100  0.89085800  0.81533800  1
  O  O93  1  0.95158000  0.55120200  0.75836900  1
