# generated using pymatgen
data_Ti17(NO4)6
_symmetry_space_group_name_H-M   'P 1'
_cell_length_a   10.02672100
_cell_length_b   10.39394000
_cell_length_c   11.48669833
_cell_angle_alpha   68.37148190
_cell_angle_beta   90.00000000
_cell_angle_gamma   90.00000000
_symmetry_Int_Tables_number   1
_chemical_formula_structural   Ti17(NO4)6
_chemical_formula_sum   'Ti34 N12 O48'
_cell_volume   1112.82599768
_cell_formula_units_Z   2
loop_
 _symmetry_equiv_pos_site_id
 _symmetry_equiv_pos_as_xyz
  1  'x, y, z'
loop_
 _atom_site_type_symbol
 _atom_site_label
 _atom_site_symmetry_multiplicity
 _atom_site_fract_x
 _atom_site_fract_y
 _atom_site_fract_z
 _atom_site_occupancy
  Ti  Ti0  1  0.25000000  0.44759100  0.09958600  1
  Ti  Ti1  1  0.57074200  0.38568800  0.12131200  1
  Ti  Ti2  1  0.92925800  0.38568800  0.12131200  1
  Ti  Ti3  1  0.07208900  0.61210600  0.21201600  1
  Ti  Ti4  1  0.75000000  0.55437500  0.23078100  1
  Ti  Ti5  1  0.42791100  0.61210600  0.21201600  1
  Ti  Ti6  1  0.92314400  0.89366200  0.12333700  1
  Ti  Ti7  1  0.57685600  0.89366200  0.12333700  1
  Ti  Ti8  1  0.25000000  0.94839000  0.10527800  1
  Ti  Ti9  1  0.57190400  0.38811800  0.45362900  1
  Ti  Ti10  1  0.05726600  0.11317200  0.21227500  1
  Ti  Ti11  1  0.44273400  0.11317200  0.21227500  1
  Ti  Ti12  1  0.92809600  0.38811800  0.45362900  1
  Ti  Ti13  1  0.25000000  0.44622800  0.43487300  1
  Ti  Ti14  1  0.42809600  0.61188200  0.54637100  1
  Ti  Ti15  1  0.07190400  0.61188200  0.54637100  1
  Ti  Ti16  1  0.92318500  0.89353500  0.44744200  1
  Ti  Ti17  1  0.75000000  0.55377200  0.56512700  1
  Ti  Ti18  1  0.57681500  0.89353500  0.44744200  1
  Ti  Ti19  1  0.25000000  0.94842800  0.42915800  1
  Ti  Ti20  1  0.57208900  0.38789400  0.78798400  1
  Ti  Ti21  1  0.25000000  0.44562500  0.76921900  1
  Ti  Ti22  1  0.07681500  0.10646500  0.55255800  1
  Ti  Ti23  1  0.75000000  0.05157200  0.57084200  1
  Ti  Ti24  1  0.92791100  0.38789400  0.78798400  1
  Ti  Ti25  1  0.42318500  0.10646500  0.55255800  1
  Ti  Ti26  1  0.94273400  0.88682800  0.78772500  1
  Ti  Ti27  1  0.55726600  0.88682800  0.78772500  1
  Ti  Ti28  1  0.75000000  0.55240900  0.90041400  1
  Ti  Ti29  1  0.42925800  0.61431200  0.87868800  1
  Ti  Ti30  1  0.07074200  0.61431200  0.87868800  1
  Ti  Ti31  1  0.75000000  0.05161000  0.89472200  1
  Ti  Ti32  1  0.07685600  0.10633800  0.87666300  1
  Ti  Ti33  1  0.42314400  0.10633800  0.87666300  1
  N  N34  1  0.75000000  0.48368200  0.08978900  1
  N  N35  1  0.75000000  0.97020500  0.07803900  1
  N  N36  1  0.25000000  0.51877200  0.24442700  1
  N  N37  1  0.75000000  0.48081800  0.42278700  1
  N  N38  1  0.25000000  0.02222400  0.24262200  1
  N  N39  1  0.75000000  0.97000600  0.44198800  1
  N  N40  1  0.25000000  0.51918200  0.57721300  1
  N  N41  1  0.75000000  0.48122800  0.75557300  1
  N  N42  1  0.25000000  0.02999400  0.55801200  1
  N  N43  1  0.25000000  0.51631800  0.91021100  1
  N  N44  1  0.75000000  0.97777600  0.75737800  1
  N  N45  1  0.25000000  0.02979500  0.92196100  1
  O  O46  1  0.12161900  0.29954400  0.15045500  1
  O  O47  1  0.06570200  0.56478700  0.06166100  1
  O  O48  1  0.37838100  0.29954400  0.15045500  1
  O  O49  1  0.43429800  0.56478700  0.06166100  1
  O  O50  1  0.61879300  0.70174200  0.18340200  1
  O  O51  1  0.11979300  0.79665400  0.14957300  1
  O  O52  1  0.06157700  0.05930800  0.06532400  1
  O  O53  1  0.56344800  0.43831800  0.27075900  1
  O  O54  1  0.38020700  0.79665400  0.14957300  1
  O  O55  1  0.93655200  0.43831800  0.27075900  1
  O  O56  1  0.88120700  0.70174200  0.18340200  1
  O  O57  1  0.43842300  0.05930800  0.06532400  1
  O  O58  1  0.06389700  0.56329300  0.39574600  1
  O  O59  1  0.38115300  0.29884600  0.48458600  1
  O  O60  1  0.11884700  0.29884600  0.48458600  1
  O  O61  1  0.43610300  0.56329300  0.39574600  1
  O  O62  1  0.88986500  0.20592700  0.18157100  1
  O  O63  1  0.61013500  0.20592700  0.18157100  1
  O  O64  1  0.94735900  0.92561800  0.27483200  1
  O  O65  1  0.55264100  0.92561800  0.27483200  1
  O  O66  1  0.11970200  0.79629700  0.48657100  1
  O  O67  1  0.88115300  0.70115400  0.51541400  1
  O  O68  1  0.06156800  0.05922900  0.39516800  1
  O  O69  1  0.93610300  0.43670700  0.60425400  1
  O  O70  1  0.56389700  0.43670700  0.60425400  1
  O  O71  1  0.61884700  0.70115400  0.51541400  1
  O  O72  1  0.38029800  0.79629700  0.48657100  1
  O  O73  1  0.43843200  0.05922900  0.39516800  1
  O  O74  1  0.11879300  0.29825800  0.81659800  1
  O  O75  1  0.06344800  0.56168200  0.72924100  1
  O  O76  1  0.93843200  0.94077100  0.60483200  1
  O  O77  1  0.61970200  0.20370300  0.51342900  1
  O  O78  1  0.56156800  0.94077100  0.60483200  1
  O  O79  1  0.88029800  0.20370300  0.51342900  1
  O  O80  1  0.38120700  0.29825800  0.81659800  1
  O  O81  1  0.43655200  0.56168200  0.72924100  1
  O  O82  1  0.87838100  0.70045600  0.84954500  1
  O  O83  1  0.56570200  0.43521300  0.93833900  1
  O  O84  1  0.62161900  0.70045600  0.84954500  1
  O  O85  1  0.11013500  0.79407300  0.81842900  1
  O  O86  1  0.93429800  0.43521300  0.93833900  1
  O  O87  1  0.38986500  0.79407300  0.81842900  1
  O  O88  1  0.44735900  0.07438200  0.72516800  1
  O  O89  1  0.05264100  0.07438200  0.72516800  1
  O  O90  1  0.56157700  0.94069200  0.93467600  1
  O  O91  1  0.88020700  0.20334600  0.85042700  1
  O  O92  1  0.61979300  0.20334600  0.85042700  1
  O  O93  1  0.93842300  0.94069200  0.93467600  1
