# generated using pymatgen
data_Fe3OF5
_symmetry_space_group_name_H-M   'P 1'
_cell_length_a   5.78408694
_cell_length_b   5.78408694
_cell_length_c   7.50100418
_cell_angle_alpha   72.93901148
_cell_angle_beta   72.93901148
_cell_angle_gamma   72.17315444
_symmetry_Int_Tables_number   1
_chemical_formula_structural   Fe3OF5
_chemical_formula_sum   'Fe6 O2 F10'
_cell_volume   222.60170611
_cell_formula_units_Z   2
loop_
 _symmetry_equiv_pos_site_id
 _symmetry_equiv_pos_as_xyz
  1  'x, y, z'
loop_
 _atom_site_type_symbol
 _atom_site_label
 _atom_site_symmetry_multiplicity
 _atom_site_fract_x
 _atom_site_fract_y
 _atom_site_fract_z
 _atom_site_occupancy
  Fe  Fe0  1  0.50000000  0.50000000  0.00000000  1
  Fe  Fe1  1  0.14571000  0.14571000  0.84911800  1
  Fe  Fe2  1  0.50000000  0.50000000  0.50000000  1
  Fe  Fe3  1  0.16375700  0.16375700  0.32747100  1
  Fe  Fe4  1  0.83624300  0.83624300  0.67252900  1
  Fe  Fe5  1  0.85429000  0.85429000  0.15088200  1
  O  O6  1  0.06640600  0.06640600  0.12397300  1
  O  O7  1  0.93359400  0.93359400  0.87602700  1
  F  F8  1  0.46441700  0.86337100  0.82377000  1
  F  F9  1  0.79848200  0.20151800  0.50000000  1
  F  F10  1  0.74282900  0.74282900  0.44644900  1
  F  F11  1  0.38338500  0.38338500  0.81068200  1
  F  F12  1  0.61661500  0.61661500  0.18931800  1
  F  F13  1  0.25717100  0.25717100  0.55355100  1
  F  F14  1  0.20151800  0.79848200  0.50000000  1
  F  F15  1  0.86337100  0.46441700  0.82377000  1
  F  F16  1  0.53558300  0.13662900  0.17623000  1
  F  F17  1  0.13662900  0.53558300  0.17623000  1
