# generated using pymatgen
data_Mn12O7F17
_symmetry_space_group_name_H-M   'P 1'
_cell_length_a   4.76180500
_cell_length_b   5.74739251
_cell_length_c   15.98747081
_cell_angle_alpha   90.06621677
_cell_angle_beta   90.25658607
_cell_angle_gamma   94.09828217
_symmetry_Int_Tables_number   1
_chemical_formula_structural   Mn12O7F17
_chemical_formula_sum   'Mn12 O7 F17'
_cell_volume   436.42081218
_cell_formula_units_Z   1
loop_
 _symmetry_equiv_pos_site_id
 _symmetry_equiv_pos_as_xyz
  1  'x, y, z'
loop_
 _atom_site_type_symbol
 _atom_site_label
 _atom_site_symmetry_multiplicity
 _atom_site_fract_x
 _atom_site_fract_y
 _atom_site_fract_z
 _atom_site_occupancy
  Mn  Mn0  1  0.01767900  0.84608900  0.59056300  1
  Mn  Mn1  1  0.02191500  0.14487500  0.75564300  1
  Mn  Mn2  1  0.00232800  0.84268100  0.91644000  1
  Mn  Mn3  1  0.00632200  0.84310200  0.25144700  1
  Mn  Mn4  1  0.02364600  0.16640800  0.42934500  1
  Mn  Mn5  1  0.02134800  0.16980800  0.09306200  1
  Mn  Mn6  1  0.52600800  0.66822400  0.40806600  1
  Mn  Mn7  1  0.51993600  0.66561800  0.07174700  1
  Mn  Mn8  1  0.49087100  0.68344000  0.73595600  1
  Mn  Mn9  1  0.51031100  0.34268100  0.91095300  1
  Mn  Mn10  1  0.50234800  0.34770600  0.58411400  1
  Mn  Mn11  1  0.50589400  0.34297400  0.24943800  1
  O  O12  1  0.20820500  0.89159200  0.69807200  1
  O  O13  1  0.22418700  0.10978400  0.86569200  1
  O  O14  1  0.24003500  0.10954500  0.53828500  1
  O  O15  1  0.23053100  0.11101800  0.20298900  1
  O  O16  1  0.73244100  0.61021200  0.96294200  1
  O  O17  1  0.71701500  0.61987900  0.63449600  1
  O  O18  1  0.73077000  0.61169600  0.29762200  1
  F  F19  1  0.21783500  0.88318100  0.36232000  1
  F  F20  1  0.21407600  0.88273700  0.02627000  1
  F  F21  1  0.26843100  0.60997500  0.85021400  1
  F  F22  1  0.25529500  0.38838000  0.68713000  1
  F  F23  1  0.26340500  0.60080800  0.51803100  1
  F  F24  1  0.27040300  0.38537900  0.35402300  1
  F  F25  1  0.25896000  0.60905600  0.18395100  1
  F  F26  1  0.27210900  0.38430300  0.01781900  1
  F  F27  1  0.72996300  0.37683000  0.80106300  1
  F  F28  1  0.71884600  0.38154400  0.47358000  1
  F  F29  1  0.71439400  0.38336700  0.13873600  1
  F  F30  1  0.75651100  0.88044500  0.81450600  1
  F  F31  1  0.78435800  0.87953400  0.48426800  1
  F  F32  1  0.75637100  0.12337600  0.64991800  1
  F  F33  1  0.75751100  0.11040200  0.98025600  1
  F  F34  1  0.76978000  0.88568100  0.14541200  1
  F  F35  1  0.75996500  0.10766900  0.31563000  1
