# generated using pymatgen
data_Sr5W3O14
_symmetry_space_group_name_H-M   'P 1'
_cell_length_a   7.68831975
_cell_length_b   7.68831975
_cell_length_c   11.07539256
_cell_angle_alpha   89.92166104
_cell_angle_beta   89.92166104
_cell_angle_gamma   89.58279570
_symmetry_Int_Tables_number   1
_chemical_formula_structural   Sr5W3O14
_chemical_formula_sum   'Sr10 W6 O28'
_cell_volume   654.65076925
_cell_formula_units_Z   2
loop_
 _symmetry_equiv_pos_site_id
 _symmetry_equiv_pos_as_xyz
  1  'x, y, z'
loop_
 _atom_site_type_symbol
 _atom_site_label
 _atom_site_symmetry_multiplicity
 _atom_site_fract_x
 _atom_site_fract_y
 _atom_site_fract_z
 _atom_site_occupancy
  Sr  Sr0  1  0.00725900  0.50065000  0.49452400  1
  Sr  Sr1  1  0.50065000  0.00725900  0.99452400  1
  Sr  Sr2  1  0.75245200  0.74875200  0.77398800  1
  Sr  Sr3  1  0.74875200  0.75245200  0.27398800  1
  Sr  Sr4  1  0.72769900  0.25381800  0.73885200  1
  Sr  Sr5  1  0.25381800  0.72769900  0.23885200  1
  Sr  Sr6  1  0.76249400  0.23657400  0.25009400  1
  Sr  Sr7  1  0.23657400  0.76249400  0.75009400  1
  Sr  Sr8  1  0.24735000  0.25410800  0.72381100  1
  Sr  Sr9  1  0.25410800  0.24735000  0.22381100  1
  W  W10  1  0.99702500  0.49625800  0.99874400  1
  W  W11  1  0.49625800  0.99702500  0.49874400  1
  W  W12  1  0.49742700  0.50066000  0.99858500  1
  W  W13  1  0.50066000  0.49742700  0.49858500  1
  W  W14  1  0.00272300  0.99655400  0.99741600  1
  W  W15  1  0.99655400  0.00272300  0.49741600  1
  O  O16  1  0.54974700  0.96044300  0.66624800  1
  O  O17  1  0.96044300  0.54974700  0.16624800  1
  O  O18  1  0.50299400  0.24924300  0.54296900  1
  O  O19  1  0.24924300  0.50299400  0.04296900  1
  O  O20  1  0.00516700  0.74884300  0.95607200  1
  O  O21  1  0.74884300  0.00516700  0.45607200  1
  O  O22  1  0.47085900  0.32960900  0.87169300  1
  O  O23  1  0.32960900  0.47085900  0.37169300  1
  O  O24  1  0.97054800  0.83418600  0.62533900  1
  O  O25  1  0.83418600  0.97054800  0.12533900  1
  O  O26  1  0.30324800  0.52978500  0.60685700  1
  O  O27  1  0.52978500  0.30324800  0.10685700  1
  O  O28  1  0.80801000  0.02945800  0.88812500  1
  O  O29  1  0.02945800  0.80801000  0.38812500  1
  O  O30  1  0.69708900  0.47501500  0.38887500  1
  O  O31  1  0.47501500  0.69708900  0.88887500  1
  O  O32  1  0.20117300  0.97483200  0.10653500  1
  O  O33  1  0.97483200  0.20117300  0.60653500  1
  O  O34  1  0.53207000  0.67036300  0.12446900  1
  O  O35  1  0.67036300  0.53207000  0.62446900  1
  O  O36  1  0.03166200  0.17600200  0.37248100  1
  O  O37  1  0.17600200  0.03166200  0.87248100  1
  O  O38  1  0.75327700  0.49584800  0.95588100  1
  O  O39  1  0.49584800  0.75327700  0.45588100  1
  O  O40  1  0.25241700  0.99751200  0.54158400  1
  O  O41  1  0.99751200  0.25241700  0.04158400  1
  O  O42  1  0.05141700  0.46380500  0.83174800  1
  O  O43  1  0.46380500  0.05141700  0.33174800  1
