# generated using pymatgen
data_Na4Bi2P(CO4)4
_symmetry_space_group_name_H-M   'P 1'
_cell_length_a   10.64945614
_cell_length_b   10.53700979
_cell_length_c   10.22585260
_cell_angle_alpha   61.69402151
_cell_angle_beta   60.59039995
_cell_angle_gamma   57.71557854
_symmetry_Int_Tables_number   1
_chemical_formula_structural   Na4Bi2P(CO4)4
_chemical_formula_sum   'Na8 Bi4 P2 C8 O32'
_cell_volume   809.33656598
_cell_formula_units_Z   2
loop_
 _symmetry_equiv_pos_site_id
 _symmetry_equiv_pos_as_xyz
  1  'x, y, z'
loop_
 _atom_site_type_symbol
 _atom_site_label
 _atom_site_symmetry_multiplicity
 _atom_site_fract_x
 _atom_site_fract_y
 _atom_site_fract_z
 _atom_site_occupancy
  Na  Na0  1  0.95160800  0.54839200  0.95160800  1
  Na  Na1  1  0.95271800  0.54728200  0.54728200  1
  Na  Na2  1  0.70271800  0.29728200  0.29728200  1
  Na  Na3  1  0.70160800  0.29839200  0.70160800  1
  Na  Na4  1  0.54839200  0.95160800  0.54839200  1
  Na  Na5  1  0.54728200  0.95271800  0.95271800  1
  Na  Na6  1  0.29728200  0.70271800  0.70271800  1
  Na  Na7  1  0.29839200  0.70160800  0.29839200  1
  Bi  Bi8  1  0.12500000  0.62500000  0.12500000  1
  Bi  Bi9  1  0.62500000  0.12500000  0.12500000  1
  Bi  Bi10  1  0.12500000  0.12500000  0.12500000  1
  Bi  Bi11  1  0.12500000  0.12500000  0.62500000  1
  P  P12  1  0.50000000  0.50000000  0.50000000  1
  P  P13  1  0.75000000  0.75000000  0.75000000  1
  C  C14  1  0.89286600  0.28661800  0.91328200  1
  C  C15  1  0.96338200  0.35713400  0.34276500  1
  C  C16  1  0.91328200  0.90723500  0.89286600  1
  C  C17  1  0.90723500  0.91328200  0.28661800  1
  C  C18  1  0.34276500  0.33671800  0.96338200  1
  C  C19  1  0.33671800  0.34276500  0.35713400  1
  C  C20  1  0.28661800  0.89286600  0.90723500  1
  C  C21  1  0.35713400  0.96338200  0.33671800  1
  O  O22  1  0.00551700  0.29455700  0.92305400  1
  O  O23  1  0.55458900  0.55678100  0.31823900  1
  O  O24  1  0.77273300  0.27405100  0.03547600  1
  O  O25  1  0.97594900  0.47726700  0.33226000  1
  O  O26  1  0.03547600  0.91774000  0.77273300  1
  O  O27  1  0.95808300  0.34807300  0.22226900  1
  O  O28  1  0.31823900  0.57039100  0.55458900  1
  O  O29  1  0.55678100  0.55458900  0.57039100  1
  O  O30  1  0.47157500  0.22226900  0.34807300  1
  O  O31  1  0.91774000  0.03547600  0.27405100  1
  O  O32  1  0.95544300  0.24448300  0.47312800  1
  O  O33  1  0.57039100  0.31823900  0.55678100  1
  O  O34  1  0.92305400  0.77687200  0.00551700  1
  O  O35  1  0.77687200  0.92305400  0.29455700  1
  O  O36  1  0.90192700  0.29191700  0.77842500  1
  O  O37  1  0.22226900  0.47157500  0.95808300  1
  O  O38  1  0.02773100  0.77842500  0.29191700  1
  O  O39  1  0.34807300  0.95808300  0.47157500  1
  O  O40  1  0.47312800  0.32694600  0.95544300  1
  O  O41  1  0.32694600  0.47312800  0.24448300  1
  O  O42  1  0.67960900  0.93176100  0.69321900  1
  O  O43  1  0.29455700  0.00551700  0.77687200  1
  O  O44  1  0.33226000  0.21452400  0.97594900  1
  O  O45  1  0.77842500  0.02773100  0.90192700  1
  O  O46  1  0.69321900  0.69541100  0.67960900  1
  O  O47  1  0.93176100  0.67960900  0.69541100  1
  O  O48  1  0.29191700  0.90192700  0.02773100  1
  O  O49  1  0.21452400  0.33226000  0.47726700  1
  O  O50  1  0.27405100  0.77273300  0.91774000  1
  O  O51  1  0.47726700  0.97594900  0.21452400  1
  O  O52  1  0.69541100  0.69321900  0.93176100  1
  O  O53  1  0.24448300  0.95544300  0.32694600  1
