# generated using pymatgen
data_MnH6(S2O9)2
_symmetry_space_group_name_H-M   'P 1'
_cell_length_a   7.40598300
_cell_length_b   10.22492600
_cell_length_c   20.77426700
_cell_angle_alpha   90.00000000
_cell_angle_beta   90.00000000
_cell_angle_gamma   90.00000000
_symmetry_Int_Tables_number   1
_chemical_formula_structural   MnH6(S2O9)2
_chemical_formula_sum   'Mn4 H24 S16 O72'
_cell_volume   1573.14441756
_cell_formula_units_Z   4
loop_
 _symmetry_equiv_pos_site_id
 _symmetry_equiv_pos_as_xyz
  1  'x, y, z'
loop_
 _atom_site_type_symbol
 _atom_site_label
 _atom_site_symmetry_multiplicity
 _atom_site_fract_x
 _atom_site_fract_y
 _atom_site_fract_z
 _atom_site_occupancy
  Mn  Mn0  1  0.25000000  0.15565300  0.25000000  1
  Mn  Mn1  1  0.25000000  0.65565300  0.25000000  1
  Mn  Mn2  1  0.75000000  0.34434700  0.75000000  1
  Mn  Mn3  1  0.75000000  0.84434700  0.75000000  1
  H  H4  1  0.04812100  0.43641200  0.77318600  1
  H  H5  1  0.04812100  0.93641200  0.72681400  1
  H  H6  1  0.06787900  0.34494900  0.71028900  1
  H  H7  1  0.06787900  0.84494900  0.78971100  1
  H  H8  1  0.09693300  0.06032500  0.56772300  1
  H  H9  1  0.09693300  0.56032500  0.93227700  1
  H  H10  1  0.40306700  0.56032500  0.56772300  1
  H  H11  1  0.40306700  0.06032500  0.93227700  1
  H  H12  1  0.43212100  0.84494900  0.71028900  1
  H  H13  1  0.43212100  0.34494900  0.78971100  1
  H  H14  1  0.45187900  0.43641200  0.72681400  1
  H  H15  1  0.45187900  0.93641200  0.77318600  1
  H  H16  1  0.54812100  0.06358800  0.22681400  1
  H  H17  1  0.54812100  0.56358800  0.27318600  1
  H  H18  1  0.56787900  0.65505100  0.21028900  1
  H  H19  1  0.56787900  0.15505100  0.28971100  1
  H  H20  1  0.59693300  0.93967500  0.06772300  1
  H  H21  1  0.59693300  0.43967500  0.43227700  1
  H  H22  1  0.90306700  0.43967500  0.06772300  1
  H  H23  1  0.90306700  0.93967500  0.43227700  1
  H  H24  1  0.93212100  0.65505100  0.28971100  1
  H  H25  1  0.93212100  0.15505100  0.21028900  1
  H  H26  1  0.95187900  0.56358800  0.22681400  1
  H  H27  1  0.95187900  0.06358800  0.27318600  1
  S  S28  1  0.13289200  0.40826500  0.16538700  1
  S  S29  1  0.13289200  0.90826500  0.33461300  1
  S  S30  1  0.23727600  0.38854000  0.57126500  1
  S  S31  1  0.23727600  0.88854000  0.92873500  1
  S  S32  1  0.26272400  0.38854000  0.92873500  1
  S  S33  1  0.26272400  0.88854000  0.57126500  1
  S  S34  1  0.36710800  0.90826500  0.16538700  1
  S  S35  1  0.36710800  0.40826500  0.33461300  1
  S  S36  1  0.63289200  0.59173500  0.66538700  1
  S  S37  1  0.63289200  0.09173500  0.83461300  1
  S  S38  1  0.73727600  0.61146000  0.07126500  1
  S  S39  1  0.73727600  0.11146000  0.42873500  1
  S  S40  1  0.76272400  0.11146000  0.07126500  1
  S  S41  1  0.76272400  0.61146000  0.42873500  1
  S  S42  1  0.86710800  0.09173500  0.66538700  1
  S  S43  1  0.86710800  0.59173500  0.83461300  1
  O  O44  1  0.03584900  0.08176700  0.70175800  1
  O  O45  1  0.03584900  0.58176700  0.79824200  1
  O  O46  1  0.01617800  0.34680800  0.75450000  1
  O  O47  1  0.01617800  0.84680800  0.74550000  1
  O  O48  1  0.09323000  0.81506600  0.57641200  1
  O  O49  1  0.09323000  0.31506600  0.92358800  1
  O  O50  1  0.11059100  0.40770100  0.09582200  1
  O  O51  1  0.11059100  0.90770100  0.40417800  1
  O  O52  1  0.11682100  0.33752200  0.52179600  1
  O  O53  1  0.11682100  0.83752200  0.97820400  1
  O  O54  1  0.14675500  0.38916800  0.63444800  1
  O  O55  1  0.14675500  0.88916800  0.86555200  1
  O  O56  1  0.22048700  0.03300100  0.55218500  1
  O  O57  1  0.22048700  0.53300100  0.94781500  1
  O  O58  1  0.23697600  0.78467900  0.31828900  1
  O  O59  1  0.23697600  0.28467900  0.18171100  1
  O  O60  1  0.25764700  0.02262200  0.31754400  1
  O  O61  1  0.25764700  0.52262200  0.18245600  1
  O  O62  1  0.24235300  0.02262200  0.18245600  1
  O  O63  1  0.24235300  0.52262200  0.31754400  1
  O  O64  1  0.26302400  0.78467900  0.18171100  1
  O  O65  1  0.26302400  0.28467900  0.31828900  1
  O  O66  1  0.27951300  0.53300100  0.55218500  1
  O  O67  1  0.27951300  0.03300100  0.94781500  1
  O  O68  1  0.35324500  0.38916800  0.86555200  1
  O  O69  1  0.35324500  0.88916800  0.63444800  1
  O  O70  1  0.38317900  0.83752200  0.52179600  1
  O  O71  1  0.38317900  0.33752200  0.97820400  1
  O  O72  1  0.38940900  0.90770100  0.09582200  1
  O  O73  1  0.38940900  0.40770100  0.40417800  1
  O  O74  1  0.40677000  0.31506600  0.57641200  1
  O  O75  1  0.40677000  0.81506600  0.92358800  1
  O  O76  1  0.48382200  0.34680800  0.74550000  1
  O  O77  1  0.48382200  0.84680800  0.75450000  1
  O  O78  1  0.46415100  0.08176700  0.79824200  1
  O  O79  1  0.46415100  0.58176700  0.70175800  1
  O  O80  1  0.53584900  0.91823300  0.20175800  1
  O  O81  1  0.53584900  0.41823300  0.29824200  1
  O  O82  1  0.51617800  0.65319200  0.25450000  1
  O  O83  1  0.51617800  0.15319200  0.24550000  1
  O  O84  1  0.59323000  0.18493400  0.07641200  1
  O  O85  1  0.59323000  0.68493400  0.42358800  1
  O  O86  1  0.61059100  0.59229900  0.59582200  1
  O  O87  1  0.61059100  0.09229900  0.90417800  1
  O  O88  1  0.61682100  0.66247800  0.02179600  1
  O  O89  1  0.61682100  0.16247800  0.47820400  1
  O  O90  1  0.64675500  0.61083200  0.13444800  1
  O  O91  1  0.64675500  0.11083200  0.36555200  1
  O  O92  1  0.72048700  0.96699900  0.05218500  1
  O  O93  1  0.72048700  0.46699900  0.44781500  1
  O  O94  1  0.73697600  0.21532100  0.81828900  1
  O  O95  1  0.73697600  0.71532100  0.68171100  1
  O  O96  1  0.75764700  0.47737800  0.68245600  1
  O  O97  1  0.75764700  0.97737800  0.81754400  1
  O  O98  1  0.74235300  0.47737800  0.81754400  1
  O  O99  1  0.74235300  0.97737800  0.68245600  1
  O  O100  1  0.76302400  0.21532100  0.68171100  1
  O  O101  1  0.76302400  0.71532100  0.81828900  1
  O  O102  1  0.77951300  0.46699900  0.05218500  1
  O  O103  1  0.77951300  0.96699900  0.44781500  1
  O  O104  1  0.85324500  0.11083200  0.13444800  1
  O  O105  1  0.85324500  0.61083200  0.36555200  1
  O  O106  1  0.88317900  0.66247800  0.47820400  1
  O  O107  1  0.88317900  0.16247800  0.02179600  1
  O  O108  1  0.88940900  0.09229900  0.59582200  1
  O  O109  1  0.88940900  0.59229900  0.90417800  1
  O  O110  1  0.90677000  0.68493400  0.07641200  1
  O  O111  1  0.90677000  0.18493400  0.42358800  1
  O  O112  1  0.98382200  0.65319200  0.24550000  1
  O  O113  1  0.98382200  0.15319200  0.25450000  1
  O  O114  1  0.96415100  0.41823300  0.20175800  1
  O  O115  1  0.96415100  0.91823300  0.29824200  1
