# generated using pymatgen
data_Mn6O5F7
_symmetry_space_group_name_H-M   'P 1'
_cell_length_a   5.15235000
_cell_length_b   5.76398281
_cell_length_c   14.60615934
_cell_angle_alpha   90.09155925
_cell_angle_beta   94.59800371
_cell_angle_gamma   90.09430377
_symmetry_Int_Tables_number   1
_chemical_formula_structural   Mn6O5F7
_chemical_formula_sum   'Mn12 O10 F14'
_cell_volume   432.37728429
_cell_formula_units_Z   2
loop_
 _symmetry_equiv_pos_site_id
 _symmetry_equiv_pos_as_xyz
  1  'x, y, z'
loop_
 _atom_site_type_symbol
 _atom_site_label
 _atom_site_symmetry_multiplicity
 _atom_site_fract_x
 _atom_site_fract_y
 _atom_site_fract_z
 _atom_site_occupancy
  Mn  Mn0  1  0.96409200  0.88256200  0.00590100  1
  Mn  Mn1  1  0.50199900  0.14143900  0.16462600  1
  Mn  Mn2  1  0.04827300  0.88526900  0.32645900  1
  Mn  Mn3  1  0.45279600  0.88796200  0.50482600  1
  Mn  Mn4  1  0.00960700  0.09920800  0.66628700  1
  Mn  Mn5  1  0.52585800  0.90543500  0.83617100  1
  Mn  Mn6  1  0.99851100  0.43805900  0.16431100  1
  Mn  Mn7  1  0.46414200  0.57580300  0.00580200  1
  Mn  Mn8  1  0.48241400  0.45261300  0.66403100  1
  Mn  Mn9  1  0.95980200  0.53283100  0.50219100  1
  Mn  Mn10  1  0.53597500  0.57947600  0.32085800  1
  Mn  Mn11  1  0.05506200  0.58808000  0.83862800  1
  O  O12  1  0.26960800  0.80843600  0.92142500  1
  O  O13  1  0.15427200  0.63891200  0.07479400  1
  O  O14  1  0.85085500  0.63619600  0.25792900  1
  O  O15  1  0.63245500  0.63327900  0.57022300  1
  O  O16  1  0.77162700  0.65394600  0.92782800  1
  O  O17  1  0.33844900  0.66676300  0.76240400  1
  O  O18  1  0.24751000  0.65549900  0.40287200  1
  O  O19  1  0.16883600  0.36236400  0.59694900  1
  O  O20  1  0.33213700  0.37879400  0.23132200  1
  O  O21  1  0.66460000  0.37910000  0.09518100  1
  F  F22  1  0.37756300  0.89513600  0.24743200  1
  F  F23  1  0.64049400  0.89169900  0.08796300  1
  F  F24  1  0.13179300  0.84641400  0.57687300  1
  F  F25  1  0.73915500  0.83049100  0.41251600  1
  F  F26  1  0.83709400  0.89192500  0.76017100  1
  F  F27  1  0.26365900  0.34381800  0.91673900  1
  F  F28  1  0.72560800  0.35928800  0.40795900  1
  F  F29  1  0.83472000  0.40378500  0.74325900  1
  F  F30  1  0.23732200  0.09934700  0.41821900  1
  F  F31  1  0.13476400  0.12785700  0.08475900  1
  F  F32  1  0.36856300  0.16748500  0.74579000  1
  F  F33  1  0.65524000  0.13106900  0.58649800  1
  F  F34  1  0.75457200  0.10024900  0.92392200  1
  F  F35  1  0.87057100  0.12941100  0.24688400  1
