# generated using pymatgen
data_V4OF11
_symmetry_space_group_name_H-M   'P 1'
_cell_length_a   5.24070200
_cell_length_b   5.46054489
_cell_length_c   17.49089868
_cell_angle_alpha   82.77940951
_cell_angle_beta   81.38802843
_cell_angle_gamma   61.39586946
_symmetry_Int_Tables_number   1
_chemical_formula_structural   V4OF11
_chemical_formula_sum   'V8 O2 F22'
_cell_volume   433.65084156
_cell_formula_units_Z   2
loop_
 _symmetry_equiv_pos_site_id
 _symmetry_equiv_pos_as_xyz
  1  'x, y, z'
loop_
 _atom_site_type_symbol
 _atom_site_label
 _atom_site_symmetry_multiplicity
 _atom_site_fract_x
 _atom_site_fract_y
 _atom_site_fract_z
 _atom_site_occupancy
  V  V0  1  0.64400600  0.61186500  0.13201600  1
  V  V1  1  0.13031100  0.13258600  0.62325300  1
  V  V2  1  0.23777500  0.25346500  0.24905400  1
  V  V3  1  0.75431900  0.75346000  0.74923500  1
  V  V4  1  0.86323100  0.87469600  0.37612800  1
  V  V5  1  0.38095700  0.37458500  0.87498600  1
  V  V6  1  0.00835200  0.99605000  0.00122100  1
  V  V7  1  0.48289900  0.48931800  0.50705900  1
  O  O8  1  0.34185500  0.33641000  0.57871000  1
  O  O9  1  0.86504700  0.46032800  0.20414300  1
  F  F10  1  0.83084800  0.84326000  0.08881100  1
  F  F11  1  0.91149800  0.32111700  0.05977900  1
  F  F12  1  0.42049600  0.80375700  0.56292400  1
  F  F13  1  0.33589200  0.92806700  0.18814600  1
  F  F14  1  0.62558100  0.03825700  0.28737500  1
  F  F15  1  0.14715900  0.53590600  0.78607100  1
  F  F16  1  0.39421400  0.78153900  0.04316900  1
  F  F17  1  0.41597300  0.40926000  0.16136100  1
  F  F18  1  0.91663800  0.91992500  0.66124100  1
  F  F19  1  0.11044000  0.72010400  0.46304100  1
  F  F20  1  0.15048500  0.56548600  0.31303000  1
  F  F21  1  0.83530300  0.44513600  0.68735700  1
  F  F22  1  0.07874500  0.08918900  0.33712400  1
  F  F23  1  0.88398000  0.28561600  0.53619100  1
  F  F24  1  0.59121500  0.59037000  0.83822100  1
  F  F25  1  0.61605000  0.20905800  0.96324700  1
  F  F26  1  0.65395600  0.65721100  0.41764500  1
  F  F27  1  0.36075600  0.97075400  0.71239700  1
  F  F28  1  0.67282200  0.06216700  0.81165000  1
  F  F29  1  0.09036700  0.68651500  0.93874700  1
  F  F30  1  0.57896700  0.19664700  0.43470000  1
  F  F31  1  0.16986100  0.15789600  0.91196800  1
