# generated using pymatgen
data_Hf2N2O
_symmetry_space_group_name_H-M   'P 1'
_cell_length_a   3.27643200
_cell_length_b   8.12129600
_cell_length_c   13.75681956
_cell_angle_alpha   80.49288505
_cell_angle_beta   90.00000000
_cell_angle_gamma   90.00000000
_symmetry_Int_Tables_number   1
_chemical_formula_structural   Hf2N2O
_chemical_formula_sum   'Hf12 N12 O6'
_cell_volume   361.02577119
_cell_formula_units_Z   6
loop_
 _symmetry_equiv_pos_site_id
 _symmetry_equiv_pos_as_xyz
  1  'x, y, z'
loop_
 _atom_site_type_symbol
 _atom_site_label
 _atom_site_symmetry_multiplicity
 _atom_site_fract_x
 _atom_site_fract_y
 _atom_site_fract_z
 _atom_site_occupancy
  Hf  Hf0  1  0.50000000  0.82248400  0.00772900  1
  Hf  Hf1  1  0.50000000  0.45296600  0.12008000  1
  Hf  Hf2  1  0.00000000  0.81044100  0.22321800  1
  Hf  Hf3  1  0.00000000  0.17001400  0.28339200  1
  Hf  Hf4  1  0.50000000  0.50076300  0.39066300  1
  Hf  Hf5  1  0.50000000  0.85493600  0.43790000  1
  Hf  Hf6  1  0.00000000  0.11996800  0.56970900  1
  Hf  Hf7  1  0.00000000  0.50481800  0.61601800  1
  Hf  Hf8  1  0.50000000  0.82677100  0.71916100  1
  Hf  Hf9  1  0.50000000  0.18478100  0.78239400  1
  Hf  Hf10  1  0.00000000  0.55533500  0.87944700  1
  Hf  Hf11  1  0.00000000  0.19468700  0.98285900  1
  N  N12  1  0.50000000  0.67565900  0.18057200  1
  N  N13  1  0.50000000  0.33675500  0.28462800  1
  N  N14  1  0.50000000  0.98228900  0.26622600  1
  N  N15  1  0.00000000  0.69111900  0.37135600  1
  N  N16  1  0.50000000  0.61773300  0.53505800  1
  N  N17  1  0.50000000  0.96644200  0.56811200  1
  N  N18  1  0.00000000  0.02504600  0.72740400  1
  N  N19  1  0.00000000  0.66373200  0.71634100  1
  N  N20  1  0.00000000  0.33423600  0.80986100  1
  N  N21  1  0.50000000  0.06504600  0.92872400  1
  N  N22  1  0.50000000  0.73007500  0.87402400  1
  N  N23  1  0.50000000  0.38691100  0.97355500  1
  O  O24  1  0.00000000  0.62238600  0.03360800  1
  O  O25  1  0.00000000  0.28064000  0.13038100  1
  O  O26  1  0.00000000  0.94004800  0.07091200  1
  O  O27  1  0.00000000  0.02592500  0.42371400  1
  O  O28  1  0.00000000  0.35928200  0.46561600  1
  O  O29  1  0.50000000  0.29871400  0.62733900  1
