# generated using pymatgen
data_Ba2P6O17
_symmetry_space_group_name_H-M   'P 1'
_cell_length_a   19.13228600
_cell_length_b   6.16920100
_cell_length_c   8.15450849
_cell_angle_alpha   69.54765642
_cell_angle_beta   90.00000000
_cell_angle_gamma   90.00000000
_symmetry_Int_Tables_number   1
_chemical_formula_structural   Ba2P6O17
_chemical_formula_sum   'Ba4 P12 O34'
_cell_volume   901.81215959
_cell_formula_units_Z   2
loop_
 _symmetry_equiv_pos_site_id
 _symmetry_equiv_pos_as_xyz
  1  'x, y, z'
loop_
 _atom_site_type_symbol
 _atom_site_label
 _atom_site_symmetry_multiplicity
 _atom_site_fract_x
 _atom_site_fract_y
 _atom_site_fract_z
 _atom_site_occupancy
  Ba  Ba0  1  0.07746000  0.09893000  0.15010400  1
  Ba  Ba1  1  0.57746000  0.90107000  0.34989600  1
  Ba  Ba2  1  0.42254000  0.09893000  0.65010400  1
  Ba  Ba3  1  0.92254000  0.90107000  0.84989600  1
  P  P4  1  0.32863600  0.72047100  0.08990400  1
  P  P5  1  0.81543400  0.29666100  0.03033600  1
  P  P6  1  0.46616300  0.49996500  0.17965300  1
  P  P7  1  0.96616300  0.50003500  0.32034700  1
  P  P8  1  0.82863600  0.27952900  0.41009600  1
  P  P9  1  0.68456600  0.29666100  0.53033600  1
  P  P10  1  0.31543400  0.70333900  0.46966400  1
  P  P11  1  0.17136400  0.72047100  0.58990400  1
  P  P12  1  0.03383700  0.49996500  0.67965300  1
  P  P13  1  0.53383700  0.50003500  0.82034700  1
  P  P14  1  0.18456600  0.70333900  0.96966400  1
  P  P15  1  0.67136400  0.27952900  0.91009600  1
  O  O16  1  0.17335500  0.92131900  0.00486300  1
  O  O17  1  0.50000000  0.50000000  0.00000000  1
  O  O18  1  0.26306300  0.60144400  0.03698500  1
  O  O19  1  0.13569600  0.50353200  0.03608300  1
  O  O20  1  0.98082700  0.73206900  0.18284600  1
  O  O21  1  0.48453700  0.72081900  0.20531800  1
  O  O22  1  0.38095900  0.50515500  0.14248600  1
  O  O23  1  0.64518800  0.06925200  0.04932900  1
  O  O24  1  0.88095900  0.49484500  0.35751400  1
  O  O25  1  0.80510300  0.22834200  0.24203600  1
  O  O26  1  0.98453700  0.27918100  0.29468200  1
  O  O27  1  0.48082700  0.26793100  0.31715400  1
  O  O28  1  0.63569600  0.49646800  0.46391700  1
  O  O29  1  0.30510300  0.77165800  0.25796400  1
  O  O30  1  0.76306300  0.39855600  0.46301500  1
  O  O31  1  0.14518800  0.93074800  0.45067100  1
  O  O32  1  0.67335500  0.07868100  0.49513700  1
  O  O33  1  0.32664500  0.92131900  0.50486300  1
  O  O34  1  0.85481200  0.06925200  0.54932900  1
  O  O35  1  0.00000000  0.50000000  0.50000000  1
  O  O36  1  0.23693700  0.60144400  0.53698500  1
  O  O37  1  0.69489700  0.22834200  0.74203600  1
  O  O38  1  0.36430400  0.50353200  0.53608300  1
  O  O39  1  0.51917300  0.73206900  0.68284600  1
  O  O40  1  0.01546300  0.72081900  0.70531800  1
  O  O41  1  0.19489700  0.77165800  0.75796400  1
  O  O42  1  0.11904100  0.50515500  0.64248600  1
  O  O43  1  0.35481200  0.93074800  0.95067100  1
  O  O44  1  0.61904100  0.49484500  0.85751400  1
  O  O45  1  0.51546300  0.27918100  0.79468200  1
  O  O46  1  0.01917300  0.26793100  0.81715400  1
  O  O47  1  0.86430400  0.49646800  0.96391700  1
  O  O48  1  0.73693700  0.39855600  0.96301500  1
  O  O49  1  0.82664500  0.07868100  0.99513700  1
