data_image0
_chemical_formula_structural       Ag2K4P2
_chemical_formula_sum              "Ag2 K4 P2"
_cell_length_a       6.00331
_cell_length_b       6.271
_cell_length_c       6.271
_cell_angle_alpha    76.1922
_cell_angle_beta     90
_cell_angle_gamma    90

_space_group_name_H-M_alt    "P 1"
_space_group_IT_number       1

loop_
  _space_group_symop_operation_xyz
  'x, y, z'

loop_
  _atom_site_type_symbol
  _atom_site_label
  _atom_site_symmetry_multiplicity
  _atom_site_fract_x
  _atom_site_fract_y
  _atom_site_fract_z
  _atom_site_occupancy
  Ag  Ag1       1.0  0.00000  0.50000  0.50000  1.0000
  Ag  Ag2       1.0  0.50000  0.50000  0.50000  1.0000
  K   K1        1.0  0.25000  0.31000  0.03180  1.0000
  K   K2        1.0  0.75000  0.03180  0.31000  1.0000
  K   K3        1.0  0.25000  0.96800  0.69000  1.0000
  K   K4        1.0  0.75000  0.69000  0.96800  1.0000
  P   P1        1.0  0.25000  0.75300  0.24700  1.0000
  P   P2        1.0  0.75000  0.24700  0.75300  1.0000
