# generated using pymatgen
data_Tm(HO)3
_symmetry_space_group_name_H-M   'P 1'
_cell_length_a   6.16216100
_cell_length_b   10.51870600
_cell_length_c   14.51474429
_cell_angle_alpha   46.71540767
_cell_angle_beta   90.00000000
_cell_angle_gamma   90.00000000
_symmetry_Int_Tables_number   1
_chemical_formula_structural   Tm(HO)3
_chemical_formula_sum   'Tm8 H24 O24'
_cell_volume   684.87382374
_cell_formula_units_Z   8
loop_
 _symmetry_equiv_pos_site_id
 _symmetry_equiv_pos_as_xyz
  1  'x, y, z'
loop_
 _atom_site_type_symbol
 _atom_site_label
 _atom_site_symmetry_multiplicity
 _atom_site_fract_x
 _atom_site_fract_y
 _atom_site_fract_z
 _atom_site_occupancy
  Tm  Tm0  1  0.46406500  0.16945000  0.83232700  1
  Tm  Tm1  1  0.47433700  0.66374100  0.83428800  1
  Tm  Tm2  1  0.97433700  0.33625900  0.66571200  1
  Tm  Tm3  1  0.96406500  0.83055000  0.66767300  1
  Tm  Tm4  1  0.03593500  0.16945000  0.33232700  1
  Tm  Tm5  1  0.02566300  0.66374100  0.33428800  1
  Tm  Tm6  1  0.52566300  0.33625900  0.16571200  1
  Tm  Tm7  1  0.53593500  0.83055000  0.16767300  1
  H  H8  1  0.62748400  0.70498800  0.99895400  1
  H  H9  1  0.79329200  0.92059400  0.96536700  1
  H  H10  1  0.85108200  0.23083800  0.90067600  1
  H  H11  1  0.07150600  0.70063300  0.90713900  1
  H  H12  1  0.77280600  0.49274600  0.79678400  1
  H  H13  1  0.15289200  0.98441200  0.81297800  1
  H  H14  1  0.27280600  0.50725400  0.70321600  1
  H  H15  1  0.65289200  0.01558800  0.68702200  1
  H  H16  1  0.35108200  0.76916200  0.59932400  1
  H  H17  1  0.57150600  0.29936700  0.59286100  1
  H  H18  1  0.87251600  0.70498800  0.49895400  1
  H  H19  1  0.29329200  0.07940600  0.53463300  1
  H  H20  1  0.70670800  0.92059400  0.46536700  1
  H  H21  1  0.12748400  0.29501200  0.50104600  1
  H  H22  1  0.42849400  0.70063300  0.40713900  1
  H  H23  1  0.64891800  0.23083800  0.40067600  1
  H  H24  1  0.34710800  0.98441200  0.31297800  1
  H  H25  1  0.72719400  0.49274600  0.29678400  1
  H  H26  1  0.84710800  0.01558800  0.18702200  1
  H  H27  1  0.22719400  0.50725400  0.20321600  1
  H  H28  1  0.92849400  0.29936700  0.09286100  1
  H  H29  1  0.14891800  0.76916200  0.09932400  1
  H  H30  1  0.20670800  0.07940600  0.03463300  1
  H  H31  1  0.37251600  0.29501200  0.00104600  1
  O  O32  1  0.38903500  0.38829000  0.00045900  1
  O  O33  1  0.63856400  0.90891500  0.98409900  1
  O  O34  1  0.77839900  0.29450600  0.81977300  1
  O  O35  1  0.14926500  0.77721400  0.82651700  1
  O  O36  1  0.76691000  0.59483000  0.78745500  1
  O  O37  1  0.15584000  0.07986000  0.81082400  1
  O  O38  1  0.26691000  0.40517000  0.71254500  1
  O  O39  1  0.27839900  0.70549400  0.68022700  1
  O  O40  1  0.65584000  0.92014000  0.68917600  1
  O  O41  1  0.64926500  0.22278600  0.67348300  1
  O  O42  1  0.88903500  0.61171000  0.49954100  1
  O  O43  1  0.13856400  0.09108500  0.51590100  1
  O  O44  1  0.86143600  0.90891500  0.48409900  1
  O  O45  1  0.11096500  0.38829000  0.50045900  1
  O  O46  1  0.35073500  0.77721400  0.32651700  1
  O  O47  1  0.34416000  0.07986000  0.31082400  1
  O  O48  1  0.72160100  0.29450600  0.31977300  1
  O  O49  1  0.73309000  0.59483000  0.28745500  1
  O  O50  1  0.84416000  0.92014000  0.18917600  1
  O  O51  1  0.23309000  0.40517000  0.21254500  1
  O  O52  1  0.85073500  0.22278600  0.17348300  1
  O  O53  1  0.22160100  0.70549400  0.18022700  1
  O  O54  1  0.36143600  0.09108500  0.01590100  1
  O  O55  1  0.61096500  0.61171000  0.99954100  1
