# generated using pymatgen
data_Ce(Mg4Al3)4
_symmetry_space_group_name_H-M   'P 1'
_cell_length_a   9.26692349
_cell_length_b   9.26692349
_cell_length_c   9.26692364
_cell_angle_alpha   110.32297161
_cell_angle_beta   110.32297161
_cell_angle_gamma   110.32296998
_symmetry_Int_Tables_number   1
_chemical_formula_structural   Ce(Mg4Al3)4
_chemical_formula_sum   'Ce1 Mg16 Al12'
_cell_volume   592.50601137
_cell_formula_units_Z   1
loop_
 _symmetry_equiv_pos_site_id
 _symmetry_equiv_pos_as_xyz
  1  'x, y, z'
loop_
 _atom_site_type_symbol
 _atom_site_label
 _atom_site_symmetry_multiplicity
 _atom_site_fract_x
 _atom_site_fract_y
 _atom_site_fract_z
 _atom_site_occupancy
  Ce  Ce0  1  0.37090100  0.37090100  0.37090100  1
  Mg  Mg1  1  0.99526100  0.99526100  0.99526100  1
  Mg  Mg2  1  0.31496000  0.31496000  0.71641000  1
  Mg  Mg3  1  0.61238700  0.61238700  0.28029200  1
  Mg  Mg4  1  0.99615500  0.99615500  0.65356100  1
  Mg  Mg5  1  0.68820500  0.39447400  0.00185300  1
  Mg  Mg6  1  0.00185300  0.68820500  0.39447400  1
  Mg  Mg7  1  0.61238700  0.28029200  0.61238700  1
  Mg  Mg8  1  0.99615500  0.65356100  0.99615500  1
  Mg  Mg9  1  0.39447400  0.00185300  0.68820500  1
  Mg  Mg10  1  0.71641000  0.31496000  0.31496000  1
  Mg  Mg11  1  0.31496000  0.71641000  0.31496000  1
  Mg  Mg12  1  0.00185300  0.39447400  0.68820500  1
  Mg  Mg13  1  0.65356100  0.99615500  0.99615500  1
  Mg  Mg14  1  0.28029200  0.61238700  0.61238700  1
  Mg  Mg15  1  0.68820500  0.00185300  0.39447400  1
  Mg  Mg16  1  0.39447400  0.68820500  0.00185300  1
  Al  Al17  1  0.63086900  0.63086900  0.81238500  1
  Al  Al18  1  0.81082200  0.81082200  0.17521700  1
  Al  Al19  1  0.36366500  0.18465800  0.99993200  1
  Al  Al20  1  0.81238500  0.63086900  0.63086900  1
  Al  Al21  1  0.18465800  0.99993200  0.36366500  1
  Al  Al22  1  0.17521700  0.81082200  0.81082200  1
  Al  Al23  1  0.36366500  0.99993200  0.18465800  1
  Al  Al24  1  0.99993200  0.36366500  0.18465800  1
  Al  Al25  1  0.81082200  0.17521700  0.81082200  1
  Al  Al26  1  0.99993200  0.18465800  0.36366500  1
  Al  Al27  1  0.63086900  0.81238500  0.63086900  1
  Al  Al28  1  0.18465800  0.36366500  0.99993200  1
