# generated using pymatgen
data_Hf2N2O
_symmetry_space_group_name_H-M   'P 1'
_cell_length_a   3.26584400
_cell_length_b   8.10978500
_cell_length_c   13.78789617
_cell_angle_alpha   81.39154725
_cell_angle_beta   90.00000000
_cell_angle_gamma   90.00000000
_symmetry_Int_Tables_number   1
_chemical_formula_structural   Hf2N2O
_chemical_formula_sum   'Hf12 N12 O6'
_cell_volume   361.06250054
_cell_formula_units_Z   6
loop_
 _symmetry_equiv_pos_site_id
 _symmetry_equiv_pos_as_xyz
  1  'x, y, z'
loop_
 _atom_site_type_symbol
 _atom_site_label
 _atom_site_symmetry_multiplicity
 _atom_site_fract_x
 _atom_site_fract_y
 _atom_site_fract_z
 _atom_site_occupancy
  Hf  Hf0  1  0.50000000  0.82075700  0.00660400  1
  Hf  Hf1  1  0.50000000  0.45593000  0.11863400  1
  Hf  Hf2  1  0.00000000  0.81891900  0.22182700  1
  Hf  Hf3  1  0.00000000  0.18083000  0.28385900  1
  Hf  Hf4  1  0.50000000  0.50867700  0.38797500  1
  Hf  Hf5  1  0.50000000  0.86691300  0.43398200  1
  Hf  Hf6  1  0.00000000  0.11503500  0.57504700  1
  Hf  Hf7  1  0.00000000  0.48304800  0.61609300  1
  Hf  Hf8  1  0.50000000  0.81538600  0.71988500  1
  Hf  Hf9  1  0.50000000  0.17754900  0.78159700  1
  Hf  Hf10  1  0.00000000  0.54710300  0.88019200  1
  Hf  Hf11  1  0.00000000  0.19067900  0.98225200  1
  N  N12  1  0.50000000  0.68218900  0.18056000  1
  N  N13  1  0.50000000  0.34880000  0.28283500  1
  N  N14  1  0.50000000  0.99292000  0.26721900  1
  N  N15  1  0.00000000  0.70869200  0.37321500  1
  N  N16  1  0.50000000  0.30082900  0.62762600  1
  N  N17  1  0.50000000  0.95535200  0.56929900  1
  N  N18  1  0.00000000  0.01057700  0.72890300  1
  N  N19  1  0.00000000  0.64824400  0.71494700  1
  N  N20  1  0.00000000  0.31919600  0.81818800  1
  N  N21  1  0.50000000  0.05837400  0.92936600  1
  N  N22  1  0.50000000  0.72206500  0.87323900  1
  N  N23  1  0.50000000  0.38395600  0.97561600  1
  O  O24  1  0.00000000  0.62297300  0.03283900  1
  O  O25  1  0.00000000  0.28418000  0.13129400  1
  O  O26  1  0.00000000  0.94003300  0.07164800  1
  O  O27  1  0.00000000  0.04311800  0.42402500  1
  O  O28  1  0.00000000  0.37788200  0.46025100  1
  O  O29  1  0.50000000  0.61979200  0.53098400  1
