# generated using pymatgen
data_Ti11BeO20
_symmetry_space_group_name_H-M   'P 1'
_cell_length_a   7.21625300
_cell_length_b   7.73456888
_cell_length_c   13.13853031
_cell_angle_alpha   90.21177746
_cell_angle_beta   93.19151998
_cell_angle_gamma   104.80258354
_symmetry_Int_Tables_number   1
_chemical_formula_structural   Ti11BeO20
_chemical_formula_sum   'Ti22 Be2 O40'
_cell_volume   707.76269511
_cell_formula_units_Z   2
loop_
 _symmetry_equiv_pos_site_id
 _symmetry_equiv_pos_as_xyz
  1  'x, y, z'
loop_
 _atom_site_type_symbol
 _atom_site_label
 _atom_site_symmetry_multiplicity
 _atom_site_fract_x
 _atom_site_fract_y
 _atom_site_fract_z
 _atom_site_occupancy
  Ti  Ti0  1  0.01220500  0.92148600  0.20241200  1
  Ti  Ti1  1  0.03610500  0.43440400  0.71030800  1
  Ti  Ti2  1  0.99567600  0.29619300  0.12596900  1
  Ti  Ti3  1  0.99767200  0.20564100  0.36792400  1
  Ti  Ti4  1  0.31977600  0.94648300  0.42377900  1
  Ti  Ti5  1  0.31547200  0.70949600  0.07969000  1
  Ti  Ti6  1  0.32130700  0.57070700  0.51500700  1
  Ti  Ti7  1  0.33409600  0.43317800  0.92983600  1
  Ti  Ti8  1  0.35444900  0.62901100  0.28572600  1
  Ti  Ti9  1  0.30211000  0.20625200  0.58468600  1
  Ti  Ti10  1  0.31950400  0.08562200  0.01277900  1
  Ti  Ti11  1  0.68049600  0.91437800  0.98722100  1
  Ti  Ti12  1  0.69789000  0.79374800  0.41531400  1
  Ti  Ti13  1  0.64555100  0.37098900  0.71427400  1
  Ti  Ti14  1  0.66590400  0.56682200  0.07016400  1
  Ti  Ti15  1  0.67869300  0.42929300  0.48499300  1
  Ti  Ti16  1  0.68452800  0.29050400  0.92031000  1
  Ti  Ti17  1  0.68022400  0.05351700  0.57622100  1
  Ti  Ti18  1  0.00232800  0.79435900  0.63207600  1
  Ti  Ti19  1  0.00432400  0.70380700  0.87403100  1
  Ti  Ti20  1  0.96389500  0.56559600  0.28969200  1
  Ti  Ti21  1  0.98779500  0.07851400  0.79758800  1
  Be  Be22  1  0.38273500  0.00686400  0.78345600  1
  Be  Be23  1  0.61726500  0.99313600  0.21654400  1
  O  O24  1  0.16014500  0.90067800  0.76846800  1
  O  O25  1  0.17490300  0.82778400  0.98107200  1
  O  O26  1  0.17134000  0.95402600  0.54516500  1
  O  O27  1  0.16314800  0.73952100  0.20065400  1
  O  O28  1  0.16218000  0.54083000  0.83639400  1
  O  O29  1  0.16740100  0.61700300  0.62027600  1
  O  O30  1  0.19006300  0.68159100  0.40110800  1
  O  O31  1  0.13530400  0.39536600  0.26657400  1
  O  O32  1  0.15495200  0.23951900  0.69635900  1
  O  O33  1  0.17539200  0.17562200  0.90520300  1
  O  O34  1  0.17209200  0.32551800  0.47792900  1
  O  O35  1  0.16946200  0.46039700  0.04786000  1
  O  O36  1  0.15875400  0.04237800  0.33380900  1
  O  O37  1  0.15493900  0.11400900  0.12116200  1
  O  O38  1  0.50106200  0.96101300  0.10658500  1
  O  O39  1  0.49840400  0.67917100  0.96843600  1
  O  O40  1  0.51096700  0.89529100  0.31362900  1
  O  O41  1  0.50221700  0.82845400  0.51822600  1
  O  O42  1  0.49333000  0.45622500  0.60228900  1
  O  O43  1  0.49496300  0.60560300  0.17232300  1
  O  O44  1  0.50503700  0.39439700  0.82767700  1
  O  O45  1  0.50667000  0.54377500  0.39771100  1
  O  O46  1  0.49778300  0.17154600  0.48177400  1
  O  O47  1  0.48903300  0.10470900  0.68637100  1
  O  O48  1  0.50159600  0.32082900  0.03156400  1
  O  O49  1  0.49893800  0.03898700  0.89341500  1
  O  O50  1  0.84506100  0.88599100  0.87883800  1
  O  O51  1  0.84124600  0.95762200  0.66619100  1
  O  O52  1  0.83053800  0.53960300  0.95214000  1
  O  O53  1  0.82790800  0.67448200  0.52207100  1
  O  O54  1  0.82460800  0.82437800  0.09479700  1
  O  O55  1  0.84504800  0.76048100  0.30364100  1
  O  O56  1  0.86469600  0.60463400  0.73342600  1
  O  O57  1  0.80993700  0.31840900  0.59889200  1
  O  O58  1  0.83259900  0.38299700  0.37972400  1
  O  O59  1  0.83782000  0.45917000  0.16360600  1
  O  O60  1  0.83685200  0.26047900  0.79934600  1
  O  O61  1  0.82866000  0.04597400  0.45483500  1
  O  O62  1  0.82509700  0.17221600  0.01892800  1
  O  O63  1  0.83985500  0.09932200  0.23153200  1
