# generated using pymatgen
data_Ti(FeO2)2
_symmetry_space_group_name_H-M   'P 1'
_cell_length_a   6.11417206
_cell_length_b   6.10991313
_cell_length_c   10.41893991
_cell_angle_alpha   74.92275972
_cell_angle_beta   74.95442375
_cell_angle_gamma   60.99367753
_symmetry_Int_Tables_number   1
_chemical_formula_structural   Ti(FeO2)2
_chemical_formula_sum   'Ti4 Fe8 O16'
_cell_volume   324.55130292
_cell_formula_units_Z   4
loop_
 _symmetry_equiv_pos_site_id
 _symmetry_equiv_pos_as_xyz
  1  'x, y, z'
loop_
 _atom_site_type_symbol
 _atom_site_label
 _atom_site_symmetry_multiplicity
 _atom_site_fract_x
 _atom_site_fract_y
 _atom_site_fract_z
 _atom_site_occupancy
  Ti  Ti0  1  0.01200100  0.98786000  0.50004700  1
  Ti  Ti1  1  0.48793000  0.51222100  0.99995400  1
  Ti  Ti2  1  0.75003400  0.24999500  0.24998500  1
  Ti  Ti3  1  0.75001800  0.24994900  0.75001100  1
  Fe  Fe4  1  0.75005000  0.74992900  0.74998900  1
  Fe  Fe5  1  0.25004700  0.74998100  0.74998600  1
  Fe  Fe6  1  0.18376000  0.18523100  0.94162900  1
  Fe  Fe7  1  0.31624500  0.31483300  0.55834600  1
  Fe  Fe8  1  0.25006700  0.24996200  0.24997400  1
  Fe  Fe9  1  0.25000500  0.74995300  0.25005300  1
  Fe  Fe10  1  0.68499600  0.68364500  0.44167300  1
  Fe  Fe11  1  0.81493700  0.81638400  0.05835600  1
  O  O12  1  0.09821800  0.11886200  0.14617400  1
  O  O13  1  0.40175500  0.38115500  0.35383800  1
  O  O14  1  0.61893300  0.59932700  0.64649000  1
  O  O15  1  0.88103900  0.90069300  0.85348700  1
  O  O16  1  0.08458600  0.13706300  0.62647400  1
  O  O17  1  0.63695800  0.58486500  0.12625300  1
  O  O18  1  0.41542500  0.36292100  0.87357300  1
  O  O19  1  0.86304200  0.91513200  0.37371300  1
  O  O20  1  0.16887800  0.59725500  0.10988500  1
  O  O21  1  0.09835400  0.66867700  0.60983300  1
  O  O22  1  0.33110400  0.90277200  0.39013500  1
  O  O23  1  0.40162100  0.83134300  0.89013900  1
  O  O24  1  0.62712700  0.15538100  0.12588100  1
  O  O25  1  0.65557600  0.12741000  0.62575200  1
  O  O26  1  0.87287000  0.34461800  0.37412200  1
  O  O27  1  0.84442500  0.37258300  0.87425000  1
