# generated using pymatgen
data_Cr(SO4)2
_symmetry_space_group_name_H-M   'P 1'
_cell_length_a   8.98868600
_cell_length_b   9.11040200
_cell_length_c   13.45145200
_cell_angle_alpha   90.00000000
_cell_angle_beta   90.00000000
_cell_angle_gamma   90.00000000
_symmetry_Int_Tables_number   1
_chemical_formula_structural   Cr(SO4)2
_chemical_formula_sum   'Cr8 S16 O64'
_cell_volume   1101.54670723
_cell_formula_units_Z   8
loop_
 _symmetry_equiv_pos_site_id
 _symmetry_equiv_pos_as_xyz
  1  'x, y, z'
loop_
 _atom_site_type_symbol
 _atom_site_label
 _atom_site_symmetry_multiplicity
 _atom_site_fract_x
 _atom_site_fract_y
 _atom_site_fract_z
 _atom_site_occupancy
  Cr  Cr0  1  0.89404700  0.86029700  0.12574000  1
  Cr  Cr1  1  0.60595300  0.86029700  0.62574000  1
  Cr  Cr2  1  0.39404700  0.63970300  0.12574000  1
  Cr  Cr3  1  0.10595300  0.63970300  0.62574000  1
  Cr  Cr4  1  0.89404700  0.36029700  0.37426000  1
  Cr  Cr5  1  0.60595300  0.36029700  0.87426000  1
  Cr  Cr6  1  0.39404700  0.13970300  0.37426000  1
  Cr  Cr7  1  0.10595300  0.13970300  0.87426000  1
  S  S8  1  0.93434100  0.92429200  0.72260700  1
  S  S9  1  0.56565900  0.92429200  0.22260700  1
  S  S10  1  0.31168400  0.84133300  0.48861400  1
  S  S11  1  0.18831600  0.84133300  0.98861400  1
  S  S12  1  0.81168400  0.65866700  0.48861400  1
  S  S13  1  0.68831600  0.65866700  0.98861400  1
  S  S14  1  0.06565900  0.57570800  0.22260700  1
  S  S15  1  0.43434100  0.57570800  0.72260700  1
  S  S16  1  0.56565900  0.42429200  0.27739300  1
  S  S17  1  0.93434100  0.42429200  0.77739300  1
  S  S18  1  0.31168400  0.34133300  0.01138600  1
  S  S19  1  0.18831600  0.34133300  0.51138600  1
  S  S20  1  0.81168400  0.15866700  0.01138600  1
  S  S21  1  0.68831600  0.15866700  0.51138600  1
  S  S22  1  0.43434100  0.07570800  0.77739300  1
  S  S23  1  0.06565900  0.07570800  0.27739300  1
  O  O24  1  0.29858200  0.00503100  0.47246500  1
  O  O25  1  0.20141800  0.00503100  0.97246500  1
  O  O26  1  0.01107500  0.98319000  0.35660100  1
  O  O27  1  0.48892500  0.98319000  0.85660100  1
  O  O28  1  0.52713800  0.97769100  0.32515000  1
  O  O29  1  0.97286200  0.97769100  0.82515000  1
  O  O30  1  0.76625800  0.91453700  0.72221200  1
  O  O31  1  0.73374200  0.91453700  0.22221200  1
  O  O32  1  0.27727600  0.81266800  0.08128700  1
  O  O33  1  0.22272400  0.81266800  0.58128700  1
  O  O34  1  0.02917900  0.80669900  0.01486300  1
  O  O35  1  0.47082100  0.80669900  0.51486300  1
  O  O36  1  0.99435100  0.77007500  0.71797600  1
  O  O37  1  0.50564900  0.77007500  0.21797600  1
  O  O38  1  0.26644500  0.75912500  0.40219600  1
  O  O39  1  0.23355500  0.75912500  0.90219600  1
  O  O40  1  0.76644500  0.74087500  0.40219600  1
  O  O41  1  0.73355500  0.74087500  0.90219600  1
  O  O42  1  0.00564900  0.72992500  0.21797600  1
  O  O43  1  0.49435100  0.72992500  0.71797600  1
  O  O44  1  0.97082100  0.69330100  0.51486300  1
  O  O45  1  0.52917900  0.69330100  0.01486300  1
  O  O46  1  0.77727600  0.68733200  0.08128700  1
  O  O47  1  0.72272400  0.68733200  0.58128700  1
  O  O48  1  0.23374200  0.58546300  0.22221200  1
  O  O49  1  0.26625800  0.58546300  0.72221200  1
  O  O50  1  0.47286200  0.52230900  0.82515000  1
  O  O51  1  0.02713800  0.52230900  0.32515000  1
  O  O52  1  0.51107500  0.51681000  0.35660100  1
  O  O53  1  0.98892500  0.51681000  0.85660100  1
  O  O54  1  0.79858200  0.49496900  0.47246500  1
  O  O55  1  0.70141800  0.49496900  0.97246500  1
  O  O56  1  0.29858200  0.50503100  0.02753500  1
  O  O57  1  0.20141800  0.50503100  0.52753500  1
  O  O58  1  0.48892500  0.48319000  0.64339900  1
  O  O59  1  0.01107500  0.48319000  0.14339900  1
  O  O60  1  0.52713800  0.47769100  0.17485000  1
  O  O61  1  0.97286200  0.47769100  0.67485000  1
  O  O62  1  0.73374200  0.41453700  0.27778800  1
  O  O63  1  0.76625800  0.41453700  0.77778800  1
  O  O64  1  0.27727600  0.31266800  0.41871300  1
  O  O65  1  0.22272400  0.31266800  0.91871300  1
  O  O66  1  0.47082100  0.30669900  0.98513700  1
  O  O67  1  0.02917900  0.30669900  0.48513700  1
  O  O68  1  0.50564900  0.27007500  0.28202400  1
  O  O69  1  0.99435100  0.27007500  0.78202400  1
  O  O70  1  0.26644500  0.25912500  0.09780400  1
  O  O71  1  0.23355500  0.25912500  0.59780400  1
  O  O72  1  0.76644500  0.24087500  0.09780400  1
  O  O73  1  0.73355500  0.24087500  0.59780400  1
  O  O74  1  0.49435100  0.22992500  0.78202400  1
  O  O75  1  0.00564900  0.22992500  0.28202400  1
  O  O76  1  0.52917900  0.19330100  0.48513700  1
  O  O77  1  0.97082100  0.19330100  0.98513700  1
  O  O78  1  0.77727600  0.18733200  0.41871300  1
  O  O79  1  0.72272400  0.18733200  0.91871300  1
  O  O80  1  0.26625800  0.08546300  0.77778800  1
  O  O81  1  0.23374200  0.08546300  0.27778800  1
  O  O82  1  0.47286200  0.02230900  0.67485000  1
  O  O83  1  0.02713800  0.02230900  0.17485000  1
  O  O84  1  0.98892500  0.01681000  0.64339900  1
  O  O85  1  0.51107500  0.01681000  0.14339900  1
  O  O86  1  0.79858200  0.99496900  0.02753500  1
  O  O87  1  0.70141800  0.99496900  0.52753500  1
