# generated using pymatgen
data_Li2Mn3(BO3)3
_symmetry_space_group_name_H-M   'P 1'
_cell_length_a   9.04742277
_cell_length_b   7.88814232
_cell_length_c   6.14158427
_cell_angle_alpha   80.53393049
_cell_angle_beta   77.29847527
_cell_angle_gamma   114.05749606
_symmetry_Int_Tables_number   1
_chemical_formula_structural   Li2Mn3(BO3)3
_chemical_formula_sum   'Li4 Mn6 B6 O18'
_cell_volume   374.22026935
_cell_formula_units_Z   2
loop_
 _symmetry_equiv_pos_site_id
 _symmetry_equiv_pos_as_xyz
  1  'x, y, z'
loop_
 _atom_site_type_symbol
 _atom_site_label
 _atom_site_symmetry_multiplicity
 _atom_site_fract_x
 _atom_site_fract_y
 _atom_site_fract_z
 _atom_site_occupancy
  Li  Li0  1  0.05361100  0.16832100  0.49535400  1
  Li  Li1  1  0.71235500  0.49085100  0.16900900  1
  Li  Li2  1  0.27589600  0.48385000  0.82451100  1
  Li  Li3  1  0.39630900  0.84475300  0.83786700  1
  Mn  Mn4  1  0.26747500  0.12250100  0.11801900  1
  Mn  Mn5  1  0.40219300  0.19269000  0.55505900  1
  Mn  Mn6  1  0.06355900  0.53342200  0.21626400  1
  Mn  Mn7  1  0.92545000  0.47765600  0.76410700  1
  Mn  Mn8  1  0.61509600  0.82127600  0.42823300  1
  Mn  Mn9  1  0.73647800  0.85942500  0.88645500  1
  B  B10  1  0.94255900  0.14192600  0.09597600  1
  B  B11  1  0.73275100  0.20430000  0.55578200  1
  B  B12  1  0.39961300  0.53010400  0.20687500  1
  B  B13  1  0.59333900  0.47296200  0.79803300  1
  B  B14  1  0.26875100  0.79733900  0.47260400  1
  B  B15  1  0.06270100  0.86152700  0.87047800  1
  O  O16  1  0.01489300  0.06794400  0.23045300  1
  O  O17  1  0.77513100  0.02048900  0.09718500  1
  O  O18  1  0.64587600  0.00754100  0.67398200  1
  O  O19  1  0.31143700  0.33850400  0.34191300  1
  O  O20  1  0.66385500  0.29852100  0.44111500  1
  O  O21  1  0.32513400  0.61452800  0.08482300  1
  O  O22  1  0.90575000  0.30728100  0.54499300  1
  O  O23  1  0.57399200  0.63682600  0.18512800  1
  O  O24  1  0.96870200  0.65961800  0.98097900  1
  O  O25  1  0.02056200  0.33871900  0.97791000  1
  O  O26  1  0.42650000  0.36010300  0.80142300  1
  O  O27  1  0.10291100  0.68164300  0.47743200  1
  O  O28  1  0.67539500  0.38878300  0.90210300  1
  O  O29  1  0.35180400  0.71870300  0.58431100  1
  O  O30  1  0.66806600  0.67448100  0.69996200  1
  O  O31  1  0.34266600  0.99249500  0.36006700  1
  O  O32  1  0.23190900  0.95531400  0.86700900  1
  O  O33  1  0.99064600  0.95980100  0.76741000  1
