# generated using pymatgen
data_V6O5F19
_symmetry_space_group_name_H-M   'P 1'
_cell_length_a   5.29305000
_cell_length_b   5.49263705
_cell_length_c   14.76392000
_cell_angle_alpha   100.38196992
_cell_angle_beta   89.89354191
_cell_angle_gamma   90.80717552
_symmetry_Int_Tables_number   1
_chemical_formula_structural   V6O5F19
_chemical_formula_sum   'V6 O5 F19'
_cell_volume   422.15930215
_cell_formula_units_Z   1
loop_
 _symmetry_equiv_pos_site_id
 _symmetry_equiv_pos_as_xyz
  1  'x, y, z'
loop_
 _atom_site_type_symbol
 _atom_site_label
 _atom_site_symmetry_multiplicity
 _atom_site_fract_x
 _atom_site_fract_y
 _atom_site_fract_z
 _atom_site_occupancy
  V  V0  1  0.03180300  0.95887800  0.99650100  1
  V  V1  1  0.52293800  0.87607400  0.66930500  1
  V  V2  1  0.97549200  0.72381400  0.33625700  1
  V  V3  1  0.54052100  0.47000900  0.00351700  1
  V  V4  1  0.00711300  0.34854100  0.66607400  1
  V  V5  1  0.51882300  0.21959200  0.33558500  1
  O  O6  1  0.78974600  0.96592300  0.35773400  1
  O  O7  1  0.71113800  0.46352900  0.35629400  1
  O  O8  1  0.77812700  0.30244900  0.02032300  1
  O  O9  1  0.20622300  0.71662300  0.97940200  1
  O  O10  1  0.70321500  0.12666800  0.68911200  1
  F  F11  1  0.72028400  0.79078100  0.02693700  1
  F  F12  1  0.27577500  0.85984100  0.30925100  1
  F  F13  1  0.90253300  0.95758100  0.88532200  1
  F  F14  1  0.57646300  0.76847900  0.55069200  1
  F  F15  1  0.91816300  0.60342200  0.21841700  1
  F  F16  1  0.40142300  0.86413900  0.78027700  1
  F  F17  1  0.08273700  0.69080100  0.44705700  1
  F  F18  1  0.40630300  0.54643000  0.11504900  1
  F  F19  1  0.79618500  0.64709900  0.69225800  1
  F  F20  1  0.29636700  0.52306800  0.64301900  1
  F  F21  1  0.22641200  0.35642400  0.30824100  1
  F  F22  1  0.56350600  0.47703700  0.88399200  1
  F  F23  1  0.90625400  0.28729600  0.55006800  1
  F  F24  1  0.58008500  0.09749700  0.21830300  1
  F  F25  1  0.07293500  0.36162500  0.78409200  1
  F  F26  1  0.41644600  0.18938300  0.44758500  1
  F  F27  1  0.06946500  0.07313200  0.11593300  1
  F  F28  1  0.28761500  0.20224100  0.97272600  1
  F  F29  1  0.21591200  0.03162300  0.64067500  1
