# generated using pymatgen
data_Na5CrO4
_symmetry_space_group_name_H-M   'P 1'
_cell_length_a   5.37908800
_cell_length_b   10.54918331
_cell_length_c   10.54031345
_cell_angle_alpha   92.75980826
_cell_angle_beta   89.99837650
_cell_angle_gamma   89.99960778
_symmetry_Int_Tables_number   1
_chemical_formula_structural   Na5CrO4
_chemical_formula_sum   'Na20 Cr4 O16'
_cell_volume   597.41621936
_cell_formula_units_Z   4
loop_
 _symmetry_equiv_pos_site_id
 _symmetry_equiv_pos_as_xyz
  1  'x, y, z'
loop_
 _atom_site_type_symbol
 _atom_site_label
 _atom_site_symmetry_multiplicity
 _atom_site_fract_x
 _atom_site_fract_y
 _atom_site_fract_z
 _atom_site_occupancy
  Na  Na0  1  0.18092200  0.50001300  0.25004300  1
  Na  Na1  1  0.18097400  0.99999000  0.74995200  1
  Na  Na2  1  0.81914900  0.49998200  0.74995500  1
  Na  Na3  1  0.81912100  0.00001300  0.25004300  1
  Na  Na4  1  0.74291400  0.03432400  0.97712000  1
  Na  Na5  1  0.74291200  0.53429400  0.47713000  1
  Na  Na6  1  0.74294200  0.27286800  0.21570500  1
  Na  Na7  1  0.74288400  0.77285500  0.71561200  1
  Na  Na8  1  0.74291500  0.46567800  0.02287400  1
  Na  Na9  1  0.74289500  0.96568800  0.52286700  1
  Na  Na10  1  0.74293600  0.22713100  0.78429500  1
  Na  Na11  1  0.74288700  0.72714000  0.28438000  1
  Na  Na12  1  0.25705800  0.53424800  0.97710900  1
  Na  Na13  1  0.25709700  0.03424000  0.47712400  1
  Na  Na14  1  0.25703800  0.77288300  0.21575100  1
  Na  Na15  1  0.25710400  0.27287800  0.71564600  1
  Na  Na16  1  0.25703200  0.72711400  0.78425000  1
  Na  Na17  1  0.25709000  0.22712300  0.28436900  1
  Na  Na18  1  0.25705500  0.96575800  0.02288700  1
  Na  Na19  1  0.25708500  0.46576300  0.52286500  1
  Cr  Cr20  1  0.21660300  0.75001500  0.50000100  1
  Cr  Cr21  1  0.78348400  0.25000900  0.49998900  1
  Cr  Cr22  1  0.21652000  0.24999500  0.99999600  1
  Cr  Cr23  1  0.78356600  0.74996800  0.00003000  1
  O  O24  1  0.03733300  0.13623000  0.11370100  1
  O  O25  1  0.03735800  0.63619600  0.61367100  1
  O  O26  1  0.03732900  0.36378100  0.88630900  1
  O  O27  1  0.03735000  0.86381300  0.38632300  1
  O  O28  1  0.96269300  0.63621900  0.11366400  1
  O  O29  1  0.96269500  0.13618700  0.61365600  1
  O  O30  1  0.96267400  0.86377400  0.88633500  1
  O  O31  1  0.96268900  0.36380100  0.38634300  1
  O  O32  1  0.40120200  0.36215600  0.11200800  1
  O  O33  1  0.40118600  0.86215800  0.61193800  1
  O  O34  1  0.40116700  0.13788900  0.88802300  1
  O  O35  1  0.40117100  0.63786100  0.38807000  1
  O  O36  1  0.59873100  0.63781100  0.88800300  1
  O  O37  1  0.59874300  0.13780500  0.38804300  1
  O  O38  1  0.59874300  0.86216600  0.11197900  1
  O  O39  1  0.59875000  0.36218400  0.61194000  1
