# generated using pymatgen
data_Ta2Zn4O9
_symmetry_space_group_name_H-M   'P 1'
_cell_length_a   5.22271100
_cell_length_b   9.07437800
_cell_length_c   14.51210700
_cell_angle_alpha   90.00000000
_cell_angle_beta   90.00000000
_cell_angle_gamma   90.00000000
_symmetry_Int_Tables_number   1
_chemical_formula_structural   Ta2Zn4O9
_chemical_formula_sum   'Ta8 Zn16 O36'
_cell_volume   687.77016536
_cell_formula_units_Z   4
loop_
 _symmetry_equiv_pos_site_id
 _symmetry_equiv_pos_as_xyz
  1  'x, y, z'
loop_
 _atom_site_type_symbol
 _atom_site_label
 _atom_site_symmetry_multiplicity
 _atom_site_fract_x
 _atom_site_fract_y
 _atom_site_fract_z
 _atom_site_occupancy
  Ta  Ta0  1  0.49624400  0.51803100  0.14302100  1
  Ta  Ta1  1  0.49624400  0.48196900  0.35697900  1
  Ta  Ta2  1  0.00375600  0.98196900  0.64302100  1
  Ta  Ta3  1  0.00375600  0.01803100  0.85697900  1
  Ta  Ta4  1  0.99624400  0.01803100  0.35697900  1
  Ta  Ta5  1  0.99624400  0.98196900  0.14302100  1
  Ta  Ta6  1  0.50375600  0.51803100  0.64302100  1
  Ta  Ta7  1  0.50375600  0.48196900  0.85697900  1
  Zn  Zn8  1  0.49703800  0.83592600  0.30172200  1
  Zn  Zn9  1  0.49703800  0.16407400  0.19827800  1
  Zn  Zn10  1  0.49189700  0.16174500  0.49611800  1
  Zn  Zn11  1  0.49189700  0.83825500  0.00388200  1
  Zn  Zn12  1  0.00810300  0.66174500  0.50388200  1
  Zn  Zn13  1  0.00810300  0.33825500  0.99611800  1
  Zn  Zn14  1  0.00296200  0.33592600  0.69827800  1
  Zn  Zn15  1  0.00296200  0.66407400  0.80172200  1
  Zn  Zn16  1  0.99703800  0.33592600  0.19827800  1
  Zn  Zn17  1  0.99703800  0.66407400  0.30172200  1
  Zn  Zn18  1  0.99189700  0.66174500  0.00388200  1
  Zn  Zn19  1  0.99189700  0.33825500  0.49611800  1
  Zn  Zn20  1  0.50810300  0.83825500  0.50388200  1
  Zn  Zn21  1  0.50810300  0.16174500  0.99611800  1
  Zn  Zn22  1  0.50296200  0.16407400  0.69827800  1
  Zn  Zn23  1  0.50296200  0.83592600  0.80172200  1
  O  O24  1  0.36262900  0.64289000  0.75069300  1
  O  O25  1  0.36262900  0.35711000  0.74930700  1
  O  O26  1  0.33724400  0.66649200  0.07414000  1
  O  O27  1  0.33724400  0.33350800  0.42586000  1
  O  O28  1  0.32334300  0.00635300  0.08580700  1
  O  O29  1  0.32334300  0.99364700  0.41419300  1
  O  O30  1  0.31962200  0.65871700  0.40475200  1
  O  O31  1  0.31962200  0.34128300  0.09524800  1
  O  O32  1  0.28720600  0.00000000  0.75000000  1
  O  O33  1  0.21279400  0.50000000  0.25000000  1
  O  O34  1  0.18037800  0.15871700  0.59524800  1
  O  O35  1  0.18037800  0.84128300  0.90475200  1
  O  O36  1  0.17665700  0.49364700  0.58580700  1
  O  O37  1  0.17665700  0.50635300  0.91419300  1
  O  O38  1  0.16275600  0.83350800  0.57414000  1
  O  O39  1  0.16275600  0.16649200  0.92586000  1
  O  O40  1  0.13737100  0.85711000  0.25069300  1
  O  O41  1  0.13737100  0.14289000  0.24930700  1
  O  O42  1  0.86262900  0.85711000  0.75069300  1
  O  O43  1  0.86262900  0.14289000  0.74930700  1
  O  O44  1  0.83724400  0.83350800  0.07414000  1
  O  O45  1  0.83724400  0.16649200  0.42586000  1
  O  O46  1  0.82334300  0.50635300  0.41419300  1
  O  O47  1  0.82334300  0.49364700  0.08580700  1
  O  O48  1  0.81962200  0.84128300  0.40475200  1
  O  O49  1  0.81962200  0.15871700  0.09524800  1
  O  O50  1  0.78720600  0.50000000  0.75000000  1
  O  O51  1  0.71279400  0.00000000  0.25000000  1
  O  O52  1  0.68037800  0.65871700  0.90475200  1
  O  O53  1  0.68037800  0.34128300  0.59524800  1
  O  O54  1  0.67665700  0.99364700  0.91419300  1
  O  O55  1  0.67665700  0.00635300  0.58580700  1
  O  O56  1  0.66275600  0.66649200  0.57414000  1
  O  O57  1  0.66275600  0.33350800  0.92586000  1
  O  O58  1  0.63737100  0.64289000  0.25069300  1
  O  O59  1  0.63737100  0.35711000  0.24930700  1
