# generated using pymatgen
data_Na2VO3
_symmetry_space_group_name_H-M   'P 1'
_cell_length_a   5.50508170
_cell_length_b   9.67429557
_cell_length_c   5.50578876
_cell_angle_alpha   101.19036587
_cell_angle_beta   71.28734611
_cell_angle_gamma   78.89154525
_symmetry_Int_Tables_number   1
_chemical_formula_structural   Na2VO3
_chemical_formula_sum   'Na8 V4 O12'
_cell_volume   261.99031156
_cell_formula_units_Z   4
loop_
 _symmetry_equiv_pos_site_id
 _symmetry_equiv_pos_as_xyz
  1  'x, y, z'
loop_
 _atom_site_type_symbol
 _atom_site_label
 _atom_site_symmetry_multiplicity
 _atom_site_fract_x
 _atom_site_fract_y
 _atom_site_fract_z
 _atom_site_occupancy
  Na  Na0  1  0.00661300  0.98748300  0.49271200  1
  Na  Na1  1  0.57739200  0.84375800  0.42244800  1
  Na  Na2  1  0.17200300  0.65548900  0.32889200  1
  Na  Na3  1  0.74426200  0.51073900  0.25414900  1
  Na  Na4  1  0.25400800  0.48739200  0.74258200  1
  Na  Na5  1  0.32728400  0.34485900  0.17165800  1
  Na  Na6  1  0.42036500  0.15467800  0.57587800  1
  Na  Na7  1  0.49409800  0.01250100  0.00576100  1
  V  V8  1  0.08211500  0.82823300  0.91626800  1
  V  V9  1  0.66163600  0.67037200  0.83714200  1
  V  V10  1  0.83364200  0.32871100  0.66129300  1
  V  V11  1  0.91634300  0.17085500  0.08157000  1
  O  O12  1  0.34578700  0.80922300  0.10856000  1
  O  O13  1  0.84491800  0.80858100  0.70179300  1
  O  O14  1  0.40260000  0.69113200  0.64301300  1
  O  O15  1  0.90427900  0.68980300  0.04874400  1
  O  O16  1  0.55555800  0.50032300  0.94222300  1
  O  O17  1  0.93907900  0.49918700  0.55804700  1
  O  O18  1  0.04794000  0.30922100  0.90422000  1
  O  O19  1  0.64151500  0.30749900  0.40213200  1
  O  O20  1  0.70046400  0.19033500  0.84357600  1
  O  O21  1  0.10714300  0.19084400  0.34508900  1
  O  O22  1  0.19147200  0.00133700  0.80825100  1
  O  O23  1  0.81003000  0.99752300  0.19021500  1
