# generated using pymatgen
data_Na2Cr4O13
_symmetry_space_group_name_H-M   'P 1'
_cell_length_a   7.24524700
_cell_length_b   9.17067600
_cell_length_c   17.45733783
_cell_angle_alpha   87.73476561
_cell_angle_beta   90.00000000
_cell_angle_gamma   90.00000000
_symmetry_Int_Tables_number   1
_chemical_formula_structural   Na2Cr4O13
_chemical_formula_sum   'Na8 Cr16 O52'
_cell_volume   1159.02567116
_cell_formula_units_Z   4
loop_
 _symmetry_equiv_pos_site_id
 _symmetry_equiv_pos_as_xyz
  1  'x, y, z'
loop_
 _atom_site_type_symbol
 _atom_site_label
 _atom_site_symmetry_multiplicity
 _atom_site_fract_x
 _atom_site_fract_y
 _atom_site_fract_z
 _atom_site_occupancy
  Na  Na0  1  0.32601500  0.17809500  0.05489700  1
  Na  Na1  1  0.17398500  0.67809500  0.05489700  1
  Na  Na2  1  0.85486700  0.31771300  0.43310800  1
  Na  Na3  1  0.64513300  0.81771300  0.43310800  1
  Na  Na4  1  0.35486700  0.18228700  0.56689200  1
  Na  Na5  1  0.14513300  0.68228700  0.56689200  1
  Na  Na6  1  0.82601500  0.32190500  0.94510300  1
  Na  Na7  1  0.67398500  0.82190500  0.94510300  1
  Cr  Cr8  1  0.82710600  0.05522900  0.08414900  1
  Cr  Cr9  1  0.67289400  0.55522900  0.08414900  1
  Cr  Cr10  1  0.64642100  0.17637800  0.25126000  1
  Cr  Cr11  1  0.30655000  0.41343000  0.24375600  1
  Cr  Cr12  1  0.85357900  0.67637800  0.25126000  1
  Cr  Cr13  1  0.19345000  0.91343000  0.24375600  1
  Cr  Cr14  1  0.32372600  0.46047800  0.41865300  1
  Cr  Cr15  1  0.17627400  0.96047800  0.41865300  1
  Cr  Cr16  1  0.82372600  0.03952200  0.58134700  1
  Cr  Cr17  1  0.67627400  0.53952200  0.58134700  1
  Cr  Cr18  1  0.80655000  0.08657000  0.75624400  1
  Cr  Cr19  1  0.14642100  0.32362200  0.74874000  1
  Cr  Cr20  1  0.69345000  0.58657000  0.75624400  1
  Cr  Cr21  1  0.35357900  0.82362200  0.74874000  1
  Cr  Cr22  1  0.32710600  0.44477100  0.91585100  1
  Cr  Cr23  1  0.17289400  0.94477100  0.91585100  1
  O  O24  1  0.68677800  0.07023200  0.01047500  1
  O  O25  1  0.81322200  0.57023200  0.01047500  1
  O  O26  1  0.98774500  0.17880000  0.07416300  1
  O  O27  1  0.51225500  0.67880000  0.07416300  1
  O  O28  1  0.58333900  0.39249600  0.08799200  1
  O  O29  1  0.91666100  0.89249600  0.08799200  1
  O  O30  1  0.69239200  0.08056900  0.17008600  1
  O  O31  1  0.80760800  0.58056900  0.17008600  1
  O  O32  1  0.16633900  0.43514100  0.17308100  1
  O  O33  1  0.33366100  0.93514100  0.17308100  1
  O  O34  1  0.04495000  0.04154900  0.24161600  1
  O  O35  1  0.41769800  0.24271200  0.23716200  1
  O  O36  1  0.45505000  0.54154900  0.24161600  1
  O  O37  1  0.08230200  0.74271200  0.23716200  1
  O  O38  1  0.78596600  0.30850600  0.26169500  1
  O  O39  1  0.71403400  0.80850600  0.26169500  1
  O  O40  1  0.65091500  0.07547500  0.32845000  1
  O  O41  1  0.84908500  0.57547500  0.32845000  1
  O  O42  1  0.19399800  0.41530900  0.33176300  1
  O  O43  1  0.30600200  0.91530900  0.33176300  1
  O  O44  1  0.12711600  0.13306400  0.41466200  1
  O  O45  1  0.37288400  0.63306400  0.41466200  1
  O  O46  1  0.51232200  0.36419200  0.42424900  1
  O  O47  1  0.98767800  0.86419200  0.42424900  1
  O  O48  1  0.18945200  0.42226500  0.49231100  1
  O  O49  1  0.31054800  0.92226500  0.49231100  1
  O  O50  1  0.68945200  0.07773500  0.50768900  1
  O  O51  1  0.81054800  0.57773500  0.50768900  1
  O  O52  1  0.01232200  0.13580800  0.57575100  1
  O  O53  1  0.48767800  0.63580800  0.57575100  1
  O  O54  1  0.62711600  0.36693600  0.58533800  1
  O  O55  1  0.87288400  0.86693600  0.58533800  1
  O  O56  1  0.69399800  0.08469100  0.66823700  1
  O  O57  1  0.80600200  0.58469100  0.66823700  1
  O  O58  1  0.15091500  0.42452500  0.67155000  1
  O  O59  1  0.34908500  0.92452500  0.67155000  1
  O  O60  1  0.28596600  0.19149400  0.73830500  1
  O  O61  1  0.21403400  0.69149400  0.73830500  1
  O  O62  1  0.91769800  0.25728800  0.76283800  1
  O  O63  1  0.54495000  0.45845100  0.75838400  1
  O  O64  1  0.58230200  0.75728800  0.76283800  1
  O  O65  1  0.95505000  0.95845100  0.75838400  1
  O  O66  1  0.66633900  0.06485900  0.82691900  1
  O  O67  1  0.83366100  0.56485900  0.82691900  1
  O  O68  1  0.19239200  0.41943100  0.82991400  1
  O  O69  1  0.30760800  0.91943100  0.82991400  1
  O  O70  1  0.08333900  0.10750400  0.91200800  1
  O  O71  1  0.41666100  0.60750400  0.91200800  1
  O  O72  1  0.48774500  0.32120000  0.92583700  1
  O  O73  1  0.01225500  0.82120000  0.92583700  1
  O  O74  1  0.18677800  0.42976800  0.98952500  1
  O  O75  1  0.31322200  0.92976800  0.98952500  1
