# generated using pymatgen
data_V2NiSe4
_symmetry_space_group_name_H-M   'P 1'
_cell_length_a   6.69683584
_cell_length_b   6.69683584
_cell_length_c   6.19321991
_cell_angle_alpha   64.17364278
_cell_angle_beta   64.17364278
_cell_angle_gamma   29.37128425
_symmetry_Int_Tables_number   1
_chemical_formula_structural   V2NiSe4
_chemical_formula_sum   'V2 Ni1 Se4'
_cell_volume   121.63071359
_cell_formula_units_Z   1
loop_
 _symmetry_equiv_pos_site_id
 _symmetry_equiv_pos_as_xyz
  1  'x, y, z'
loop_
 _atom_site_type_symbol
 _atom_site_label
 _atom_site_symmetry_multiplicity
 _atom_site_fract_x
 _atom_site_fract_y
 _atom_site_fract_z
 _atom_site_occupancy
  V  V0  1  0.25474400  0.25474400  0.68740300  1
  V  V1  1  0.74525600  0.74525600  0.31259700  1
  Ni  Ni2  1  0.00000000  0.00000000  0.00000000  1
  Se  Se3  1  0.36061000  0.36061000  0.97786100  1
  Se  Se4  1  0.63939000  0.63939000  0.02213900  1
  Se  Se5  1  0.10484600  0.10484600  0.55345500  1
  Se  Se6  1  0.89515400  0.89515400  0.44654500  1
