# generated using pymatgen
data_Li2Mn2P2(H4O5)3
_symmetry_space_group_name_H-M   'P 1'
_cell_length_a   4.83828100
_cell_length_b   11.54271997
_cell_length_c   12.12457201
_cell_angle_alpha   87.02138915
_cell_angle_beta   89.92570831
_cell_angle_gamma   77.89623224
_symmetry_Int_Tables_number   1
_chemical_formula_structural   Li2Mn2P2(H4O5)3
_chemical_formula_sum   'Li4 Mn4 P4 H24 O30'
_cell_volume   661.14088457
_cell_formula_units_Z   2
loop_
 _symmetry_equiv_pos_site_id
 _symmetry_equiv_pos_as_xyz
  1  'x, y, z'
loop_
 _atom_site_type_symbol
 _atom_site_label
 _atom_site_symmetry_multiplicity
 _atom_site_fract_x
 _atom_site_fract_y
 _atom_site_fract_z
 _atom_site_occupancy
  Li  Li0  1  0.98899400  0.78886900  0.92172000  1
  Li  Li1  1  0.22425800  0.78903800  0.42204200  1
  Li  Li2  1  0.77615000  0.21096600  0.57723600  1
  Li  Li3  1  0.01293100  0.21051100  0.07861000  1
  Mn  Mn4  1  0.07736700  0.50190800  0.87544600  1
  Mn  Mn5  1  0.57917100  0.49841400  0.62375700  1
  Mn  Mn6  1  0.42002000  0.50157500  0.37575900  1
  Mn  Mn7  1  0.92227000  0.49776900  0.12415000  1
  P  P8  1  0.51987800  0.67022000  0.78550800  1
  P  P9  1  0.81032200  0.66940800  0.28618900  1
  P  P10  1  0.18913800  0.33047900  0.71320700  1
  P  P11  1  0.47979600  0.32966400  0.21421700  1
  H  H12  1  0.56718800  0.96367200  0.85611800  1
  H  H13  1  0.23515300  0.93087100  0.76757600  1
  H  H14  1  0.46803500  0.96393400  0.35299600  1
  H  H15  1  0.15182700  0.82790000  0.62618400  1
  H  H16  1  0.83399800  0.92547600  0.26823700  1
  H  H17  1  0.01918100  0.83272200  0.12426600  1
  H  H18  1  0.89825200  0.77241100  0.59657500  1
  H  H19  1  0.32838800  0.77340300  0.09796700  1
  H  H20  1  0.63106000  0.46387500  0.92990600  1
  H  H21  1  0.09495700  0.53634900  0.57019600  1
  H  H22  1  0.90402900  0.46384800  0.42910700  1
  H  H23  1  0.36832600  0.53615300  0.07010400  1
  H  H24  1  0.68099900  0.22637600  0.90073200  1
  H  H25  1  0.10284000  0.22785900  0.40301100  1
  H  H26  1  0.98971500  0.16398700  0.87679100  1
  H  H27  1  0.16787500  0.07413900  0.73081100  1
  H  H28  1  0.85119300  0.17137600  0.37331100  1
  H  H29  1  0.53434100  0.03564800  0.64644700  1
  H  H30  1  0.75995500  0.01499400  0.93375700  1
  H  H31  1  0.76716800  0.06877100  0.23180400  1
  H  H32  1  0.77855500  0.98370300  0.56850000  1
  H  H33  1  0.43470000  0.03552700  0.14407400  1
  H  H34  1  0.22481700  0.01610300  0.43131400  1
  H  H35  1  0.24112800  0.98428400  0.06672400  1
  O  O36  1  0.72526000  0.93925400  0.90954600  1
  O  O37  1  0.33451300  0.94021500  0.40720300  1
  O  O38  1  0.01052700  0.82932200  0.56794600  1
  O  O39  1  0.29661500  0.77806400  0.81013700  1
  O  O40  1  0.16281300  0.83009900  0.06707600  1
  O  O41  1  0.60495600  0.66456300  0.66056800  1
  O  O42  1  0.92720900  0.77686800  0.31164100  1
  O  O43  1  0.79311600  0.65764700  0.85815000  1
  O  O44  1  0.73131100  0.66427000  0.16116800  1
  O  O45  1  0.54902700  0.65729600  0.35854700  1
  O  O46  1  0.40554500  0.55092100  0.80589000  1
  O  O47  1  0.25317400  0.56201900  0.53238100  1
  O  O48  1  0.04324700  0.55005700  0.30613500  1
  O  O49  1  0.81474700  0.43828900  0.96721800  1
  O  O50  1  0.18485700  0.56138500  0.03250700  1
  O  O51  1  0.95612400  0.44981200  0.69310600  1
  O  O52  1  0.74620500  0.43813400  0.46699200  1
  O  O53  1  0.59414900  0.44896000  0.19385800  1
  O  O54  1  0.45075100  0.34278100  0.64078200  1
  O  O55  1  0.26800700  0.33576500  0.83810500  1
  O  O56  1  0.20702300  0.34201100  0.14158100  1
  O  O57  1  0.07328400  0.22295200  0.68752100  1
  O  O58  1  0.39470100  0.33528900  0.33910100  1
  O  O59  1  0.84292000  0.16860100  0.93304000  1
  O  O60  1  0.70396700  0.22175600  0.18958300  1
  O  O61  1  0.99157700  0.17081700  0.43160600  1
  O  O62  1  0.66764400  0.05940000  0.59214100  1
  O  O63  1  0.31333900  0.00240100  0.75193000  1
  O  O64  1  0.27555000  0.05987400  0.09090600  1
  O  O65  1  0.68870700  0.99743200  0.24774000  1
