# generated using pymatgen
data_Fe7(OF3)3
_symmetry_space_group_name_H-M   'P 1'
_cell_length_a   5.49466797
_cell_length_b   5.70534901
_cell_length_c   9.13027398
_cell_angle_alpha   75.42365100
_cell_angle_beta   90.49152020
_cell_angle_gamma   117.85925424
_symmetry_Int_Tables_number   1
_chemical_formula_structural   Fe7(OF3)3
_chemical_formula_sum   'Fe7 O3 F9'
_cell_volume   242.90972533
_cell_formula_units_Z   1
loop_
 _symmetry_equiv_pos_site_id
 _symmetry_equiv_pos_as_xyz
  1  'x, y, z'
loop_
 _atom_site_type_symbol
 _atom_site_label
 _atom_site_symmetry_multiplicity
 _atom_site_fract_x
 _atom_site_fract_y
 _atom_site_fract_z
 _atom_site_occupancy
  Fe  Fe0  1  0.78818300  0.56632400  0.07104500  1
  Fe  Fe1  1  0.96406400  0.95754600  0.66504700  1
  Fe  Fe2  1  0.52209800  0.04962800  0.81458900  1
  Fe  Fe3  1  0.67949100  0.42805200  0.43153500  1
  Fe  Fe4  1  0.50979600  0.92858700  0.17424400  1
  Fe  Fe5  1  0.05048400  0.05720700  0.31594600  1
  Fe  Fe6  1  0.21995400  0.50377400  0.58512700  1
  O  O7  1  0.81832400  0.27507400  0.62149600  1
  O  O8  1  0.75008600  0.74822100  0.23505300  1
  O  O9  1  0.24540500  0.24861100  0.47567500  1
  F  F10  1  0.80224700  0.25686500  0.27693600  1
  F  F11  1  0.75175900  0.25426700  0.96934500  1
  F  F12  1  0.64851800  0.72533300  0.54830500  1
  F  F13  1  0.71990600  0.78618100  0.86791700  1
  F  F14  1  0.36757400  0.22764000  0.14324700  1
  F  F15  1  0.27970800  0.25765900  0.77051100  1
  F  F16  1  0.23180600  0.77810300  0.01973800  1
  F  F17  1  0.22137500  0.76672900  0.69971100  1
  F  F18  1  0.21281300  0.75099500  0.38448400  1
