# generated using pymatgen
data_Gd3NbO7
_symmetry_space_group_name_H-M   'P 1'
_cell_length_a   6.55239857
_cell_length_b   6.55239857
_cell_length_c   7.60520200
_cell_angle_alpha   90.00000000
_cell_angle_beta   90.00000000
_cell_angle_gamma   110.71413354
_symmetry_Int_Tables_number   1
_chemical_formula_structural   Gd3NbO7
_chemical_formula_sum   'Gd6 Nb2 O14'
_cell_volume   305.41381556
_cell_formula_units_Z   2
loop_
 _symmetry_equiv_pos_site_id
 _symmetry_equiv_pos_as_xyz
  1  'x, y, z'
loop_
 _atom_site_type_symbol
 _atom_site_label
 _atom_site_symmetry_multiplicity
 _atom_site_fract_x
 _atom_site_fract_y
 _atom_site_fract_z
 _atom_site_occupancy
  Gd  Gd0  1  0.51884000  0.06060400  0.25000000  1
  Gd  Gd1  1  0.93939600  0.48116000  0.75000000  1
  Gd  Gd2  1  0.00000000  0.00000000  0.00000000  1
  Gd  Gd3  1  0.00000000  0.00000000  0.50000000  1
  Gd  Gd4  1  0.06060400  0.51884000  0.25000000  1
  Gd  Gd5  1  0.48116000  0.93939600  0.75000000  1
  Nb  Nb6  1  0.50000000  0.50000000  0.00000000  1
  Nb  Nb7  1  0.50000000  0.50000000  0.50000000  1
  O  O8  1  0.84559000  0.10920200  0.75000000  1
  O  O9  1  0.89079800  0.15441000  0.25000000  1
  O  O10  1  0.43743700  0.17972200  0.53737600  1
  O  O11  1  0.82027800  0.56256300  0.03737600  1
  O  O12  1  0.82027800  0.56256300  0.46262400  1
  O  O13  1  0.43743700  0.17972200  0.96262400  1
  O  O14  1  0.58068700  0.58068700  0.75000000  1
  O  O15  1  0.41931300  0.41931300  0.25000000  1
  O  O16  1  0.17972200  0.43743700  0.96262400  1
  O  O17  1  0.56256300  0.82027800  0.03737600  1
  O  O18  1  0.17972200  0.43743700  0.53737600  1
  O  O19  1  0.56256300  0.82027800  0.46262400  1
  O  O20  1  0.10920200  0.84559000  0.75000000  1
  O  O21  1  0.15441000  0.89079800  0.25000000  1
