# generated using pymatgen
data_SrCrO3
_symmetry_space_group_name_H-M   'P 1'
_cell_length_a   5.54373900
_cell_length_b   5.55191544
_cell_length_c   32.25815788
_cell_angle_alpha   90.07578100
_cell_angle_beta   90.00958596
_cell_angle_gamma   119.89870502
_symmetry_Int_Tables_number   1
_chemical_formula_structural   SrCrO3
_chemical_formula_sum   'Sr14 Cr14 O42'
_cell_volume   860.71153433
_cell_formula_units_Z   14
loop_
 _symmetry_equiv_pos_site_id
 _symmetry_equiv_pos_as_xyz
  1  'x, y, z'
loop_
 _atom_site_type_symbol
 _atom_site_label
 _atom_site_symmetry_multiplicity
 _atom_site_fract_x
 _atom_site_fract_y
 _atom_site_fract_z
 _atom_site_occupancy
  Sr  Sr0  1  0.66652800  0.33291900  0.03983500  1
  Sr  Sr1  1  0.66638500  0.33338600  0.17675400  1
  Sr  Sr2  1  0.66326300  0.33244100  0.75000400  1
  Sr  Sr3  1  0.00077500  0.00273400  0.10566900  1
  Sr  Sr4  1  0.00419300  0.00531700  0.39410900  1
  Sr  Sr5  1  0.00553100  0.00286200  0.60574400  1
  Sr  Sr6  1  0.66758800  0.33453800  0.32319900  1
  Sr  Sr7  1  0.66791400  0.33401700  0.45979700  1
  Sr  Sr8  1  0.00493000  0.00252700  0.89446500  1
  Sr  Sr9  1  0.33148600  0.66263500  0.25006000  1
  Sr  Sr10  1  0.33295800  0.66653700  0.54013800  1
  Sr  Sr11  1  0.33501600  0.66736100  0.67659700  1
  Sr  Sr12  1  0.33436800  0.66800500  0.82354000  1
  Sr  Sr13  1  0.33280400  0.66726700  0.96018400  1
  Cr  Cr14  1  0.67669000  0.33788700  0.56587200  1
  Cr  Cr15  1  0.67583000  0.33886700  0.64538100  1
  Cr  Cr16  1  0.00361600  0.00500600  0.00007100  1
  Cr  Cr17  1  0.00162000  0.00333200  0.21071500  1
  Cr  Cr18  1  0.00215500  0.00381200  0.28936100  1
  Cr  Cr19  1  0.00535500  0.00666100  0.49992600  1
  Cr  Cr20  1  0.00467800  0.00457100  0.71066300  1
  Cr  Cr21  1  0.00384600  0.00471200  0.78939500  1
  Cr  Cr22  1  0.67525300  0.33886300  0.85443100  1
  Cr  Cr23  1  0.67634200  0.33695400  0.93392800  1
  Cr  Cr24  1  0.33480000  0.67443800  0.06600300  1
  Cr  Cr25  1  0.33528500  0.67263300  0.14559100  1
  Cr  Cr26  1  0.33825300  0.67500000  0.35461100  1
  Cr  Cr27  1  0.33904700  0.67735900  0.43413000  1
  O  O28  1  0.84725800  0.69421700  0.25002700  1
  O  O29  1  0.82715000  0.66345200  0.67734000  1
  O  O30  1  0.82467300  0.66100500  0.82261100  1
  O  O31  1  0.82729900  0.66701000  0.53442800  1
  O  O32  1  0.83034400  0.66691400  0.96547600  1
  O  O33  1  0.51392400  0.48362700  0.60620000  1
  O  O34  1  0.51372000  0.48421000  0.89386900  1
  O  O35  1  0.32665200  0.16032900  0.82152700  1
  O  O36  1  0.30810000  0.15128300  0.25020000  1
  O  O37  1  0.31693400  0.15785600  0.53435400  1
  O  O38  1  0.98495100  0.49232400  0.60570200  1
  O  O39  1  0.98470700  0.49269900  0.89397100  1
  O  O40  1  0.31915200  0.15840900  0.96573300  1
  O  O41  1  0.32816300  0.16192100  0.67859800  1
  O  O42  1  0.51513500  0.03082400  0.60591100  1
  O  O43  1  0.51523800  0.03087300  0.89395300  1
  O  O44  1  0.15119000  0.84497500  0.75027700  1
  O  O45  1  0.82429700  0.16319700  0.53446600  1
  O  O46  1  0.82690100  0.16373800  0.96532500  1
  O  O47  1  0.16283800  0.82704100  0.17758100  1
  O  O48  1  0.16319500  0.82691300  0.32268800  1
  O  O49  1  0.82716200  0.16164700  0.67737500  1
  O  O50  1  0.82520900  0.16029500  0.82208500  1
  O  O51  1  0.16439200  0.82958600  0.03474700  1
  O  O52  1  0.16240800  0.82479200  0.46538800  1
  O  O53  1  0.84396400  0.15189200  0.25001700  1
  O  O54  1  0.49029700  0.98033500  0.10556200  1
  O  O55  1  0.49255300  0.98350700  0.39448900  1
  O  O56  1  0.69514500  0.84679000  0.74984800  1
  O  O57  1  0.67115700  0.83316500  0.03404800  1
  O  O58  1  0.66738200  0.82944400  0.46579400  1
  O  O59  1  0.02780400  0.51276500  0.10663200  1
  O  O60  1  0.03085200  0.51428900  0.39369400  1
  O  O61  1  0.66391400  0.82681800  0.17739300  1
  O  O62  1  0.66480300  0.82699400  0.32252900  1
  O  O63  1  0.48431200  0.51319700  0.10620500  1
  O  O64  1  0.48592700  0.51463900  0.39383200  1
  O  O65  1  0.16267900  0.32817800  0.03400900  1
  O  O66  1  0.15880600  0.32135000  0.46599800  1
  O  O67  1  0.16443700  0.32755000  0.17886100  1
  O  O68  1  0.16470800  0.32755600  0.32138900  1
  O  O69  1  0.15425800  0.31025000  0.74968900  1
