# generated using pymatgen
data_As4H24C8S7N2
_symmetry_space_group_name_H-M   'P 1'
_cell_length_a   10.02894979
_cell_length_b   17.16033503
_cell_length_c   14.33428828
_cell_angle_alpha   90.00000000
_cell_angle_beta   97.15566571
_cell_angle_gamma   90.00000000
_symmetry_Int_Tables_number   1
_chemical_formula_structural   As4H24C8S7N2
_chemical_formula_sum   'As16 H96 C32 S28 N8'
_cell_volume   2447.71900266
_cell_formula_units_Z   4
loop_
 _symmetry_equiv_pos_site_id
 _symmetry_equiv_pos_as_xyz
  1  'x, y, z'
loop_
 _atom_site_type_symbol
 _atom_site_label
 _atom_site_symmetry_multiplicity
 _atom_site_fract_x
 _atom_site_fract_y
 _atom_site_fract_z
 _atom_site_occupancy
  As  As0  1  0.05131932  0.23585930  0.78630507  1
  As  As1  1  0.10378276  0.75126024  0.66534852  1
  As  As2  1  0.20631219  0.30813331  0.26129648  1
  As  As3  1  0.28216202  0.76850103  0.47428135  1
  As  As4  1  0.21783798  0.26850103  0.02571865  1
  As  As5  1  0.39621724  0.25126024  0.83465148  1
  As  As6  1  0.29368781  0.80813331  0.23870352  1
  As  As7  1  0.44868068  0.73585930  0.71369493  1
  As  As8  1  0.55131932  0.26414070  0.28630507  1
  As  As9  1  0.70631219  0.19186669  0.76129648  1
  As  As10  1  0.60378276  0.74873976  0.16534852  1
  As  As11  1  0.78216202  0.73149897  0.97428135  1
  As  As12  1  0.71783798  0.23149897  0.52571865  1
  As  As13  1  0.79368781  0.69186669  0.73870352  1
  As  As14  1  0.89621724  0.24873976  0.33465148  1
  As  As15  1  0.94868068  0.76414070  0.21369493  1
  H  H16  1  0.02860784  0.94304275  0.89324164  1
  H  H17  1  0.10755997  0.03641252  0.87865844  1
  H  H18  1  0.04757470  0.45203181  0.57964441  1
  H  H19  1  0.11748013  0.95962281  0.79399210  1
  H  H20  1  0.15002113  0.83495158  0.95021153  1
  H  H21  1  0.05694920  0.06941424  0.37793749  1
  H  H22  1  0.16911393  0.53150345  0.92146498  1
  H  H23  1  0.14724069  0.44912785  0.69249172  1
  H  H24  1  0.14348312  0.53674115  0.62336407  1
  H  H25  1  0.03270674  0.60376636  0.02004016  1
  H  H26  1  0.11630816  0.15684425  0.50487334  1
  H  H27  1  0.21239956  0.66676924  0.94274556  1
  H  H28  1  0.08036559  0.53388218  0.11367706  1
  H  H29  1  0.15698526  0.01249068  0.54008749  1
  H  H30  1  0.16849957  0.33414566  0.53617625  1
  H  H31  1  0.10602161  0.63642131  0.13421040  1
  H  H32  1  0.23849696  0.83664198  0.84828909  1
  H  H33  1  0.16347285  0.44499907  0.43473073  1
  H  H34  1  0.18217940  0.00602128  0.33779264  1
  H  H35  1  0.17694358  0.10729874  0.30674034  1
  H  H36  1  0.26150304  0.33664198  0.65171091  1
  H  H37  1  0.33150043  0.83414566  0.96382375  1
  H  H38  1  0.23569891  0.20592701  0.44186741  1
  H  H39  1  0.34301474  0.51249068  0.95991251  1
  H  H40  1  0.24328715  0.53501911  0.47530511  1
  H  H41  1  0.15762055  0.95241170  0.05216705  1
  H  H42  1  0.28760044  0.16676924  0.55725444  1
  H  H43  1  0.38369184  0.65684425  0.99512666  1
  H  H44  1  0.28338185  0.96359475  0.48406260  1
  H  H45  1  0.35651688  0.03674115  0.87663593  1
  H  H46  1  0.35275931  0.94912785  0.80750828  1
  H  H47  1  0.21661815  0.46359475  0.01593740  1
  H  H48  1  0.33088607  0.03150345  0.57853502  1
  H  H49  1  0.34997887  0.33495158  0.54978847  1
  H  H50  1  0.34237945  0.45241170  0.44783295  1
  H  H51  1  0.25671285  0.03501911  0.02469489  1
  H  H52  1  0.38251987  0.45962281  0.70600790  1
  H  H53  1  0.26430109  0.70592701  0.05813259  1
  H  H54  1  0.45242530  0.95203181  0.92035559  1
  H  H55  1  0.39244003  0.53641252  0.62134156  1
  H  H56  1  0.32305642  0.60729874  0.19325966  1
  H  H57  1  0.31782060  0.50602128  0.16220736  1
  H  H58  1  0.33652715  0.94499907  0.06526927  1
  H  H59  1  0.39397839  0.13642131  0.36578960  1
  H  H60  1  0.41963441  0.03388218  0.38632294  1
  H  H61  1  0.47139216  0.44304275  0.60675836  1
  H  H62  1  0.46729326  0.10376636  0.47995984  1
  H  H63  1  0.55694920  0.43058576  0.87793749  1
  H  H64  1  0.44305080  0.56941424  0.12206251  1
  H  H65  1  0.53270674  0.89623364  0.52004016  1
  H  H66  1  0.52860784  0.55695725  0.39324164  1
  H  H67  1  0.58036559  0.96611782  0.61367706  1
  H  H68  1  0.60602161  0.86357869  0.63421040  1
  H  H69  1  0.66347285  0.05500093  0.93473073  1
  H  H70  1  0.68217940  0.49397872  0.83779264  1
  H  H71  1  0.67694358  0.39270126  0.80674034  1
  H  H72  1  0.60755997  0.46358748  0.37865844  1
  H  H73  1  0.54757470  0.04796819  0.07964441  1
  H  H74  1  0.73569891  0.29407299  0.94186741  1
  H  H75  1  0.61748013  0.54037719  0.29399210  1
  H  H76  1  0.74328715  0.96498089  0.97530511  1
  H  H77  1  0.65762055  0.54758830  0.55216705  1
  H  H78  1  0.65002113  0.66504842  0.45021153  1
  H  H79  1  0.66911393  0.96849655  0.42146498  1
  H  H80  1  0.78338185  0.53640525  0.98406260  1
  H  H81  1  0.64724069  0.05087215  0.19249172  1
  H  H82  1  0.64348312  0.96325885  0.12336407  1
  H  H83  1  0.71661815  0.03640525  0.51593740  1
  H  H84  1  0.61630816  0.34315575  0.00487334  1
  H  H85  1  0.71239956  0.83323076  0.44274556  1
  H  H86  1  0.84237945  0.04758830  0.94783295  1
  H  H87  1  0.75671285  0.46498089  0.52469489  1
  H  H88  1  0.65698526  0.48750932  0.04008749  1
  H  H89  1  0.76430109  0.79407299  0.55813259  1
  H  H90  1  0.66849957  0.16585434  0.03617625  1
  H  H91  1  0.73849696  0.66335802  0.34828909  1
  H  H92  1  0.82305642  0.89270126  0.69325966  1
  H  H93  1  0.81782060  0.99397872  0.66220736  1
  H  H94  1  0.83652715  0.55500093  0.56526927  1
  H  H95  1  0.76150304  0.16335802  0.15171091  1
  H  H96  1  0.89397839  0.36357869  0.86578960  1
  H  H97  1  0.83150043  0.66585434  0.46382375  1
  H  H98  1  0.84301474  0.98750932  0.45991251  1
  H  H99  1  0.91963441  0.46611782  0.88632294  1
  H  H100  1  0.78760044  0.33323076  0.05725444  1
  H  H101  1  0.88369184  0.84315575  0.49512666  1
  H  H102  1  0.96729326  0.39623364  0.97995984  1
  H  H103  1  0.85651688  0.46325885  0.37663593  1
  H  H104  1  0.85275931  0.55087215  0.30750828  1
  H  H105  1  0.83088607  0.46849655  0.07853502  1
  H  H106  1  0.94305080  0.93058576  0.62206251  1
  H  H107  1  0.84997887  0.16504842  0.04978847  1
  H  H108  1  0.88251987  0.04037719  0.20600790  1
  H  H109  1  0.95242530  0.54796819  0.42035559  1
  H  H110  1  0.89244003  0.96358748  0.12134156  1
  H  H111  1  0.97139216  0.05695725  0.10675836  1
  C  C112  1  0.11395770  0.97326316  0.86830224  1
  C  C113  1  0.14007680  0.47288507  0.62103390  1
  C  C114  1  0.24295241  0.51784923  0.98234241  1
  C  C115  1  0.24014715  0.85557161  0.92144242  1
  C  C116  1  0.10413761  0.58962001  0.08190470  1
  C  C117  1  0.16060290  0.06494820  0.36160857  1
  C  C118  1  0.22135328  0.15861265  0.49105164  1
  C  C119  1  0.25985285  0.35557161  0.57855758  1
  C  C120  1  0.25704759  0.01784923  0.51765759  1
  C  C121  1  0.25113840  0.47125492  0.47646488  1
  C  C122  1  0.35992320  0.97288507  0.87896610  1
  C  C123  1  0.24886160  0.97125492  0.02353512  1
  C  C124  1  0.38604230  0.47326316  0.63169776  1
  C  C125  1  0.27864672  0.65861265  0.00894836  1
  C  C126  1  0.33939710  0.56494820  0.13839143  1
  C  C127  1  0.39586239  0.08962001  0.41809530  1
  C  C128  1  0.60413761  0.91037999  0.58190470  1
  C  C129  1  0.66060290  0.43505180  0.86160857  1
  C  C130  1  0.72135328  0.34138735  0.99105164  1
  C  C131  1  0.61395770  0.52673684  0.36830224  1
  C  C132  1  0.75113840  0.02874508  0.97646488  1
  C  C133  1  0.64007680  0.02711493  0.12103390  1
  C  C134  1  0.74886160  0.52874508  0.52353512  1
  C  C135  1  0.74295241  0.98215077  0.48234241  1
  C  C136  1  0.74014715  0.64442839  0.42144242  1
  C  C137  1  0.77864672  0.84138735  0.50894836  1
  C  C138  1  0.83939710  0.93505180  0.63839143  1
  C  C139  1  0.89586239  0.41037999  0.91809530  1
  C  C140  1  0.75985285  0.14442839  0.07855758  1
  C  C141  1  0.75704759  0.48215077  0.01765759  1
  C  C142  1  0.85992320  0.52711493  0.37896610  1
  C  C143  1  0.88604230  0.02673684  0.13169776  1
  S  S144  1  0.04544198  0.19860958  0.94191282  1
  S  S145  1  0.10369879  0.69766707  0.51425973  1
  S  S146  1  0.06799754  0.39303874  0.19374447  1
  S  S147  1  0.08959375  0.86228961  0.27433286  1
  S  S148  1  0.23499171  0.17084942  0.74956336  1
  S  S149  1  0.21937562  0.85792560  0.65139483  1
  S  S150  1  0.28062438  0.35792560  0.84860517  1
  S  S151  1  0.26500829  0.67084942  0.75043664  1
  S  S152  1  0.20011224  0.19871827  0.15998311  1
  S  S153  1  0.39630121  0.19766707  0.98574027  1
  S  S154  1  0.29988776  0.69871827  0.34001689  1
  S  S155  1  0.45455802  0.69860958  0.55808718  1
  S  S156  1  0.41040725  0.36228961  0.22566714  1
  S  S157  1  0.43200246  0.89303874  0.30625553  1
  S  S158  1  0.56799754  0.10696126  0.69374447  1
  S  S159  1  0.58959375  0.63771039  0.77433286  1
  S  S160  1  0.54544198  0.30139042  0.44191282  1
  S  S161  1  0.70011224  0.30128173  0.65998311  1
  S  S162  1  0.60369879  0.80233293  0.01425973  1
  S  S163  1  0.79988776  0.80128173  0.84001689  1
  S  S164  1  0.73499171  0.32915058  0.24956336  1
  S  S165  1  0.71937562  0.64207440  0.15139483  1
  S  S166  1  0.78062438  0.14207440  0.34860517  1
  S  S167  1  0.76500829  0.82915058  0.25043664  1
  S  S168  1  0.91040625  0.13771039  0.72566714  1
  S  S169  1  0.93200246  0.60696126  0.80625553  1
  S  S170  1  0.89630121  0.30233293  0.48574027  1
  S  S171  1  0.95455802  0.80139042  0.05808718  1
  N  N172  1  0.24125430  0.94327456  0.92359604  1
  N  N173  1  0.25874570  0.44327456  0.57640396  1
  N  N174  1  0.25751195  0.08303665  0.44751099  1
  N  N175  1  0.24248805  0.58303665  0.05248901  1
  N  N176  1  0.75751195  0.41696335  0.94751099  1
  N  N177  1  0.74248805  0.91696335  0.55248901  1
  N  N178  1  0.74125430  0.55672544  0.42359604  1
  N  N179  1  0.75874570  0.05672544  0.07640396  1
