data_image0
_chemical_formula_structural       C2Cl2Cu2O2
_chemical_formula_sum              "C2 Cl2 Cu2 O2"
_cell_length_a       3.65384
_cell_length_b       8.14295
_cell_length_c       4.91976
_cell_angle_alpha    90
_cell_angle_beta     90
_cell_angle_gamma    90

_space_group_name_H-M_alt    "P 1"
_space_group_IT_number       1

loop_
  _space_group_symop_operation_xyz
  'x, y, z'

loop_
  _atom_site_type_symbol
  _atom_site_label
  _atom_site_symmetry_multiplicity
  _atom_site_fract_x
  _atom_site_fract_y
  _atom_site_fract_z
  _atom_site_occupancy
  C   C1        1.0  0.50000  0.67800  0.28700  1.0000
  C   C2        1.0  0.00000  0.32200  0.78700  1.0000
  Cl  Cl1       1.0  0.50000  0.12100  0.30100  1.0000
  Cl  Cl2       1.0  0.00000  0.87900  0.80100  1.0000
  Cu  Cu1       1.0  0.00000  0.14100  0.99900  1.0000
  Cu  Cu2       1.0  0.50000  0.85900  0.49900  1.0000
  O   O1        1.0  0.50000  0.56000  0.15800  1.0000
  O   O2        1.0  0.00000  0.44000  0.65800  1.0000
