# generated using pymatgen
data_LiNi(SO4)2
_symmetry_space_group_name_H-M   'P 1'
_cell_length_a   9.08003700
_cell_length_b   9.22061900
_cell_length_c   13.74807800
_cell_angle_alpha   89.73866881
_cell_angle_beta   90.00000000
_cell_angle_gamma   90.00000000
_symmetry_Int_Tables_number   1
_chemical_formula_structural   LiNi(SO4)2
_chemical_formula_sum   'Li8 Ni8 S16 O64'
_cell_volume   1151.02608399
_cell_formula_units_Z   8
loop_
 _symmetry_equiv_pos_site_id
 _symmetry_equiv_pos_as_xyz
  1  'x, y, z'
loop_
 _atom_site_type_symbol
 _atom_site_label
 _atom_site_symmetry_multiplicity
 _atom_site_fract_x
 _atom_site_fract_y
 _atom_site_fract_z
 _atom_site_occupancy
  Li  Li0  1  0.03492400  0.95269800  0.37389700  1
  Li  Li1  1  0.96507600  0.95269800  0.87389700  1
  Li  Li2  1  0.53578900  0.54734600  0.37559000  1
  Li  Li3  1  0.46421100  0.54734600  0.87559000  1
  Li  Li4  1  0.79728600  0.23211800  0.12681400  1
  Li  Li5  1  0.20271400  0.23211800  0.62681400  1
  Li  Li6  1  0.47501800  0.04023500  0.62641000  1
  Li  Li7  1  0.52498200  0.04023500  0.12641000  1
  Ni  Ni8  1  0.14284500  0.86064500  0.12298200  1
  Ni  Ni9  1  0.85715500  0.86064500  0.62298200  1
  Ni  Ni10  1  0.64349600  0.63835500  0.12365300  1
  Ni  Ni11  1  0.35650400  0.63835500  0.62365300  1
  Ni  Ni12  1  0.14308900  0.36057600  0.37549400  1
  Ni  Ni13  1  0.85691100  0.36057600  0.87549400  1
  Ni  Ni14  1  0.64506200  0.13892000  0.37611700  1
  Ni  Ni15  1  0.35493800  0.13892000  0.87611700  1
  S  S16  1  0.18343100  0.92174400  0.72601600  1
  S  S17  1  0.81656900  0.92174400  0.22601600  1
  S  S18  1  0.56518200  0.83983100  0.49081300  1
  S  S19  1  0.43481800  0.83983100  0.99081300  1
  S  S20  1  0.06341000  0.65666100  0.49246900  1
  S  S21  1  0.93659000  0.65666100  0.99246900  1
  S  S22  1  0.31786100  0.57729000  0.22648000  1
  S  S23  1  0.68213900  0.57729000  0.72648000  1
  S  S24  1  0.81822300  0.42555000  0.27506700  1
  S  S25  1  0.18177700  0.42555000  0.77506700  1
  S  S26  1  0.56391700  0.33946800  0.00950700  1
  S  S27  1  0.43608300  0.33946800  0.50950700  1
  S  S28  1  0.06581400  0.15948400  0.00919400  1
  S  S29  1  0.93418600  0.15948400  0.50919400  1
  S  S30  1  0.68359000  0.07793100  0.77254600  1
  S  S31  1  0.31641000  0.07793100  0.27254600  1
  O  O32  1  0.54947300  0.00000000  0.47625100  1
  O  O33  1  0.45052700  0.00000000  0.97625100  1
  O  O34  1  0.25289000  0.98552300  0.34879700  1
  O  O35  1  0.74711000  0.98552300  0.84879700  1
  O  O36  1  0.78588300  0.97835000  0.32632600  1
  O  O37  1  0.21411700  0.97835000  0.82632600  1
  O  O38  1  0.01775800  0.92084200  0.72197200  1
  O  O39  1  0.98224200  0.92084200  0.22197200  1
  O  O40  1  0.52346100  0.81328600  0.08151800  1
  O  O41  1  0.47653900  0.81328600  0.58151800  1
  O  O42  1  0.27887600  0.79923800  0.01167200  1
  O  O43  1  0.72112400  0.79923800  0.51167200  1
  O  O44  1  0.24453200  0.77398700  0.71918400  1
  O  O45  1  0.75546800  0.77398700  0.21918400  1
  O  O46  1  0.51576400  0.75748800  0.40685300  1
  O  O47  1  0.48423600  0.75748800  0.90685300  1
  O  O48  1  0.01802200  0.74255800  0.40782800  1
  O  O49  1  0.98197800  0.74255800  0.90782800  1
  O  O50  1  0.25573800  0.72625100  0.21927600  1
  O  O51  1  0.74426200  0.72625100  0.71927600  1
  O  O52  1  0.22008100  0.69710900  0.51285700  1
  O  O53  1  0.77991900  0.69710900  0.01285700  1
  O  O54  1  0.02586500  0.68548700  0.08117300  1
  O  O55  1  0.97413500  0.68548700  0.58117300  1
  O  O56  1  0.48404400  0.58231800  0.22519700  1
  O  O57  1  0.51595600  0.58231800  0.72519700  1
  O  O58  1  0.71485300  0.52031100  0.82655100  1
  O  O59  1  0.28514700  0.52031100  0.32655100  1
  O  O60  1  0.75143200  0.51479000  0.35013400  1
  O  O61  1  0.24856800  0.51479000  0.85013400  1
  O  O62  1  0.04733400  0.49867800  0.47469400  1
  O  O63  1  0.95266600  0.49867800  0.97469400  1
  O  O64  1  0.54739000  0.49931700  0.02462100  1
  O  O65  1  0.45261000  0.49931700  0.52462100  1
  O  O66  1  0.74177400  0.48696400  0.64865200  1
  O  O67  1  0.25822600  0.48696400  0.14865200  1
  O  O68  1  0.78326500  0.47749400  0.17337700  1
  O  O69  1  0.21673500  0.47749400  0.67337700  1
  O  O70  1  0.98217200  0.42528300  0.27930500  1
  O  O71  1  0.01782800  0.42528300  0.77930500  1
  O  O72  1  0.52331700  0.31300900  0.41935600  1
  O  O73  1  0.47668300  0.31300900  0.91935600  1
  O  O74  1  0.72225900  0.30118500  0.99012700  1
  O  O75  1  0.27774100  0.30118500  0.49012700  1
  O  O76  1  0.76095100  0.27226200  0.27667700  1
  O  O77  1  0.23904900  0.27226200  0.77667700  1
  O  O78  1  0.52007600  0.25494700  0.09487800  1
  O  O79  1  0.47992400  0.25494700  0.59487800  1
  O  O80  1  0.00873500  0.23544100  0.09368700  1
  O  O81  1  0.99126500  0.23544100  0.59368700  1
  O  O82  1  0.74390600  0.22725700  0.77884600  1
  O  O83  1  0.25609400  0.22725700  0.27884600  1
  O  O84  1  0.77943300  0.20036100  0.49000100  1
  O  O85  1  0.22056700  0.20036100  0.99000100  1
  O  O86  1  0.02357100  0.18484500  0.41810300  1
  O  O87  1  0.97642900  0.18484500  0.91810300  1
  O  O88  1  0.51805600  0.07924800  0.77581400  1
  O  O89  1  0.48194400  0.07924800  0.27581400  1
  O  O90  1  0.71621200  0.02129800  0.67231800  1
  O  O91  1  0.28378800  0.02129800  0.17231800  1
  O  O92  1  0.24670100  0.01789400  0.65045800  1
  O  O93  1  0.75329900  0.01789400  0.15045700  1
  O  O94  1  0.05149200  0.99722500  0.02152700  1
  O  O95  1  0.94850800  0.99722500  0.52152700  1
