# generated using pymatgen
data_Co2P2H12O13
_symmetry_space_group_name_H-M   'P 1'
_cell_length_a   18.52900100
_cell_length_b   7.24528000
_cell_length_c   10.33116361
_cell_angle_alpha   47.86615445
_cell_angle_beta   90.00000000
_cell_angle_gamma   90.00000000
_symmetry_Int_Tables_number   1
_chemical_formula_structural   Co2P2H12O13
_chemical_formula_sum   'Co8 P8 H48 O52'
_cell_volume   1028.52354701
_cell_formula_units_Z   4
loop_
 _symmetry_equiv_pos_site_id
 _symmetry_equiv_pos_as_xyz
  1  'x, y, z'
loop_
 _atom_site_type_symbol
 _atom_site_label
 _atom_site_symmetry_multiplicity
 _atom_site_fract_x
 _atom_site_fract_y
 _atom_site_fract_z
 _atom_site_occupancy
  Co  Co0  1  0.00000000  0.00000000  0.00000000  1
  Co  Co1  1  0.50000000  0.00000000  0.00000000  1
  Co  Co2  1  0.75563700  0.67535300  0.52438900  1
  Co  Co3  1  0.25563700  0.32464700  0.97561100  1
  Co  Co4  1  0.00000000  0.00000000  0.50000000  1
  Co  Co5  1  0.50000000  0.00000000  0.50000000  1
  Co  Co6  1  0.74436300  0.67535300  0.02438900  1
  Co  Co7  1  0.24436300  0.32464700  0.47561100  1
  P  P8  1  0.60408200  0.84868500  0.31828000  1
  P  P9  1  0.59764000  0.50152400  0.70080200  1
  P  P10  1  0.09764000  0.49847600  0.79919800  1
  P  P11  1  0.10408200  0.15131500  0.18172000  1
  P  P12  1  0.89591800  0.84868500  0.81828000  1
  P  P13  1  0.90236000  0.50152400  0.20080200  1
  P  P14  1  0.40236000  0.49847600  0.29919800  1
  P  P15  1  0.39591800  0.15131500  0.68172000  1
  H  H16  1  0.67339500  0.06762700  0.92747200  1
  H  H17  1  0.83551000  0.70475300  0.29570500  1
  H  H18  1  0.71219200  0.93590600  0.10641100  1
  H  H19  1  0.85334600  0.31622100  0.79014900  1
  H  H20  1  0.23281400  0.80382000  0.34767600  1
  H  H21  1  0.88903400  0.73533200  0.40433600  1
  H  H22  1  0.00872600  0.77952700  0.37979500  1
  H  H23  1  0.26739500  0.62777500  0.53779000  1
  H  H24  1  0.99696700  0.57358000  0.58963200  1
  H  H25  1  0.42817000  0.69107500  0.47687500  1
  H  H26  1  0.36916400  0.41820700  0.77639500  1
  H  H27  1  0.88659000  0.05348700  0.14238200  1
  H  H28  1  0.86916400  0.58179300  0.72360500  1
  H  H29  1  0.38659000  0.94651300  0.35761800  1
  H  H30  1  0.49696700  0.42642000  0.91036800  1
  H  H31  1  0.76739500  0.37222500  0.96221000  1
  H  H32  1  0.92817000  0.30892500  0.02312500  1
  H  H33  1  0.50872600  0.22047300  0.12020500  1
  H  H34  1  0.38903400  0.26466800  0.09566400  1
  H  H35  1  0.35334600  0.68377900  0.70985100  1
  H  H36  1  0.73281400  0.19618000  0.15232400  1
  H  H37  1  0.21219200  0.06409400  0.39358900  1
  H  H38  1  0.17339500  0.93237300  0.57252800  1
  H  H39  1  0.33551000  0.29524700  0.20429500  1
  H  H40  1  0.66449000  0.70475300  0.79570500  1
  H  H41  1  0.82660500  0.06762700  0.42747200  1
  H  H42  1  0.78780800  0.93590600  0.60641100  1
  H  H43  1  0.26718600  0.80382000  0.84767600  1
  H  H44  1  0.64665400  0.31622100  0.29014900  1
  H  H45  1  0.61096600  0.73533200  0.90433600  1
  H  H46  1  0.49127400  0.77952700  0.87979500  1
  H  H47  1  0.07183000  0.69107500  0.97687500  1
  H  H48  1  0.23260500  0.62777500  0.03779000  1
  H  H49  1  0.50303300  0.57358000  0.08963200  1
  H  H50  1  0.61341000  0.05348700  0.64238200  1
  H  H51  1  0.13083600  0.41820700  0.27639500  1
  H  H52  1  0.11341000  0.94651300  0.85761800  1
  H  H53  1  0.63083600  0.58179300  0.22360500  1
  H  H54  1  0.57183000  0.30892500  0.52312500  1
  H  H55  1  0.00303300  0.42642000  0.41036800  1
  H  H56  1  0.73260500  0.37222500  0.46221000  1
  H  H57  1  0.99127400  0.22047300  0.62020500  1
  H  H58  1  0.11096600  0.26466800  0.59566400  1
  H  H59  1  0.76718600  0.19618000  0.65232400  1
  H  H60  1  0.14665400  0.68377900  0.20985100  1
  H  H61  1  0.28780800  0.06409400  0.89358900  1
  H  H62  1  0.16449000  0.29524700  0.70429500  1
  H  H63  1  0.32660500  0.93237300  0.07252800  1
  O  O64  1  0.57520000  0.80853100  0.20015700  1
  O  O65  1  0.59010000  0.21900100  0.83579900  1
  O  O66  1  0.28053200  0.01620500  0.00764100  1
  O  O67  1  0.58727700  0.57767000  0.51233700  1
  O  O68  1  0.26030500  0.64845000  0.43454500  1
  O  O69  1  0.84132400  0.78696100  0.34374400  1
  O  O70  1  0.03794100  0.36436500  0.78669800  1
  O  O71  1  0.06569600  0.95148500  0.19572600  1
  O  O72  1  0.68703000  0.88315200  0.30164700  1
  O  O73  1  0.83009400  0.47377000  0.73933900  1
  O  O74  1  0.97613400  0.72733100  0.47653300  1
  O  O75  1  0.17326100  0.40497800  0.80485500  1
  O  O76  1  0.91971900  0.15915500  0.04122800  1
  O  O77  1  0.67326100  0.59502200  0.69514500  1
  O  O78  1  0.33009400  0.52623000  0.76066100  1
  O  O79  1  0.41971900  0.84084500  0.45877200  1
  O  O80  1  0.47613400  0.27266900  0.02346700  1
  O  O81  1  0.18703000  0.11684800  0.19835300  1
  O  O82  1  0.53794100  0.63563500  0.71330200  1
  O  O83  1  0.56569600  0.04851500  0.30427400  1
  O  O84  1  0.08727700  0.42233000  0.98766300  1
  O  O85  1  0.34132400  0.21303900  0.15625600  1
  O  O86  1  0.76030500  0.35155000  0.06545500  1
  O  O87  1  0.09010000  0.78099900  0.66420100  1
  O  O88  1  0.78053200  0.98379500  0.49235900  1
  O  O89  1  0.07520000  0.19146900  0.29984300  1
  O  O90  1  0.92480000  0.80853100  0.70015700  1
  O  O91  1  0.21946800  0.01620500  0.50764100  1
  O  O92  1  0.90990000  0.21900100  0.33579900  1
  O  O93  1  0.23969500  0.64845000  0.93454500  1
  O  O94  1  0.65867600  0.78696100  0.84374400  1
  O  O95  1  0.91272300  0.57767000  0.01233700  1
  O  O96  1  0.43430400  0.95148500  0.69572600  1
  O  O97  1  0.46205900  0.36436500  0.28669800  1
  O  O98  1  0.81297000  0.88315200  0.80164700  1
  O  O99  1  0.52386600  0.72733100  0.97653300  1
  O  O100  1  0.58028100  0.15915500  0.54122800  1
  O  O101  1  0.66990600  0.47377000  0.23933900  1
  O  O102  1  0.32673900  0.40497800  0.30485500  1
  O  O103  1  0.08028100  0.84084500  0.95877200  1
  O  O104  1  0.82673900  0.59502200  0.19514500  1
  O  O105  1  0.02386600  0.27266900  0.52346700  1
  O  O106  1  0.16990600  0.52623000  0.26066100  1
  O  O107  1  0.31297000  0.11684800  0.69835300  1
  O  O108  1  0.93430400  0.04851500  0.80427400  1
  O  O109  1  0.96205900  0.63563500  0.21330200  1
  O  O110  1  0.15867600  0.21303900  0.65625600  1
  O  O111  1  0.73969500  0.35155000  0.56545500  1
  O  O112  1  0.41272300  0.42233000  0.48766300  1
  O  O113  1  0.71946800  0.98379500  0.99235900  1
  O  O114  1  0.40990000  0.78099900  0.16420100  1
  O  O115  1  0.42480000  0.19146900  0.79984300  1
