# generated using pymatgen
data_NbO2
_symmetry_space_group_name_H-M   'P 1'
_cell_length_a   10.28562122
_cell_length_b   10.28562122
_cell_length_c   10.28562122
_cell_angle_alpha   95.02680351
_cell_angle_beta   95.02680351
_cell_angle_gamma   145.56380937
_symmetry_Int_Tables_number   1
_chemical_formula_structural   NbO2
_chemical_formula_sum   'Nb16 O32'
_cell_volume   587.76332836
_cell_formula_units_Z   16
loop_
 _symmetry_equiv_pos_site_id
 _symmetry_equiv_pos_as_xyz
  1  'x, y, z'
loop_
 _atom_site_type_symbol
 _atom_site_label
 _atom_site_symmetry_multiplicity
 _atom_site_fract_x
 _atom_site_fract_y
 _atom_site_fract_z
 _atom_site_occupancy
  Nb  Nb0  1  0.03025800  0.77100600  0.99074500  1
  Nb  Nb1  1  0.02100600  0.53026200  0.24074800  1
  Nb  Nb2  1  0.28951300  0.78025800  0.75925200  1
  Nb  Nb3  1  0.78026200  0.03951300  0.00925500  1
  Nb  Nb4  1  0.21974200  0.97899400  0.50925500  1
  Nb  Nb5  1  0.22899400  0.21973800  0.25925200  1
  Nb  Nb6  1  0.96048700  0.96974200  0.74074800  1
  Nb  Nb7  1  0.46973800  0.71048700  0.49074500  1
  Nb  Nb8  1  0.47526900  0.23594300  0.01266900  1
  Nb  Nb9  1  0.48594300  0.97327400  0.26067400  1
  Nb  Nb10  1  0.71260000  0.22526900  0.73932600  1
  Nb  Nb11  1  0.22327400  0.46260000  0.98733100  1
  Nb  Nb12  1  0.77473100  0.51405700  0.48733100  1
  Nb  Nb13  1  0.76405700  0.77672600  0.23932600  1
  Nb  Nb14  1  0.53740000  0.52473100  0.76067400  1
  Nb  Nb15  1  0.02672600  0.28740000  0.51266900  1
  O  O16  1  0.50783900  0.11914000  0.86194700  1
  O  O17  1  0.36914000  0.00719300  0.11130100  1
  O  O18  1  0.89589200  0.25783900  0.88869900  1
  O  O19  1  0.25719300  0.64589200  0.13805300  1
  O  O20  1  0.74216100  0.63086000  0.63805300  1
  O  O21  1  0.88086000  0.74280700  0.38869900  1
  O  O22  1  0.35410800  0.49216100  0.61130100  1
  O  O23  1  0.99280700  0.10410800  0.36194700  1
  O  O24  1  0.99851600  0.59983700  0.85120100  1
  O  O25  1  0.84983700  0.49863600  0.10132100  1
  O  O26  1  0.39731500  0.74851600  0.89867900  1
  O  O27  1  0.74863600  0.14731500  0.14879900  1
  O  O28  1  0.25148400  0.15016300  0.64879900  1
  O  O29  1  0.40016300  0.25136400  0.39867900  1
  O  O30  1  0.85268500  0.00148400  0.60132100  1
  O  O31  1  0.50136400  0.60268500  0.35120100  1
  O  O32  1  0.51183800  0.90121100  0.63722600  1
  O  O33  1  0.15121100  0.01398400  0.88937300  1
  O  O34  1  0.12461200  0.26183800  0.11062700  1
  O  O35  1  0.26398400  0.87461200  0.36277400  1
  O  O36  1  0.73816200  0.84878900  0.86277400  1
  O  O37  1  0.09878900  0.73601600  0.61062700  1
  O  O38  1  0.12538800  0.48816200  0.38937300  1
  O  O39  1  0.98601600  0.87538800  0.13722600  1
  O  O40  1  0.99677100  0.39730500  0.65272500  1
  O  O41  1  0.64730500  0.49458000  0.90053300  1
  O  O42  1  0.59404700  0.74677100  0.09946700  1
  O  O43  1  0.74458000  0.34404700  0.34727500  1
  O  O44  1  0.25322900  0.35269500  0.84727500  1
  O  O45  1  0.60269500  0.25542000  0.59946700  1
  O  O46  1  0.65595300  0.00322900  0.40053300  1
  O  O47  1  0.50542000  0.40595300  0.15272500  1
