# generated using pymatgen
data_Ba3Yb4O9
_symmetry_space_group_name_H-M   'P 1'
_cell_length_a   9.03865765
_cell_length_b   9.03865765
_cell_length_c   9.03865794
_cell_angle_alpha   40.37356208
_cell_angle_beta   40.37356208
_cell_angle_gamma   40.37356152
_symmetry_Int_Tables_number   1
_chemical_formula_structural   Ba3Yb4O9
_chemical_formula_sum   'Ba3 Yb4 O9'
_cell_volume   279.38447331
_cell_formula_units_Z   1
loop_
 _symmetry_equiv_pos_site_id
 _symmetry_equiv_pos_as_xyz
  1  'x, y, z'
loop_
 _atom_site_type_symbol
 _atom_site_label
 _atom_site_symmetry_multiplicity
 _atom_site_fract_x
 _atom_site_fract_y
 _atom_site_fract_z
 _atom_site_occupancy
  Ba  Ba0  1  0.00916000  0.00916000  0.00916000  1
  Ba  Ba1  1  0.17572000  0.17572000  0.17572000  1
  Ba  Ba2  1  0.58526200  0.58526200  0.58526200  1
  Yb  Yb3  1  0.43439300  0.43439300  0.43439300  1
  Yb  Yb4  1  0.87382800  0.87382800  0.87382800  1
  Yb  Yb5  1  0.75205300  0.75205300  0.75205300  1
  Yb  Yb6  1  0.31310800  0.31310800  0.31310800  1
  O  O7  1  0.61856400  0.44391600  0.05822600  1
  O  O8  1  0.05822600  0.61856400  0.44391600  1
  O  O9  1  0.44391600  0.05822600  0.61856400  1
  O  O10  1  0.73342700  0.57797500  0.13543700  1
  O  O11  1  0.13543700  0.73342700  0.57797500  1
  O  O12  1  0.57797500  0.13543700  0.73342700  1
  O  O13  1  0.59054300  0.02054500  0.16734100  1
  O  O14  1  0.02054500  0.16734100  0.59054300  1
  O  O15  1  0.16734100  0.59054300  0.02054500  1
