data_image0
_chemical_formula_structural       Cu2K2O4
_chemical_formula_sum              "Cu2 K2 O4"
_cell_length_a       4.28107
_cell_length_b       5.40494
_cell_length_c       6.17751
_cell_angle_alpha    90
_cell_angle_beta     69.7264
_cell_angle_gamma    90

_space_group_name_H-M_alt    "P 1"
_space_group_IT_number       1

loop_
  _space_group_symop_operation_xyz
  'x, y, z'

loop_
  _atom_site_type_symbol
  _atom_site_label
  _atom_site_symmetry_multiplicity
  _atom_site_fract_x
  _atom_site_fract_y
  _atom_site_fract_z
  _atom_site_occupancy
  Cu  Cu1       1.0  0.00220  0.75000  0.99600  1.0000
  Cu  Cu2       1.0  0.99800  0.25000  0.00441  1.0000
  K   K1        1.0  0.30000  0.75000  0.39900  1.0000
  K   K2        1.0  0.70000  0.25000  0.60100  1.0000
  O   O1        1.0  0.89400  0.99600  0.21200  1.0000
  O   O2        1.0  0.89400  0.50400  0.21200  1.0000
  O   O3        1.0  0.10600  0.00358  0.78800  1.0000
  O   O4        1.0  0.10600  0.49600  0.78800  1.0000
