# generated using pymatgen
data_Na3MnO3
_symmetry_space_group_name_H-M   'P 1'
_cell_length_a   4.36202800
_cell_length_b   9.71191700
_cell_length_c   9.71293000
_cell_angle_alpha   90.00092028
_cell_angle_beta   89.99994424
_cell_angle_gamma   89.99991930
_symmetry_Int_Tables_number   1
_chemical_formula_structural   Na3MnO3
_chemical_formula_sum   'Na12 Mn4 O12'
_cell_volume   411.47520473
_cell_formula_units_Z   4
loop_
 _symmetry_equiv_pos_site_id
 _symmetry_equiv_pos_as_xyz
  1  'x, y, z'
loop_
 _atom_site_type_symbol
 _atom_site_label
 _atom_site_symmetry_multiplicity
 _atom_site_fract_x
 _atom_site_fract_y
 _atom_site_fract_z
 _atom_site_occupancy
  Na  Na0  1  0.50000000  0.16036000  0.83966600  1
  Na  Na1  1  0.00001100  0.33964800  0.33966200  1
  Na  Na2  1  0.00000600  0.66033000  0.66036100  1
  Na  Na3  1  0.50000300  0.83966600  0.16036100  1
  Na  Na4  1  0.00000200  0.11782700  0.63383600  1
  Na  Na5  1  0.50000200  0.13377900  0.38221400  1
  Na  Na6  1  0.00000000  0.36624500  0.88222200  1
  Na  Na7  1  0.50000200  0.38218400  0.13381100  1
  Na  Na8  1  0.50000000  0.61780400  0.86619800  1
  Na  Na9  1  0.00000300  0.63375600  0.11781400  1
  Na  Na10  1  0.49999900  0.86624400  0.61780000  1
  Na  Na11  1  0.00001100  0.88219900  0.36620500  1
  Mn  Mn12  1  0.50001000  0.60952000  0.39036500  1
  Mn  Mn13  1  0.99999900  0.89046300  0.89038100  1
  Mn  Mn14  1  0.99995700  0.10966600  0.10973500  1
  Mn  Mn15  1  0.50000900  0.39036600  0.60972900  1
  O  O16  1  0.99998300  0.09391000  0.90600000  1
  O  O17  1  0.50001500  0.40608800  0.40601500  1
  O  O18  1  0.50001100  0.59401700  0.59393700  1
  O  O19  1  0.99998600  0.90598100  0.09391400  1
  O  O20  1  0.99998600  0.10487100  0.30426200  1
  O  O21  1  0.50000300  0.19564200  0.60486500  1
  O  O22  1  0.99998600  0.30434800  0.10486100  1
  O  O23  1  0.50000200  0.39513000  0.80426700  1
  O  O24  1  0.50000600  0.60491700  0.19566500  1
  O  O25  1  0.99999700  0.69554700  0.89512900  1
  O  O26  1  0.50001200  0.80445400  0.39513600  1
  O  O27  1  0.99999600  0.89507700  0.69563500  1
