# generated using pymatgen
data_Ta3AgO8
_symmetry_space_group_name_H-M   'P 1'
_cell_length_a   7.88279000
_cell_length_b   9.17149300
_cell_length_c   17.16001500
_cell_angle_alpha   90.00000000
_cell_angle_beta   90.00000000
_cell_angle_gamma   90.00000000
_symmetry_Int_Tables_number   1
_chemical_formula_structural   Ta3AgO8
_chemical_formula_sum   'Ta24 Ag8 O64'
_cell_volume   1240.61680318
_cell_formula_units_Z   8
loop_
 _symmetry_equiv_pos_site_id
 _symmetry_equiv_pos_as_xyz
  1  'x, y, z'
loop_
 _atom_site_type_symbol
 _atom_site_label
 _atom_site_symmetry_multiplicity
 _atom_site_fract_x
 _atom_site_fract_y
 _atom_site_fract_z
 _atom_site_occupancy
  Ta  Ta0  1  0.25017500  0.18809700  0.81065100  1
  Ta  Ta1  1  0.74982500  0.18809700  0.81065100  1
  Ta  Ta2  1  0.24849300  0.60274300  0.88582300  1
  Ta  Ta3  1  0.75150700  0.60274300  0.88582300  1
  Ta  Ta4  1  0.75035700  0.30998700  0.00000000  1
  Ta  Ta5  1  0.24722500  0.95065100  0.00000000  1
  Ta  Ta6  1  0.24964300  0.30998700  0.00000000  1
  Ta  Ta7  1  0.75277500  0.95065100  0.00000000  1
  Ta  Ta8  1  0.24849300  0.60274300  0.11417700  1
  Ta  Ta9  1  0.75150700  0.60274300  0.11417700  1
  Ta  Ta10  1  0.25017500  0.18809700  0.18934900  1
  Ta  Ta11  1  0.74982500  0.18809700  0.18934900  1
  Ta  Ta12  1  0.75017500  0.81190300  0.31065100  1
  Ta  Ta13  1  0.24982500  0.81190300  0.31065100  1
  Ta  Ta14  1  0.74849300  0.39725700  0.38582300  1
  Ta  Ta15  1  0.25150700  0.39725700  0.38582300  1
  Ta  Ta16  1  0.25035700  0.69001300  0.50000000  1
  Ta  Ta17  1  0.25277500  0.04934900  0.50000000  1
  Ta  Ta18  1  0.74722500  0.04934900  0.50000000  1
  Ta  Ta19  1  0.74964300  0.69001300  0.50000000  1
  Ta  Ta20  1  0.74849300  0.39725700  0.61417700  1
  Ta  Ta21  1  0.25150700  0.39725700  0.61417700  1
  Ta  Ta22  1  0.75017500  0.81190300  0.68934900  1
  Ta  Ta23  1  0.24982500  0.81190300  0.68934900  1
  Ag  Ag24  1  0.50000000  0.49777900  0.74988800  1
  Ag  Ag25  1  0.50000000  0.90524900  0.84152200  1
  Ag  Ag26  1  0.50000000  0.90524900  0.15847800  1
  Ag  Ag27  1  0.50000000  0.49777900  0.25011200  1
  Ag  Ag28  1  0.00000000  0.50222100  0.24988800  1
  Ag  Ag29  1  0.00000000  0.09475100  0.34152200  1
  Ag  Ag30  1  0.00000000  0.09475100  0.65847800  1
  Ag  Ag31  1  0.00000000  0.50222100  0.75011200  1
  O  O32  1  0.75000000  0.00000000  0.75000000  1
  O  O33  1  0.25000000  0.00000000  0.75000000  1
  O  O34  1  0.76318600  0.66923200  0.77466100  1
  O  O35  1  0.23681400  0.66923200  0.77466100  1
  O  O36  1  0.00000000  0.18916000  0.80392500  1
  O  O37  1  0.50000000  0.17572200  0.81550000  1
  O  O38  1  0.50000000  0.59482600  0.87638700  1
  O  O39  1  0.75142600  0.37925800  0.88130600  1
  O  O40  1  0.24857400  0.37925800  0.88130600  1
  O  O41  1  0.00000000  0.59961100  0.88817700  1
  O  O42  1  0.26214700  0.80515700  0.91810600  1
  O  O43  1  0.73785300  0.80515700  0.91810600  1
  O  O44  1  0.75906500  0.12564000  0.92466000  1
  O  O45  1  0.24093500  0.12564000  0.92466000  1
  O  O46  1  0.00000000  0.31577100  0.00000000  1
  O  O47  1  0.25897600  0.54049900  0.00000000  1
  O  O48  1  0.50000000  0.96610600  0.00000000  1
  O  O49  1  0.50000000  0.30469900  0.00000000  1
  O  O50  1  0.00000000  0.94457300  0.00000000  1
  O  O51  1  0.74102400  0.54049900  0.00000000  1
  O  O52  1  0.75906500  0.12564000  0.07534000  1
  O  O53  1  0.24093500  0.12564000  0.07534000  1
  O  O54  1  0.26214700  0.80515700  0.08189400  1
  O  O55  1  0.73785300  0.80515700  0.08189400  1
  O  O56  1  0.00000000  0.59961100  0.11182300  1
  O  O57  1  0.75142600  0.37925800  0.11869400  1
  O  O58  1  0.24857400  0.37925800  0.11869400  1
  O  O59  1  0.50000000  0.59482600  0.12361300  1
  O  O60  1  0.50000000  0.17572200  0.18450000  1
  O  O61  1  0.00000000  0.18916000  0.19607500  1
  O  O62  1  0.76318600  0.66923200  0.22533900  1
  O  O63  1  0.23681400  0.66923200  0.22533900  1
  O  O64  1  0.75000000  0.00000000  0.25000000  1
  O  O65  1  0.25000000  0.00000000  0.25000000  1
  O  O66  1  0.26318600  0.33076800  0.27466100  1
  O  O67  1  0.73681400  0.33076800  0.27466100  1
  O  O68  1  0.50000000  0.81084000  0.30392500  1
  O  O69  1  0.00000000  0.82427800  0.31550000  1
  O  O70  1  0.00000000  0.40517400  0.37638700  1
  O  O71  1  0.25142600  0.62074200  0.38130600  1
  O  O72  1  0.74857400  0.62074200  0.38130600  1
  O  O73  1  0.50000000  0.40038900  0.38817700  1
  O  O74  1  0.76214700  0.19484300  0.41810600  1
  O  O75  1  0.23785300  0.19484300  0.41810600  1
  O  O76  1  0.25906500  0.87436000  0.42466000  1
  O  O77  1  0.74093500  0.87436000  0.42466000  1
  O  O78  1  0.75897600  0.45950100  0.50000000  1
  O  O79  1  0.00000000  0.03389400  0.50000000  1
  O  O80  1  0.00000000  0.69530100  0.50000000  1
  O  O81  1  0.24102400  0.45950100  0.50000000  1
  O  O82  1  0.50000000  0.68422900  0.50000000  1
  O  O83  1  0.50000000  0.05542700  0.50000000  1
  O  O84  1  0.25906500  0.87436000  0.57534000  1
  O  O85  1  0.74093500  0.87436000  0.57534000  1
  O  O86  1  0.76214700  0.19484300  0.58189400  1
  O  O87  1  0.23785300  0.19484300  0.58189400  1
  O  O88  1  0.50000000  0.40038900  0.61182300  1
  O  O89  1  0.25142600  0.62074200  0.61869400  1
  O  O90  1  0.74857400  0.62074200  0.61869400  1
  O  O91  1  0.00000000  0.40517400  0.62361300  1
  O  O92  1  0.00000000  0.82427800  0.68450000  1
  O  O93  1  0.50000000  0.81084000  0.69607500  1
  O  O94  1  0.26318600  0.33076800  0.72533900  1
  O  O95  1  0.73681400  0.33076800  0.72533900  1
