# generated using pymatgen
data_Co6OF11
_symmetry_space_group_name_H-M   'P 1'
_cell_length_a   5.69865327
_cell_length_b   5.69865327
_cell_length_c   7.46449093
_cell_angle_alpha   72.83208211
_cell_angle_beta   72.83208211
_cell_angle_gamma   71.45847225
_symmetry_Int_Tables_number   1
_chemical_formula_structural   Co6OF11
_chemical_formula_sum   'Co6 O1 F11'
_cell_volume   214.09307509
_cell_formula_units_Z   1
loop_
 _symmetry_equiv_pos_site_id
 _symmetry_equiv_pos_as_xyz
  1  'x, y, z'
loop_
 _atom_site_type_symbol
 _atom_site_label
 _atom_site_symmetry_multiplicity
 _atom_site_fract_x
 _atom_site_fract_y
 _atom_site_fract_z
 _atom_site_occupancy
  Co  Co0  1  0.66859500  0.64880900  0.84218900  1
  Co  Co1  1  0.67176000  0.66409500  0.33370500  1
  Co  Co2  1  0.33590500  0.32824000  0.66629500  1
  Co  Co3  1  0.35119100  0.33140500  0.15781100  1
  Co  Co4  1  0.00227900  0.99772100  0.50000000  1
  Co  Co5  1  0.97813500  0.02186500  0.00000000  1
  O  O6  1  0.68700300  0.31299700  0.00000000  1
  F  F7  1  0.98192000  0.36243300  0.32896400  1
  F  F8  1  0.63756700  0.01808000  0.67103600  1
  F  F9  1  0.56440700  0.56516300  0.63059400  1
  F  F10  1  0.90150100  0.89726100  0.29961400  1
  F  F11  1  0.22919600  0.23179300  0.96474500  1
  F  F12  1  0.43483700  0.43559300  0.36940600  1
  F  F13  1  0.76820700  0.77080400  0.03525500  1
  F  F14  1  0.10273900  0.09849900  0.70038600  1
  F  F15  1  0.36820600  0.97346000  0.33047500  1
  F  F16  1  0.02654000  0.63179400  0.66952500  1
  F  F17  1  0.29001500  0.70998500  0.00000000  1
