# generated using pymatgen
data_Hf3Al2
_symmetry_space_group_name_H-M   'P 1'
_cell_length_a   7.58794700
_cell_length_b   7.58794700
_cell_length_c   6.87561800
_cell_angle_alpha   90.00000000
_cell_angle_beta   90.00000000
_cell_angle_gamma   90.00000000
_symmetry_Int_Tables_number   1
_chemical_formula_structural   Hf3Al2
_chemical_formula_sum   'Hf12 Al8'
_cell_volume   395.87704281
_cell_formula_units_Z   4
loop_
 _symmetry_equiv_pos_site_id
 _symmetry_equiv_pos_as_xyz
  1  'x, y, z'
loop_
 _atom_site_type_symbol
 _atom_site_label
 _atom_site_symmetry_multiplicity
 _atom_site_fract_x
 _atom_site_fract_y
 _atom_site_fract_z
 _atom_site_occupancy
  Hf  Hf0  1  0.34485900  0.34485900  0.00000000  1
  Hf  Hf1  1  0.84485900  0.15514100  0.50000000  1
  Hf  Hf2  1  0.15514100  0.84485900  0.50000000  1
  Hf  Hf3  1  0.65514100  0.65514100  0.00000000  1
  Hf  Hf4  1  0.79786700  0.20213300  0.00000000  1
  Hf  Hf5  1  0.70213300  0.70213300  0.50000000  1
  Hf  Hf6  1  0.29786700  0.29786700  0.50000000  1
  Hf  Hf7  1  0.20213300  0.79786700  0.00000000  1
  Hf  Hf8  1  0.50000000  0.00000000  0.25000000  1
  Hf  Hf9  1  0.50000000  0.00000000  0.75000000  1
  Hf  Hf10  1  0.00000000  0.50000000  0.25000000  1
  Hf  Hf11  1  0.00000000  0.50000000  0.75000000  1
  Al  Al12  1  0.12123200  0.12123200  0.20999700  1
  Al  Al13  1  0.62123200  0.37876800  0.70999700  1
  Al  Al14  1  0.37876800  0.62123200  0.70999700  1
  Al  Al15  1  0.87876800  0.87876800  0.20999700  1
  Al  Al16  1  0.37876800  0.62123200  0.29000300  1
  Al  Al17  1  0.62123200  0.37876800  0.29000300  1
  Al  Al18  1  0.12123200  0.12123200  0.79000300  1
  Al  Al19  1  0.87876800  0.87876800  0.79000300  1
