# generated using pymatgen
data_Fe10O9F11
_symmetry_space_group_name_H-M   'P 1'
_cell_length_a   15.38027600
_cell_length_b   4.78838900
_cell_length_c   4.79200993
_cell_angle_alpha   86.57165735
_cell_angle_beta   90.00000000
_cell_angle_gamma   90.00000000
_symmetry_Int_Tables_number   1
_chemical_formula_structural   Fe10O9F11
_chemical_formula_sum   'Fe10 O9 F11'
_cell_volume   352.28434123
_cell_formula_units_Z   1
loop_
 _symmetry_equiv_pos_site_id
 _symmetry_equiv_pos_as_xyz
  1  'x, y, z'
loop_
 _atom_site_type_symbol
 _atom_site_label
 _atom_site_symmetry_multiplicity
 _atom_site_fract_x
 _atom_site_fract_y
 _atom_site_fract_z
 _atom_site_occupancy
  Fe  Fe0  1  0.40290200  0.00689600  0.99290800  1
  Fe  Fe1  1  0.59709800  0.00689600  0.99290800  1
  Fe  Fe2  1  0.80489800  0.95833500  0.02283100  1
  Fe  Fe3  1  0.00000000  0.01036700  0.94368500  1
  Fe  Fe4  1  0.19510200  0.95833500  0.02283100  1
  Fe  Fe5  1  0.50000000  0.50184500  0.49813500  1
  Fe  Fe6  1  0.89772200  0.52755000  0.53204400  1
  Fe  Fe7  1  0.68960200  0.50739400  0.48354600  1
  Fe  Fe8  1  0.10227800  0.52755000  0.53204400  1
  Fe  Fe9  1  0.31039800  0.50739400  0.48354600  1
  O  O10  1  0.89964100  0.81041600  0.80797400  1
  O  O11  1  0.10035900  0.81041600  0.80797400  1
  O  O12  1  0.40138200  0.70400000  0.29350700  1
  O  O13  1  0.59861800  0.70400000  0.29350700  1
  O  O14  1  0.79941100  0.67861700  0.31921000  1
  O  O15  1  0.20058900  0.67861700  0.31921000  1
  O  O16  1  0.39880200  0.30510500  0.69174300  1
  O  O17  1  0.60119800  0.30510500  0.69174300  1
  O  O18  1  0.00000000  0.32341400  0.67681400  1
  F  F19  1  0.50000000  0.80101300  0.79030100  1
  F  F20  1  0.70511600  0.80040700  0.80745900  1
  F  F21  1  0.29488400  0.80040700  0.80745900  1
  F  F22  1  0.00000000  0.71425100  0.29689800  1
  F  F23  1  0.79918400  0.29220100  0.71335400  1
  F  F24  1  0.20081600  0.29220100  0.71335400  1
  F  F25  1  0.50000000  0.20934400  0.19798500  1
  F  F26  1  0.90124400  0.19109000  0.18936000  1
  F  F27  1  0.70702100  0.18787000  0.19415800  1
  F  F28  1  0.29297900  0.18787000  0.19415800  1
  F  F29  1  0.09875600  0.19109000  0.18936000  1
