# generated using pymatgen
data_Fe10O9F11
_symmetry_space_group_name_H-M   'P 1'
_cell_length_a   4.76279400
_cell_length_b   4.77013141
_cell_length_c   15.51832126
_cell_angle_alpha   89.97635414
_cell_angle_beta   89.95867759
_cell_angle_gamma   88.72047931
_symmetry_Int_Tables_number   1
_chemical_formula_structural   Fe10O9F11
_chemical_formula_sum   'Fe10 O9 F11'
_cell_volume   352.47508958
_cell_formula_units_Z   1
loop_
 _symmetry_equiv_pos_site_id
 _symmetry_equiv_pos_as_xyz
  1  'x, y, z'
loop_
 _atom_site_type_symbol
 _atom_site_label
 _atom_site_symmetry_multiplicity
 _atom_site_fract_x
 _atom_site_fract_y
 _atom_site_fract_z
 _atom_site_occupancy
  Fe  Fe0  1  0.98671300  0.01150000  0.99910600  1
  Fe  Fe1  1  0.04088900  0.97742200  0.79363600  1
  Fe  Fe2  1  0.98815300  0.05658500  0.59917200  1
  Fe  Fe3  1  0.04996900  0.99688000  0.40273300  1
  Fe  Fe4  1  0.03281000  0.98661200  0.20599300  1
  Fe  Fe5  1  0.48947800  0.51696500  0.90653900  1
  Fe  Fe6  1  0.48224000  0.48254700  0.50042400  1
  Fe  Fe7  1  0.47959900  0.47553800  0.70209400  1
  Fe  Fe8  1  0.45646400  0.49549200  0.29863800  1
  Fe  Fe9  1  0.49030400  0.51725100  0.09228100  1
  O  O10  1  0.18901300  0.19194500  0.69928200  1
  O  O11  1  0.19140600  0.19928300  0.50088100  1
  O  O12  1  0.19793700  0.18300400  0.30148400  1
  O  O13  1  0.29748500  0.70757000  0.99933200  1
  O  O14  1  0.31638300  0.68198200  0.79907900  1
  O  O15  1  0.31579200  0.68371400  0.40203000  1
  O  O16  1  0.30920500  0.68696300  0.19898200  1
  O  O17  1  0.68490200  0.32028100  0.99937300  1
  O  O18  1  0.67773000  0.32320100  0.60036900  1
  F  F19  1  0.20020100  0.19583700  0.89197200  1
  F  F20  1  0.19448500  0.20045100  0.10707500  1
  F  F21  1  0.29028900  0.70785100  0.60033600  1
  F  F22  1  0.70823700  0.28819300  0.79946100  1
  F  F23  1  0.70220700  0.29292200  0.39942400  1
  F  F24  1  0.70374900  0.29458900  0.20135100  1
  F  F25  1  0.80696400  0.80523400  0.88983500  1
  F  F26  1  0.80448600  0.81060400  0.50083100  1
  F  F27  1  0.80038400  0.80379900  0.69687100  1
  F  F28  1  0.80296400  0.81140800  0.10894400  1
  F  F29  1  0.80956200  0.79437500  0.30247600  1
