# generated using pymatgen
data_Na3MnO3
_symmetry_space_group_name_H-M   'P 1'
_cell_length_a   6.00075224
_cell_length_b   12.47696300
_cell_length_c   5.90946931
_cell_angle_alpha   90.00000557
_cell_angle_beta   115.46558121
_cell_angle_gamma   90.00067106
_symmetry_Int_Tables_number   1
_chemical_formula_structural   Na3MnO3
_chemical_formula_sum   'Na12 Mn4 O12'
_cell_volume   399.46216827
_cell_formula_units_Z   4
loop_
 _symmetry_equiv_pos_site_id
 _symmetry_equiv_pos_as_xyz
  1  'x, y, z'
loop_
 _atom_site_type_symbol
 _atom_site_label
 _atom_site_symmetry_multiplicity
 _atom_site_fract_x
 _atom_site_fract_y
 _atom_site_fract_z
 _atom_site_occupancy
  Na  Na0  1  0.13919700  0.22136400  0.70078200  1
  Na  Na1  1  0.24598500  0.48365200  0.77945800  1
  Na  Na2  1  0.25401600  0.98365000  0.72054000  1
  Na  Na3  1  0.36080800  0.72136500  0.79922200  1
  Na  Na4  1  0.28932800  0.59946800  0.35134900  1
  Na  Na5  1  0.21067200  0.09946400  0.14865600  1
  Na  Na6  1  0.78933100  0.90053900  0.85134600  1
  Na  Na7  1  0.71066900  0.40053700  0.64865000  1
  Na  Na8  1  0.63919500  0.27864400  0.20078000  1
  Na  Na9  1  0.74598400  0.01635600  0.27945900  1
  Na  Na10  1  0.75402000  0.51635500  0.22054100  1
  Na  Na11  1  0.86080800  0.77864400  0.29921800  1
  Mn  Mn12  1  0.17202200  0.34070300  0.26259900  1
  Mn  Mn13  1  0.32797300  0.84071300  0.23739800  1
  Mn  Mn14  1  0.67201700  0.15926100  0.76260400  1
  Mn  Mn15  1  0.82797600  0.65926800  0.73740100  1
  O  O16  1  0.99481500  0.36942000  0.45209200  1
  O  O17  1  0.11417000  0.93409000  0.30640400  1
  O  O18  1  0.06874500  0.73155000  0.02409600  1
  O  O19  1  0.49480300  0.13058600  0.95210800  1
  O  O20  1  0.43126100  0.23154600  0.47590800  1
  O  O21  1  0.61415200  0.56591000  0.80640800  1
  O  O22  1  0.38582700  0.43408700  0.19359900  1
  O  O23  1  0.56874800  0.76845800  0.52409900  1
  O  O24  1  0.50518800  0.86942200  0.04790300  1
  O  O25  1  0.93124700  0.26845200  0.97589000  1
  O  O26  1  0.88584500  0.06591200  0.69359300  1
  O  O27  1  0.00519700  0.63058500  0.54789800  1
