# generated using pymatgen
data_Cs2MoO4
_symmetry_space_group_name_H-M   'P 1'
_cell_length_a   6.41380400
_cell_length_b   8.74006300
_cell_length_c   13.27036300
_cell_angle_alpha   90.00000000
_cell_angle_beta   90.00000000
_cell_angle_gamma   90.00000000
_symmetry_Int_Tables_number   1
_chemical_formula_structural   Cs2MoO4
_chemical_formula_sum   'Cs8 Mo4 O16'
_cell_volume   743.89741587
_cell_formula_units_Z   4
loop_
 _symmetry_equiv_pos_site_id
 _symmetry_equiv_pos_as_xyz
  1  'x, y, z'
loop_
 _atom_site_type_symbol
 _atom_site_label
 _atom_site_symmetry_multiplicity
 _atom_site_fract_x
 _atom_site_fract_y
 _atom_site_fract_z
 _atom_site_occupancy
  Cs  Cs0  1  0.25000000  0.47887700  0.84543500  1
  Cs  Cs1  1  0.75000000  0.97887700  0.65456500  1
  Cs  Cs2  1  0.25000000  0.02112300  0.34543500  1
  Cs  Cs3  1  0.75000000  0.52112300  0.15456500  1
  Cs  Cs4  1  0.25000000  0.82988300  0.06757000  1
  Cs  Cs5  1  0.75000000  0.32988300  0.43243000  1
  Cs  Cs6  1  0.25000000  0.67011700  0.56757000  1
  Cs  Cs7  1  0.75000000  0.17011700  0.93243000  1
  Mo  Mo8  1  0.25000000  0.27521400  0.10661000  1
  Mo  Mo9  1  0.75000000  0.77521400  0.39339000  1
  Mo  Mo10  1  0.25000000  0.22478600  0.60661000  1
  Mo  Mo11  1  0.75000000  0.72478600  0.89339000  1
  O  O12  1  0.25000000  0.48058100  0.08857000  1
  O  O13  1  0.75000000  0.98058100  0.41143000  1
  O  O14  1  0.25000000  0.01941900  0.58857000  1
  O  O15  1  0.75000000  0.51941900  0.91143000  1
  O  O16  1  0.25000000  0.18519300  0.98404500  1
  O  O17  1  0.75000000  0.68519300  0.51595500  1
  O  O18  1  0.25000000  0.31480700  0.48404500  1
  O  O19  1  0.75000000  0.81480700  0.01595500  1
  O  O20  1  0.97758800  0.78596400  0.82573600  1
  O  O21  1  0.02241200  0.28596400  0.67426400  1
  O  O22  1  0.52241200  0.71403600  0.32573600  1
  O  O23  1  0.47758800  0.21403600  0.17426400  1
  O  O24  1  0.02241200  0.21403600  0.17426400  1
  O  O25  1  0.97758800  0.71403600  0.32573600  1
  O  O26  1  0.47758800  0.28596400  0.67426400  1
  O  O27  1  0.52241200  0.78596400  0.82573600  1
