# generated using pymatgen
data_La2Nb2N2O5
_symmetry_space_group_name_H-M   'P 1'
_cell_length_a   5.71193300
_cell_length_b   8.02746765
_cell_length_c   13.76058171
_cell_angle_alpha   98.38113589
_cell_angle_beta   90.03465082
_cell_angle_gamma   90.12351395
_symmetry_Int_Tables_number   1
_chemical_formula_structural   La2Nb2N2O5
_chemical_formula_sum   'La8 Nb8 N8 O20'
_cell_volume   624.21502750
_cell_formula_units_Z   4
loop_
 _symmetry_equiv_pos_site_id
 _symmetry_equiv_pos_as_xyz
  1  'x, y, z'
loop_
 _atom_site_type_symbol
 _atom_site_label
 _atom_site_symmetry_multiplicity
 _atom_site_fract_x
 _atom_site_fract_y
 _atom_site_fract_z
 _atom_site_occupancy
  La  La0  1  0.34095200  0.13525300  0.57137000  1
  La  La1  1  0.76103200  0.22311600  0.90793900  1
  La  La2  1  0.25304900  0.28066700  0.12257700  1
  La  La3  1  0.77968000  0.35181000  0.38912600  1
  La  La4  1  0.27412800  0.66086000  0.60847200  1
  La  La5  1  0.74773900  0.72494700  0.87867700  1
  La  La6  1  0.26251300  0.77597900  0.09575700  1
  La  La7  1  0.83792200  0.85901400  0.43177900  1
  Nb  Nb8  1  0.27919900  0.06343800  0.31610300  1
  Nb  Nb9  1  0.75194600  0.01952100  0.11793800  1
  Nb  Nb10  1  0.78334300  0.40106400  0.67487300  1
  Nb  Nb11  1  0.25870500  0.47279900  0.88572900  1
  Nb  Nb12  1  0.75080800  0.53444200  0.12258500  1
  Nb  Nb13  1  0.29075300  0.59088100  0.32134100  1
  Nb  Nb14  1  0.24263700  0.97056700  0.88138100  1
  Nb  Nb15  1  0.78782200  0.92459400  0.67286900  1
  N  N16  1  0.45122600  0.03050100  0.18414800  1
  N  N17  1  0.68920100  0.18043200  0.69873000  1
  N  N18  1  0.44530000  0.56361400  0.18081400  1
  N  N19  1  0.55910600  0.87141600  0.57088500  1
  N  N20  1  0.81954800  0.77486200  0.10414800  1
  N  N21  1  0.19353700  0.82630600  0.30381700  1
  N  N22  1  0.94947100  0.97646800  0.82130100  1
  N  N23  1  0.05055800  0.91337400  0.58678700  1
  O  O24  1  0.54600100  0.08703500  0.40710800  1
  O  O25  1  0.32444100  0.22628800  0.88999000  1
  O  O26  1  0.05472000  0.13536600  0.42576600  1
  O  O27  1  0.04990400  0.04901500  0.01940700  1
  O  O28  1  0.96504000  0.11831300  0.22465500  1
  O  O29  1  0.07680700  0.37601900  0.61257600  1
  O  O30  1  0.94609700  0.43585500  0.82148800  1
  O  O31  1  0.67763700  0.27412000  0.08254500  1
  O  O32  1  0.34308000  0.33172000  0.30585600  1
  O  O33  1  0.58521100  0.41006100  0.55905800  1
  O  O34  1  0.53076900  0.53257600  0.97787600  1
  O  O35  1  0.45241400  0.50196700  0.77601400  1
  O  O36  1  0.95582500  0.49566500  0.22883400  1
  O  O37  1  0.04317200  0.45943500  0.01571900  1
  O  O38  1  0.07414800  0.58602800  0.43587800  1
  O  O39  1  0.84736900  0.67240300  0.70179400  1
  O  O40  1  0.17610900  0.72683600  0.91464200  1
  O  O41  1  0.57614100  0.62023800  0.38966900  1
  O  O42  1  0.45089900  0.87526600  0.77966700  1
  O  O43  1  0.54902200  0.95986900  0.98231200  1
