# generated using pymatgen
data_Ga3Te
_symmetry_space_group_name_H-M   'P 1'
_cell_length_a   5.86910845
_cell_length_b   5.86910845
_cell_length_c   5.86910845
_cell_angle_alpha   136.33775149
_cell_angle_beta   136.33775149
_cell_angle_gamma   63.45859616
_symmetry_Int_Tables_number   1
_chemical_formula_structural   Ga3Te
_chemical_formula_sum   'Ga3 Te1'
_cell_volume   95.11732550
_cell_formula_units_Z   1
loop_
 _symmetry_equiv_pos_site_id
 _symmetry_equiv_pos_as_xyz
  1  'x, y, z'
loop_
 _atom_site_type_symbol
 _atom_site_label
 _atom_site_symmetry_multiplicity
 _atom_site_fract_x
 _atom_site_fract_y
 _atom_site_fract_z
 _atom_site_occupancy
  Ga  Ga0  1  0.75000000  0.25000000  0.50000000  1
  Ga  Ga1  1  0.25000000  0.75000000  0.50000000  1
  Ga  Ga2  1  0.50000000  0.50000000  0.00000000  1
  Te  Te3  1  0.00000000  0.00000000  0.00000000  1
