# generated using pymatgen
data_NaZn4H18SClO16
_symmetry_space_group_name_H-M   'P 1'
_cell_length_a   8.47123550
_cell_length_b   8.47123550
_cell_length_c   13.18980700
_cell_angle_alpha   90.00000000
_cell_angle_beta   90.00000000
_cell_angle_gamma   119.99999609
_symmetry_Int_Tables_number   1
_chemical_formula_structural   NaZn4H18SClO16
_chemical_formula_sum   'Na2 Zn8 H36 S2 Cl2 O32'
_cell_volume   819.71446731
_cell_formula_units_Z   2
loop_
 _symmetry_equiv_pos_site_id
 _symmetry_equiv_pos_as_xyz
  1  'x, y, z'
loop_
 _atom_site_type_symbol
 _atom_site_label
 _atom_site_symmetry_multiplicity
 _atom_site_fract_x
 _atom_site_fract_y
 _atom_site_fract_z
 _atom_site_occupancy
  Na  Na0  1  0.33333300  0.66666700  0.09189000  1
  Na  Na1  1  0.66666700  0.33333300  0.90811000  1
  Zn  Zn2  1  0.12752400  0.71362700  0.49258600  1
  Zn  Zn3  1  0.00000000  0.00000000  0.63753900  1
  Zn  Zn4  1  0.00000000  0.00000000  0.36246100  1
  Zn  Zn5  1  0.28637300  0.41389700  0.49258600  1
  Zn  Zn6  1  0.58610300  0.87247600  0.49258600  1
  Zn  Zn7  1  0.41389700  0.12752400  0.50741400  1
  Zn  Zn8  1  0.71362700  0.58610300  0.50741400  1
  Zn  Zn9  1  0.87247600  0.28637300  0.50741400  1
  H  H10  1  0.00883100  0.45966000  0.21589600  1
  H  H11  1  0.23402500  0.90903100  0.65480500  1
  H  H12  1  0.24136300  0.92398400  0.20477800  1
  H  H13  1  0.27251100  0.95172200  0.99824000  1
  H  H14  1  0.24196600  0.82242300  0.90753500  1
  H  H15  1  0.11938800  0.47852000  0.35478000  1
  H  H16  1  0.04827800  0.32078900  0.99824000  1
  H  H17  1  0.35913200  0.88061200  0.35478000  1
  H  H18  1  0.07601600  0.31737800  0.20477800  1
  H  H19  1  0.09096900  0.32499300  0.65480500  1
  H  H20  1  0.17757700  0.41954300  0.90753500  1
  H  H21  1  0.45082800  0.99116900  0.21589600  1
  H  H22  1  0.31737800  0.24136300  0.79522200  1
  H  H23  1  0.32499300  0.23402500  0.34519500  1
  H  H24  1  0.32078900  0.27251100  0.00176000  1
  H  H25  1  0.52148000  0.64086800  0.35478000  1
  H  H26  1  0.58045700  0.75803400  0.90753500  1
  H  H27  1  0.45966000  0.45082800  0.78410400  1
  H  H28  1  0.54034000  0.54917200  0.21589600  1
  H  H29  1  0.41954300  0.24196600  0.09246500  1
  H  H30  1  0.47852000  0.35913200  0.64522000  1
  H  H31  1  0.67921100  0.72748900  0.99824000  1
  H  H32  1  0.67500700  0.76597500  0.65480500  1
  H  H33  1  0.68262200  0.75863700  0.20477800  1
  H  H34  1  0.54917200  0.00883100  0.78410400  1
  H  H35  1  0.82242300  0.58045700  0.09246500  1
  H  H36  1  0.90903100  0.67500700  0.34519500  1
  H  H37  1  0.92398400  0.68262200  0.79522200  1
  H  H38  1  0.64086800  0.11938800  0.64522000  1
  H  H39  1  0.95172200  0.67921100  0.00176000  1
  H  H40  1  0.88061200  0.52148000  0.64522000  1
  H  H41  1  0.75803400  0.17757700  0.09246500  1
  H  H42  1  0.72748900  0.04827800  0.00176000  1
  H  H43  1  0.75863700  0.07601600  0.79522200  1
  H  H44  1  0.76597500  0.09096900  0.34519500  1
  H  H45  1  0.99116900  0.54034000  0.78410400  1
  S  S46  1  0.33333300  0.66666700  0.72320000  1
  S  S47  1  0.66666700  0.33333300  0.27680000  1
  Cl  Cl48  1  0.00000000  0.00000000  0.81107300  1
  Cl  Cl49  1  0.00000000  0.00000000  0.18892700  1
  O  O50  1  0.18637700  0.93694300  0.59295600  1
  O  O51  1  0.22139900  0.82154400  0.98078100  1
  O  O52  1  0.10554700  0.47898300  0.42926900  1
  O  O53  1  0.32830600  0.88079500  0.21545500  1
  O  O54  1  0.11920500  0.44751000  0.21545500  1
  O  O55  1  0.32041800  0.82651300  0.76127200  1
  O  O56  1  0.37343600  0.89445300  0.42926900  1
  O  O57  1  0.17348700  0.49390500  0.76127200  1
  O  O58  1  0.06305700  0.24943500  0.59295600  1
  O  O59  1  0.17845600  0.39985500  0.98078100  1
  O  O60  1  0.33333300  0.66666700  0.60976600  1
  O  O61  1  0.24943500  0.18637700  0.40704400  1
  O  O62  1  0.50609500  0.67958200  0.76127200  1
  O  O63  1  0.52101700  0.62656400  0.42926900  1
  O  O64  1  0.60014500  0.77860100  0.98078100  1
  O  O65  1  0.55249000  0.67169400  0.21545500  1
  O  O66  1  0.44751000  0.32830600  0.78454500  1
  O  O67  1  0.39985500  0.22139900  0.01921900  1
  O  O68  1  0.47898300  0.37343600  0.57073100  1
  O  O69  1  0.49390500  0.32041800  0.23872800  1
  O  O70  1  0.75056500  0.81362300  0.59295600  1
  O  O71  1  0.66666700  0.33333300  0.39023400  1
  O  O72  1  0.82154400  0.60014500  0.01921900  1
  O  O73  1  0.93694300  0.75056500  0.40704400  1
  O  O74  1  0.82651300  0.50609500  0.23872800  1
  O  O75  1  0.62656400  0.10554700  0.57073100  1
  O  O76  1  0.67958200  0.17348700  0.23872800  1
  O  O77  1  0.88079500  0.55249000  0.78454500  1
  O  O78  1  0.67169400  0.11920500  0.78454500  1
  O  O79  1  0.89445300  0.52101700  0.57073100  1
  O  O80  1  0.77860100  0.17845600  0.01921900  1
  O  O81  1  0.81362300  0.06305700  0.40704400  1
