# generated using pymatgen
data_CsCoH24(SO10)2
_symmetry_space_group_name_H-M   'P 1'
_cell_length_a   12.34522000
_cell_length_b   12.34522000
_cell_length_c   12.34522000
_cell_angle_alpha   90.00000000
_cell_angle_beta   90.00000000
_cell_angle_gamma   90.00000000
_symmetry_Int_Tables_number   1
_chemical_formula_structural   CsCoH24(SO10)2
_chemical_formula_sum   'Cs4 Co4 H96 S8 O80'
_cell_volume   1881.46654877
_cell_formula_units_Z   4
loop_
 _symmetry_equiv_pos_site_id
 _symmetry_equiv_pos_as_xyz
  1  'x, y, z'
loop_
 _atom_site_type_symbol
 _atom_site_label
 _atom_site_symmetry_multiplicity
 _atom_site_fract_x
 _atom_site_fract_y
 _atom_site_fract_z
 _atom_site_occupancy
  Cs  Cs0  1  0.00000000  0.00000000  0.50000000  1
  Cs  Cs1  1  0.00000000  0.50000000  0.00000000  1
  Cs  Cs2  1  0.50000000  0.50000000  0.50000000  1
  Cs  Cs3  1  0.50000000  0.00000000  0.00000000  1
  Co  Co4  1  0.00000000  0.00000000  0.00000000  1
  Co  Co5  1  0.00000000  0.50000000  0.50000000  1
  Co  Co6  1  0.50000000  0.00000000  0.50000000  1
  Co  Co7  1  0.50000000  0.50000000  0.00000000  1
  H  H8  1  0.99725500  0.20732600  0.28200400  1
  H  H9  1  0.99725500  0.29267400  0.78200400  1
  H  H10  1  0.01986900  0.05730100  0.20107400  1
  H  H11  1  0.01986900  0.44269900  0.70107400  1
  H  H12  1  0.03062800  0.57367700  0.68711000  1
  H  H13  1  0.03062800  0.92632300  0.18711000  1
  H  H14  1  0.05730100  0.20107400  0.01986900  1
  H  H15  1  0.05730100  0.29892600  0.51986900  1
  H  H16  1  0.07367700  0.68711000  0.46937200  1
  H  H17  1  0.07367700  0.81289000  0.96937200  1
  H  H18  1  0.12000100  0.17635400  0.28453400  1
  H  H19  1  0.12000100  0.32364600  0.78453400  1
  H  H20  1  0.17635400  0.28453400  0.12000100  1
  H  H21  1  0.17635400  0.21546600  0.62000100  1
  H  H22  1  0.18711000  0.03062800  0.92632300  1
  H  H23  1  0.18711000  0.46937200  0.42632300  1
  H  H24  1  0.20732600  0.28200400  0.99725500  1
  H  H25  1  0.20732600  0.21799600  0.49725500  1
  H  H26  1  0.20107400  0.01986900  0.05730100  1
  H  H27  1  0.20107400  0.48013100  0.55730100  1
  H  H28  1  0.21799600  0.49725500  0.20732600  1
  H  H29  1  0.21799600  0.00274500  0.70732600  1
  H  H30  1  0.21546600  0.62000100  0.17635400  1
  H  H31  1  0.21546600  0.87999900  0.67635400  1
  H  H32  1  0.28453400  0.12000100  0.17635400  1
  H  H33  1  0.28453400  0.37999900  0.67635400  1
  H  H34  1  0.28200400  0.99725500  0.20732600  1
  H  H35  1  0.28200400  0.50274500  0.70732600  1
  H  H36  1  0.29892600  0.51986900  0.05730100  1
  H  H37  1  0.29892600  0.98013100  0.55730100  1
  H  H38  1  0.29267400  0.78200400  0.99725500  1
  H  H39  1  0.29267400  0.71799600  0.49725500  1
  H  H40  1  0.31289000  0.53062800  0.92632300  1
  H  H41  1  0.31289000  0.96937200  0.42632300  1
  H  H42  1  0.32364600  0.78453400  0.12000100  1
  H  H43  1  0.32364600  0.71546600  0.62000100  1
  H  H44  1  0.37999900  0.67635400  0.28453400  1
  H  H45  1  0.37999900  0.82364600  0.78453400  1
  H  H46  1  0.42632300  0.18711000  0.46937200  1
  H  H47  1  0.42632300  0.31289000  0.96937200  1
  H  H48  1  0.44269900  0.79892600  0.51986900  1
  H  H49  1  0.44269900  0.70107400  0.01986900  1
  H  H50  1  0.46937200  0.42632300  0.18711000  1
  H  H51  1  0.46937200  0.07367700  0.68711000  1
  H  H52  1  0.48013100  0.55730100  0.20107400  1
  H  H53  1  0.48013100  0.94269900  0.70107400  1
  H  H54  1  0.50274500  0.70732600  0.28200400  1
  H  H55  1  0.50274500  0.79267400  0.78200400  1
  H  H56  1  0.49725500  0.20732600  0.21799600  1
  H  H57  1  0.49725500  0.29267400  0.71799600  1
  H  H58  1  0.51986900  0.05730100  0.29892600  1
  H  H59  1  0.51986900  0.44269900  0.79892600  1
  H  H60  1  0.53062800  0.92632300  0.31289000  1
  H  H61  1  0.53062800  0.57367700  0.81289000  1
  H  H62  1  0.55730100  0.20107400  0.48013100  1
  H  H63  1  0.55730100  0.29892600  0.98013100  1
  H  H64  1  0.57367700  0.68711000  0.03062800  1
  H  H65  1  0.57367700  0.81289000  0.53062800  1
  H  H66  1  0.62000100  0.17635400  0.21546600  1
  H  H67  1  0.62000100  0.32364600  0.71546600  1
  H  H68  1  0.67635400  0.21546600  0.87999900  1
  H  H69  1  0.67635400  0.28453400  0.37999900  1
  H  H70  1  0.68711000  0.03062800  0.57367700  1
  H  H71  1  0.68711000  0.46937200  0.07367700  1
  H  H72  1  0.70732600  0.21799600  0.00274500  1
  H  H73  1  0.70732600  0.28200400  0.50274500  1
  H  H74  1  0.70107400  0.48013100  0.94269900  1
  H  H75  1  0.70107400  0.01986900  0.44269900  1
  H  H76  1  0.71799600  0.00274500  0.79267400  1
  H  H77  1  0.71799600  0.49725500  0.29267400  1
  H  H78  1  0.71546600  0.62000100  0.32364600  1
  H  H79  1  0.71546600  0.87999900  0.82364600  1
  H  H80  1  0.78453400  0.12000100  0.32364600  1
  H  H81  1  0.78453400  0.37999900  0.82364600  1
  H  H82  1  0.78200400  0.99725500  0.29267400  1
  H  H83  1  0.78200400  0.50274500  0.79267400  1
  H  H84  1  0.79892600  0.98013100  0.94269900  1
  H  H85  1  0.79892600  0.51986900  0.44269900  1
  H  H86  1  0.79267400  0.71799600  0.00274500  1
  H  H87  1  0.79267400  0.78200400  0.50274500  1
  H  H88  1  0.81289000  0.96937200  0.07367700  1
  H  H89  1  0.81289000  0.53062800  0.57367700  1
  H  H90  1  0.82364600  0.71546600  0.87999900  1
  H  H91  1  0.82364600  0.78453400  0.37999900  1
  H  H92  1  0.87999900  0.67635400  0.21546600  1
  H  H93  1  0.87999900  0.82364600  0.71546600  1
  H  H94  1  0.92632300  0.18711000  0.03062800  1
  H  H95  1  0.92632300  0.31289000  0.53062800  1
  H  H96  1  0.94269900  0.79892600  0.98013100  1
  H  H97  1  0.94269900  0.70107400  0.48013100  1
  H  H98  1  0.96937200  0.07367700  0.81289000  1
  H  H99  1  0.96937200  0.42632300  0.31289000  1
  H  H100  1  0.98013100  0.94269900  0.79892600  1
  H  H101  1  0.98013100  0.55730100  0.29892600  1
  H  H102  1  0.00274500  0.70732600  0.21799600  1
  H  H103  1  0.00274500  0.79267400  0.71799600  1
  S  S104  1  0.18363400  0.68363400  0.81636600  1
  S  S105  1  0.18363400  0.81636600  0.31636600  1
  S  S106  1  0.31636600  0.18363400  0.81636600  1
  S  S107  1  0.31636600  0.31636600  0.31636600  1
  S  S108  1  0.68363400  0.68363400  0.68363400  1
  S  S109  1  0.68363400  0.81636600  0.18363400  1
  S  S110  1  0.81636600  0.18363400  0.68363400  1
  S  S111  1  0.81636600  0.31636600  0.18363400  1
  O  O112  1  0.99615700  0.99280900  0.15505500  1
  O  O113  1  0.99615700  0.50719100  0.65505500  1
  O  O114  1  0.00719100  0.65505500  0.50384300  1
  O  O115  1  0.00719100  0.84494500  0.00384300  1
  O  O116  1  0.04691000  0.14478600  0.29171300  1
  O  O117  1  0.04691000  0.35521400  0.79171300  1
  O  O118  1  0.07395800  0.82601900  0.26665000  1
  O  O119  1  0.07395800  0.67398100  0.76665000  1
  O  O120  1  0.14478600  0.29171300  0.04691000  1
  O  O121  1  0.14478600  0.20828700  0.54691000  1
  O  O122  1  0.15505500  0.99615700  0.99280900  1
  O  O123  1  0.15505500  0.50384300  0.49280900  1
  O  O124  1  0.17398100  0.76665000  0.42604200  1
  O  O125  1  0.17398100  0.73335000  0.92604200  1
  O  O126  1  0.20828700  0.54691000  0.14478600  1
  O  O127  1  0.20828700  0.95309000  0.64478600  1
  O  O128  1  0.23335000  0.57395800  0.82601900  1
  O  O129  1  0.23335000  0.92604200  0.32601900  1
  O  O130  1  0.24583700  0.24583700  0.24583700  1
  O  O131  1  0.24583700  0.25416300  0.74583700  1
  O  O132  1  0.25416300  0.74583700  0.24583700  1
  O  O133  1  0.25416300  0.75416300  0.74583700  1
  O  O134  1  0.26665000  0.07395800  0.82601900  1
  O  O135  1  0.26665000  0.42604200  0.32601900  1
  O  O136  1  0.29171300  0.04691000  0.14478600  1
  O  O137  1  0.29171300  0.45309000  0.64478600  1
  O  O138  1  0.32601900  0.26665000  0.42604200  1
  O  O139  1  0.32601900  0.23335000  0.92604200  1
  O  O140  1  0.34494500  0.49615700  0.99280900  1
  O  O141  1  0.34494500  0.00384300  0.49280900  1
  O  O142  1  0.35521400  0.70828700  0.54691000  1
  O  O143  1  0.35521400  0.79171300  0.04691000  1
  O  O144  1  0.42604200  0.32601900  0.26665000  1
  O  O145  1  0.42604200  0.17398100  0.76665000  1
  O  O146  1  0.45309000  0.64478600  0.29171300  1
  O  O147  1  0.45309000  0.85521400  0.79171300  1
  O  O148  1  0.49280900  0.15505500  0.50384300  1
  O  O149  1  0.49280900  0.34494500  0.00384300  1
  O  O150  1  0.50384300  0.49280900  0.15505500  1
  O  O151  1  0.50384300  0.00719100  0.65505500  1
  O  O152  1  0.49615700  0.99280900  0.34494500  1
  O  O153  1  0.49615700  0.50719100  0.84494500  1
  O  O154  1  0.50719100  0.65505500  0.99615700  1
  O  O155  1  0.50719100  0.84494500  0.49615700  1
  O  O156  1  0.54691000  0.14478600  0.20828700  1
  O  O157  1  0.54691000  0.35521400  0.70828700  1
  O  O158  1  0.57395800  0.82601900  0.23335000  1
  O  O159  1  0.57395800  0.67398100  0.73335000  1
  O  O160  1  0.64478600  0.20828700  0.95309000  1
  O  O161  1  0.64478600  0.29171300  0.45309000  1
  O  O162  1  0.65505500  0.99615700  0.50719100  1
  O  O163  1  0.65505500  0.50384300  0.00719100  1
  O  O164  1  0.67398100  0.73335000  0.57395800  1
  O  O165  1  0.67398100  0.76665000  0.07395800  1
  O  O166  1  0.70828700  0.95309000  0.85521400  1
  O  O167  1  0.70828700  0.54691000  0.35521400  1
  O  O168  1  0.73335000  0.57395800  0.67398100  1
  O  O169  1  0.73335000  0.92604200  0.17398100  1
  O  O170  1  0.74583700  0.24583700  0.25416300  1
  O  O171  1  0.74583700  0.25416300  0.75416300  1
  O  O172  1  0.75416300  0.74583700  0.25416300  1
  O  O173  1  0.75416300  0.75416300  0.75416300  1
  O  O174  1  0.76665000  0.07395800  0.67398100  1
  O  O175  1  0.76665000  0.42604200  0.17398100  1
  O  O176  1  0.79171300  0.04691000  0.35521400  1
  O  O177  1  0.79171300  0.45309000  0.85521400  1
  O  O178  1  0.82601900  0.23335000  0.57395800  1
  O  O179  1  0.82601900  0.26665000  0.07395800  1
  O  O180  1  0.84494500  0.49615700  0.50719100  1
  O  O181  1  0.84494500  0.00384300  0.00719100  1
  O  O182  1  0.85521400  0.70828700  0.95309000  1
  O  O183  1  0.85521400  0.79171300  0.45309000  1
  O  O184  1  0.92604200  0.17398100  0.73335000  1
  O  O185  1  0.92604200  0.32601900  0.23335000  1
  O  O186  1  0.95309000  0.64478600  0.20828700  1
  O  O187  1  0.95309000  0.85521400  0.70828700  1
  O  O188  1  0.99280900  0.15505500  0.99615700  1
  O  O189  1  0.99280900  0.34494500  0.49615700  1
  O  O190  1  0.00384300  0.00719100  0.84494500  1
  O  O191  1  0.00384300  0.49280900  0.34494500  1
