# generated using pymatgen
data_Mn11Fe(PO4)12
_symmetry_space_group_name_H-M   'P 1'
_cell_length_a   18.10340300
_cell_length_b   4.92978000
_cell_length_c   9.82961893
_cell_angle_alpha   89.88754896
_cell_angle_beta   90.00000000
_cell_angle_gamma   90.00000000
_symmetry_Int_Tables_number   1
_chemical_formula_structural   Mn11Fe(PO4)12
_chemical_formula_sum   'Mn11 Fe1 P12 O48'
_cell_volume   877.25045711
_cell_formula_units_Z   1
loop_
 _symmetry_equiv_pos_site_id
 _symmetry_equiv_pos_as_xyz
  1  'x, y, z'
loop_
 _atom_site_type_symbol
 _atom_site_label
 _atom_site_symmetry_multiplicity
 _atom_site_fract_x
 _atom_site_fract_y
 _atom_site_fract_z
 _atom_site_occupancy
  Mn  Mn0  1  0.00000000  0.93013200  0.28451100  1
  Mn  Mn1  1  0.66633500  0.93013600  0.28442600  1
  Mn  Mn2  1  0.33366500  0.93013600  0.28442600  1
  Mn  Mn3  1  0.66720100  0.56769700  0.78312000  1
  Mn  Mn4  1  0.33279900  0.56769700  0.78312000  1
  Mn  Mn5  1  0.00000000  0.56994100  0.78420400  1
  Mn  Mn6  1  0.16677000  0.43043500  0.21555300  1
  Mn  Mn7  1  0.83323000  0.43043500  0.21555300  1
  Mn  Mn8  1  0.50000000  0.43144300  0.21589000  1
  Mn  Mn9  1  0.16700400  0.07103500  0.71484300  1
  Mn  Mn10  1  0.83299600  0.07103500  0.71484300  1
  Fe  Fe11  1  0.50000000  0.04173700  0.72453600  1
  P  P12  1  0.16677700  0.91504400  0.40062700  1
  P  P13  1  0.83322300  0.91504400  0.40062700  1
  P  P14  1  0.50000000  0.91337100  0.40002500  1
  P  P15  1  0.16673700  0.58483100  0.90059900  1
  P  P16  1  0.83326300  0.58483100  0.90059900  1
  P  P17  1  0.50000000  0.58706000  0.90391300  1
  P  P18  1  0.00000000  0.41547000  0.09939500  1
  P  P19  1  0.66658400  0.41611400  0.09927000  1
  P  P20  1  0.33341600  0.41611400  0.09927000  1
  P  P21  1  0.00000000  0.08533200  0.59896100  1
  P  P22  1  0.66528600  0.08499900  0.59935600  1
  P  P23  1  0.33471400  0.08499900  0.59935600  1
  O  O24  1  0.16682000  0.85367200  0.55498000  1
  O  O25  1  0.83318000  0.85367200  0.55498000  1
  O  O26  1  0.50000000  0.85076800  0.55299100  1
  O  O27  1  0.23344600  0.77253200  0.32935200  1
  O  O28  1  0.09999500  0.77231200  0.32936700  1
  O  O29  1  0.90000500  0.77231200  0.32936700  1
  O  O30  1  0.76655400  0.77253200  0.32935200  1
  O  O31  1  0.56675800  0.77182300  0.32748000  1
  O  O32  1  0.43324200  0.77182300  0.32748000  1
  O  O33  1  0.00000000  0.77441300  0.61852200  1
  O  O34  1  0.66629700  0.77320500  0.61828800  1
  O  O35  1  0.33370300  0.77320500  0.61828800  1
  O  O36  1  0.00000000  0.72621900  0.11885300  1
  O  O37  1  0.33310200  0.72663300  0.11858000  1
  O  O38  1  0.66689800  0.72663300  0.11858000  1
  O  O39  1  0.23362600  0.72791400  0.82895200  1
  O  O40  1  0.10011500  0.72788100  0.82865000  1
  O  O41  1  0.76637400  0.72791400  0.82895200  1
  O  O42  1  0.56581400  0.73559800  0.82966200  1
  O  O43  1  0.89988500  0.72788100  0.82865000  1
  O  O44  1  0.43418600  0.73559800  0.82966200  1
  O  O45  1  0.16663800  0.64619000  0.05435700  1
  O  O46  1  0.83336200  0.64619000  0.05435700  1
  O  O47  1  0.50000000  0.65562200  0.05650600  1
  O  O48  1  0.00000000  0.35430300  0.94520100  1
  O  O49  1  0.66595400  0.35517500  0.94497400  1
  O  O50  1  0.33404600  0.35517500  0.94497400  1
  O  O51  1  0.06673700  0.27243600  0.17084100  1
  O  O52  1  0.93326300  0.27243600  0.17084100  1
  O  O53  1  0.73332300  0.27262500  0.17052400  1
  O  O54  1  0.40016400  0.27312200  0.17029400  1
  O  O55  1  0.26667700  0.27262500  0.17052400  1
  O  O56  1  0.59983600  0.27312200  0.17029400  1
  O  O57  1  0.16691900  0.27420400  0.88075900  1
  O  O58  1  0.83308100  0.27420400  0.88075900  1
  O  O59  1  0.50000000  0.28062200  0.88256600  1
  O  O60  1  0.16673100  0.22594500  0.38128900  1
  O  O61  1  0.50000000  0.22402500  0.38012800  1
  O  O62  1  0.83326900  0.22594500  0.38128900  1
  O  O63  1  0.06674700  0.22791800  0.67054600  1
  O  O64  1  0.93325300  0.22791800  0.67054600  1
  O  O65  1  0.73224700  0.22676300  0.67163900  1
  O  O66  1  0.26775300  0.22676300  0.67163900  1
  O  O67  1  0.40187300  0.22362100  0.67064900  1
  O  O68  1  0.59812700  0.22362100  0.67064900  1
  O  O69  1  0.00000000  0.14689800  0.44498200  1
  O  O70  1  0.66608000  0.14646300  0.44543300  1
  O  O71  1  0.33392000  0.14646300  0.44543300  1
