# generated using pymatgen
data_H28Pt2Br5N9O2
_symmetry_space_group_name_H-M   'P 1'
_cell_length_a   14.95487000
_cell_length_b   11.06080100
_cell_length_c   12.78596463
_cell_angle_alpha   70.83065663
_cell_angle_beta   90.00000000
_cell_angle_gamma   90.00000000
_symmetry_Int_Tables_number   1
_chemical_formula_structural   H28Pt2Br5N9O2
_chemical_formula_sum   'H112 Pt8 Br20 N36 O8'
_cell_volume   1997.69270091
_cell_formula_units_Z   4
loop_
 _symmetry_equiv_pos_site_id
 _symmetry_equiv_pos_as_xyz
  1  'x, y, z'
loop_
 _atom_site_type_symbol
 _atom_site_label
 _atom_site_symmetry_multiplicity
 _atom_site_fract_x
 _atom_site_fract_y
 _atom_site_fract_z
 _atom_site_occupancy
  H  H0  1  0.36812200  0.07390200  0.00565500  1
  H  H1  1  0.90011400  0.05794800  0.07567400  1
  H  H2  1  0.43446500  0.17964100  0.03248800  1
  H  H3  1  0.05680200  0.05484300  0.32943900  1
  H  H4  1  0.21509200  0.06384500  0.34005300  1
  H  H5  1  0.32264400  0.19784800  0.03429200  1
  H  H6  1  0.78644900  0.09462600  0.30556600  1
  H  H7  1  0.60887200  0.04467200  0.46029200  1
  H  H8  1  0.79362000  0.16261900  0.17965800  1
  H  H9  1  0.02655200  0.16806700  0.21336700  1
  H  H10  1  0.24323000  0.17595100  0.22346500  1
  H  H11  1  0.13187800  0.07390200  0.50565500  1
  H  H12  1  0.97518700  0.15376000  0.33413200  1
  H  H13  1  0.59988600  0.05794800  0.57567400  1
  H  H14  1  0.28876300  0.17337800  0.34471900  1
  H  H15  1  0.65966700  0.24806500  0.19512700  1
  H  H16  1  0.55014400  0.26776000  0.18588800  1
  H  H17  1  0.06553500  0.17964100  0.53248800  1
  H  H18  1  0.44319800  0.05484300  0.82943900  1
  H  H19  1  0.61703500  0.36882300  0.08993900  1
  H  H20  1  0.28490800  0.06384500  0.84005300  1
  H  H21  1  0.17735600  0.19784800  0.53429200  1
  H  H22  1  0.71355100  0.09462600  0.80556600  1
  H  H23  1  0.89112800  0.04467200  0.96029200  1
  H  H24  1  0.68678700  0.24022800  0.41854000  1
  H  H25  1  0.76032500  0.30197600  0.31558300  1
  H  H26  1  0.47704900  0.28598200  0.32946900  1
  H  H27  1  0.70638000  0.16261900  0.67965800  1
  H  H28  1  0.07052200  0.40089600  0.12116000  1
  H  H29  1  0.53658000  0.27844900  0.43910100  1
  H  H30  1  0.47344800  0.16806700  0.71336700  1
  H  H31  1  0.18272700  0.41088000  0.12168200  1
  H  H32  1  0.25677000  0.17595100  0.72346500  1
  H  H33  1  0.52481300  0.15376000  0.83413200  1
  H  H34  1  0.21123700  0.17337800  0.84471900  1
  H  H35  1  0.74734200  0.37266600  0.40903700  1
  H  H36  1  0.97262400  0.40434900  0.30088100  1
  H  H37  1  0.84033300  0.24806500  0.69512700  1
  H  H38  1  0.94985600  0.26776000  0.68588800  1
  H  H39  1  0.46814100  0.40390100  0.38402900  1
  H  H40  1  0.27026800  0.43141100  0.30611600  1
  H  H41  1  0.02374400  0.41808200  0.41315600  1
  H  H42  1  0.21068600  0.43329200  0.41657600  1
  H  H43  1  0.88296500  0.36882300  0.58993900  1
  H  H44  1  0.71068600  0.56670800  0.08342400  1
  H  H45  1  0.81321300  0.24022800  0.91854000  1
  H  H46  1  0.73967500  0.30197600  0.81558300  1
  H  H47  1  0.02295100  0.28598200  0.82946900  1
  H  H48  1  0.52374400  0.58191800  0.08684400  1
  H  H49  1  0.77026800  0.56858900  0.19388400  1
  H  H50  1  0.96814100  0.59609900  0.11597100  1
  H  H51  1  0.42947800  0.40089600  0.62116000  1
  H  H52  1  0.96342000  0.27844900  0.93910100  1
  H  H53  1  0.31727300  0.41088000  0.62168200  1
  H  H54  1  0.47262400  0.59565100  0.19911900  1
  H  H55  1  0.24734200  0.62733400  0.09096300  1
  H  H56  1  0.75265800  0.37266600  0.90903700  1
  H  H57  1  0.52737600  0.40434900  0.80088100  1
  H  H58  1  0.68272700  0.58912000  0.37831800  1
  H  H59  1  0.03658000  0.72155100  0.06089900  1
  H  H60  1  0.57052200  0.59910400  0.37884000  1
  H  H61  1  0.03185900  0.40390100  0.88402900  1
  H  H62  1  0.22973200  0.43141100  0.80611600  1
  H  H63  1  0.47625600  0.41808200  0.91315600  1
  H  H64  1  0.97704900  0.71401800  0.17053100  1
  H  H65  1  0.26032500  0.69802400  0.18441700  1
  H  H66  1  0.18678700  0.75977200  0.08146000  1
  H  H67  1  0.28931400  0.43329200  0.91657600  1
  H  H68  1  0.11703500  0.63117700  0.41006100  1
  H  H69  1  0.78931400  0.56670800  0.58342400  1
  H  H70  1  0.97625600  0.58191800  0.58684400  1
  H  H71  1  0.72973200  0.56858900  0.69388400  1
  H  H72  1  0.53185900  0.59609900  0.61597100  1
  H  H73  1  0.05014400  0.73224000  0.31411200  1
  H  H74  1  0.15966700  0.75193500  0.30487300  1
  H  H75  1  0.02737600  0.59565100  0.69911900  1
  H  H76  1  0.25265800  0.62733400  0.59096300  1
  H  H77  1  0.78876300  0.82662200  0.15528100  1
  H  H78  1  0.47518700  0.84624000  0.16586800  1
  H  H79  1  0.74323000  0.82404900  0.27653500  1
  H  H80  1  0.81727300  0.58912000  0.87831800  1
  H  H81  1  0.52655200  0.83193300  0.28663300  1
  H  H82  1  0.46342000  0.72155100  0.56089900  1
  H  H83  1  0.92947800  0.59910400  0.87884000  1
  H  H84  1  0.29362000  0.83738100  0.32034200  1
  H  H85  1  0.52295100  0.71401800  0.67053100  1
  H  H86  1  0.23967500  0.69802400  0.68441700  1
  H  H87  1  0.31321300  0.75977200  0.58146000  1
  H  H88  1  0.10887200  0.95532800  0.03970800  1
  H  H89  1  0.28644900  0.90537400  0.19443400  1
  H  H90  1  0.82264400  0.80215200  0.46570800  1
  H  H91  1  0.71509200  0.93615500  0.15994700  1
  H  H92  1  0.38296500  0.63117700  0.91006100  1
  H  H93  1  0.55680200  0.94515700  0.17056100  1
  H  H94  1  0.93446500  0.82035900  0.46751200  1
  H  H95  1  0.44985600  0.73224000  0.81411200  1
  H  H96  1  0.34033300  0.75193500  0.80487300  1
  H  H97  1  0.71123700  0.82662200  0.65528100  1
  H  H98  1  0.40011400  0.94205200  0.42432600  1
  H  H99  1  0.02481300  0.84624000  0.66586800  1
  H  H100  1  0.86812200  0.92609800  0.49434500  1
  H  H101  1  0.75677000  0.82404900  0.77653500  1
  H  H102  1  0.97344800  0.83193300  0.78663300  1
  H  H103  1  0.20638000  0.83738100  0.82034200  1
  H  H104  1  0.39112800  0.95532800  0.53970800  1
  H  H105  1  0.21355100  0.90537400  0.69443400  1
  H  H106  1  0.67735600  0.80215200  0.96570800  1
  H  H107  1  0.78490800  0.93615500  0.65994700  1
  H  H108  1  0.94319800  0.94515700  0.67056100  1
  H  H109  1  0.56553500  0.82035900  0.96751200  1
  H  H110  1  0.09988600  0.94205200  0.92432600  1
  H  H111  1  0.63187800  0.92609800  0.99434500  1
  Pt  Pt112  1  0.12699500  0.27778300  0.32614300  1
  Pt  Pt113  1  0.61625000  0.44458100  0.26468000  1
  Pt  Pt114  1  0.37300500  0.27778300  0.82614300  1
  Pt  Pt115  1  0.11625000  0.55541900  0.23532000  1
  Pt  Pt116  1  0.88375000  0.44458100  0.76468000  1
  Pt  Pt117  1  0.62699500  0.72221700  0.17385700  1
  Pt  Pt118  1  0.38375000  0.55541900  0.73532000  1
  Pt  Pt119  1  0.87300500  0.72221700  0.67385700  1
  Br  Br120  1  0.44342000  0.09706900  0.26225800  1
  Br  Br121  1  0.15488600  0.19280000  0.03799500  1
  Br  Br122  1  0.87772200  0.12923400  0.49580400  1
  Br  Br123  1  0.05658000  0.09706900  0.76225800  1
  Br  Br124  1  0.34511400  0.19280000  0.53799500  1
  Br  Br125  1  0.89047700  0.38130300  0.12898800  1
  Br  Br126  1  0.35496700  0.45511400  0.08398800  1
  Br  Br127  1  0.62227800  0.12923400  0.99580400  1
  Br  Br128  1  0.60952300  0.38130300  0.62898800  1
  Br  Br129  1  0.14503300  0.45511400  0.58398800  1
  Br  Br130  1  0.85496700  0.54488600  0.41601200  1
  Br  Br131  1  0.39047700  0.61869700  0.37101200  1
  Br  Br132  1  0.37772200  0.87076600  0.00419600  1
  Br  Br133  1  0.64503300  0.54488600  0.91601200  1
  Br  Br134  1  0.10952300  0.61869700  0.87101200  1
  Br  Br135  1  0.65488600  0.80720000  0.46200500  1
  Br  Br136  1  0.94342000  0.90293100  0.23774200  1
  Br  Br137  1  0.12227800  0.87076600  0.50419600  1
  Br  Br138  1  0.84511400  0.80720000  0.96200500  1
  Br  Br139  1  0.55658000  0.90293100  0.73774200  1
  N  N140  1  0.03611100  0.14889300  0.29691400  1
  N  N141  1  0.23060700  0.15982800  0.30624300  1
  N  N142  1  0.12468300  0.17113500  0.49419300  1
  N  N143  1  0.61004000  0.31785800  0.17343900  1
  N  N144  1  0.46388900  0.14889300  0.79691400  1
  N  N145  1  0.71291600  0.32510000  0.36418600  1
  N  N146  1  0.12534200  0.40951900  0.16684900  1
  N  N147  1  0.26939300  0.15982800  0.80624300  1
  N  N148  1  0.51264400  0.34203500  0.36589900  1
  N  N149  1  0.03381900  0.41236000  0.33555200  1
  N  N150  1  0.20672900  0.42726200  0.33767000  1
  N  N151  1  0.37531700  0.17113500  0.99419300  1
  N  N152  1  0.88996000  0.31785800  0.67343900  1
  N  N153  1  0.70672900  0.57273800  0.16233000  1
  N  N154  1  0.53381900  0.58764000  0.16444800  1
  N  N155  1  0.78708400  0.32510000  0.86418600  1
  N  N156  1  0.37465800  0.40951900  0.66684900  1
  N  N157  1  0.98735600  0.34203500  0.86589900  1
  N  N158  1  0.01264400  0.65796500  0.13410100  1
  N  N159  1  0.62534200  0.59048100  0.33315100  1
  N  N160  1  0.21291600  0.67490000  0.13581400  1
  N  N161  1  0.46618100  0.41236000  0.83555200  1
  N  N162  1  0.29327100  0.42726200  0.83767000  1
  N  N163  1  0.11004000  0.68214200  0.32656100  1
  N  N164  1  0.62468300  0.82886500  0.00580700  1
  N  N165  1  0.79327100  0.57273800  0.66233000  1
  N  N166  1  0.96618100  0.58764000  0.66444800  1
  N  N167  1  0.48735600  0.65796500  0.63410100  1
  N  N168  1  0.73060700  0.84017200  0.19375700  1
  N  N169  1  0.87465800  0.59048100  0.83315100  1
  N  N170  1  0.28708400  0.67490000  0.63581400  1
  N  N171  1  0.53611100  0.85110700  0.20308600  1
  N  N172  1  0.38996000  0.68214200  0.82656100  1
  N  N173  1  0.87531700  0.82886500  0.50580700  1
  N  N174  1  0.76939300  0.84017200  0.69375700  1
  N  N175  1  0.96388900  0.85110700  0.70308600  1
  O  O176  1  0.75046800  0.11970500  0.23801800  1
  O  O177  1  0.61557400  0.10809900  0.49795200  1
  O  O178  1  0.74953200  0.11970500  0.73801800  1
  O  O179  1  0.88442600  0.10809900  0.99795200  1
  O  O180  1  0.11557400  0.89190100  0.00204800  1
  O  O181  1  0.25046800  0.88029500  0.26198200  1
  O  O182  1  0.38442600  0.89190100  0.50204800  1
  O  O183  1  0.24953200  0.88029500  0.76198200  1
