# generated using pymatgen
data_CaP3H16(NO4)3
_symmetry_space_group_name_H-M   'P 1'
_cell_length_a   18.87068700
_cell_length_b   7.00428700
_cell_length_c   11.70302229
_cell_angle_alpha   65.87054926
_cell_angle_beta   90.00000000
_cell_angle_gamma   90.00000000
_symmetry_Int_Tables_number   1
_chemical_formula_structural   CaP3H16(NO4)3
_chemical_formula_sum   'Ca4 P12 H64 N12 O48'
_cell_volume   1411.69749054
_cell_formula_units_Z   4
loop_
 _symmetry_equiv_pos_site_id
 _symmetry_equiv_pos_as_xyz
  1  'x, y, z'
loop_
 _atom_site_type_symbol
 _atom_site_label
 _atom_site_symmetry_multiplicity
 _atom_site_fract_x
 _atom_site_fract_y
 _atom_site_fract_z
 _atom_site_occupancy
  Ca  Ca0  1  0.31781700  0.59135700  0.50850500  1
  Ca  Ca1  1  0.81781700  0.40864300  0.99149500  1
  Ca  Ca2  1  0.18218300  0.59135700  0.00850500  1
  Ca  Ca3  1  0.68218300  0.40864300  0.49149500  1
  P  P4  1  0.82277500  0.37952100  0.70349900  1
  P  P5  1  0.96595000  0.44385200  0.78384100  1
  P  P6  1  0.46595000  0.55614800  0.71615900  1
  P  P7  1  0.20936000  0.02922800  0.08434900  1
  P  P8  1  0.32277500  0.62047900  0.79650100  1
  P  P9  1  0.70936000  0.97077200  0.41565100  1
  P  P10  1  0.29064000  0.02922800  0.58434900  1
  P  P11  1  0.67722500  0.37952100  0.20349900  1
  P  P12  1  0.79064000  0.97077200  0.91565100  1
  P  P13  1  0.53405000  0.44385200  0.28384100  1
  P  P14  1  0.03405000  0.55614800  0.21615900  1
  P  P15  1  0.17722500  0.62047900  0.29650100  1
  H  H16  1  0.36675100  0.15216600  0.85044300  1
  H  H17  1  0.58898200  0.30330400  0.73548500  1
  H  H18  1  0.10299300  0.29329600  0.74702800  1
  H  H19  1  0.18682400  0.40126500  0.73630100  1
  H  H20  1  0.82906900  0.84619200  0.16283300  1
  H  H21  1  0.33667400  0.82109300  0.22984700  1
  H  H22  1  0.82489300  0.78879000  0.31629000  1
  H  H23  1  0.51443200  0.79445900  0.32378900  1
  H  H24  1  0.34040100  0.03369500  0.00277700  1
  H  H25  1  0.97597400  0.76562000  0.43155700  1
  H  H26  1  0.58619400  0.05906300  0.05480500  1
  H  H27  1  0.48804300  0.76818100  0.46724700  1
  H  H28  1  0.00992200  0.98728400  0.14382700  1
  H  H29  1  0.57448600  0.82542900  0.42124600  1
  H  H30  1  0.68682400  0.59873500  0.76369900  1
  H  H31  1  0.67046000  0.08638100  0.09378200  1
  H  H32  1  0.50363100  0.25610600  0.93464500  1
  H  H33  1  0.00363100  0.74389400  0.56535500  1
  H  H34  1  0.17046000  0.91361900  0.40621800  1
  H  H35  1  0.60299300  0.70670400  0.75297200  1
  H  H36  1  0.08898200  0.69669600  0.76451500  1
  H  H37  1  0.07448600  0.17457100  0.07875400  1
  H  H38  1  0.50992200  0.01271600  0.35617300  1
  H  H39  1  0.98804300  0.23181900  0.03275300  1
  H  H40  1  0.08619400  0.94093700  0.44519500  1
  H  H41  1  0.86675100  0.84783400  0.64955700  1
  H  H42  1  0.47597400  0.23438000  0.06844300  1
  H  H43  1  0.67093100  0.84619200  0.66283300  1
  H  H44  1  0.84040100  0.96630500  0.49722300  1
  H  H45  1  0.16332600  0.82109300  0.72984700  1
  H  H46  1  0.67510700  0.78879000  0.81629000  1
  H  H47  1  0.01443200  0.20554100  0.17621100  1
  H  H48  1  0.98556800  0.79445900  0.82378900  1
  H  H49  1  0.32489300  0.21121000  0.18371000  1
  H  H50  1  0.83667400  0.17890700  0.27015300  1
  H  H51  1  0.15959900  0.03369500  0.50277700  1
  H  H52  1  0.32906900  0.15380800  0.33716700  1
  H  H53  1  0.52402600  0.76562000  0.93155700  1
  H  H54  1  0.13324900  0.15216600  0.35044300  1
  H  H55  1  0.91380600  0.05906300  0.55480500  1
  H  H56  1  0.01195700  0.76818100  0.96724700  1
  H  H57  1  0.49007800  0.98728400  0.64382700  1
  H  H58  1  0.92551400  0.82542900  0.92124600  1
  H  H59  1  0.91101800  0.30330400  0.23548500  1
  H  H60  1  0.39700700  0.29329600  0.24702800  1
  H  H61  1  0.82954000  0.08638100  0.59378200  1
  H  H62  1  0.99636900  0.25610600  0.43464500  1
  H  H63  1  0.49636900  0.74389400  0.06535500  1
  H  H64  1  0.32954000  0.91361900  0.90621800  1
  H  H65  1  0.31317600  0.40126500  0.23630100  1
  H  H66  1  0.42551400  0.17457100  0.57875400  1
  H  H67  1  0.99007800  0.01271600  0.85617300  1
  H  H68  1  0.51195700  0.23181900  0.53275300  1
  H  H69  1  0.41380600  0.94093700  0.94519500  1
  H  H70  1  0.02402600  0.23438000  0.56844300  1
  H  H71  1  0.65959900  0.96630500  0.99722300  1
  H  H72  1  0.48556800  0.20554100  0.67621100  1
  H  H73  1  0.17510700  0.21121000  0.68371000  1
  H  H74  1  0.66332600  0.17890700  0.77015300  1
  H  H75  1  0.17093100  0.15380800  0.83716700  1
  H  H76  1  0.81317600  0.59873500  0.26369900  1
  H  H77  1  0.89700700  0.70670400  0.25297200  1
  H  H78  1  0.41101800  0.69669600  0.26451500  1
  H  H79  1  0.63324900  0.84783400  0.14955700  1
  N  N80  1  0.15823800  0.26865600  0.74858900  1
  N  N81  1  0.63686100  0.98760800  0.07377900  1
  N  N82  1  0.52174800  0.85185700  0.39269300  1
  N  N83  1  0.02174800  0.14814300  0.10730700  1
  N  N84  1  0.65823800  0.73134400  0.75141100  1
  N  N85  1  0.13686100  0.01239200  0.42622100  1
  N  N86  1  0.86313900  0.98760800  0.57377900  1
  N  N87  1  0.34176200  0.26865600  0.24858900  1
  N  N88  1  0.97825200  0.85185700  0.89269300  1
  N  N89  1  0.47825200  0.14814300  0.60730700  1
  N  N90  1  0.36313900  0.01239200  0.92622100  1
  N  N91  1  0.84176200  0.73134400  0.25141100  1
  O  O92  1  0.01525800  0.27200700  0.78387600  1
  O  O93  1  0.50010300  0.33691900  0.77244400  1
  O  O94  1  0.20502700  0.59818000  0.42222600  1
  O  O95  1  0.36419000  0.71247500  0.29834500  1
  O  O96  1  0.90260600  0.46703500  0.67999800  1
  O  O97  1  0.42938200  0.60692600  0.59056100  1
  O  O98  1  0.78332900  0.47946300  0.77739200  1
  O  O99  1  0.28332900  0.52053700  0.72260800  1
  O  O100  1  0.16720700  0.86835200  0.21251200  1
  O  O101  1  0.92938200  0.39307400  0.90943900  1
  O  O102  1  0.67004500  0.76589000  0.44398500  1
  O  O103  1  0.80031200  0.05646500  0.01547300  1
  O  O104  1  0.40260600  0.53296500  0.82000200  1
  O  O105  1  0.28782600  0.03290100  0.12082100  1
  O  O106  1  0.00010300  0.66308100  0.72755600  1
  O  O107  1  0.51474600  0.20098800  0.02536100  1
  O  O108  1  0.01474600  0.79901200  0.47463900  1
  O  O109  1  0.51525800  0.72799300  0.71612400  1
  O  O110  1  0.29497300  0.59818000  0.92222600  1
  O  O111  1  0.78782600  0.96709900  0.37917900  1
  O  O112  1  0.13581000  0.71247500  0.79834500  1
  O  O113  1  0.30031200  0.94353500  0.48452700  1
  O  O114  1  0.17004500  0.23411000  0.05601500  1
  O  O115  1  0.66720700  0.13164800  0.28748800  1
  O  O116  1  0.33279300  0.86835200  0.71251200  1
  O  O117  1  0.82995500  0.76589000  0.94398500  1
  O  O118  1  0.69968800  0.05646500  0.51547300  1
  O  O119  1  0.86419000  0.28752500  0.20165500  1
  O  O120  1  0.21217400  0.03290100  0.62082100  1
  O  O121  1  0.70502700  0.40182000  0.07777400  1
  O  O122  1  0.48474200  0.27200700  0.28387600  1
  O  O123  1  0.98525400  0.20098800  0.52536100  1
  O  O124  1  0.48525400  0.79901200  0.97463900  1
  O  O125  1  0.99989700  0.33691900  0.27244400  1
  O  O126  1  0.71217400  0.96709900  0.87917900  1
  O  O127  1  0.59739400  0.46703500  0.17999800  1
  O  O128  1  0.19968800  0.94353500  0.98452700  1
  O  O129  1  0.32995500  0.23411000  0.55601500  1
  O  O130  1  0.07061800  0.60692600  0.09056100  1
  O  O131  1  0.83279300  0.13164800  0.78748800  1
  O  O132  1  0.71667100  0.47946300  0.27739200  1
  O  O133  1  0.21667100  0.52053700  0.22260800  1
  O  O134  1  0.57061800  0.39307400  0.40943900  1
  O  O135  1  0.09739400  0.53296500  0.32000200  1
  O  O136  1  0.63581000  0.28752500  0.70165500  1
  O  O137  1  0.79497300  0.40182000  0.57777400  1
  O  O138  1  0.49989700  0.66308100  0.22755600  1
  O  O139  1  0.98474200  0.72799300  0.21612400  1
