# generated using pymatgen
data_Mn6OF11
_symmetry_space_group_name_H-M   'P 1'
_cell_length_a   4.96577100
_cell_length_b   5.88084908
_cell_length_c   16.21650171
_cell_angle_alpha   90.52354794
_cell_angle_beta   90.00496411
_cell_angle_gamma   91.30659966
_symmetry_Int_Tables_number   1
_chemical_formula_structural   Mn6OF11
_chemical_formula_sum   'Mn12 O2 F22'
_cell_volume   473.42676677
_cell_formula_units_Z   2
loop_
 _symmetry_equiv_pos_site_id
 _symmetry_equiv_pos_as_xyz
  1  'x, y, z'
loop_
 _atom_site_type_symbol
 _atom_site_label
 _atom_site_symmetry_multiplicity
 _atom_site_fract_x
 _atom_site_fract_y
 _atom_site_fract_z
 _atom_site_occupancy
  Mn  Mn0  1  0.98584400  0.82965200  0.40686100  1
  Mn  Mn1  1  0.98697500  0.14423400  0.24991500  1
  Mn  Mn2  1  0.98276700  0.81898100  0.08872800  1
  Mn  Mn3  1  0.00208100  0.83059500  0.75042700  1
  Mn  Mn4  1  0.99688700  0.16705000  0.58143200  1
  Mn  Mn5  1  0.00371200  0.17090100  0.92206900  1
  Mn  Mn6  1  0.49221000  0.67331200  0.58125100  1
  Mn  Mn7  1  0.49508000  0.67101600  0.91829400  1
  Mn  Mn8  1  0.53071200  0.66981200  0.24738000  1
  Mn  Mn9  1  0.50238100  0.35339600  0.08922100  1
  Mn  Mn10  1  0.50416000  0.33082600  0.41478900  1
  Mn  Mn11  1  0.50587700  0.32854300  0.75007800  1
  O  O12  1  0.78186600  0.88383400  0.29823700  1
  O  O13  1  0.70436700  0.61297100  0.14476400  1
  F  F14  1  0.76645100  0.89599300  0.64115100  1
  F  F15  1  0.77802100  0.89143100  0.97609600  1
  F  F16  1  0.77369900  0.11788100  0.13814600  1
  F  F17  1  0.76515000  0.10208000  0.47196600  1
  F  F18  1  0.77416900  0.10598300  0.80910100  1
  F  F19  1  0.74368100  0.38183800  0.30724400  1
  F  F20  1  0.73514600  0.60615200  0.47268400  1
  F  F21  1  0.72986300  0.39700400  0.63898200  1
  F  F22  1  0.73031200  0.60602400  0.80934500  1
  F  F23  1  0.72121900  0.39389600  0.97649500  1
  F  F24  1  0.25582800  0.60287500  0.02721900  1
  F  F25  1  0.26480000  0.38572600  0.20277200  1
  F  F26  1  0.30411700  0.62570200  0.35261600  1
  F  F27  1  0.27086400  0.39264200  0.52350000  1
  F  F28  1  0.26773100  0.39434200  0.85958600  1
  F  F29  1  0.27115200  0.60412500  0.69276400  1
  F  F30  1  0.23287200  0.89381700  0.19310100  1
  F  F31  1  0.21753500  0.88712800  0.51951300  1
  F  F32  1  0.21935100  0.11562500  0.35851800  1
  F  F33  1  0.23900800  0.11346500  0.03397400  1
  F  F34  1  0.23187000  0.89838800  0.86138400  1
  F  F35  1  0.23224000  0.10276400  0.69039500  1
