# generated using pymatgen
data_InH10C3O11
_symmetry_space_group_name_H-M   'P 1'
_cell_length_a   11.38423100
_cell_length_b   8.76029900
_cell_length_c   20.51102201
_cell_angle_alpha   87.11146737
_cell_angle_beta   90.00000000
_cell_angle_gamma   90.00000000
_symmetry_Int_Tables_number   1
_chemical_formula_structural   InH10C3O11
_chemical_formula_sum   'In8 H80 C24 O88'
_cell_volume   2042.95025390
_cell_formula_units_Z   8
loop_
 _symmetry_equiv_pos_site_id
 _symmetry_equiv_pos_as_xyz
  1  'x, y, z'
loop_
 _atom_site_type_symbol
 _atom_site_label
 _atom_site_symmetry_multiplicity
 _atom_site_fract_x
 _atom_site_fract_y
 _atom_site_fract_z
 _atom_site_occupancy
  In  In0  1  0.23740700  0.06073300  0.69927200  1
  In  In1  1  0.24758800  0.11291000  0.99018100  1
  In  In2  1  0.74758800  0.38709000  0.50981900  1
  In  In3  1  0.73740700  0.43926700  0.80072800  1
  In  In4  1  0.26259300  0.56073300  0.19927200  1
  In  In5  1  0.25241200  0.61291000  0.49018100  1
  In  In6  1  0.75241200  0.88709000  0.00981900  1
  In  In7  1  0.76259300  0.93926700  0.30072800  1
  H  H8  1  0.10439600  0.00205300  0.15364800  1
  H  H9  1  0.43699200  0.03169100  0.42756800  1
  H  H10  1  0.85115800  0.04374000  0.60674000  1
  H  H11  1  0.35327000  0.03723400  0.24193100  1
  H  H12  1  0.00193100  0.03109600  0.67687300  1
  H  H13  1  0.01329800  0.02053700  0.75815100  1
  H  H14  1  0.47754700  0.07059300  0.72638900  1
  H  H15  1  0.45164700  0.08509400  0.18832900  1
  H  H16  1  0.46092800  0.07767600  0.64564000  1
  H  H17  1  0.26738100  0.11832100  0.39008200  1
  H  H18  1  0.50747000  0.12949300  0.55409700  1
  H  H19  1  0.95725600  0.13492200  0.58041900  1
  H  H20  1  0.32467500  0.17960400  0.31063800  1
  H  H21  1  0.58511900  0.17008800  0.11196000  1
  H  H22  1  0.93842600  0.16524200  0.82452900  1
  H  H23  1  0.65003100  0.13494300  0.82003100  1
  H  H24  1  0.20719900  0.18584900  0.27572500  1
  H  H25  1  0.01188300  0.18248900  0.37712000  1
  H  H26  1  0.67861900  0.18728300  0.89184300  1
  H  H27  1  0.29823900  0.23023100  0.44509900  1
  H  H28  1  0.79823900  0.26976900  0.05490100  1
  H  H29  1  0.51188300  0.31751100  0.12288000  1
  H  H30  1  0.70719900  0.31415100  0.22427500  1
  H  H31  1  0.17861900  0.31271700  0.60815700  1
  H  H32  1  0.08511900  0.32991200  0.38804000  1
  H  H33  1  0.82467500  0.32039600  0.18936200  1
  H  H34  1  0.15003100  0.36505700  0.67996900  1
  H  H35  1  0.43842600  0.33475800  0.67547100  1
  H  H36  1  0.76738100  0.38167900  0.10991800  1
  H  H37  1  0.45725600  0.36507800  0.91958100  1
  H  H38  1  0.95164700  0.41490600  0.31167100  1
  H  H39  1  0.00747000  0.37050700  0.94590300  1
  H  H40  1  0.96092800  0.42232400  0.85436000  1
  H  H41  1  0.85327000  0.46276600  0.25806900  1
  H  H42  1  0.97754700  0.42940700  0.77361100  1
  H  H43  1  0.93699200  0.46830900  0.07243200  1
  H  H44  1  0.51329800  0.47946300  0.74184900  1
  H  H45  1  0.50193100  0.46890400  0.82312700  1
  H  H46  1  0.60439600  0.49794700  0.34635200  1
  H  H47  1  0.64884200  0.54374000  0.10674000  1
  H  H48  1  0.35115800  0.45626000  0.89326000  1
  H  H49  1  0.39560400  0.50205300  0.65364800  1
  H  H50  1  0.49806900  0.53109600  0.17687300  1
  H  H51  1  0.48670200  0.52053700  0.25815100  1
  H  H52  1  0.06300800  0.53169100  0.92756800  1
  H  H53  1  0.02245300  0.57059300  0.22638900  1
  H  H54  1  0.14673000  0.53723400  0.74193100  1
  H  H55  1  0.03907200  0.57767600  0.14564000  1
  H  H56  1  0.99253000  0.62949300  0.05409700  1
  H  H57  1  0.04835300  0.58509400  0.68832900  1
  H  H58  1  0.54274400  0.63492200  0.08041900  1
  H  H59  1  0.23261900  0.61832100  0.89008200  1
  H  H60  1  0.56157400  0.66524200  0.32452900  1
  H  H61  1  0.84996900  0.63494300  0.32003100  1
  H  H62  1  0.17532500  0.67960400  0.81063800  1
  H  H63  1  0.91488100  0.67008800  0.61196000  1
  H  H64  1  0.82138100  0.68728300  0.39184300  1
  H  H65  1  0.29280100  0.68584900  0.77572500  1
  H  H66  1  0.48811700  0.68248900  0.87712000  1
  H  H67  1  0.20176100  0.73023100  0.94509900  1
  H  H68  1  0.70176100  0.76976900  0.55490100  1
  H  H69  1  0.32138100  0.81271700  0.10815700  1
  H  H70  1  0.98811700  0.81751100  0.62288000  1
  H  H71  1  0.79280100  0.81415100  0.72427500  1
  H  H72  1  0.34996900  0.86505700  0.17996900  1
  H  H73  1  0.06157400  0.83475800  0.17547100  1
  H  H74  1  0.41488100  0.82991200  0.88804000  1
  H  H75  1  0.67532500  0.82039600  0.68936200  1
  H  H76  1  0.04274400  0.86507800  0.41958100  1
  H  H77  1  0.49253000  0.87050700  0.44590300  1
  H  H78  1  0.73261900  0.88167900  0.60991800  1
  H  H79  1  0.53907200  0.92232400  0.35436000  1
  H  H80  1  0.54835300  0.91490600  0.81167100  1
  H  H81  1  0.52245300  0.92940700  0.27361100  1
  H  H82  1  0.98670200  0.97946300  0.24184900  1
  H  H83  1  0.99806900  0.96890400  0.32312700  1
  H  H84  1  0.64673000  0.96276600  0.75806900  1
  H  H85  1  0.14884200  0.95626000  0.39326000  1
  H  H86  1  0.56300800  0.96830900  0.57243200  1
  H  H87  1  0.89560400  0.99794700  0.84635200  1
  C  C88  1  0.25968400  0.00320700  0.84798500  1
  C  C89  1  0.52039600  0.06663000  0.97646500  1
  C  C90  1  0.77013800  0.10890400  0.42784000  1
  C  C91  1  0.97606000  0.08121100  0.99169300  1
  C  C92  1  0.23187100  0.17553600  0.83983200  1
  C  C93  1  0.72528300  0.23256100  0.37717300  1
  C  C94  1  0.22528300  0.26743900  0.12282700  1
  C  C95  1  0.73187100  0.32446400  0.66016800  1
  C  C96  1  0.27013800  0.39109600  0.07216000  1
  C  C97  1  0.47606000  0.41878900  0.50830700  1
  C  C98  1  0.02039600  0.43337000  0.52353500  1
  C  C99  1  0.75968400  0.49679300  0.65201500  1
  C  C100  1  0.24031600  0.50320700  0.34798500  1
  C  C101  1  0.97960400  0.56663000  0.47646500  1
  C  C102  1  0.52394000  0.58121100  0.49169300  1
  C  C103  1  0.72986200  0.60890400  0.92784000  1
  C  C104  1  0.26812900  0.67553600  0.33983200  1
  C  C105  1  0.77471700  0.73256100  0.87717300  1
  C  C106  1  0.27471700  0.76743900  0.62282700  1
  C  C107  1  0.76812900  0.82446400  0.16016800  1
  C  C108  1  0.02394000  0.91878900  0.00830700  1
  C  C109  1  0.22986200  0.89109600  0.57216000  1
  C  C110  1  0.47960400  0.93337000  0.02353500  1
  C  C111  1  0.74031600  0.99679300  0.15201500  1
  O  O112  1  0.94703400  0.00415200  0.28490200  1
  O  O113  1  0.42179200  0.99845600  0.21742800  1
  O  O114  1  0.72357500  0.05428500  0.09458700  1
  O  O115  1  0.20964400  0.02282100  0.59247000  1
  O  O116  1  0.49186300  0.03292400  0.57962100  1
  O  O117  1  0.93694100  0.04119100  0.60672500  1
  O  O118  1  0.73139300  0.07013900  0.20322300  1
  O  O119  1  0.96154600  0.05659500  0.82633500  1
  O  O120  1  0.25938300  0.11317600  0.29965400  1
  O  O121  1  0.62835500  0.07002800  0.96101300  1
  O  O122  1  0.20581700  0.13500300  0.10259200  1
  O  O123  1  0.42693000  0.11675200  0.69012700  1
  O  O124  1  0.86575000  0.09780800  0.98782200  1
  O  O125  1  0.31416100  0.12864900  0.42968100  1
  O  O126  1  0.78551200  0.14766900  0.48567500  1
  O  O127  1  0.71183000  0.19274300  0.31918200  1
  O  O128  1  0.44359700  0.16218800  0.95672700  1
  O  O129  1  0.50982000  0.20586000  0.12887800  1
  O  O130  1  0.05102400  0.18708300  0.98324800  1
  O  O131  1  0.69822900  0.20843200  0.84528200  1
  O  O132  1  0.22110600  0.22984000  0.78203400  1
  O  O133  1  0.72521600  0.25101100  0.60859900  1
  O  O134  1  0.22521600  0.24898900  0.89140100  1
  O  O135  1  0.00982000  0.29414000  0.37112200  1
  O  O136  1  0.72110600  0.27016000  0.71796600  1
  O  O137  1  0.19822900  0.29156800  0.65471800  1
  O  O138  1  0.21183000  0.30725700  0.18081800  1
  O  O139  1  0.55102400  0.31291700  0.51675200  1
  O  O140  1  0.28551200  0.35233100  0.01432500  1
  O  O141  1  0.94359700  0.33781200  0.54327300  1
  O  O142  1  0.81416100  0.37135100  0.07031900  1
  O  O143  1  0.70581700  0.36499700  0.39740800  1
  O  O144  1  0.75938300  0.38682400  0.20034600  1
  O  O145  1  0.36575000  0.40219200  0.51217800  1
  O  O146  1  0.92693000  0.38324800  0.80987300  1
  O  O147  1  0.23139300  0.42986100  0.29677700  1
  O  O148  1  0.12835500  0.42997200  0.53898700  1
  O  O149  1  0.22357500  0.44571500  0.40541300  1
  O  O150  1  0.46154600  0.44340500  0.67366500  1
  O  O151  1  0.43694100  0.45880900  0.89327500  1
  O  O152  1  0.92179200  0.50154400  0.28257200  1
  O  O153  1  0.44703400  0.49584800  0.21509800  1
  O  O154  1  0.99186300  0.46707600  0.92037900  1
  O  O155  1  0.70964400  0.47717900  0.90753000  1
  O  O156  1  0.29035600  0.52282100  0.09247000  1
  O  O157  1  0.00813700  0.53292400  0.07962100  1
  O  O158  1  0.55296600  0.50415200  0.78490200  1
  O  O159  1  0.07820800  0.49845600  0.71742800  1
  O  O160  1  0.56305900  0.54119100  0.10672500  1
  O  O161  1  0.53845400  0.55659500  0.32633500  1
  O  O162  1  0.77642500  0.55428500  0.59458700  1
  O  O163  1  0.87164500  0.57002800  0.46101300  1
  O  O164  1  0.76860700  0.57013900  0.70322300  1
  O  O165  1  0.07307000  0.61675200  0.19012700  1
  O  O166  1  0.63425000  0.59780800  0.48782200  1
  O  O167  1  0.24061700  0.61317600  0.79965400  1
  O  O168  1  0.29418300  0.63500300  0.60259200  1
  O  O169  1  0.18583900  0.62864900  0.92968100  1
  O  O170  1  0.05640300  0.66218800  0.45672700  1
  O  O171  1  0.71448800  0.64766900  0.98567500  1
  O  O172  1  0.44897600  0.68708300  0.48324800  1
  O  O173  1  0.78817000  0.69274300  0.81918200  1
  O  O174  1  0.80177100  0.70843200  0.34528200  1
  O  O175  1  0.27889400  0.72984000  0.28203400  1
  O  O176  1  0.99018000  0.70586000  0.62887800  1
  O  O177  1  0.77478400  0.75101100  0.10859900  1
  O  O178  1  0.27478400  0.74898900  0.39140100  1
  O  O179  1  0.77889400  0.77016000  0.21796600  1
  O  O180  1  0.30177100  0.79156800  0.15471800  1
  O  O181  1  0.94897600  0.81291700  0.01675200  1
  O  O182  1  0.49018000  0.79414000  0.87112200  1
  O  O183  1  0.55640300  0.83781200  0.04327300  1
  O  O184  1  0.28817000  0.80725700  0.68081800  1
  O  O185  1  0.21448800  0.85233100  0.51432500  1
  O  O186  1  0.68583900  0.87135100  0.57031900  1
  O  O187  1  0.13425000  0.90219200  0.01217800  1
  O  O188  1  0.57307000  0.88324800  0.30987300  1
  O  O189  1  0.79418300  0.86499700  0.89740800  1
  O  O190  1  0.37164500  0.92997200  0.03898700  1
  O  O191  1  0.74061700  0.88682400  0.70034600  1
  O  O192  1  0.03845400  0.94340500  0.17366500  1
  O  O193  1  0.26860700  0.92986100  0.79677700  1
  O  O194  1  0.06305900  0.95880900  0.39327500  1
  O  O195  1  0.50813700  0.96707600  0.42037900  1
  O  O196  1  0.79035600  0.97717900  0.40753000  1
  O  O197  1  0.27642500  0.94571500  0.90541300  1
  O  O198  1  0.57820800  0.00154400  0.78257200  1
  O  O199  1  0.05296600  0.99584800  0.71509800  1
