# generated using pymatgen
data_KV12O30
_symmetry_space_group_name_H-M   'P 1'
_cell_length_a   10.87619597
_cell_length_b   10.87619597
_cell_length_c   15.29099000
_cell_angle_alpha   90.00000000
_cell_angle_beta   90.00000000
_cell_angle_gamma   119.99999983
_symmetry_Int_Tables_number   1
_chemical_formula_structural   KV12O30
_chemical_formula_sum   'K2 V24 O60'
_cell_volume   1566.46351954
_cell_formula_units_Z   2
loop_
 _symmetry_equiv_pos_site_id
 _symmetry_equiv_pos_as_xyz
  1  'x, y, z'
loop_
 _atom_site_type_symbol
 _atom_site_label
 _atom_site_symmetry_multiplicity
 _atom_site_fract_x
 _atom_site_fract_y
 _atom_site_fract_z
 _atom_site_occupancy
  K  K0  1  0.00000000  0.00000000  0.25000000  1
  K  K1  1  0.00000000  0.00000000  0.75000000  1
  V  V2  1  0.11965000  0.75453900  0.61574200  1
  V  V3  1  0.11965000  0.75453900  0.38425800  1
  V  V4  1  0.11965000  0.36511100  0.11574200  1
  V  V5  1  0.11965000  0.36511100  0.88425800  1
  V  V6  1  0.88035000  0.63488900  0.11574200  1
  V  V7  1  0.88035000  0.63488900  0.88425800  1
  V  V8  1  0.88035000  0.24546100  0.38425800  1
  V  V9  1  0.88035000  0.24546100  0.61574200  1
  V  V10  1  0.24546100  0.88035000  0.11574200  1
  V  V11  1  0.24546100  0.88035000  0.88425800  1
  V  V12  1  0.24546100  0.36511100  0.61574200  1
  V  V13  1  0.24546100  0.36511100  0.38425800  1
  V  V14  1  0.63488900  0.88035000  0.38425800  1
  V  V15  1  0.63488900  0.88035000  0.61574200  1
  V  V16  1  0.36511100  0.24546100  0.11574200  1
  V  V17  1  0.36511100  0.24546100  0.88425800  1
  V  V18  1  0.63488900  0.75453900  0.11574200  1
  V  V19  1  0.63488900  0.75453900  0.88425800  1
  V  V20  1  0.36511100  0.11965000  0.61574200  1
  V  V21  1  0.36511100  0.11965000  0.38425800  1
  V  V22  1  0.75453900  0.63488900  0.38425800  1
  V  V23  1  0.75453900  0.63488900  0.61574200  1
  V  V24  1  0.75453900  0.11965000  0.11574200  1
  V  V25  1  0.75453900  0.11965000  0.88425800  1
  O  O26  1  0.05901000  0.77205500  0.14382700  1
  O  O27  1  0.05901000  0.77205500  0.85617300  1
  O  O28  1  0.22794500  0.94099000  0.64382700  1
  O  O29  1  0.22794500  0.94099000  0.35617300  1
  O  O30  1  0.13506300  0.73079600  0.50000000  1
  O  O31  1  0.26920400  0.86493700  0.00000000  1
  O  O32  1  0.16214400  0.65425900  0.33022200  1
  O  O33  1  0.16214400  0.65425900  0.66977800  1
  O  O34  1  0.16214400  0.50788500  0.16977800  1
  O  O35  1  0.16214400  0.50788500  0.83022200  1
  O  O36  1  0.05901000  0.28695500  0.64382700  1
  O  O37  1  0.05901000  0.28695500  0.35617300  1
  O  O38  1  0.34574100  0.83785600  0.16977800  1
  O  O39  1  0.34574100  0.83785600  0.83022200  1
  O  O40  1  0.13506300  0.40426700  0.00000000  1
  O  O41  1  0.26920400  0.40426700  0.50000000  1
  O  O42  1  0.49211500  0.83785600  0.66977800  1
  O  O43  1  0.49211500  0.83785600  0.33022200  1
  O  O44  1  0.22794500  0.28695500  0.14382700  1
  O  O45  1  0.22794500  0.28695500  0.85617300  1
  O  O46  1  0.34574100  0.50788500  0.66977800  1
  O  O47  1  0.34574100  0.50788500  0.33022200  1
  O  O48  1  0.49211500  0.65425900  0.16977800  1
  O  O49  1  0.49211500  0.65425900  0.83022200  1
  O  O50  1  0.28695500  0.22794500  0.64382700  1
  O  O51  1  0.28695500  0.22794500  0.35617300  1
  O  O52  1  0.59573300  0.86493700  0.50000000  1
  O  O53  1  0.59573300  0.73079600  0.00000000  1
  O  O54  1  0.28695500  0.05901000  0.14382700  1
  O  O55  1  0.28695500  0.05901000  0.85617300  1
  O  O56  1  0.71304500  0.94099000  0.14382700  1
  O  O57  1  0.71304500  0.94099000  0.85617300  1
  O  O58  1  0.40426700  0.26920400  0.00000000  1
  O  O59  1  0.40426700  0.13506300  0.50000000  1
  O  O60  1  0.71304500  0.77205500  0.35617300  1
  O  O61  1  0.71304500  0.77205500  0.64382700  1
  O  O62  1  0.50788500  0.34574100  0.16977800  1
  O  O63  1  0.50788500  0.34574100  0.83022200  1
  O  O64  1  0.65425900  0.49211500  0.33022200  1
  O  O65  1  0.65425900  0.49211500  0.66977800  1
  O  O66  1  0.77205500  0.71304500  0.14382700  1
  O  O67  1  0.77205500  0.71304500  0.85617300  1
  O  O68  1  0.50788500  0.16214400  0.33022200  1
  O  O69  1  0.50788500  0.16214400  0.66977800  1
  O  O70  1  0.73079600  0.59573300  0.50000000  1
  O  O71  1  0.86493700  0.59573300  0.00000000  1
  O  O72  1  0.65425900  0.16214400  0.16977800  1
  O  O73  1  0.65425900  0.16214400  0.83022200  1
  O  O74  1  0.94099000  0.71304500  0.35617300  1
  O  O75  1  0.94099000  0.71304500  0.64382700  1
  O  O76  1  0.83785600  0.49211500  0.83022200  1
  O  O77  1  0.83785600  0.49211500  0.16977800  1
  O  O78  1  0.83785600  0.34574100  0.33022200  1
  O  O79  1  0.83785600  0.34574100  0.66977800  1
  O  O80  1  0.73079600  0.13506300  0.00000000  1
  O  O81  1  0.86493700  0.26920400  0.50000000  1
  O  O82  1  0.77205500  0.05901000  0.35617300  1
  O  O83  1  0.77205500  0.05901000  0.64382700  1
  O  O84  1  0.94099000  0.22794500  0.14382700  1
  O  O85  1  0.94099000  0.22794500  0.85617300  1
