# generated using pymatgen
data_V3(PO4)2
_symmetry_space_group_name_H-M   'P 1'
_cell_length_a   4.90032431
_cell_length_b   10.62092290
_cell_length_c   6.14558760
_cell_angle_alpha   90.76165631
_cell_angle_beta   89.97276964
_cell_angle_gamma   89.97008653
_symmetry_Int_Tables_number   1
_chemical_formula_structural   V3(PO4)2
_chemical_formula_sum   'V6 P4 O16'
_cell_volume   319.82470558
_cell_formula_units_Z   2
loop_
 _symmetry_equiv_pos_site_id
 _symmetry_equiv_pos_as_xyz
  1  'x, y, z'
loop_
 _atom_site_type_symbol
 _atom_site_label
 _atom_site_symmetry_multiplicity
 _atom_site_fract_x
 _atom_site_fract_y
 _atom_site_fract_z
 _atom_site_occupancy
  V  V0  1  0.99050800  0.27531200  0.24534400  1
  V  V1  1  0.00981400  0.72443800  0.75417700  1
  V  V2  1  0.49054800  0.22447200  0.75516800  1
  V  V3  1  0.49920700  0.49904200  0.50050700  1
  V  V4  1  0.00092600  0.00134000  0.50206200  1
  V  V5  1  0.50893800  0.77576200  0.24320500  1
  P  P6  1  0.07433500  0.59664500  0.25280900  1
  P  P7  1  0.42538900  0.09685200  0.25268700  1
  P  P8  1  0.57520600  0.90329700  0.74619500  1
  P  P9  1  0.92498400  0.40302100  0.74786600  1
  O  O10  1  0.18665500  0.67202400  0.05873200  1
  O  O11  1  0.31209500  0.17233900  0.05910200  1
  O  O12  1  0.68835700  0.82730700  0.93928600  1
  O  O13  1  0.81155000  0.32766100  0.94156200  1
  O  O14  1  0.31575200  0.95984400  0.25794000  1
  O  O15  1  0.18271500  0.45937300  0.25768400  1
  O  O16  1  0.81650700  0.54019400  0.74239500  1
  O  O17  1  0.68314900  0.04055900  0.74324200  1
  O  O18  1  0.76148200  0.60398800  0.27438400  1
  O  O19  1  0.73821100  0.10361600  0.27298200  1
  O  O20  1  0.26227500  0.89610800  0.72656300  1
  O  O21  1  0.23796700  0.39595300  0.72790700  1
  O  O22  1  0.22853800  0.66122600  0.45698700  1
  O  O23  1  0.27372200  0.16191000  0.45778700  1
  O  O24  1  0.72793300  0.83952200  0.54056400  1
  O  O25  1  0.77323700  0.33819700  0.54286300  1
