# generated using pymatgen
data_V4(OF3)3
_symmetry_space_group_name_H-M   'P 1'
_cell_length_a   5.39196127
_cell_length_b   5.39196127
_cell_length_c   9.07536502
_cell_angle_alpha   74.15986320
_cell_angle_beta   74.15986320
_cell_angle_gamma   58.28725012
_symmetry_Int_Tables_number   1
_chemical_formula_structural   V4(OF3)3
_chemical_formula_sum   'V4 O3 F9'
_cell_volume   213.21330200
_cell_formula_units_Z   1
loop_
 _symmetry_equiv_pos_site_id
 _symmetry_equiv_pos_as_xyz
  1  'x, y, z'
loop_
 _atom_site_type_symbol
 _atom_site_label
 _atom_site_symmetry_multiplicity
 _atom_site_fract_x
 _atom_site_fract_y
 _atom_site_fract_z
 _atom_site_occupancy
  V  V0  1  0.75014800  0.47810500  0.62052600  1
  V  V1  1  0.52189500  0.24985200  0.37947400  1
  V  V2  1  0.21635100  0.02172300  0.12966800  1
  V  V3  1  0.97827700  0.78364900  0.87033200  1
  O  O4  1  0.70527400  0.29472600  0.50000000  1
  O  O5  1  0.83971100  0.14370700  0.79212800  1
  O  O6  1  0.85629300  0.16028900  0.20787200  1
  F  F7  1  0.33408700  0.67282200  0.29411200  1
  F  F8  1  0.32717800  0.66591300  0.70588800  1
  F  F9  1  0.77928800  0.70293100  0.75070900  1
  F  F10  1  0.17212500  0.32675700  0.54637500  1
  F  F11  1  0.16824900  0.33872700  0.95162400  1
  F  F12  1  0.29706900  0.22071200  0.24929100  1
  F  F13  1  0.21953900  0.78046100  0.00000000  1
  F  F14  1  0.66127300  0.83175100  0.04837600  1
  F  F15  1  0.67324300  0.82787500  0.45362500  1
