# generated using pymatgen
data_Cr19O48
_symmetry_space_group_name_H-M   'P 1'
_cell_length_a   4.99918100
_cell_length_b   10.35602091
_cell_length_c   17.30467293
_cell_angle_alpha   90.23784252
_cell_angle_beta   90.44008264
_cell_angle_gamma   90.14223237
_symmetry_Int_Tables_number   1
_chemical_formula_structural   Cr19O48
_chemical_formula_sum   'Cr19 O48'
_cell_volume   895.85402471
_cell_formula_units_Z   1
loop_
 _symmetry_equiv_pos_site_id
 _symmetry_equiv_pos_as_xyz
  1  'x, y, z'
loop_
 _atom_site_type_symbol
 _atom_site_label
 _atom_site_symmetry_multiplicity
 _atom_site_fract_x
 _atom_site_fract_y
 _atom_site_fract_z
 _atom_site_occupancy
  Cr  Cr0  1  0.09935800  0.25321300  0.25320700  1
  Cr  Cr1  1  0.20571000  0.74913300  0.94545200  1
  Cr  Cr2  1  0.20848100  0.02097900  0.65822100  1
  Cr  Cr3  1  0.20666500  0.47384500  0.65147800  1
  Cr  Cr4  1  0.24612900  0.06819400  0.97300500  1
  Cr  Cr5  1  0.27790500  0.94045600  0.47552800  1
  Cr  Cr6  1  0.26957500  0.52740200  0.15441100  1
  Cr  Cr7  1  0.27912500  0.97185100  0.15582500  1
  Cr  Cr8  1  0.26391600  0.25429700  0.44549100  1
  Cr  Cr9  1  0.73460900  0.75348800  0.55351100  1
  Cr  Cr10  1  0.71836800  0.02621300  0.84446600  1
  Cr  Cr11  1  0.73874700  0.48085800  0.84387500  1
  Cr  Cr12  1  0.72006900  0.44021200  0.52188000  1
  Cr  Cr13  1  0.75054200  0.56402800  0.02609100  1
  Cr  Cr14  1  0.74438100  0.92630300  0.02816600  1
  Cr  Cr15  1  0.79192200  0.52424200  0.34235600  1
  Cr  Cr16  1  0.79182400  0.97534800  0.34751000  1
  Cr  Cr17  1  0.78879700  0.24399400  0.05612700  1
  Cr  Cr18  1  0.89421400  0.74817100  0.74117500  1
  O  O19  1  0.05215600  0.23178300  0.99755200  1
  O  O20  1  0.04707200  0.60677900  0.36982200  1
  O  O21  1  0.06304400  0.89494900  0.38565600  1
  O  O22  1  0.11491500  0.62492900  0.20867500  1
  O  O23  1  0.10856000  0.88067600  0.20913000  1
  O  O24  1  0.11537700  0.11456800  0.46751600  1
  O  O25  1  0.05044500  0.37006100  0.46799600  1
  O  O26  1  0.07762200  0.99995700  0.07181200  1
  O  O27  1  0.06859900  0.50146900  0.07616200  1
  O  O28  1  0.12942300  0.75161200  0.85367100  1
  O  O29  1  0.12406300  0.61328300  0.69742400  1
  O  O30  1  0.11913600  0.87816500  0.70695400  1
  O  O31  1  0.32747500  0.11396400  0.19910600  1
  O  O32  1  0.31576600  0.38300700  0.19852300  1
  O  O33  1  0.32245400  0.25527800  0.34984300  1
  O  O34  1  0.39114300  0.98280700  0.57578500  1
  O  O35  1  0.42908300  0.50464400  0.57764100  1
  O  O36  1  0.40106300  0.88640300  0.96794400  1
  O  O37  1  0.41695100  0.63554700  0.96839800  1
  O  O38  1  0.40457600  0.10645800  0.71210900  1
  O  O39  1  0.36195900  0.37986700  0.70780000  1
  O  O40  1  0.44257700  0.10395800  0.87720200  1
  O  O41  1  0.46231300  0.41269800  0.86687600  1
  O  O42  1  0.45750100  0.76956800  0.49924300  1
  O  O43  1  0.54258200  0.27060400  0.50040600  1
  O  O44  1  0.55734300  0.59710300  0.12182900  1
  O  O45  1  0.55603100  0.89321200  0.12465800  1
  O  O46  1  0.59520600  0.61329900  0.29124300  1
  O  O47  1  0.63610000  0.88156900  0.28972800  1
  O  O48  1  0.58252700  0.10873000  0.03492200  1
  O  O49  1  0.62405900  0.37677600  0.03435200  1
  O  O50  1  0.57332700  0.00538900  0.42190000  1
  O  O51  1  0.60448800  0.48169600  0.42518800  1
  O  O52  1  0.67323800  0.75579700  0.65069500  1
  O  O53  1  0.68779000  0.62701100  0.79179400  1
  O  O54  1  0.67324300  0.88388800  0.80028600  1
  O  O55  1  0.87935800  0.11056400  0.30128600  1
  O  O56  1  0.86867900  0.38458600  0.29427500  1
  O  O57  1  0.87769900  0.24229300  0.14761400  1
  O  O58  1  0.91020600  0.52618500  0.92674800  1
  O  O59  1  0.91494400  0.99001800  0.92913800  1
  O  O60  1  0.88630000  0.61502100  0.53264700  1
  O  O61  1  0.94711200  0.86957900  0.53259700  1
  O  O62  1  0.89974100  0.11904900  0.79528900  1
  O  O63  1  0.91817700  0.38287800  0.79510700  1
  O  O64  1  0.95464700  0.10405600  0.63243500  1
  O  O65  1  0.93336100  0.39535100  0.61417400  1
  O  O66  1  0.92505200  0.74929800  0.00761900  1
