# generated using pymatgen
data_TiV(PO4)2
_symmetry_space_group_name_H-M   'P 1'
_cell_length_a   8.60538872
_cell_length_b   8.60538872
_cell_length_c   8.60538885
_cell_angle_alpha   60.58518080
_cell_angle_beta   60.58518080
_cell_angle_gamma   60.58517396
_symmetry_Int_Tables_number   1
_chemical_formula_structural   TiV(PO4)2
_chemical_formula_sum   'Ti3 V3 P6 O24'
_cell_volume   456.56141914
_cell_formula_units_Z   3
loop_
 _symmetry_equiv_pos_site_id
 _symmetry_equiv_pos_as_xyz
  1  'x, y, z'
loop_
 _atom_site_type_symbol
 _atom_site_label
 _atom_site_symmetry_multiplicity
 _atom_site_fract_x
 _atom_site_fract_y
 _atom_site_fract_z
 _atom_site_occupancy
  Ti  Ti0  1  0.64497500  0.64497500  0.64497500  1
  Ti  Ti1  1  0.85645300  0.85645300  0.85645300  1
  Ti  Ti2  1  0.35490900  0.35490900  0.35490900  1
  V  V3  1  0.99927000  0.99927000  0.99927000  1
  V  V4  1  0.14167300  0.14167300  0.14167300  1
  V  V5  1  0.50100000  0.50100000  0.50100000  1
  P  P6  1  0.95593800  0.24981600  0.54271400  1
  P  P7  1  0.54271400  0.95593800  0.24981600  1
  P  P8  1  0.24981600  0.54271400  0.95593800  1
  P  P9  1  0.74914800  0.45715500  0.04346600  1
  P  P10  1  0.45715500  0.04346600  0.74914800  1
  P  P11  1  0.04346600  0.74914800  0.45715500  1
  O  O12  1  0.49729300  0.11802100  0.31527700  1
  O  O13  1  0.31527700  0.49729300  0.11802000  1
  O  O14  1  0.11802100  0.31527700  0.49729300  1
  O  O15  1  0.94190200  0.08959800  0.73946100  1
  O  O16  1  0.99033900  0.18675900  0.39139000  1
  O  O17  1  0.76115000  0.41313100  0.56500800  1
  O  O18  1  0.73946100  0.94190200  0.08959800  1
  O  O19  1  0.56500800  0.76115000  0.41313100  1
  O  O20  1  0.81554200  0.61682000  0.99812600  1
  O  O21  1  0.41313100  0.56500800  0.76115000  1
  O  O22  1  0.90408300  0.26316100  0.05477500  1
  O  O23  1  0.61682000  0.99812600  0.81554200  1
  O  O24  1  0.39139000  0.99033900  0.18675900  1
  O  O25  1  0.08959800  0.73946100  0.94190200  1
  O  O26  1  0.58721300  0.44443900  0.23827500  1
  O  O27  1  0.18675900  0.39139000  0.99033900  1
  O  O28  1  0.44443900  0.23827500  0.58721300  1
  O  O29  1  0.26316100  0.05477500  0.90408300  1
  O  O30  1  0.23827500  0.58721300  0.44443900  1
  O  O31  1  0.99812600  0.81554200  0.61682000  1
  O  O32  1  0.05477500  0.90408300  0.26316100  1
  O  O33  1  0.88469400  0.67891600  0.50811100  1
  O  O34  1  0.67891600  0.50811100  0.88469400  1
  O  O35  1  0.50811100  0.88469400  0.67891600  1
