# generated using pymatgen
data_Pr2In8Pd
_symmetry_space_group_name_H-M   'P 1'
_cell_length_a   4.75421100
_cell_length_b   4.75421100
_cell_length_c   12.41465900
_cell_angle_alpha   90.00000000
_cell_angle_beta   90.00000000
_cell_angle_gamma   90.00000000
_symmetry_Int_Tables_number   1
_chemical_formula_structural   Pr2In8Pd
_chemical_formula_sum   'Pr2 In8 Pd1'
_cell_volume   280.60260606
_cell_formula_units_Z   1
loop_
 _symmetry_equiv_pos_site_id
 _symmetry_equiv_pos_as_xyz
  1  'x, y, z'
loop_
 _atom_site_type_symbol
 _atom_site_label
 _atom_site_symmetry_multiplicity
 _atom_site_fract_x
 _atom_site_fract_y
 _atom_site_fract_z
 _atom_site_occupancy
  Pr  Pr0  1  0.00000000  0.00000000  0.30903200  1
  Pr  Pr1  1  0.00000000  0.00000000  0.69096800  1
  In  In2  1  0.50000000  0.00000000  0.12268100  1
  In  In3  1  0.00000000  0.50000000  0.12268100  1
  In  In4  1  0.50000000  0.50000000  0.30733600  1
  In  In5  1  0.50000000  0.00000000  0.50000000  1
  In  In6  1  0.00000000  0.50000000  0.50000000  1
  In  In7  1  0.50000000  0.50000000  0.69266400  1
  In  In8  1  0.50000000  0.00000000  0.87731900  1
  In  In9  1  0.00000000  0.50000000  0.87731900  1
  Pd  Pd10  1  0.00000000  0.00000000  0.00000000  1
