# generated using pymatgen
data_USe2
_symmetry_space_group_name_H-M   'P 1'
_cell_length_a   7.69213447
_cell_length_b   7.69213447
_cell_length_c   4.08009200
_cell_angle_alpha   90.00000000
_cell_angle_beta   90.00000000
_cell_angle_gamma   120.00000407
_symmetry_Int_Tables_number   1
_chemical_formula_structural   USe2
_chemical_formula_sum   'U3 Se6'
_cell_volume   209.07124511
_cell_formula_units_Z   3
loop_
 _symmetry_equiv_pos_site_id
 _symmetry_equiv_pos_as_xyz
  1  'x, y, z'
loop_
 _atom_site_type_symbol
 _atom_site_label
 _atom_site_symmetry_multiplicity
 _atom_site_fract_x
 _atom_site_fract_y
 _atom_site_fract_z
 _atom_site_occupancy
  U  U0  1  0.00000000  0.00000000  0.00000000  1
  U  U1  1  0.66666700  0.33333300  0.50000000  1
  U  U2  1  0.33333300  0.66666700  0.50000000  1
  Se  Se3  1  0.00000000  0.59410800  0.00000000  1
  Se  Se4  1  0.40589200  0.40589200  0.00000000  1
  Se  Se5  1  0.59410800  0.00000000  0.00000000  1
  Se  Se6  1  0.25920000  0.00000000  0.50000000  1
  Se  Se7  1  0.74080000  0.74080000  0.50000000  1
  Se  Se8  1  0.00000000  0.25920000  0.50000000  1
