# generated using pymatgen
data_V3(O2F)2
_symmetry_space_group_name_H-M   'P 1'
_cell_length_a   4.72063024
_cell_length_b   4.72063024
_cell_length_c   9.14123090
_cell_angle_alpha   89.91690612
_cell_angle_beta   89.91690612
_cell_angle_gamma   85.75588480
_symmetry_Int_Tables_number   1
_chemical_formula_structural   V3(O2F)2
_chemical_formula_sum   'V6 O8 F4'
_cell_volume   203.14738396
_cell_formula_units_Z   2
loop_
 _symmetry_equiv_pos_site_id
 _symmetry_equiv_pos_as_xyz
  1  'x, y, z'
loop_
 _atom_site_type_symbol
 _atom_site_label
 _atom_site_symmetry_multiplicity
 _atom_site_fract_x
 _atom_site_fract_y
 _atom_site_fract_z
 _atom_site_occupancy
  V  V0  1  0.00323300  0.00323300  0.67328300  1
  V  V1  1  0.00000000  0.00000000  0.00000000  1
  V  V2  1  0.99676700  0.99676700  0.32671700  1
  V  V3  1  0.45591800  0.45591800  0.83448300  1
  V  V4  1  0.50000000  0.50000000  0.50000000  1
  V  V5  1  0.54408200  0.54408200  0.16551700  1
  O  O6  1  0.80326900  0.80326900  0.16369000  1
  O  O7  1  0.69187900  0.29919500  0.66975100  1
  O  O8  1  0.69209900  0.30790100  0.00000000  1
  O  O9  1  0.70080500  0.30812100  0.33024900  1
  O  O10  1  0.29919500  0.69187900  0.66975100  1
  O  O11  1  0.30790100  0.69209900  0.00000000  1
  O  O12  1  0.30812100  0.70080500  0.33024900  1
  O  O13  1  0.19673100  0.19673100  0.83631000  1
  F  F14  1  0.79838900  0.79838900  0.83534200  1
  F  F15  1  0.80592500  0.80592500  0.50132000  1
  F  F16  1  0.19407500  0.19407500  0.49868000  1
  F  F17  1  0.20161100  0.20161100  0.16465800  1
