# generated using pymatgen
data_VFeO4
_symmetry_space_group_name_H-M   'P 1'
_cell_length_a   5.80526826
_cell_length_b   5.80526826
_cell_length_c   5.80526826
_cell_angle_alpha   119.08832584
_cell_angle_beta   115.56651627
_cell_angle_gamma   94.71986342
_symmetry_Int_Tables_number   1
_chemical_formula_structural   VFeO4
_chemical_formula_sum   'V2 Fe2 O8'
_cell_volume   143.24977156
_cell_formula_units_Z   2
loop_
 _symmetry_equiv_pos_site_id
 _symmetry_equiv_pos_as_xyz
  1  'x, y, z'
loop_
 _atom_site_type_symbol
 _atom_site_label
 _atom_site_symmetry_multiplicity
 _atom_site_fract_x
 _atom_site_fract_y
 _atom_site_fract_z
 _atom_site_occupancy
  V  V0  1  0.63757900  0.38757900  0.25000000  1
  V  V1  1  0.36242100  0.61242100  0.75000000  1
  Fe  Fe2  1  0.00000000  0.00000000  0.00000000  1
  Fe  Fe3  1  0.50000000  0.00000000  0.50000000  1
  O  O4  1  0.75294600  0.23373400  0.98078700  1
  O  O5  1  0.72636900  0.25805600  0.46831300  1
  O  O6  1  0.28974400  0.25805600  0.03168700  1
  O  O7  1  0.24705400  0.22784100  0.48078700  1
  O  O8  1  0.75294600  0.77215900  0.51921300  1
  O  O9  1  0.71025600  0.74194400  0.96831300  1
  O  O10  1  0.27363100  0.74194400  0.53168700  1
  O  O11  1  0.24705400  0.76626600  0.01921300  1
