# generated using pymatgen
data_Mn6O7F5
_symmetry_space_group_name_H-M   'P 1'
_cell_length_a   4.56044300
_cell_length_b   5.67847711
_cell_length_c   15.36794734
_cell_angle_alpha   90.04338792
_cell_angle_beta   90.14857525
_cell_angle_gamma   90.49171145
_symmetry_Int_Tables_number   1
_chemical_formula_structural   Mn6O7F5
_chemical_formula_sum   'Mn12 O14 F10'
_cell_volume   397.95795435
_cell_formula_units_Z   2
loop_
 _symmetry_equiv_pos_site_id
 _symmetry_equiv_pos_as_xyz
  1  'x, y, z'
loop_
 _atom_site_type_symbol
 _atom_site_label
 _atom_site_symmetry_multiplicity
 _atom_site_fract_x
 _atom_site_fract_y
 _atom_site_fract_z
 _atom_site_occupancy
  Mn  Mn0  1  0.97642500  0.83884200  0.40956100  1
  Mn  Mn1  1  0.99008100  0.15327600  0.24364700  1
  Mn  Mn2  1  0.97184200  0.84169700  0.07877000  1
  Mn  Mn3  1  0.99447800  0.84784500  0.73998800  1
  Mn  Mn4  1  0.98392200  0.15241100  0.57257700  1
  Mn  Mn5  1  0.99144400  0.15320200  0.91033100  1
  Mn  Mn6  1  0.49873000  0.64981500  0.58686600  1
  Mn  Mn7  1  0.48622400  0.65243000  0.92562100  1
  Mn  Mn8  1  0.49872900  0.65078800  0.25417200  1
  Mn  Mn9  1  0.49575100  0.36330200  0.09449600  1
  Mn  Mn10  1  0.49496500  0.36701600  0.42597600  1
  Mn  Mn11  1  0.49067800  0.34981200  0.75781600  1
  O  O12  1  0.78082900  0.88621300  0.30097100  1
  O  O13  1  0.77756000  0.88749300  0.63265000  1
  O  O14  1  0.77749400  0.88380900  0.96963900  1
  O  O15  1  0.76328900  0.11406500  0.13681200  1
  O  O16  1  0.76068300  0.11419700  0.46713200  1
  O  O17  1  0.77964200  0.11546500  0.80118100  1
  O  O18  1  0.71950800  0.60286100  0.14729100  1
  O  O19  1  0.72042500  0.60267100  0.47936900  1
  O  O20  1  0.26741100  0.61137900  0.03213100  1
  O  O21  1  0.27520200  0.38003000  0.19755900  1
  O  O22  1  0.27230700  0.61380400  0.36158800  1
  O  O23  1  0.27224600  0.38263700  0.52798500  1
  O  O24  1  0.27817800  0.38391400  0.86618300  1
  O  O25  1  0.28163800  0.61731800  0.69646500  1
  F  F26  1  0.74088900  0.38196800  0.32002000  1
  F  F27  1  0.74491500  0.38303800  0.65283000  1
  F  F28  1  0.74487300  0.61888700  0.82109100  1
  F  F29  1  0.73828600  0.38048800  0.98767100  1
  F  F30  1  0.22678100  0.87888200  0.18290300  1
  F  F31  1  0.22598200  0.87630000  0.51366600  1
  F  F32  1  0.24604200  0.13044200  0.35601400  1
  F  F33  1  0.24482400  0.12729000  0.02392700  1
  F  F34  1  0.24367000  0.88533200  0.84761800  1
  F  F35  1  0.24405200  0.12107700  0.67748100  1
