data_image0
_chemical_formula_structural       As3NaZn4
_chemical_formula_sum              "As3 Na1 Zn4"
_cell_length_a       4.1762
_cell_length_b       4.1762
_cell_length_c       11.2489
_cell_angle_alpha    90
_cell_angle_beta     100.698
_cell_angle_gamma    60

_space_group_name_H-M_alt    "P 1"
_space_group_IT_number       1

loop_
  _space_group_symop_operation_xyz
  'x, y, z'

loop_
  _atom_site_type_symbol
  _atom_site_label
  _atom_site_symmetry_multiplicity
  _atom_site_fract_x
  _atom_site_fract_y
  _atom_site_fract_z
  _atom_site_occupancy
  As  As1       1.0  0.00000  0.00000  0.00000  1.0000
  As  As2       1.0  0.54900  0.22600  0.32300  1.0000
  As  As3       1.0  0.45100  0.77400  0.67700  1.0000
  Na  Na1       1.0  0.00000  0.50000  0.50000  1.0000
  Zn  Zn1       1.0  0.39900  0.30100  0.09790  1.0000
  Zn  Zn2       1.0  0.18400  0.90800  0.27600  1.0000
  Zn  Zn3       1.0  0.81600  0.09190  0.72400  1.0000
  Zn  Zn4       1.0  0.60100  0.69900  0.90200  1.0000
