# generated using pymatgen
data_MoSe2
_symmetry_space_group_name_H-M   'P 1'
_cell_length_a   3.32694845
_cell_length_b   3.32694845
_cell_length_c   33.17713500
_cell_angle_alpha   90.00000000
_cell_angle_beta   90.00000000
_cell_angle_gamma   120.00000887
_symmetry_Int_Tables_number   1
_chemical_formula_structural   MoSe2
_chemical_formula_sum   'Mo3 Se6'
_cell_volume   318.02525910
_cell_formula_units_Z   3
loop_
 _symmetry_equiv_pos_site_id
 _symmetry_equiv_pos_as_xyz
  1  'x, y, z'
loop_
 _atom_site_type_symbol
 _atom_site_label
 _atom_site_symmetry_multiplicity
 _atom_site_fract_x
 _atom_site_fract_y
 _atom_site_fract_z
 _atom_site_occupancy
  Mo  Mo0  1  0.66666700  0.33333300  0.00000000  1
  Mo  Mo1  1  0.33333300  0.66666700  0.76713700  1
  Mo  Mo2  1  0.33333300  0.66666700  0.23286300  1
  Se  Se3  1  0.33333300  0.66666700  0.05041500  1
  Se  Se4  1  0.66666700  0.33333300  0.81755200  1
  Se  Se5  1  0.66666700  0.33333300  0.28327700  1
  Se  Se6  1  0.33333300  0.66666700  0.94958500  1
  Se  Se7  1  0.66666700  0.33333300  0.71672300  1
  Se  Se8  1  0.66666700  0.33333300  0.18244800  1
