# generated using pymatgen
data_ThNb4O12
_symmetry_space_group_name_H-M   'P 1'
_cell_length_a   11.97588008
_cell_length_b   11.97588008
_cell_length_c   11.97588008
_cell_angle_alpha   152.94345047
_cell_angle_beta   96.08688022
_cell_angle_gamma   90.19512719
_symmetry_Int_Tables_number   1
_chemical_formula_structural   ThNb4O12
_chemical_formula_sum   'Th3 Nb12 O36'
_cell_volume   758.48752304
_cell_formula_units_Z   3
loop_
 _symmetry_equiv_pos_site_id
 _symmetry_equiv_pos_as_xyz
  1  'x, y, z'
loop_
 _atom_site_type_symbol
 _atom_site_label
 _atom_site_symmetry_multiplicity
 _atom_site_fract_x
 _atom_site_fract_y
 _atom_site_fract_z
 _atom_site_occupancy
  Th  Th0  1  0.00000000  0.00000000  0.00000000  1
  Th  Th1  1  0.82780200  0.32780200  0.50000000  1
  Th  Th2  1  0.17219800  0.67219800  0.50000000  1
  Nb  Nb3  1  0.96038400  0.82662900  0.13375500  1
  Nb  Nb4  1  0.69287400  0.82662900  0.86624500  1
  Nb  Nb5  1  0.53363600  0.15726300  0.37637400  1
  Nb  Nb6  1  0.78088900  0.15726300  0.62362600  1
  Nb  Nb7  1  0.61973000  0.50000000  0.11973000  1
  Nb  Nb8  1  0.13575800  0.50000000  0.63575800  1
  Nb  Nb9  1  0.38027000  0.50000000  0.88027000  1
  Nb  Nb10  1  0.86424200  0.50000000  0.36424200  1
  Nb  Nb11  1  0.21911100  0.84273700  0.37637400  1
  Nb  Nb12  1  0.46636400  0.84273700  0.62362600  1
  Nb  Nb13  1  0.30712600  0.17337100  0.13375500  1
  Nb  Nb14  1  0.03961600  0.17337100  0.86624500  1
  O  O15  1  0.00000000  0.50000000  0.50000000  1
  O  O16  1  0.84587300  0.84587300  0.00000000  1
  O  O17  1  0.64776600  0.49264700  0.61935100  1
  O  O18  1  0.87329600  0.02841500  0.38064900  1
  O  O19  1  0.64776600  0.02841500  0.15511900  1
  O  O20  1  0.87329600  0.49264700  0.84488100  1
  O  O21  1  0.68207000  0.18207000  0.50000000  1
  O  O22  1  0.42265300  0.17031500  0.25233800  1
  O  O23  1  0.91797600  0.17031500  0.74766200  1
  O  O24  1  0.18768300  0.32788500  0.35510000  1
  O  O25  1  0.97278500  0.32788500  0.14020200  1
  O  O26  1  0.70659500  0.33687300  0.87413900  1
  O  O27  1  0.46273400  0.33687300  0.63027800  1
  O  O28  1  0.18768300  0.83258300  0.85979800  1
  O  O29  1  0.97278500  0.83258300  0.64490000  1
  O  O30  1  0.46273400  0.83245600  0.12586100  1
  O  O31  1  0.70659500  0.83245600  0.36972200  1
  O  O32  1  0.50000000  0.50000000  0.00000000  1
  O  O33  1  0.25170000  0.50000000  0.75170000  1
  O  O34  1  0.74830000  0.50000000  0.24830000  1
  O  O35  1  0.29340500  0.16754400  0.63027800  1
  O  O36  1  0.02721500  0.16741700  0.35510000  1
  O  O37  1  0.53726600  0.66312700  0.36972200  1
  O  O38  1  0.29340500  0.66312700  0.12586100  1
  O  O39  1  0.53726600  0.16754400  0.87413900  1
  O  O40  1  0.02721500  0.67211500  0.85979800  1
  O  O41  1  0.81231700  0.16741700  0.14020200  1
  O  O42  1  0.81231700  0.67211500  0.64490000  1
  O  O43  1  0.57734700  0.82968500  0.74766200  1
  O  O44  1  0.08202400  0.82968500  0.25233800  1
  O  O45  1  0.31793000  0.81793000  0.50000000  1
  O  O46  1  0.12670400  0.50735300  0.15511900  1
  O  O47  1  0.35223400  0.50735300  0.38064900  1
  O  O48  1  0.35223400  0.97158500  0.84488100  1
  O  O49  1  0.12670400  0.97158500  0.61935100  1
  O  O50  1  0.15412700  0.15412700  0.00000000  1
