data_image0
_chemical_formula_structural       Ba2Cd2F2Sb2
_chemical_formula_sum              "Ba2 Cd2 F2 Sb2"
_cell_length_a       4.59782
_cell_length_b       4.59782
_cell_length_c       9.71709
_cell_angle_alpha    90
_cell_angle_beta     90
_cell_angle_gamma    90

_space_group_name_H-M_alt    "P 1"
_space_group_IT_number       1

loop_
  _space_group_symop_operation_xyz
  'x, y, z'

loop_
  _atom_site_type_symbol
  _atom_site_label
  _atom_site_symmetry_multiplicity
  _atom_site_fract_x
  _atom_site_fract_y
  _atom_site_fract_z
  _atom_site_occupancy
  Ba  Ba1       1.0  0.25000  0.25000  0.35600  1.0000
  Ba  Ba2       1.0  0.75000  0.75000  0.64400  1.0000
  Cd  Cd1       1.0  0.75000  0.25000  0.00000  1.0000
  Cd  Cd2       1.0  0.25000  0.75000  0.00000  1.0000
  F   F1        1.0  0.75000  0.25000  0.50000  1.0000
  F   F2        1.0  0.25000  0.75000  0.50000  1.0000
  Sb  Sb1       1.0  0.75000  0.75000  0.18900  1.0000
  Sb  Sb2       1.0  0.25000  0.25000  0.81100  1.0000
