# generated using pymatgen
data_KTl
_symmetry_space_group_name_H-M   'P 1'
_cell_length_a   11.00800303
_cell_length_b   11.00800303
_cell_length_c   8.25427100
_cell_angle_alpha   90.00000000
_cell_angle_beta   90.00000000
_cell_angle_gamma   90.71517195
_symmetry_Int_Tables_number   1
_chemical_formula_structural   KTl
_chemical_formula_sum   'K12 Tl12'
_cell_volume   1000.14270464
_cell_formula_units_Z   12
loop_
 _symmetry_equiv_pos_site_id
 _symmetry_equiv_pos_as_xyz
  1  'x, y, z'
loop_
 _atom_site_type_symbol
 _atom_site_label
 _atom_site_symmetry_multiplicity
 _atom_site_fract_x
 _atom_site_fract_y
 _atom_site_fract_z
 _atom_site_occupancy
  K  K0  1  0.96307900  0.46307900  0.75000000  1
  K  K1  1  0.53692100  0.03692100  0.25000000  1
  K  K2  1  0.03692100  0.53692100  0.25000000  1
  K  K3  1  0.46307900  0.96307900  0.75000000  1
  K  K4  1  0.17503400  0.82496600  0.00000000  1
  K  K5  1  0.32496600  0.67503400  0.50000000  1
  K  K6  1  0.82496600  0.17503400  0.00000000  1
  K  K7  1  0.67503400  0.32496600  0.50000000  1
  K  K8  1  0.20196100  0.20196100  0.06873100  1
  K  K9  1  0.29803900  0.29803900  0.56873100  1
  K  K10  1  0.70196100  0.70196100  0.43126900  1
  K  K11  1  0.79803900  0.79803900  0.93126900  1
  Tl  Tl12  1  0.54620500  0.54620500  0.79286400  1
  Tl  Tl13  1  0.95379500  0.95379500  0.29286400  1
  Tl  Tl14  1  0.45379500  0.45379500  0.20713600  1
  Tl  Tl15  1  0.04620500  0.04620500  0.70713600  1
  Tl  Tl16  1  0.48899100  0.72373200  0.08112200  1
  Tl  Tl17  1  0.01100900  0.77626800  0.58112200  1
  Tl  Tl18  1  0.27626800  0.51100900  0.91887800  1
  Tl  Tl19  1  0.22373200  0.98899100  0.41887800  1
  Tl  Tl20  1  0.51100900  0.27626800  0.91887800  1
  Tl  Tl21  1  0.98899100  0.22373200  0.41887800  1
  Tl  Tl22  1  0.72373200  0.48899100  0.08112200  1
  Tl  Tl23  1  0.77626800  0.01100900  0.58112200  1
