# generated using pymatgen
data_Na9Cr2(H9O7)3
_symmetry_space_group_name_H-M   'P 1'
_cell_length_a   8.80562200
_cell_length_b   11.50770180
_cell_length_c   11.73026524
_cell_angle_alpha   105.29762812
_cell_angle_beta   87.69260177
_cell_angle_gamma   109.93074434
_symmetry_Int_Tables_number   1
_chemical_formula_structural   Na9Cr2(H9O7)3
_chemical_formula_sum   'Na18 Cr4 H54 O42'
_cell_volume   1076.25047000
_cell_formula_units_Z   2
loop_
 _symmetry_equiv_pos_site_id
 _symmetry_equiv_pos_as_xyz
  1  'x, y, z'
loop_
 _atom_site_type_symbol
 _atom_site_label
 _atom_site_symmetry_multiplicity
 _atom_site_fract_x
 _atom_site_fract_y
 _atom_site_fract_z
 _atom_site_occupancy
  Na  Na0  1  0.99443100  0.39883200  0.37716500  1
  Na  Na1  1  0.79839900  0.32890200  0.63686300  1
  Na  Na2  1  0.79780800  0.32440100  0.13368400  1
  Na  Na3  1  0.57878400  0.02932100  0.63471400  1
  Na  Na4  1  0.59705600  0.03376200  0.13245200  1
  Na  Na5  1  0.58025100  0.51155100  0.62695800  1
  Na  Na6  1  0.59587500  0.51487200  0.11841700  1
  Na  Na7  1  0.39217200  0.22349400  0.62109400  1
  Na  Na8  1  0.40275600  0.22095200  0.12036500  1
  Na  Na9  1  0.59724400  0.77904800  0.87963500  1
  Na  Na10  1  0.60782800  0.77650600  0.37890600  1
  Na  Na11  1  0.40412500  0.48512800  0.88158300  1
  Na  Na12  1  0.41974900  0.48844900  0.37304200  1
  Na  Na13  1  0.40294400  0.96623800  0.86754800  1
  Na  Na14  1  0.42121600  0.97067900  0.36528600  1
  Na  Na15  1  0.20219200  0.67559900  0.86631600  1
  Na  Na16  1  0.20160100  0.67109800  0.36313700  1
  Na  Na17  1  0.00556900  0.60116800  0.62283500  1
  Cr  Cr18  1  0.59052000  0.27372500  0.87466100  1
  Cr  Cr19  1  0.59787000  0.27719200  0.37776900  1
  Cr  Cr20  1  0.40213000  0.72280800  0.62223100  1
  Cr  Cr21  1  0.40948000  0.72627500  0.12533900  1
  H  H22  1  0.99411100  0.09206400  0.81051300  1
  H  H23  1  0.99078800  0.06133800  0.30169200  1
  H  H24  1  0.88843600  0.02896900  0.96446300  1
  H  H25  1  0.87513300  0.05616800  0.50808700  1
  H  H26  1  0.96885900  0.46184200  0.81055700  1
  H  H27  1  0.83964300  0.20931500  0.81911600  1
  H  H28  1  0.80150500  0.15859600  0.30466600  1
  H  H29  1  0.86618300  0.40676300  0.97157700  1
  H  H30  1  0.87593200  0.58878400  0.97135500  1
  H  H31  1  0.67549200  0.12052800  0.94638700  1
  H  H32  1  0.71094900  0.15520100  0.47139700  1
  H  H33  1  0.92683400  0.72522900  0.41355900  1
  H  H34  1  0.95353200  0.79413200  0.55478200  1
  H  H35  1  0.87088100  0.68757300  0.82980300  1
  H  H36  1  0.88124200  0.61077900  0.25964200  1
  H  H37  1  0.94781700  0.74513300  0.02941700  1
  H  H38  1  0.78302200  0.50794900  0.46144300  1
  H  H39  1  0.85522100  0.76371900  0.73321200  1
  H  H40  1  0.85080800  0.73376800  0.22177600  1
  H  H41  1  0.67897500  0.46549600  0.80665800  1
  H  H42  1  0.69664200  0.46132200  0.28650000  1
  H  H43  1  0.84825500  0.94570600  0.57222200  1
  H  H44  1  0.85895200  0.94159400  0.05488000  1
  H  H45  1  0.67996700  0.72055500  0.56168000  1
  H  H46  1  0.68201100  0.72146200  0.05193300  1
  H  H47  1  0.68108800  0.88220800  0.71396700  1
  H  H48  1  0.69476700  0.87300200  0.20507000  1
  H  H49  1  0.30523300  0.12699800  0.79493000  1
  H  H50  1  0.31891200  0.11779200  0.28603300  1
  H  H51  1  0.31798900  0.27853800  0.94806700  1
  H  H52  1  0.32003300  0.27944500  0.43832000  1
  H  H53  1  0.14104800  0.05840600  0.94512000  1
  H  H54  1  0.15174500  0.05429400  0.42777800  1
  H  H55  1  0.30335800  0.53867800  0.71350000  1
  H  H56  1  0.32102500  0.53450400  0.19334200  1
  H  H57  1  0.14919200  0.26623200  0.77822400  1
  H  H58  1  0.14477900  0.23628100  0.26678800  1
  H  H59  1  0.21697800  0.49205100  0.53855700  1
  H  H60  1  0.05218300  0.25486700  0.97058300  1
  H  H61  1  0.11875800  0.38922100  0.74035800  1
  H  H62  1  0.12911900  0.31242700  0.17019700  1
  H  H63  1  0.04646800  0.20586800  0.44521800  1
  H  H64  1  0.07316600  0.27477100  0.58644100  1
  H  H65  1  0.28905100  0.84479900  0.52860300  1
  H  H66  1  0.32450800  0.87947200  0.05361300  1
  H  H67  1  0.12406800  0.41121600  0.02864500  1
  H  H68  1  0.13381700  0.59323700  0.02842300  1
  H  H69  1  0.19849500  0.84140400  0.69533400  1
  H  H70  1  0.16035700  0.79068500  0.18088400  1
  H  H71  1  0.03114100  0.53815800  0.18944300  1
  H  H72  1  0.12486700  0.94383200  0.49191300  1
  H  H73  1  0.11156400  0.97103100  0.03553700  1
  H  H74  1  0.00921200  0.93866200  0.69830800  1
  H  H75  1  0.00588900  0.90793600  0.18948700  1
  O  O76  1  0.96330700  0.52721400  0.25611500  1
  O  O77  1  0.95619400  0.67116900  0.96081100  1
  O  O78  1  0.75026100  0.20930200  0.77335700  1
  O  O79  1  0.99633400  0.74051000  0.48443400  1
  O  O80  1  0.77101900  0.22145900  0.27883000  1
  O  O81  1  0.76987000  0.43139600  0.97679300  1
  O  O82  1  0.77267100  0.43389700  0.49064500  1
  O  O83  1  0.60205700  0.16321700  0.98644200  1
  O  O84  1  0.92242500  0.86036300  0.12647100  1
  O  O85  1  0.90419900  0.87863000  0.66352500  1
  O  O86  1  0.60806900  0.16857200  0.48906600  1
  O  O87  1  0.81246200  0.67932000  0.75555000  1
  O  O88  1  0.80615200  0.67330100  0.27081400  1
  O  O89  1  0.59194400  0.38858900  0.76511200  1
  O  O90  1  0.59717600  0.38746100  0.26567800  1
  O  O91  1  0.79795200  0.97297300  0.51183500  1
  O  O92  1  0.41161300  0.12507900  0.76838400  1
  O  O93  1  0.43113600  0.12729700  0.26605100  1
  O  O94  1  0.80289700  0.97716700  0.00505700  1
  O  O95  1  0.42711400  0.33409200  0.97901000  1
  O  O96  1  0.57342800  0.66640900  0.52513200  1
  O  O97  1  0.42657200  0.33359100  0.47486800  1
  O  O98  1  0.57288600  0.66590800  0.02099000  1
  O  O99  1  0.19710300  0.02283300  0.99494300  1
  O  O100  1  0.56886400  0.87270300  0.73394900  1
  O  O101  1  0.58838700  0.87492100  0.23161600  1
  O  O102  1  0.20204800  0.02702700  0.48816500  1
  O  O103  1  0.40282400  0.61253900  0.73432200  1
  O  O104  1  0.40805600  0.61141100  0.23488800  1
  O  O105  1  0.19384800  0.32669900  0.72918600  1
  O  O106  1  0.18753800  0.32068000  0.24445000  1
  O  O107  1  0.39193100  0.83142800  0.51093400  1
  O  O108  1  0.09580100  0.12137000  0.33647500  1
  O  O109  1  0.07757500  0.13963700  0.87352900  1
  O  O110  1  0.39794300  0.83678300  0.01355800  1
  O  O111  1  0.22732900  0.56610300  0.50935500  1
  O  O112  1  0.23013000  0.56860400  0.02320700  1
  O  O113  1  0.22898100  0.77854100  0.72117000  1
  O  O114  1  0.00366600  0.25949000  0.51556600  1
  O  O115  1  0.24973900  0.79069800  0.22664300  1
  O  O116  1  0.04380600  0.32883100  0.03918900  1
  O  O117  1  0.03669300  0.47278600  0.74388500  1
