# generated using pymatgen
data_Dy3Al
_symmetry_space_group_name_H-M   'P 1'
_cell_length_a   6.83191033
_cell_length_b   6.83191033
_cell_length_c   5.29190300
_cell_angle_alpha   90.00000000
_cell_angle_beta   90.00000000
_cell_angle_gamma   120.00000322
_symmetry_Int_Tables_number   1
_chemical_formula_structural   Dy3Al
_chemical_formula_sum   'Dy6 Al2'
_cell_volume   213.90789204
_cell_formula_units_Z   2
loop_
 _symmetry_equiv_pos_site_id
 _symmetry_equiv_pos_as_xyz
  1  'x, y, z'
loop_
 _atom_site_type_symbol
 _atom_site_label
 _atom_site_symmetry_multiplicity
 _atom_site_fract_x
 _atom_site_fract_y
 _atom_site_fract_z
 _atom_site_occupancy
  Dy  Dy0  1  0.82488500  0.17511500  0.75000000  1
  Dy  Dy1  1  0.35023100  0.17511500  0.75000000  1
  Dy  Dy2  1  0.82488500  0.64976900  0.75000000  1
  Dy  Dy3  1  0.17511500  0.82488500  0.25000000  1
  Dy  Dy4  1  0.17511500  0.35023100  0.25000000  1
  Dy  Dy5  1  0.64976900  0.82488500  0.25000000  1
  Al  Al6  1  0.66666700  0.33333300  0.25000000  1
  Al  Al7  1  0.33333300  0.66666700  0.75000000  1
