# generated using pymatgen
data_Sc7V9O24
_symmetry_space_group_name_H-M   'P 1'
_cell_length_a   8.38269783
_cell_length_b   8.46818792
_cell_length_c   8.46754275
_cell_angle_alpha   109.53932030
_cell_angle_beta   109.50326940
_cell_angle_gamma   109.60011959
_symmetry_Int_Tables_number   1
_chemical_formula_structural   Sc7V9O24
_chemical_formula_sum   'Sc7 V9 O24'
_cell_volume   461.39812383
_cell_formula_units_Z   1
loop_
 _symmetry_equiv_pos_site_id
 _symmetry_equiv_pos_as_xyz
  1  'x, y, z'
loop_
 _atom_site_type_symbol
 _atom_site_label
 _atom_site_symmetry_multiplicity
 _atom_site_fract_x
 _atom_site_fract_y
 _atom_site_fract_z
 _atom_site_occupancy
  Sc  Sc0  1  0.74909100  0.28541900  0.53481000  1
  Sc  Sc1  1  0.54049300  0.74940600  0.28792200  1
  Sc  Sc2  1  0.24927400  0.71282400  0.46258000  1
  Sc  Sc3  1  0.25005700  0.21462100  0.96404800  1
  Sc  Sc4  1  0.21229500  0.96542400  0.25169600  1
  Sc  Sc5  1  0.28908000  0.53534000  0.74973900  1
  Sc  Sc6  1  0.03419600  0.75092700  0.78789500  1
  V  V7  1  0.50374400  0.00259200  0.99719900  1
  V  V8  1  0.96195400  0.24810100  0.21127300  1
  V  V9  1  0.78295400  0.03383600  0.75176300  1
  V  V10  1  0.71570900  0.46587500  0.24661300  1
  V  V11  1  0.74996800  0.78879300  0.03734200  1
  V  V12  1  0.50184300  0.50046800  0.50033600  1
  V  V13  1  0.99854500  0.99890500  0.50107200  1
  V  V14  1  0.46755300  0.25243600  0.71832500  1
  V  V15  1  0.99478900  0.49755300  0.99981500  1
  O  O16  1  0.73332400  0.22384500  0.26388700  1
  O  O17  1  0.77172700  0.03843700  0.49455100  1
  O  O18  1  0.95950200  0.50483300  0.23105100  1
  O  O19  1  0.28256500  0.01150900  0.04882400  1
  O  O20  1  0.46206900  0.23531100  0.45813600  1
  O  O21  1  0.78587300  0.72927200  0.27090300  1
  O  O22  1  0.45601900  0.46412600  0.23110200  1
  O  O23  1  0.04070100  0.27609600  0.01216800  1
  O  O24  1  0.99482500  0.03997000  0.26335500  1
  O  O25  1  0.50157900  0.76755700  0.03826600  1
  O  O26  1  0.77050000  0.54494600  0.52721000  1
  O  O27  1  0.72286700  0.25539800  0.76990700  1
  O  O28  1  0.22578600  0.44905900  0.45932900  1
  O  O29  1  0.27109100  0.73650000  0.22522800  1
  O  O30  1  0.51469000  0.24477800  0.96634100  1
  O  O31  1  0.98324200  0.95544300  0.73020100  1
  O  O32  1  0.55117900  0.53408600  0.77477100  1
  O  O33  1  0.94937000  0.72279900  0.99157500  1
  O  O34  1  0.22113400  0.26687800  0.72989700  1
  O  O35  1  0.53881100  0.76956800  0.54735700  1
  O  O36  1  0.03597700  0.49074500  0.77122500  1
  O  O37  1  0.72078900  0.98993600  0.94673300  1
  O  O38  1  0.23789200  0.97028600  0.51489100  1
  O  O39  1  0.26694800  0.77610500  0.73066500  1
