# generated using pymatgen
data_Rb5Fe3(SO5)6
_symmetry_space_group_name_H-M   'P 1'
_cell_length_a   14.65820537
_cell_length_b   16.32366720
_cell_length_c   12.81945094
_cell_angle_alpha   90.00000000
_cell_angle_beta   93.69031976
_cell_angle_gamma   90.00000000
_symmetry_Int_Tables_number   1
_chemical_formula_structural   Rb5Fe3(SO5)6
_chemical_formula_sum   'Rb20 Fe12 S24 O120'
_cell_volume   3061.02246740
_cell_formula_units_Z   4
loop_
 _symmetry_equiv_pos_site_id
 _symmetry_equiv_pos_as_xyz
  1  'x, y, z'
loop_
 _atom_site_type_symbol
 _atom_site_label
 _atom_site_symmetry_multiplicity
 _atom_site_fract_x
 _atom_site_fract_y
 _atom_site_fract_z
 _atom_site_occupancy
  Rb  Rb0  1  0.47577945  0.74765279  0.74251728  1
  Rb  Rb1  1  0.97577945  0.75234721  0.24251728  1
  Rb  Rb2  1  0.52422055  0.25234721  0.25748272  1
  Rb  Rb3  1  0.02422055  0.24765279  0.75748272  1
  Rb  Rb4  1  0.69184904  0.90379053  0.92378119  1
  Rb  Rb5  1  0.19184904  0.59620947  0.42378119  1
  Rb  Rb6  1  0.30815096  0.09620947  0.07621881  1
  Rb  Rb7  1  0.80815096  0.40379053  0.57621881  1
  Rb  Rb8  1  0.68750933  0.60664322  0.93696118  1
  Rb  Rb9  1  0.18750933  0.89335678  0.43696118  1
  Rb  Rb10  1  0.31249067  0.39335678  0.06303882  1
  Rb  Rb11  1  0.81249067  0.10664322  0.56303882  1
  Rb  Rb12  1  0.62805855  0.56917543  0.33887609  1
  Rb  Rb13  1  0.12805855  0.93082457  0.83887609  1
  Rb  Rb14  1  0.37194145  0.43082457  0.66112391  1
  Rb  Rb15  1  0.87194145  0.06917543  0.16112391  1
  Rb  Rb16  1  0.62841603  0.93542622  0.34155419  1
  Rb  Rb17  1  0.12841603  0.56457378  0.84155419  1
  Rb  Rb18  1  0.37158397  0.06457378  0.65844581  1
  Rb  Rb19  1  0.87158397  0.43542622  0.15844581  1
  Fe  Fe20  1  0.27324493  0.75012396  0.98464874  1
  Fe  Fe21  1  0.77324493  0.74987604  0.48464874  1
  Fe  Fe22  1  0.72675507  0.24987604  0.01535126  1
  Fe  Fe23  1  0.22675507  0.25012396  0.51535126  1
  Fe  Fe24  1  0.40305296  0.85759518  0.16649577  1
  Fe  Fe25  1  0.90305296  0.64240482  0.66649577  1
  Fe  Fe26  1  0.59694704  0.14240482  0.83350423  1
  Fe  Fe27  1  0.09694704  0.35759518  0.33350423  1
  Fe  Fe28  1  0.40739752  0.64737774  0.16866225  1
  Fe  Fe29  1  0.90739752  0.85262226  0.66866225  1
  Fe  Fe30  1  0.59260248  0.35262226  0.83133775  1
  Fe  Fe31  1  0.09260248  0.14737774  0.33133775  1
  S  S32  1  0.18160103  0.89340802  0.12761342  1
  S  S33  1  0.68160103  0.60659198  0.62761342  1
  S  S34  1  0.81839897  0.10659198  0.87238658  1
  S  S35  1  0.31839897  0.39340802  0.37238658  1
  S  S36  1  0.39238189  0.91395169  0.91841583  1
  S  S37  1  0.89238189  0.58604831  0.41841583  1
  S  S38  1  0.60761811  0.08604831  0.08158417  1
  S  S39  1  0.10761811  0.41395169  0.58158417  1
  S  S40  1  0.41266785  0.75797975  0.38514458  1
  S  S41  1  0.91266785  0.74202025  0.88514458  1
  S  S42  1  0.58733215  0.24202025  0.61485542  1
  S  S43  1  0.08733215  0.25797975  0.11485542  1
  S  S44  1  0.58455713  0.75149091  0.11793088  1
  S  S45  1  0.08455713  0.74850909  0.61793088  1
  S  S46  1  0.41544287  0.24850909  0.88206912  1
  S  S47  1  0.91544287  0.25149091  0.38206912  1
  S  S48  1  0.19055648  0.60661237  0.13806072  1
  S  S49  1  0.69055648  0.89338763  0.63806072  1
  S  S50  1  0.80944352  0.39338763  0.86193928  1
  S  S51  1  0.30944352  0.10661237  0.36193928  1
  S  S52  1  0.38985858  0.58815892  0.92122585  1
  S  S53  1  0.88985858  0.91184108  0.42122585  1
  S  S54  1  0.61014142  0.41184108  0.07877415  1
  S  S55  1  0.11014142  0.08815892  0.57877415  1
  O  O56  1  0.18419275  0.83270914  0.03834100  1
  O  O57  1  0.68419275  0.66729086  0.53834100  1
  O  O58  1  0.81580725  0.16729086  0.96165900  1
  O  O59  1  0.31580725  0.33270914  0.46165900  1
  O  O60  1  0.27944702  0.91881633  0.15591383  1
  O  O61  1  0.77944702  0.58118367  0.65591383  1
  O  O62  1  0.72055298  0.08118367  0.84408617  1
  O  O63  1  0.22055298  0.41881633  0.34408617  1
  O  O64  1  0.13198224  0.96636642  0.08745965  1
  O  O65  1  0.63198224  0.53363358  0.58745965  1
  O  O66  1  0.86801776  0.03363358  0.91254035  1
  O  O67  1  0.36801776  0.46636642  0.41254035  1
  O  O68  1  0.14184273  0.85423399  0.21685877  1
  O  O69  1  0.64184273  0.64576601  0.71685877  1
  O  O70  1  0.85815727  0.14576601  0.78314123  1
  O  O71  1  0.35815727  0.35423399  0.28314123  1
  O  O72  1  0.33778037  0.83584431  0.90059639  1
  O  O73  1  0.83778037  0.66415569  0.40059639  1
  O  O74  1  0.66221963  0.16415569  0.09940361  1
  O  O75  1  0.16221963  0.33584431  0.59940361  1
  O  O76  1  0.43006239  0.91532120  0.03105284  1
  O  O77  1  0.93006239  0.58467880  0.53105284  1
  O  O78  1  0.56993761  0.08467880  0.96894716  1
  O  O79  1  0.06993761  0.41532120  0.46894716  1
  O  O80  1  0.33077503  0.98413057  0.89665059  1
  O  O81  1  0.83077503  0.51586943  0.39665059  1
  O  O82  1  0.66922497  0.01586943  0.10334941  1
  O  O83  1  0.16922497  0.48413057  0.60334941  1
  O  O84  1  0.46906957  0.91135960  0.85071194  1
  O  O85  1  0.96906957  0.58864040  0.35071194  1
  O  O86  1  0.53093043  0.08864040  0.14928806  1
  O  O87  1  0.03093043  0.41135960  0.64928806  1
  O  O88  1  0.36742222  0.82033568  0.30949165  1
  O  O89  1  0.86742222  0.67966432  0.80949165  1
  O  O90  1  0.63257778  0.17966432  0.69050835  1
  O  O91  1  0.13257778  0.32033568  0.19050835  1
  O  O92  1  0.43862570  0.68516135  0.32096831  1
  O  O93  1  0.93862570  0.81483865  0.82096831  1
  O  O94  1  0.56137430  0.31483865  0.67903169  1
  O  O95  1  0.06137430  0.18516135  0.17903169  1
  O  O96  1  0.49262724  0.79268275  0.44141409  1
  O  O97  1  0.99262724  0.70731725  0.94141409  1
  O  O98  1  0.50737276  0.20731725  0.55858591  1
  O  O99  1  0.00737276  0.29268275  0.05858591  1
  O  O100  1  0.33880814  0.73379240  0.45433057  1
  O  O101  1  0.83880814  0.76620760  0.95433057  1
  O  O102  1  0.66119186  0.26620760  0.54566943  1
  O  O103  1  0.16119186  0.23379240  0.04566943  1
  O  O104  1  0.53631933  0.81576338  0.17961628  1
  O  O105  1  0.03631933  0.68423662  0.67961628  1
  O  O106  1  0.46368067  0.18423662  0.82038372  1
  O  O107  1  0.96368067  0.31576338  0.32038372  1
  O  O108  1  0.54110068  0.66930365  0.13845628  1
  O  O109  1  0.04110068  0.83069635  0.63845628  1
  O  O110  1  0.45889932  0.33069635  0.86154372  1
  O  O111  1  0.95889932  0.16930365  0.36154372  1
  O  O112  1  0.68145601  0.74918085  0.15811958  1
  O  O113  1  0.18145601  0.75081915  0.65811958  1
  O  O114  1  0.31854399  0.25081915  0.84188042  1
  O  O115  1  0.81854399  0.24918085  0.34188042  1
  O  O116  1  0.57544132  0.76880106  0.00537388  1
  O  O117  1  0.07544132  0.73119894  0.50537388  1
  O  O118  1  0.42455868  0.23119894  0.99462612  1
  O  O119  1  0.92455868  0.26880106  0.49462612  1
  O  O120  1  0.27868116  0.61599442  0.20757519  1
  O  O121  1  0.77868116  0.88400558  0.70757519  1
  O  O122  1  0.72131884  0.38400558  0.79242481  1
  O  O123  1  0.22131884  0.11599442  0.29242481  1
  O  O124  1  0.20079811  0.65615025  0.03962794  1
  O  O125  1  0.70079811  0.84384975  0.53962794  1
  O  O126  1  0.79920189  0.34384975  0.96037206  1
  O  O127  1  0.29920189  0.15615025  0.46037206  1
  O  O128  1  0.17783269  0.52127552  0.10539685  1
  O  O129  1  0.67783269  0.97872448  0.60539685  1
  O  O130  1  0.82216731  0.47872448  0.89460315  1
  O  O131  1  0.32216731  0.02127552  0.39460315  1
  O  O132  1  0.11755858  0.63917707  0.19769735  1
  O  O133  1  0.61755858  0.86082293  0.69769735  1
  O  O134  1  0.88244142  0.36082293  0.80230265  1
  O  O135  1  0.38244142  0.13917707  0.30230265  1
  O  O136  1  0.38791435  0.57547758  0.03834130  1
  O  O137  1  0.88791435  0.92452242  0.53834130  1
  O  O138  1  0.61208565  0.42452242  0.96165870  1
  O  O139  1  0.11208565  0.07547758  0.46165870  1
  O  O140  1  0.34474632  0.67043127  0.89620972  1
  O  O141  1  0.84474632  0.82956873  0.39620972  1
  O  O142  1  0.65525368  0.32956873  0.10379028  1
  O  O143  1  0.15525368  0.17043127  0.60379028  1
  O  O144  1  0.33392603  0.52320823  0.86939706  1
  O  O145  1  0.83392603  0.97679177  0.36939706  1
  O  O146  1  0.66607397  0.47679177  0.13060294  1
  O  O147  1  0.16607397  0.02320823  0.63060294  1
  O  O148  1  0.48287995  0.59272248  0.88839425  1
  O  O149  1  0.98287995  0.90727752  0.38839425  1
  O  O150  1  0.51712005  0.40727752  0.11160575  1
  O  O151  1  0.01712005  0.09272248  0.61160575  1
  O  O152  1  0.36320628  0.75445907  0.10609987  1
  O  O153  1  0.86320628  0.74554093  0.60609987  1
  O  O154  1  0.63679372  0.24554093  0.89390013  1
  O  O155  1  0.13679372  0.25445907  0.39390013  1
  O  O156  1  0.17907231  0.74544798  0.86407638  1
  O  O157  1  0.67907231  0.75455202  0.36407638  1
  O  O158  1  0.82092769  0.25455202  0.13592362  1
  O  O159  1  0.32092769  0.24544798  0.63592362  1
  O  O160  1  0.44726444  0.95008566  0.23761655  1
  O  O161  1  0.94726444  0.54991434  0.73761655  1
  O  O162  1  0.55273556  0.04991434  0.76238345  1
  O  O163  1  0.05273556  0.45008566  0.26238345  1
  O  O164  1  0.44971063  0.53797732  0.23034461  1
  O  O165  1  0.94971063  0.96202268  0.73034461  1
  O  O166  1  0.55028937  0.46202268  0.76965539  1
  O  O167  1  0.05028937  0.03797732  0.26965539  1
  O  O168  1  0.83411525  0.64620799  0.11873741  1
  O  O169  1  0.33411525  0.85379201  0.61873741  1
  O  O170  1  0.16588475  0.35379201  0.88126259  1
  O  O171  1  0.66588475  0.14620799  0.38126259  1
  O  O172  1  0.34086192  0.63716586  0.61322741  1
  O  O173  1  0.84086192  0.86283414  0.11322741  1
  O  O174  1  0.65913808  0.36283414  0.38677259  1
  O  O175  1  0.15913808  0.13716586  0.88677259  1
