# generated using pymatgen
data_Dy3As
_symmetry_space_group_name_H-M   'P 1'
_cell_length_a   6.04498385
_cell_length_b   6.04498385
_cell_length_c   6.04498385
_cell_angle_alpha   136.38043147
_cell_angle_beta   136.38043147
_cell_angle_gamma   63.39272743
_symmetry_Int_Tables_number   1
_chemical_formula_structural   Dy3As
_chemical_formula_sum   'Dy3 As1'
_cell_volume   103.77074261
_cell_formula_units_Z   1
loop_
 _symmetry_equiv_pos_site_id
 _symmetry_equiv_pos_as_xyz
  1  'x, y, z'
loop_
 _atom_site_type_symbol
 _atom_site_label
 _atom_site_symmetry_multiplicity
 _atom_site_fract_x
 _atom_site_fract_y
 _atom_site_fract_z
 _atom_site_occupancy
  Dy  Dy0  1  0.75000000  0.25000000  0.50000000  1
  Dy  Dy1  1  0.25000000  0.75000000  0.50000000  1
  Dy  Dy2  1  0.50000000  0.50000000  0.00000000  1
  As  As3  1  0.00000000  0.00000000  0.00000000  1
