# generated using pymatgen
data_Dy(Mg4Al3)4
_symmetry_space_group_name_H-M   'P 1'
_cell_length_a   9.25721818
_cell_length_b   9.25721818
_cell_length_c   9.25721818
_cell_angle_alpha   110.40511184
_cell_angle_beta   110.40511184
_cell_angle_gamma   110.40511050
_symmetry_Int_Tables_number   1
_chemical_formula_structural   Dy(Mg4Al3)4
_chemical_formula_sum   'Dy1 Mg16 Al12'
_cell_volume   588.62766078
_cell_formula_units_Z   1
loop_
 _symmetry_equiv_pos_site_id
 _symmetry_equiv_pos_as_xyz
  1  'x, y, z'
loop_
 _atom_site_type_symbol
 _atom_site_label
 _atom_site_symmetry_multiplicity
 _atom_site_fract_x
 _atom_site_fract_y
 _atom_site_fract_z
 _atom_site_occupancy
  Dy  Dy0  1  0.37221600  0.37221600  0.37221600  1
  Mg  Mg1  1  0.65454600  0.99545800  0.99545800  1
  Mg  Mg2  1  0.71660500  0.31465600  0.31465600  1
  Mg  Mg3  1  0.99716900  0.99716900  0.99716900  1
  Mg  Mg4  1  0.28017400  0.61077300  0.61077300  1
  Mg  Mg5  1  0.00179900  0.68897500  0.39420800  1
  Mg  Mg6  1  0.39420800  0.00179900  0.68897500  1
  Mg  Mg7  1  0.61077300  0.61077300  0.28017400  1
  Mg  Mg8  1  0.99545800  0.99545800  0.65454600  1
  Mg  Mg9  1  0.68897500  0.39420800  0.00179900  1
  Mg  Mg10  1  0.31465600  0.71660500  0.31465600  1
  Mg  Mg11  1  0.31465600  0.31465600  0.71660500  1
  Mg  Mg12  1  0.68897500  0.00179900  0.39420800  1
  Mg  Mg13  1  0.99545800  0.65454600  0.99545800  1
  Mg  Mg14  1  0.61077300  0.28017400  0.61077300  1
  Mg  Mg15  1  0.39420800  0.68897500  0.00179900  1
  Mg  Mg16  1  0.00179900  0.39420800  0.68897500  1
  Al  Al17  1  0.80996400  0.62988900  0.62988900  1
  Al  Al18  1  0.17493500  0.81035200  0.81035200  1
  Al  Al19  1  0.00224000  0.36394900  0.18490300  1
  Al  Al20  1  0.62988900  0.80996400  0.62988900  1
  Al  Al21  1  0.36394900  0.18490300  0.00224000  1
  Al  Al22  1  0.81035200  0.17493500  0.81035200  1
  Al  Al23  1  0.18490300  0.36394900  0.00224000  1
  Al  Al24  1  0.18490300  0.00224000  0.36394900  1
  Al  Al25  1  0.81035200  0.81035200  0.17493500  1
  Al  Al26  1  0.36394900  0.00224000  0.18490300  1
  Al  Al27  1  0.62988900  0.62988900  0.80996400  1
  Al  Al28  1  0.00224000  0.18490300  0.36394900  1
