# generated using pymatgen
data_Er(Mg4Al3)4
_symmetry_space_group_name_H-M   'P 1'
_cell_length_a   9.12717856
_cell_length_b   9.12717856
_cell_length_c   9.12717856
_cell_angle_alpha   109.47122063
_cell_angle_beta   109.47122063
_cell_angle_gamma   109.47122063
_symmetry_Int_Tables_number   1
_chemical_formula_structural   Er(Mg4Al3)4
_chemical_formula_sum   'Er1 Mg16 Al12'
_cell_volume   585.31243452
_cell_formula_units_Z   1
loop_
 _symmetry_equiv_pos_site_id
 _symmetry_equiv_pos_as_xyz
  1  'x, y, z'
loop_
 _atom_site_type_symbol
 _atom_site_label
 _atom_site_symmetry_multiplicity
 _atom_site_fract_x
 _atom_site_fract_y
 _atom_site_fract_z
 _atom_site_occupancy
  Er  Er0  1  0.00000000  0.00000000  0.00000000  1
  Mg  Mg1  1  0.60323900  0.31900700  0.00000000  1
  Mg  Mg2  1  0.00000000  0.35706300  0.00000000  1
  Mg  Mg3  1  0.35706300  0.00000000  0.00000000  1
  Mg  Mg4  1  0.31900700  0.60323900  0.00000000  1
  Mg  Mg5  1  0.39676100  0.39676100  0.71576700  1
  Mg  Mg6  1  0.28423300  0.68099300  0.68099300  1
  Mg  Mg7  1  0.68099300  0.28423300  0.68099300  1
  Mg  Mg8  1  0.64293700  0.64293700  0.64293700  1
  Mg  Mg9  1  0.31900700  0.00000000  0.60323900  1
  Mg  Mg10  1  0.00000000  0.31900700  0.60323900  1
  Mg  Mg11  1  0.71576700  0.39676100  0.39676100  1
  Mg  Mg12  1  0.39676100  0.71576700  0.39676100  1
  Mg  Mg13  1  0.00000000  0.00000000  0.35706300  1
  Mg  Mg14  1  0.60323900  0.00000000  0.31900700  1
  Mg  Mg15  1  0.00000000  0.60323900  0.31900700  1
  Mg  Mg16  1  0.68099300  0.68099300  0.28423300  1
  Al  Al17  1  0.81389800  0.63233400  0.00000000  1
  Al  Al18  1  0.63233400  0.81389800  0.00000000  1
  Al  Al19  1  0.18610200  0.18610200  0.81843600  1
  Al  Al20  1  0.63233400  0.00000000  0.81389800  1
  Al  Al21  1  0.00000000  0.63233400  0.81389800  1
  Al  Al22  1  0.00000000  0.81389800  0.63233400  1
  Al  Al23  1  0.81389800  0.00000000  0.63233400  1
  Al  Al24  1  0.18156400  0.36766600  0.36766600  1
  Al  Al25  1  0.36766600  0.18156400  0.36766600  1
  Al  Al26  1  0.18610200  0.81843600  0.18610200  1
  Al  Al27  1  0.81843600  0.18610200  0.18610200  1
  Al  Al28  1  0.36766600  0.36766600  0.18156400  1
