# generated using pymatgen
data_Mg17Al11Pd
_symmetry_space_group_name_H-M   'P 1'
_cell_length_a   9.07937314
_cell_length_b   9.07937314
_cell_length_c   8.97777015
_cell_angle_alpha   70.71931776
_cell_angle_beta   70.71931776
_cell_angle_gamma   109.36319041
_symmetry_Int_Tables_number   1
_chemical_formula_structural   Mg17Al11Pd
_chemical_formula_sum   'Mg17 Al11 Pd1'
_cell_volume   573.12872148
_cell_formula_units_Z   1
loop_
 _symmetry_equiv_pos_site_id
 _symmetry_equiv_pos_as_xyz
  1  'x, y, z'
loop_
 _atom_site_type_symbol
 _atom_site_label
 _atom_site_symmetry_multiplicity
 _atom_site_fract_x
 _atom_site_fract_y
 _atom_site_fract_z
 _atom_site_occupancy
  Mg  Mg0  1  0.31520300  0.31520300  0.29071700  1
  Mg  Mg1  1  0.60918700  0.60918700  0.71533000  1
  Mg  Mg2  1  0.99868500  0.99868500  0.34903000  1
  Mg  Mg3  1  0.99813200  0.99813200  0.99618600  1
  Mg  Mg4  1  0.34749500  0.34749500  0.65517000  1
  Mg  Mg5  1  0.40512200  0.68384500  0.99857900  1
  Mg  Mg6  1  0.68458100  0.99494600  0.60892200  1
  Mg  Mg7  1  0.28390700  0.60012200  0.39960400  1
  Mg  Mg8  1  0.65885400  0.99735300  0.99572800  1
  Mg  Mg9  1  0.31716600  0.71446200  0.68413600  1
  Mg  Mg10  1  0.00068100  0.39931500  0.31528600  1
  Mg  Mg11  1  0.39931500  0.00068100  0.31528600  1
  Mg  Mg12  1  0.71446200  0.31716600  0.68413600  1
  Mg  Mg13  1  0.99735300  0.65885400  0.99572800  1
  Mg  Mg14  1  0.60012200  0.28390700  0.39960400  1
  Mg  Mg15  1  0.99494600  0.68458100  0.60892200  1
  Mg  Mg16  1  0.68384500  0.40512200  0.99857900  1
  Al  Al17  1  0.63808800  0.63808800  0.16844500  1
  Al  Al18  1  0.18534000  0.36643100  0.00128200  1
  Al  Al19  1  0.99429900  0.17583100  0.63802700  1
  Al  Al20  1  0.63342700  0.81719600  0.36488400  1
  Al  Al21  1  0.81524500  0.17995500  0.18406200  1
  Al  Al22  1  0.00159700  0.36681900  0.81191000  1
  Al  Al23  1  0.36681900  0.00159700  0.81191000  1
  Al  Al24  1  0.17995500  0.81524500  0.18406200  1
  Al  Al25  1  0.81719600  0.63342700  0.36488400  1
  Al  Al26  1  0.17583100  0.99429900  0.63802700  1
  Al  Al27  1  0.36643100  0.18534000  0.00128200  1
  Pd  Pd28  1  0.81650200  0.81650200  0.82019500  1
