# generated using pymatgen
data_CsBa2Cr2F11
_symmetry_space_group_name_H-M   'P 1'
_cell_length_a   8.90124551
_cell_length_b   8.90124551
_cell_length_c   8.90124551
_cell_angle_alpha   139.84338897
_cell_angle_beta   139.84338897
_cell_angle_gamma   58.09116741
_symmetry_Int_Tables_number   1
_chemical_formula_structural   CsBa2Cr2F11
_chemical_formula_sum   'Cs1 Ba2 Cr2 F11'
_cell_volume   290.66841562
_cell_formula_units_Z   1
loop_
 _symmetry_equiv_pos_site_id
 _symmetry_equiv_pos_as_xyz
  1  'x, y, z'
loop_
 _atom_site_type_symbol
 _atom_site_label
 _atom_site_symmetry_multiplicity
 _atom_site_fract_x
 _atom_site_fract_y
 _atom_site_fract_z
 _atom_site_occupancy
  Cs  Cs0  1  0.00000000  0.00000000  0.00000000  1
  Ba  Ba1  1  0.25000000  0.75000000  0.50000000  1
  Ba  Ba2  1  0.75000000  0.25000000  0.50000000  1
  Cr  Cr3  1  0.37479600  0.37479600  0.00000000  1
  Cr  Cr4  1  0.62520400  0.62520400  0.00000000  1
  F  F5  1  0.50000000  0.50000000  0.00000000  1
  F  F6  1  0.14151100  0.14151100  0.55033800  1
  F  F7  1  0.59117300  0.14151100  0.00000000  1
  F  F8  1  0.14151100  0.59117300  0.00000000  1
  F  F9  1  0.59117300  0.59117300  0.44966200  1
  F  F10  1  0.74972400  0.74972400  0.00000000  1
  F  F11  1  0.25027600  0.25027600  0.00000000  1
  F  F12  1  0.40882700  0.40882700  0.55033800  1
  F  F13  1  0.85848900  0.40882700  0.00000000  1
  F  F14  1  0.40882700  0.85848900  0.00000000  1
  F  F15  1  0.85848900  0.85848900  0.44966200  1
