# generated using pymatgen
data_CsSn3
_symmetry_space_group_name_H-M   'P 1'
_cell_length_a   8.17535155
_cell_length_b   8.17535155
_cell_length_c   5.49287600
_cell_angle_alpha   90.00000000
_cell_angle_beta   90.00000000
_cell_angle_gamma   119.99999638
_symmetry_Int_Tables_number   1
_chemical_formula_structural   CsSn3
_chemical_formula_sum   'Cs2 Sn6'
_cell_volume   317.93864331
_cell_formula_units_Z   2
loop_
 _symmetry_equiv_pos_site_id
 _symmetry_equiv_pos_as_xyz
  1  'x, y, z'
loop_
 _atom_site_type_symbol
 _atom_site_label
 _atom_site_symmetry_multiplicity
 _atom_site_fract_x
 _atom_site_fract_y
 _atom_site_fract_z
 _atom_site_occupancy
  Cs  Cs0  1  0.33333300  0.66666700  0.75000000  1
  Cs  Cs1  1  0.66666700  0.33333300  0.25000000  1
  Sn  Sn2  1  0.12526400  0.25052800  0.25000000  1
  Sn  Sn3  1  0.74947200  0.87473600  0.25000000  1
  Sn  Sn4  1  0.12526400  0.87473600  0.25000000  1
  Sn  Sn5  1  0.87473600  0.74947200  0.75000000  1
  Sn  Sn6  1  0.25052800  0.12526400  0.75000000  1
  Sn  Sn7  1  0.87473600  0.12526400  0.75000000  1
