data_image0
_chemical_formula_structural       Pt4Yb4
_chemical_formula_sum              "Pt4 Yb4"
_cell_length_a       6.95718
_cell_length_b       4.42501
_cell_length_c       5.52591
_cell_angle_alpha    90
_cell_angle_beta     90
_cell_angle_gamma    90

_space_group_name_H-M_alt    "P 1"
_space_group_IT_number       1

loop_
  _space_group_symop_operation_xyz
  'x, y, z'

loop_
  _atom_site_type_symbol
  _atom_site_label
  _atom_site_symmetry_multiplicity
  _atom_site_fract_x
  _atom_site_fract_y
  _atom_site_fract_z
  _atom_site_occupancy
  Pt  Pt1       1.0  0.46000  0.75000  0.15300  1.0000
  Pt  Pt2       1.0  0.96000  0.75000  0.34700  1.0000
  Pt  Pt3       1.0  0.03980  0.25000  0.65300  1.0000
  Pt  Pt4       1.0  0.54000  0.25000  0.84700  1.0000
  Yb  Yb1       1.0  0.18400  0.25000  0.14300  1.0000
  Yb  Yb2       1.0  0.68400  0.25000  0.35700  1.0000
  Yb  Yb3       1.0  0.31600  0.75000  0.64300  1.0000
  Yb  Yb4       1.0  0.81600  0.75000  0.85700  1.0000
