# generated using pymatgen
data_FeH4Br3N
_symmetry_space_group_name_H-M   'P 1'
_cell_length_a   7.49331822
_cell_length_b   7.49331822
_cell_length_c   6.14191600
_cell_angle_alpha   90.00000000
_cell_angle_beta   90.00000000
_cell_angle_gamma   120.00000194
_symmetry_Int_Tables_number   1
_chemical_formula_structural   FeH4Br3N
_chemical_formula_sum   'Fe2 H8 Br6 N2'
_cell_volume   298.66397996
_cell_formula_units_Z   2
loop_
 _symmetry_equiv_pos_site_id
 _symmetry_equiv_pos_as_xyz
  1  'x, y, z'
loop_
 _atom_site_type_symbol
 _atom_site_label
 _atom_site_symmetry_multiplicity
 _atom_site_fract_x
 _atom_site_fract_y
 _atom_site_fract_z
 _atom_site_occupancy
  Fe  Fe0  1  0.00000000  0.00000000  0.01056600  1
  Fe  Fe1  1  0.00000000  0.00000000  0.51056600  1
  H  H2  1  0.33333300  0.66666700  0.06933600  1
  H  H3  1  0.33391900  0.53434100  0.28913200  1
  H  H4  1  0.20042200  0.66608100  0.28913200  1
  H  H5  1  0.46565900  0.79957800  0.28913200  1
  H  H6  1  0.66666700  0.33333300  0.56933600  1
  H  H7  1  0.66608100  0.46565900  0.78913200  1
  H  H8  1  0.79957800  0.33391900  0.78913200  1
  H  H9  1  0.53434100  0.20042200  0.78913200  1
  Br  Br10  1  0.79647800  0.12069100  0.26274400  1
  Br  Br11  1  0.32421300  0.20352200  0.26274400  1
  Br  Br12  1  0.87930900  0.67578700  0.26274400  1
  Br  Br13  1  0.20352200  0.87930900  0.76274400  1
  Br  Br14  1  0.67578700  0.79647800  0.76274400  1
  Br  Br15  1  0.12069100  0.32421300  0.76274400  1
  N  N16  1  0.33333300  0.66666700  0.23798300  1
  N  N17  1  0.66666700  0.33333300  0.73798300  1
