# generated using pymatgen
data_K3TaF8
_symmetry_space_group_name_H-M   'P 1'
_cell_length_a   8.42075770
_cell_length_b   8.42075770
_cell_length_c   6.38310100
_cell_angle_alpha   90.00000000
_cell_angle_beta   90.00000000
_cell_angle_gamma   119.99999764
_symmetry_Int_Tables_number   1
_chemical_formula_structural   K3TaF8
_chemical_formula_sum   'K6 Ta2 F16'
_cell_volume   391.98071475
_cell_formula_units_Z   2
loop_
 _symmetry_equiv_pos_site_id
 _symmetry_equiv_pos_as_xyz
  1  'x, y, z'
loop_
 _atom_site_type_symbol
 _atom_site_label
 _atom_site_symmetry_multiplicity
 _atom_site_fract_x
 _atom_site_fract_y
 _atom_site_fract_z
 _atom_site_occupancy
  K  K0  1  0.15307300  0.30614600  0.24656200  1
  K  K1  1  0.84692700  0.69385400  0.74656300  1
  K  K2  1  0.69385400  0.84692700  0.24656200  1
  K  K3  1  0.15307300  0.84692700  0.24656200  1
  K  K4  1  0.84692700  0.15307300  0.74656300  1
  K  K5  1  0.30614600  0.15307300  0.74656300  1
  Ta  Ta6  1  0.33333300  0.66666700  0.73853200  1
  Ta  Ta7  1  0.66666700  0.33333300  0.23853200  1
  F  F8  1  0.00000000  0.00000000  0.00468100  1
  F  F9  1  0.00000000  0.00000000  0.50468100  1
  F  F10  1  0.43628900  0.56371100  0.53425100  1
  F  F11  1  0.56371100  0.43628900  0.03425100  1
  F  F12  1  0.43628900  0.87257800  0.53425100  1
  F  F13  1  0.12742200  0.56371100  0.53425100  1
  F  F14  1  0.87257800  0.43628900  0.03425100  1
  F  F15  1  0.56371100  0.12742200  0.03425100  1
  F  F16  1  0.33333300  0.66666700  0.05076500  1
  F  F17  1  0.66666700  0.33333300  0.55076500  1
  F  F18  1  0.20245400  0.79754600  0.81624500  1
  F  F19  1  0.79754600  0.20245400  0.31624500  1
  F  F20  1  0.20245400  0.40490800  0.81624500  1
  F  F21  1  0.59509200  0.79754600  0.81624500  1
  F  F22  1  0.40490800  0.20245400  0.31624500  1
  F  F23  1  0.79754600  0.59509200  0.31624500  1
