# generated using pymatgen
data_Ce3MgAlS7
_symmetry_space_group_name_H-M   'P 1'
_cell_length_a   10.11437998
_cell_length_b   10.11437998
_cell_length_c   6.10121100
_cell_angle_alpha   90.00000000
_cell_angle_beta   90.00000000
_cell_angle_gamma   119.99999987
_symmetry_Int_Tables_number   1
_chemical_formula_structural   Ce3MgAlS7
_chemical_formula_sum   'Ce6 Mg2 Al2 S14'
_cell_volume   540.53672679
_cell_formula_units_Z   2
loop_
 _symmetry_equiv_pos_site_id
 _symmetry_equiv_pos_as_xyz
  1  'x, y, z'
loop_
 _atom_site_type_symbol
 _atom_site_label
 _atom_site_symmetry_multiplicity
 _atom_site_fract_x
 _atom_site_fract_y
 _atom_site_fract_z
 _atom_site_occupancy
  Ce  Ce0  1  0.62424200  0.76461200  0.24217900  1
  Ce  Ce1  1  0.23538800  0.85963000  0.24217900  1
  Ce  Ce2  1  0.14037000  0.37575800  0.24217900  1
  Ce  Ce3  1  0.37575800  0.23538800  0.74217900  1
  Ce  Ce4  1  0.76461200  0.14037000  0.74217900  1
  Ce  Ce5  1  0.85963000  0.62424200  0.74217900  1
  Mg  Mg6  1  0.00000000  0.00000000  0.03444500  1
  Mg  Mg7  1  0.00000000  0.00000000  0.53444500  1
  Al  Al8  1  0.66666700  0.33333300  0.16150300  1
  Al  Al9  1  0.33333300  0.66666700  0.66150300  1
  S  S10  1  0.90072100  0.41950100  0.01257000  1
  S  S11  1  0.51878000  0.09927900  0.01257000  1
  S  S12  1  0.58049900  0.48122000  0.01257000  1
  S  S13  1  0.33333300  0.66666700  0.02943100  1
  S  S14  1  0.85314200  0.09082800  0.29154400  1
  S  S15  1  0.90917200  0.76231400  0.29154400  1
  S  S16  1  0.23768600  0.14685800  0.29154400  1
  S  S17  1  0.09927900  0.58049900  0.51257000  1
  S  S18  1  0.48122000  0.90072100  0.51257000  1
  S  S19  1  0.41950100  0.51878000  0.51257000  1
  S  S20  1  0.66666700  0.33333300  0.52943100  1
  S  S21  1  0.09082800  0.23768600  0.79154400  1
  S  S22  1  0.14685800  0.90917200  0.79154400  1
  S  S23  1  0.76231400  0.85314200  0.79154400  1
