# generated using pymatgen
data_CaSnS3
_symmetry_space_group_name_H-M   'P 1'
_cell_length_a   6.71131451
_cell_length_b   6.71131451
_cell_length_c   6.35131200
_cell_angle_alpha   90.00000000
_cell_angle_beta   90.00000000
_cell_angle_gamma   120.00000498
_symmetry_Int_Tables_number   1
_chemical_formula_structural   CaSnS3
_chemical_formula_sum   'Ca2 Sn2 S6'
_cell_volume   247.74747656
_cell_formula_units_Z   2
loop_
 _symmetry_equiv_pos_site_id
 _symmetry_equiv_pos_as_xyz
  1  'x, y, z'
loop_
 _atom_site_type_symbol
 _atom_site_label
 _atom_site_symmetry_multiplicity
 _atom_site_fract_x
 _atom_site_fract_y
 _atom_site_fract_z
 _atom_site_occupancy
  Ca  Ca0  1  0.33333300  0.66666700  0.75000000  1
  Ca  Ca1  1  0.66666700  0.33333300  0.25000000  1
  Sn  Sn2  1  0.00000000  0.00000000  0.00000000  1
  Sn  Sn3  1  0.00000000  0.00000000  0.50000000  1
  S  S4  1  0.82786600  0.65573100  0.75000000  1
  S  S5  1  0.34426900  0.17213400  0.75000000  1
  S  S6  1  0.82786600  0.17213400  0.75000000  1
  S  S7  1  0.17213400  0.34426900  0.25000000  1
  S  S8  1  0.65573100  0.82786600  0.25000000  1
  S  S9  1  0.17213400  0.82786600  0.25000000  1
