# generated using pymatgen
data_Cd(PO3)2
_symmetry_space_group_name_H-M   'P 1'
_cell_length_a   7.66549275
_cell_length_b   7.66549275
_cell_length_c   10.60180588
_cell_angle_alpha   66.27730857
_cell_angle_beta   66.27730857
_cell_angle_gamma   69.89132422
_symmetry_Int_Tables_number   1
_chemical_formula_structural   Cd(PO3)2
_chemical_formula_sum   'Cd4 P8 O24'
_cell_volume   509.68014382
_cell_formula_units_Z   4
loop_
 _symmetry_equiv_pos_site_id
 _symmetry_equiv_pos_as_xyz
  1  'x, y, z'
loop_
 _atom_site_type_symbol
 _atom_site_label
 _atom_site_symmetry_multiplicity
 _atom_site_fract_x
 _atom_site_fract_y
 _atom_site_fract_z
 _atom_site_occupancy
  Cd  Cd0  1  0.96542700  0.03457300  0.25000000  1
  Cd  Cd1  1  0.03457300  0.96542700  0.75000000  1
  Cd  Cd2  1  0.00000000  0.50000000  0.00000000  1
  Cd  Cd3  1  0.50000000  0.00000000  0.50000000  1
  P  P4  1  0.28023000  0.73921000  0.02088300  1
  P  P5  1  0.26079000  0.71977000  0.47911700  1
  P  P6  1  0.71977000  0.26079000  0.97911700  1
  P  P7  1  0.73921000  0.28023000  0.52088300  1
  P  P8  1  0.31268300  0.31110500  0.19057400  1
  P  P9  1  0.68889500  0.68731700  0.30942600  1
  P  P10  1  0.68731700  0.68889500  0.80942600  1
  P  P11  1  0.31110500  0.31268300  0.69057400  1
  O  O12  1  0.18792700  0.90807200  0.07796900  1
  O  O13  1  0.09192800  0.81207300  0.42203100  1
  O  O14  1  0.81207300  0.09192800  0.92203100  1
  O  O15  1  0.90807200  0.18792700  0.57796900  1
  O  O16  1  0.19886200  0.71762700  0.91982800  1
  O  O17  1  0.28237300  0.80113800  0.58017200  1
  O  O18  1  0.80113800  0.28237300  0.08017200  1
  O  O19  1  0.71762700  0.19886200  0.41982800  1
  O  O20  1  0.49114800  0.26034700  0.05491000  1
  O  O21  1  0.73965300  0.50885200  0.44509000  1
  O  O22  1  0.50885200  0.73965300  0.94509000  1
  O  O23  1  0.26034700  0.49114800  0.55491000  1
  O  O24  1  0.28613900  0.54205000  0.15662800  1
  O  O25  1  0.45795000  0.71386100  0.34337200  1
  O  O26  1  0.71386100  0.45795000  0.84337200  1
  O  O27  1  0.54205000  0.28613900  0.65662800  1
  O  O28  1  0.35630600  0.20868000  0.32965600  1
  O  O29  1  0.79132000  0.64369400  0.17034400  1
  O  O30  1  0.64369400  0.79132000  0.67034400  1
  O  O31  1  0.20868000  0.35630600  0.82965600  1
  O  O32  1  0.13604000  0.28092000  0.17693300  1
  O  O33  1  0.71908000  0.86396000  0.32306700  1
  O  O34  1  0.86396000  0.71908000  0.82306700  1
  O  O35  1  0.28092000  0.13604000  0.67693300  1
