# generated using pymatgen
data_CuH3NCl
_symmetry_space_group_name_H-M   'P 1'
_cell_length_a   7.23650481
_cell_length_b   7.23650481
_cell_length_c   7.23650481
_cell_angle_alpha   109.47122063
_cell_angle_beta   109.47122063
_cell_angle_gamma   109.47122063
_symmetry_Int_Tables_number   1
_chemical_formula_structural   CuH3NCl
_chemical_formula_sum   'Cu4 H12 N4 Cl4'
_cell_volume   291.71897207
_cell_formula_units_Z   4
loop_
 _symmetry_equiv_pos_site_id
 _symmetry_equiv_pos_as_xyz
  1  'x, y, z'
loop_
 _atom_site_type_symbol
 _atom_site_label
 _atom_site_symmetry_multiplicity
 _atom_site_fract_x
 _atom_site_fract_y
 _atom_site_fract_z
 _atom_site_occupancy
  Cu  Cu0  1  0.76255800  0.76255800  0.76255800  1
  Cu  Cu1  1  0.00000000  0.73744200  0.50000000  1
  Cu  Cu2  1  0.50000000  0.00000000  0.73744200  1
  Cu  Cu3  1  0.73744200  0.50000000  0.00000000  1
  H  H4  1  0.03576500  0.17211000  0.02806300  1
  H  H5  1  0.46423500  0.49229800  0.13634600  1
  H  H6  1  0.32789000  0.36365400  0.85595200  1
  H  H7  1  0.36365400  0.85595200  0.32789000  1
  H  H8  1  0.64404800  0.00770200  0.47193700  1
  H  H9  1  0.47193700  0.64404800  0.00770200  1
  H  H10  1  0.49229800  0.13634600  0.46423500  1
  H  H11  1  0.00770200  0.47193700  0.64404800  1
  H  H12  1  0.02806300  0.03576500  0.17211000  1
  H  H13  1  0.85595200  0.32789000  0.36365400  1
  H  H14  1  0.13634600  0.46423500  0.49229800  1
  H  H15  1  0.17211000  0.02806300  0.03576500  1
  N  N16  1  0.00000000  0.47373300  0.50000000  1
  N  N17  1  0.02626700  0.02626700  0.02626700  1
  N  N18  1  0.47373300  0.50000000  0.00000000  1
  N  N19  1  0.50000000  0.00000000  0.47373300  1
  Cl  Cl20  1  0.46969600  0.46969600  0.46969600  1
  Cl  Cl21  1  0.03030400  0.50000000  0.00000000  1
  Cl  Cl22  1  0.00000000  0.03030400  0.50000000  1
  Cl  Cl23  1  0.50000000  0.00000000  0.03030400  1
