# generated using pymatgen
data_CsSi
_symmetry_space_group_name_H-M   'P 1'
_cell_length_a   12.36411868
_cell_length_b   12.36411868
_cell_length_c   12.36411868
_cell_angle_alpha   124.69543680
_cell_angle_beta   124.69543680
_cell_angle_gamma   82.04310336
_symmetry_Int_Tables_number   1
_chemical_formula_structural   CsSi
_chemical_formula_sum   'Cs16 Si16'
_cell_volume   1228.62353641
_cell_formula_units_Z   16
loop_
 _symmetry_equiv_pos_site_id
 _symmetry_equiv_pos_as_xyz
  1  'x, y, z'
loop_
 _atom_site_type_symbol
 _atom_site_label
 _atom_site_symmetry_multiplicity
 _atom_site_fract_x
 _atom_site_fract_y
 _atom_site_fract_z
 _atom_site_occupancy
  Cs  Cs0  1  0.26552600  0.87500000  0.89052600  1
  Cs  Cs1  1  0.98447400  0.37500000  0.10947400  1
  Cs  Cs2  1  0.62500000  0.23447400  0.10947400  1
  Cs  Cs3  1  0.12500000  0.51552600  0.89052600  1
  Cs  Cs4  1  0.62500000  0.73447400  0.60947400  1
  Cs  Cs5  1  0.12500000  0.01552600  0.39052600  1
  Cs  Cs6  1  0.76552600  0.87500000  0.39052600  1
  Cs  Cs7  1  0.48447400  0.37500000  0.60947400  1
  Cs  Cs8  1  0.37088100  0.37088100  0.24176200  1
  Cs  Cs9  1  0.12911900  0.12911900  0.75823800  1
  Cs  Cs10  1  0.87911900  0.62088100  0.50000000  1
  Cs  Cs11  1  0.12088100  0.37911900  0.50000000  1
  Cs  Cs12  1  0.37911900  0.87911900  0.25823800  1
  Cs  Cs13  1  0.62088100  0.12088100  0.74176200  1
  Cs  Cs14  1  0.87088100  0.62911900  0.00000000  1
  Cs  Cs15  1  0.62911900  0.87088100  0.00000000  1
  Si  Si16  1  0.45598500  0.60267100  0.96698400  1
  Si  Si17  1  0.63568700  0.48900100  0.03301600  1
  Si  Si18  1  0.79401500  0.26099900  0.64668600  1
  Si  Si19  1  0.61431300  0.14732900  0.35331400  1
  Si  Si20  1  0.89732900  0.04401500  0.03301600  1
  Si  Si21  1  0.01099900  0.86431300  0.96698400  1
  Si  Si22  1  0.23900100  0.70598500  0.35331400  1
  Si  Si23  1  0.35267100  0.88568700  0.64668600  1
  Si  Si24  1  0.29401500  0.64732900  0.53301600  1
  Si  Si25  1  0.11431300  0.76099900  0.46698400  1
  Si  Si26  1  0.95598500  0.98900100  0.85331400  1
  Si  Si27  1  0.13568700  0.10267100  0.14668600  1
  Si  Si28  1  0.85267100  0.20598500  0.46698400  1
  Si  Si29  1  0.73900100  0.38568700  0.53301600  1
  Si  Si30  1  0.51099900  0.54401500  0.14668600  1
  Si  Si31  1  0.39732900  0.36431300  0.85331400  1
