# generated using pymatgen
data_U(PO3)4
_symmetry_space_group_name_H-M   'P 1'
_cell_length_a   8.33187200
_cell_length_b   8.33497434
_cell_length_c   8.58813111
_cell_angle_alpha   117.71655193
_cell_angle_beta   116.83033925
_cell_angle_gamma   90.30011945
_symmetry_Int_Tables_number   1
_chemical_formula_structural   U(PO3)4
_chemical_formula_sum   'U2 P8 O24'
_cell_volume   453.32735894
_cell_formula_units_Z   2
loop_
 _symmetry_equiv_pos_site_id
 _symmetry_equiv_pos_as_xyz
  1  'x, y, z'
loop_
 _atom_site_type_symbol
 _atom_site_label
 _atom_site_symmetry_multiplicity
 _atom_site_fract_x
 _atom_site_fract_y
 _atom_site_fract_z
 _atom_site_occupancy
  U  U0  1  0.71918300  0.71237400  0.92440200  1
  U  U1  1  0.28081700  0.28762600  0.07559800  1
  P  P2  1  0.23372900  0.77094400  0.29445000  1
  P  P3  1  0.52303000  0.97675400  0.26022800  1
  P  P4  1  0.76459900  0.52825900  0.26813700  1
  P  P5  1  0.76627100  0.22905600  0.70555000  1
  P  P6  1  0.01264900  0.77780600  0.71955900  1
  P  P7  1  0.98735100  0.22219400  0.28044100  1
  P  P8  1  0.47697000  0.02324600  0.73977200  1
  P  P9  1  0.23540100  0.47174100  0.73186300  1
  O  O10  1  0.71786700  0.06952300  0.47725700  1
  O  O11  1  0.44541600  0.13358900  0.24236700  1
  O  O12  1  0.28213300  0.93047700  0.52274300  1
  O  O13  1  0.07947700  0.28920700  0.51787800  1
  O  O14  1  0.04910000  0.77263900  0.14600800  1
  O  O15  1  0.14914500  0.96444600  0.83565400  1
  O  O16  1  0.12653500  0.62974700  0.74177200  1
  O  O17  1  0.55384500  0.83855800  0.09432500  1
  O  O18  1  0.85085500  0.03555400  0.16434600  1
  O  O19  1  0.55458400  0.86641100  0.75763300  1
  O  O20  1  0.92052300  0.71079300  0.48212200  1
  O  O21  1  0.86322400  0.76570200  0.76870400  1
  O  O22  1  0.95090000  0.22736100  0.85399200  1
  O  O23  1  0.87346500  0.37025300  0.25822800  1
  O  O24  1  0.59524800  0.48656600  0.27889500  1
  O  O25  1  0.59939900  0.14862900  0.71559000  1
  O  O26  1  0.13677600  0.23429800  0.23129600  1
  O  O27  1  0.74630200  0.41482100  0.72007000  1
  O  O28  1  0.40060100  0.85137100  0.28441000  1
  O  O29  1  0.25548500  0.43656800  0.89520200  1
  O  O30  1  0.25369800  0.58517900  0.27993000  1
  O  O31  1  0.74451500  0.56343200  0.10479800  1
  O  O32  1  0.44615500  0.16144200  0.90567500  1
  O  O33  1  0.40475200  0.51343400  0.72110500  1
