# generated using pymatgen
data_CaSnS3
_symmetry_space_group_name_H-M   'P 1'
_cell_length_a   9.97472900
_cell_length_b   9.97472900
_cell_length_c   9.97472900
_cell_angle_alpha   90.00000000
_cell_angle_beta   90.00000000
_cell_angle_gamma   90.00000000
_symmetry_Int_Tables_number   1
_chemical_formula_structural   CaSnS3
_chemical_formula_sum   'Ca8 Sn8 S24'
_cell_volume   992.43784256
_cell_formula_units_Z   8
loop_
 _symmetry_equiv_pos_site_id
 _symmetry_equiv_pos_as_xyz
  1  'x, y, z'
loop_
 _atom_site_type_symbol
 _atom_site_label
 _atom_site_symmetry_multiplicity
 _atom_site_fract_x
 _atom_site_fract_y
 _atom_site_fract_z
 _atom_site_occupancy
  Ca  Ca0  1  0.25403400  0.75403400  0.74596600  1
  Ca  Ca1  1  0.75403400  0.74596600  0.25403400  1
  Ca  Ca2  1  0.74596600  0.25403400  0.75403400  1
  Ca  Ca3  1  0.24596600  0.24596600  0.24596600  1
  Ca  Ca4  1  0.70960900  0.20960900  0.29039100  1
  Ca  Ca5  1  0.20960900  0.29039100  0.70960900  1
  Ca  Ca6  1  0.29039100  0.70960900  0.20960900  1
  Ca  Ca7  1  0.79039100  0.79039100  0.79039100  1
  Sn  Sn8  1  0.01596100  0.51596100  0.98403900  1
  Sn  Sn9  1  0.51596100  0.98403900  0.01596100  1
  Sn  Sn10  1  0.98403900  0.01596100  0.51596100  1
  Sn  Sn11  1  0.48403900  0.48403900  0.48403900  1
  Sn  Sn12  1  0.48144300  0.98144300  0.51855700  1
  Sn  Sn13  1  0.98144300  0.51855700  0.48144300  1
  Sn  Sn14  1  0.51855700  0.48144300  0.98144300  1
  Sn  Sn15  1  0.01855700  0.01855700  0.01855700  1
  S  S16  1  0.03759300  0.77537600  0.93295100  1
  S  S17  1  0.06704900  0.53759300  0.72462400  1
  S  S18  1  0.27537600  0.56704900  0.96240700  1
  S  S19  1  0.53759300  0.72462400  0.06704900  1
  S  S20  1  0.56704900  0.96240700  0.27537600  1
  S  S21  1  0.77537600  0.93295100  0.03759300  1
  S  S22  1  0.96240700  0.27537600  0.56704900  1
  S  S23  1  0.93295100  0.03759300  0.77537600  1
  S  S24  1  0.72462400  0.06704900  0.53759300  1
  S  S25  1  0.46240700  0.22462400  0.43295100  1
  S  S26  1  0.43295100  0.46240700  0.22462400  1
  S  S27  1  0.22462400  0.43295100  0.46240700  1
  S  S28  1  0.10107200  0.27351100  0.99258100  1
  S  S29  1  0.00741900  0.60107200  0.22648900  1
  S  S30  1  0.77351100  0.50741900  0.89892800  1
  S  S31  1  0.60107200  0.22648900  0.00741900  1
  S  S32  1  0.50741900  0.89892800  0.77351100  1
  S  S33  1  0.27351100  0.99258100  0.10107200  1
  S  S34  1  0.89892800  0.77351100  0.50741900  1
  S  S35  1  0.99258100  0.10107200  0.27351100  1
  S  S36  1  0.22648900  0.00741900  0.60107200  1
  S  S37  1  0.39892800  0.72648900  0.49258100  1
  S  S38  1  0.49258100  0.39892800  0.72648900  1
  S  S39  1  0.72648900  0.49258100  0.39892800  1
