# generated using pymatgen
data_CaSnS3
_symmetry_space_group_name_H-M   'P 1'
_cell_length_a   6.79478914
_cell_length_b   6.79478914
_cell_length_c   6.79478917
_cell_angle_alpha   62.78629783
_cell_angle_beta   62.78629783
_cell_angle_gamma   62.78629644
_symmetry_Int_Tables_number   1
_chemical_formula_structural   CaSnS3
_chemical_formula_sum   'Ca2 Sn2 S6'
_cell_volume   235.57039569
_cell_formula_units_Z   2
loop_
 _symmetry_equiv_pos_site_id
 _symmetry_equiv_pos_as_xyz
  1  'x, y, z'
loop_
 _atom_site_type_symbol
 _atom_site_label
 _atom_site_symmetry_multiplicity
 _atom_site_fract_x
 _atom_site_fract_y
 _atom_site_fract_z
 _atom_site_occupancy
  Ca  Ca0  1  0.25000000  0.25000000  0.25000000  1
  Ca  Ca1  1  0.75000000  0.75000000  0.75000000  1
  Sn  Sn2  1  0.50000000  0.50000000  0.50000000  1
  Sn  Sn3  1  0.00000000  0.00000000  0.00000000  1
  S  S4  1  0.85980900  0.64019100  0.25000000  1
  S  S5  1  0.25000000  0.85980900  0.64019100  1
  S  S6  1  0.64019100  0.25000000  0.85980900  1
  S  S7  1  0.75000000  0.14019100  0.35980900  1
  S  S8  1  0.35980900  0.75000000  0.14019100  1
  S  S9  1  0.14019100  0.35980900  0.75000000  1
