# generated using pymatgen
data_Ca3SnS5
_symmetry_space_group_name_H-M   'P 1'
_cell_length_a   8.96043145
_cell_length_b   8.96043145
_cell_length_c   8.96043145
_cell_angle_alpha   129.08051068
_cell_angle_beta   129.08051068
_cell_angle_gamma   74.88106315
_symmetry_Int_Tables_number   1
_chemical_formula_structural   Ca3SnS5
_chemical_formula_sum   'Ca6 Sn2 S10'
_cell_volume   422.22799727
_cell_formula_units_Z   2
loop_
 _symmetry_equiv_pos_site_id
 _symmetry_equiv_pos_as_xyz
  1  'x, y, z'
loop_
 _atom_site_type_symbol
 _atom_site_label
 _atom_site_symmetry_multiplicity
 _atom_site_fract_x
 _atom_site_fract_y
 _atom_site_fract_z
 _atom_site_occupancy
  Ca  Ca0  1  0.75000000  0.75000000  0.00000000  1
  Ca  Ca1  1  0.25000000  0.25000000  0.00000000  1
  Ca  Ca2  1  0.33723600  0.83723600  0.17447200  1
  Ca  Ca3  1  0.66276400  0.16276400  0.82552800  1
  Ca  Ca4  1  0.83723600  0.66276400  0.50000000  1
  Ca  Ca5  1  0.16276400  0.33723600  0.50000000  1
  Sn  Sn6  1  0.75000000  0.25000000  0.50000000  1
  Sn  Sn7  1  0.25000000  0.75000000  0.50000000  1
  S  S8  1  0.00000000  0.00000000  0.00000000  1
  S  S9  1  0.50000000  0.50000000  0.00000000  1
  S  S10  1  0.02204000  0.52204000  0.82881000  1
  S  S11  1  0.69323000  0.19323000  0.17119000  1
  S  S12  1  0.52204000  0.69323000  0.50000000  1
  S  S13  1  0.19323000  0.02204000  0.50000000  1
  S  S14  1  0.97796000  0.47796000  0.17119000  1
  S  S15  1  0.30677000  0.80677000  0.82881000  1
  S  S16  1  0.47796000  0.30677000  0.50000000  1
  S  S17  1  0.80677000  0.97796000  0.50000000  1
