# generated using pymatgen
data_CaSnS3
_symmetry_space_group_name_H-M   'P 1'
_cell_length_a   7.18351293
_cell_length_b   16.57166939
_cell_length_c   27.93711153
_cell_angle_alpha   86.41423672
_cell_angle_beta   82.61327543
_cell_angle_gamma   77.48231940
_symmetry_Int_Tables_number   1
_chemical_formula_structural   CaSnS3
_chemical_formula_sum   'Ca24 Sn24 S72'
_cell_volume   3217.64693179
_cell_formula_units_Z   24
loop_
 _symmetry_equiv_pos_site_id
 _symmetry_equiv_pos_as_xyz
  1  'x, y, z'
loop_
 _atom_site_type_symbol
 _atom_site_label
 _atom_site_symmetry_multiplicity
 _atom_site_fract_x
 _atom_site_fract_y
 _atom_site_fract_z
 _atom_site_occupancy
  Ca  Ca0  1  0.50000000  0.50000000  0.00000000  1
  Ca  Ca1  1  0.00000000  0.00000000  0.50000000  1
  Ca  Ca2  1  0.93809963  0.75000000  0.25000000  1
  Ca  Ca3  1  0.06190037  0.25000000  0.75000000  1
  Ca  Ca4  1  0.24151314  0.47503574  0.45775059  1
  Ca  Ca5  1  0.17429948  0.02496426  0.04224941  1
  Ca  Ca6  1  0.75848686  0.52496426  0.54224941  1
  Ca  Ca7  1  0.82570052  0.97503574  0.95775059  1
  Ca  Ca8  1  0.46989559  0.14997533  0.42474571  1
  Ca  Ca9  1  0.04461664  0.35002467  0.07525429  1
  Ca  Ca10  1  0.53010441  0.85002467  0.57525429  1
  Ca  Ca11  1  0.95538336  0.64997533  0.92474571  1
  Ca  Ca12  1  0.37618190  0.56447228  0.31590718  1
  Ca  Ca13  1  0.25656136  0.93552772  0.18409282  1
  Ca  Ca14  1  0.62381810  0.43552772  0.68409282  1
  Ca  Ca15  1  0.74343864  0.06447228  0.81590718  1
  Ca  Ca16  1  0.50335744  0.85379927  0.87611834  1
  Ca  Ca17  1  0.23327505  0.64620073  0.62388166  1
  Ca  Ca18  1  0.49664256  0.14620073  0.12388166  1
  Ca  Ca19  1  0.76672495  0.35379927  0.37611834  1
  Ca  Ca20  1  0.39745352  0.95057560  0.72515645  1
  Ca  Ca21  1  0.07318557  0.54942440  0.77484355  1
  Ca  Ca22  1  0.60254648  0.04942440  0.27484355  1
  Ca  Ca23  1  0.92681443  0.45057560  0.22515645  1
  Sn  Sn24  1  0.43972726  0.29416866  0.28203520  1
  Sn  Sn25  1  0.01593113  0.20583134  0.21796480  1
  Sn  Sn26  1  0.56027274  0.70583134  0.71796480  1
  Sn  Sn27  1  0.98406887  0.79416866  0.78203520  1
  Sn  Sn28  1  0.58601402  0.56112000  0.86041733  1
  Sn  Sn29  1  0.00755135  0.93888000  0.63958267  1
  Sn  Sn30  1  0.41398598  0.43888000  0.13958267  1
  Sn  Sn31  1  0.99244865  0.06112000  0.36041733  1
  Sn  Sn32  1  0.23158159  0.12209162  0.88739479  1
  Sn  Sn33  1  0.24106799  0.37790838  0.61260521  1
  Sn  Sn34  1  0.76841841  0.87790838  0.11260521  1
  Sn  Sn35  1  0.75893201  0.62209162  0.38739479  1
  Sn  Sn36  1  0.63596301  0.86371923  0.40160634  1
  Sn  Sn37  1  0.90128858  0.63628077  0.09839366  1
  Sn  Sn38  1  0.36403699  0.13628077  0.59839366  1
  Sn  Sn39  1  0.09871142  0.36371923  0.90160634  1
  Sn  Sn40  1  0.27738810  0.74348880  0.01581855  1
  Sn  Sn41  1  0.03669545  0.75651120  0.48418145  1
  Sn  Sn42  1  0.72261190  0.25651120  0.98418145  1
  Sn  Sn43  1  0.96330455  0.24348880  0.51581855  1
  Sn  Sn44  1  0.61150754  0.34880992  0.82722563  1
  Sn  Sn45  1  0.78754309  0.15119008  0.67277437  1
  Sn  Sn46  1  0.38849246  0.65119008  0.17277437  1
  Sn  Sn47  1  0.21245691  0.84880992  0.32722563  1
  S  S48  1  0.30892508  0.33419050  0.40674270  1
  S  S49  1  0.04985828  0.16580950  0.09325730  1
  S  S50  1  0.69107492  0.66580950  0.59325730  1
  S  S51  1  0.95014172  0.83419050  0.90674270  1
  S  S52  1  0.59571884  0.40693264  0.29204974  1
  S  S53  1  0.29470121  0.09306736  0.20795026  1
  S  S54  1  0.40428116  0.59306736  0.70795026  1
  S  S55  1  0.70529879  0.90693264  0.79204974  1
  S  S56  1  0.06872249  0.41052150  0.31822598  1
  S  S57  1  0.79746997  0.08947850  0.18177402  1
  S  S58  1  0.93127751  0.58947850  0.68177402  1
  S  S59  1  0.20253003  0.91052150  0.81822598  1
  S  S60  1  0.56576051  0.63176238  0.94035427  1
  S  S61  1  0.13787715  0.86823762  0.55964573  1
  S  S62  1  0.43423949  0.36823762  0.05964573  1
  S  S63  1  0.86212285  0.13176238  0.44035427  1
  S  S64  1  0.15618774  0.67757300  0.82579012  1
  S  S65  1  0.65955085  0.82242700  0.67420988  1
  S  S66  1  0.84381226  0.32242700  0.17420988  1
  S  S67  1  0.34044915  0.17757300  0.32579012  1
  S  S68  1  0.72808588  0.69075893  0.79074002  1
  S  S69  1  0.20958483  0.80924107  0.70925998  1
  S  S70  1  0.27191412  0.30924107  0.20925998  1
  S  S71  1  0.79041517  0.19075893  0.29074002  1
  S  S72  1  0.39781106  0.14809247  0.78307821  1
  S  S73  1  0.32898174  0.35190753  0.71692179  1
  S  S74  1  0.60218894  0.85190753  0.21692179  1
  S  S75  1  0.67101826  0.64809247  0.28307821  1
  S  S76  1  0.06079443  0.00407983  0.86561539  1
  S  S77  1  0.93048965  0.49592017  0.63438461  1
  S  S78  1  0.93920557  0.99592017  0.13438461  1
  S  S79  1  0.06951035  0.50407983  0.36561539  1
  S  S80  1  0.66059504  0.01070839  0.37221737  1
  S  S81  1  0.04352080  0.48929161  0.12778263  1
  S  S82  1  0.33940496  0.98929161  0.62778263  1
  S  S83  1  0.95647920  0.51070839  0.87221737  1
  S  S84  1  0.73940116  0.88638040  0.48558681  1
  S  S85  1  0.11136837  0.61361960  0.01441319  1
  S  S86  1  0.26059884  0.11361960  0.51441319  1
  S  S87  1  0.88863163  0.38638040  0.98558681  1
  S  S88  1  0.22893699  0.91049614  0.40537954  1
  S  S89  1  0.54481268  0.58950385  0.09462046  1
  S  S90  1  0.77106301  0.08950386  0.59462046  1
  S  S91  1  0.45518732  0.41049615  0.90537954  1
  S  S92  1  0.00897590  0.88829051  0.03426599  1
  S  S93  1  0.93153240  0.61170949  0.46573401  1
  S  S94  1  0.99102410  0.11170949  0.96573401  1
  S  S95  1  0.06846760  0.38829051  0.53426599  1
  S  S96  1  0.22177490  0.76106060  0.92362111  1
  S  S97  1  0.90645662  0.73893940  0.57637889  1
  S  S98  1  0.77822510  0.23893940  0.07637889  1
  S  S99  1  0.09354338  0.26106060  0.42362111  1
  S  S100  1  0.72792140  0.80595075  0.95664897  1
  S  S101  1  0.49052112  0.69404925  0.54335103  1
  S  S102  1  0.27207860  0.19404925  0.04335103  1
  S  S103  1  0.50947888  0.30595075  0.45664897  1
  S  S104  1  0.82543395  0.21919914  0.84005102  1
  S  S105  1  0.88468412  0.28080086  0.65994898  1
  S  S106  1  0.17456605  0.78080086  0.15994898  1
  S  S107  1  0.11531588  0.71919914  0.34005102  1
  S  S108  1  0.29827465  0.38040566  0.79084077  1
  S  S109  1  0.46952108  0.11959434  0.70915923  1
  S  S110  1  0.70172535  0.61959434  0.20915923  1
  S  S111  1  0.53047892  0.88040566  0.29084077  1
  S  S112  1  0.81249291  0.41735192  0.77002530  1
  S  S113  1  -0.00012987  0.08264808  0.72997470  1
  S  S114  1  0.18750709  0.58264808  0.22997470  1
  S  S115  1  0.00012987  0.91735192  0.27002530  1
  S  S116  1  0.52198641  0.01162775  0.90576444  1
  S  S117  1  0.43937860  0.48837225  0.59423556  1
  S  S118  1  0.47801359  0.98837225  0.09423556  1
  S  S119  1  0.56062140  0.51162775  0.40576444  1
