# generated using pymatgen
data_DyAgH2C2SO9
_symmetry_space_group_name_H-M   'P 1'
_cell_length_a   7.73725506
_cell_length_b   7.73725506
_cell_length_c   9.08685321
_cell_angle_alpha   65.99483862
_cell_angle_beta   65.99483862
_cell_angle_gamma   53.43510347
_symmetry_Int_Tables_number   1
_chemical_formula_structural   DyAgH2C2SO9
_chemical_formula_sum   'Dy2 Ag2 H4 C4 S2 O18'
_cell_volume   388.97382931
_cell_formula_units_Z   2
loop_
 _symmetry_equiv_pos_site_id
 _symmetry_equiv_pos_as_xyz
  1  'x, y, z'
loop_
 _atom_site_type_symbol
 _atom_site_label
 _atom_site_symmetry_multiplicity
 _atom_site_fract_x
 _atom_site_fract_y
 _atom_site_fract_z
 _atom_site_occupancy
  Dy  Dy0  1  0.75721200  0.75721200  0.26823500  1
  Dy  Dy1  1  0.24278800  0.24278800  0.73176500  1
  Ag  Ag2  1  0.91331800  0.91331800  0.66866400  1
  Ag  Ag3  1  0.08668200  0.08668200  0.33133600  1
  H  H4  1  0.58522300  0.58522300  0.14637100  1
  H  H5  1  0.41477700  0.41477700  0.85362900  1
  H  H6  1  0.69882100  0.69882100  0.98861800  1
  H  H7  1  0.30117900  0.30117900  0.01138200  1
  C  C8  1  0.98306300  0.98306300  0.93045100  1
  C  C9  1  0.01693700  0.01693700  0.06954900  1
  C  C10  1  0.39088900  0.60911100  0.50000000  1
  C  C11  1  0.60911100  0.39088900  0.50000000  1
  S  S12  1  0.66621600  0.66621600  0.71604500  1
  S  S13  1  0.33378400  0.33378400  0.28395500  1
  O  O14  1  0.66462300  0.66462300  0.10899600  1
  O  O15  1  0.33537700  0.33537700  0.89100400  1
  O  O16  1  0.55195100  0.55195100  0.75243800  1
  O  O17  1  0.44804900  0.44804900  0.24756200  1
  O  O18  1  0.52024300  0.86570600  0.79005400  1
  O  O19  1  0.13429400  0.47975700  0.20994600  1
  O  O20  1  0.47975700  0.13429400  0.20994600  1
  O  O21  1  0.86570600  0.52024300  0.79005400  1
  O  O22  1  0.73935300  0.73935300  0.53323300  1
  O  O23  1  0.26064700  0.26064700  0.46676700  1
  O  O24  1  0.39983400  0.78221800  0.41786300  1
  O  O25  1  0.21778200  0.60016600  0.58213700  1
  O  O26  1  0.60016600  0.21778200  0.58213700  1
  O  O27  1  0.78221800  0.39983400  0.41786300  1
  O  O28  1  0.05742900  0.05742900  0.78263400  1
  O  O29  1  0.94257100  0.94257100  0.21736600  1
  O  O30  1  0.88183900  0.88183900  0.97323500  1
  O  O31  1  0.11816100  0.11816100  0.02676500  1
