# generated using pymatgen
data_CaSnS3
_symmetry_space_group_name_H-M   'P 1'
_cell_length_a   7.02587700
_cell_length_b   8.89425000
_cell_length_c   12.55139284
_cell_angle_alpha   76.64411143
_cell_angle_beta   90.00000000
_cell_angle_gamma   90.00000000
_symmetry_Int_Tables_number   1
_chemical_formula_structural   CaSnS3
_chemical_formula_sum   'Ca6 Sn6 S18'
_cell_volume   763.12223899
_cell_formula_units_Z   6
loop_
 _symmetry_equiv_pos_site_id
 _symmetry_equiv_pos_as_xyz
  1  'x, y, z'
loop_
 _atom_site_type_symbol
 _atom_site_label
 _atom_site_symmetry_multiplicity
 _atom_site_fract_x
 _atom_site_fract_y
 _atom_site_fract_z
 _atom_site_occupancy
  Ca  Ca0  1  0.77348500  0.55662200  0.40411500  1
  Ca  Ca1  1  0.27348500  0.44337800  0.59588500  1
  Ca  Ca2  1  0.66538700  0.14891300  0.84931900  1
  Ca  Ca3  1  0.16538700  0.85108700  0.15068100  1
  Ca  Ca4  1  0.18704100  0.36115900  0.92751700  1
  Ca  Ca5  1  0.68704100  0.63884100  0.07248300  1
  Sn  Sn6  1  0.72742800  0.68379100  0.69847900  1
  Sn  Sn7  1  0.22742800  0.31620900  0.30152100  1
  Sn  Sn8  1  0.74769300  0.08050800  0.46670000  1
  Sn  Sn9  1  0.24769300  0.91949200  0.53330000  1
  Sn  Sn10  1  0.63752900  0.12264700  0.19794700  1
  Sn  Sn11  1  0.13752900  0.87735300  0.80205300  1
  S  S12  1  0.75214300  0.96990200  0.68941800  1
  S  S13  1  0.25214300  0.03009800  0.31058200  1
  S  S14  1  0.01013400  0.28386600  0.47329000  1
  S  S15  1  0.51013400  0.71613400  0.52671000  1
  S  S16  1  0.49572600  0.31662500  0.44110500  1
  S  S17  1  0.99572600  0.68337500  0.55889500  1
  S  S18  1  0.98193700  0.31855400  0.74866100  1
  S  S19  1  0.48193700  0.68144600  0.25133900  1
  S  S20  1  0.51573200  0.45847700  0.77895000  1
  S  S21  1  0.01573200  0.54152300  0.22105000  1
  S  S22  1  0.91565300  0.62367000  0.88551000  1
  S  S23  1  0.41565300  0.37633000  0.11449000  1
  S  S24  1  0.92795700  0.12038700  0.04120900  1
  S  S25  1  0.42795700  0.87961300  0.95879100  1
  S  S26  1  0.41826900  0.07824200  0.03005000  1
  S  S27  1  0.91826900  0.92175800  0.96995000  1
  S  S28  1  0.72398600  0.82199500  0.23345400  1
  S  S29  1  0.22398600  0.17800500  0.76654600  1
