# generated using pymatgen
data_Gd3Ni19B10
_symmetry_space_group_name_H-M   'P 1'
_cell_length_a   7.87032094
_cell_length_b   7.87032094
_cell_length_c   5.75661295
_cell_angle_alpha   88.82989445
_cell_angle_beta   88.82989445
_cell_angle_gamma   67.17898785
_symmetry_Int_Tables_number   1
_chemical_formula_structural   Gd3Ni19B10
_chemical_formula_sum   'Gd3 Ni19 B10'
_cell_volume   328.56466425
_cell_formula_units_Z   1
loop_
 _symmetry_equiv_pos_site_id
 _symmetry_equiv_pos_as_xyz
  1  'x, y, z'
loop_
 _atom_site_type_symbol
 _atom_site_label
 _atom_site_symmetry_multiplicity
 _atom_site_fract_x
 _atom_site_fract_y
 _atom_site_fract_z
 _atom_site_occupancy
  Gd  Gd0  1  0.37442000  0.37442000  0.88796900  1
  Gd  Gd1  1  0.62558000  0.62558000  0.11203100  1
  Gd  Gd2  1  0.00000000  0.00000000  0.50000000  1
  Ni  Ni3  1  0.00000000  0.00000000  0.00000000  1
  Ni  Ni4  1  0.37865300  0.87826900  0.42620900  1
  Ni  Ni5  1  0.12173100  0.62134700  0.57379100  1
  Ni  Ni6  1  0.62134700  0.12173100  0.57379100  1
  Ni  Ni7  1  0.87826900  0.37865300  0.42620900  1
  Ni  Ni8  1  0.71219500  0.22912100  0.19894400  1
  Ni  Ni9  1  0.77087900  0.28780500  0.80105600  1
  Ni  Ni10  1  0.28780500  0.77087900  0.80105600  1
  Ni  Ni11  1  0.22912100  0.71219500  0.19894400  1
  Ni  Ni12  1  0.81728800  0.81728800  0.77128600  1
  Ni  Ni13  1  0.18271200  0.18271200  0.22871400  1
  Ni  Ni14  1  0.04485500  0.51836800  0.19868200  1
  Ni  Ni15  1  0.48163200  0.95514500  0.80131800  1
  Ni  Ni16  1  0.95514500  0.48163200  0.80131800  1
  Ni  Ni17  1  0.51836800  0.04485500  0.19868200  1
  Ni  Ni18  1  0.37806900  0.37806900  0.37631900  1
  Ni  Ni19  1  0.62193100  0.62193100  0.62368100  1
  Ni  Ni20  1  0.83715500  0.83715500  0.20156200  1
  Ni  Ni21  1  0.16284500  0.16284500  0.79843800  1
  B  B22  1  0.65200400  0.85712100  0.47523900  1
  B  B23  1  0.14287900  0.34799600  0.52476100  1
  B  B24  1  0.61681700  0.38318300  0.50000000  1
  B  B25  1  0.38318300  0.61681700  0.50000000  1
  B  B26  1  0.85712100  0.65200400  0.47523900  1
  B  B27  1  0.34799600  0.14287900  0.52476100  1
  B  B28  1  0.70010600  0.06357400  0.93149500  1
  B  B29  1  0.93642600  0.29989400  0.06850500  1
  B  B30  1  0.29989400  0.93642600  0.06850500  1
  B  B31  1  0.06357400  0.70010600  0.93149500  1
