# generated using pymatgen
data_Ca7Sn3S13
_symmetry_space_group_name_H-M   'P 1'
_cell_length_a   8.71139100
_cell_length_b   11.59727000
_cell_length_c   22.16290200
_cell_angle_alpha   90.00000000
_cell_angle_beta   90.00000000
_cell_angle_gamma   90.00000000
_symmetry_Int_Tables_number   1
_chemical_formula_structural   Ca7Sn3S13
_chemical_formula_sum   'Ca28 Sn12 S52'
_cell_volume   2239.08149790
_cell_formula_units_Z   4
loop_
 _symmetry_equiv_pos_site_id
 _symmetry_equiv_pos_as_xyz
  1  'x, y, z'
loop_
 _atom_site_type_symbol
 _atom_site_label
 _atom_site_symmetry_multiplicity
 _atom_site_fract_x
 _atom_site_fract_y
 _atom_site_fract_z
 _atom_site_occupancy
  Ca  Ca0  1  0.88397500  0.31411600  0.46325100  1
  Ca  Ca1  1  0.61602500  0.81411600  0.03674900  1
  Ca  Ca2  1  0.11602500  0.68588400  0.96325100  1
  Ca  Ca3  1  0.38397500  0.18588400  0.53674900  1
  Ca  Ca4  1  0.11602500  0.68588400  0.53674900  1
  Ca  Ca5  1  0.38397500  0.18588400  0.96325100  1
  Ca  Ca6  1  0.88397500  0.31411600  0.03674900  1
  Ca  Ca7  1  0.61602500  0.81411600  0.46325100  1
  Ca  Ca8  1  0.37776100  0.15666200  0.34279400  1
  Ca  Ca9  1  0.12223900  0.65666200  0.15720600  1
  Ca  Ca10  1  0.62223900  0.84333800  0.84279400  1
  Ca  Ca11  1  0.87776100  0.34333800  0.65720600  1
  Ca  Ca12  1  0.62223900  0.84333800  0.65720600  1
  Ca  Ca13  1  0.87776100  0.34333800  0.84279400  1
  Ca  Ca14  1  0.37776100  0.15666200  0.15720600  1
  Ca  Ca15  1  0.12223900  0.65666200  0.34279400  1
  Ca  Ca16  1  0.09275500  0.34875100  0.25000000  1
  Ca  Ca17  1  0.40724500  0.84875100  0.25000000  1
  Ca  Ca18  1  0.90724500  0.65124900  0.75000000  1
  Ca  Ca19  1  0.59275500  0.15124900  0.75000000  1
  Ca  Ca20  1  0.58589100  0.53024100  0.34179000  1
  Ca  Ca21  1  0.91410900  0.03024100  0.15821000  1
  Ca  Ca22  1  0.41410900  0.46975900  0.84179000  1
  Ca  Ca23  1  0.08589100  0.96975900  0.65821000  1
  Ca  Ca24  1  0.41410900  0.46975900  0.65821000  1
  Ca  Ca25  1  0.08589100  0.96975900  0.84179000  1
  Ca  Ca26  1  0.58589100  0.53024100  0.15821000  1
  Ca  Ca27  1  0.91410900  0.03024100  0.34179000  1
  Sn  Sn28  1  0.68566500  0.24115200  0.25000000  1
  Sn  Sn29  1  0.81433500  0.74115200  0.25000000  1
  Sn  Sn30  1  0.31433500  0.75884800  0.75000000  1
  Sn  Sn31  1  0.18566500  0.25884800  0.75000000  1
  Sn  Sn32  1  0.30415200  0.45095300  0.44730800  1
  Sn  Sn33  1  0.19584800  0.95095300  0.05269200  1
  Sn  Sn34  1  0.69584800  0.54904700  0.94730800  1
  Sn  Sn35  1  0.80415200  0.04904700  0.55269200  1
  Sn  Sn36  1  0.69584800  0.54904700  0.55269200  1
  Sn  Sn37  1  0.80415200  0.04904700  0.94730800  1
  Sn  Sn38  1  0.30415200  0.45095300  0.05269200  1
  Sn  Sn39  1  0.19584800  0.95095300  0.44730800  1
  S  S40  1  0.85673800  0.53464300  0.25000000  1
  S  S41  1  0.64326200  0.03464300  0.25000000  1
  S  S42  1  0.14326200  0.46535700  0.75000000  1
  S  S43  1  0.35673800  0.96535700  0.75000000  1
  S  S44  1  0.63656300  0.34817400  0.57355500  1
  S  S45  1  0.86343700  0.84817400  0.92644500  1
  S  S46  1  0.36343700  0.65182600  0.07355500  1
  S  S47  1  0.13656300  0.15182600  0.42644500  1
  S  S48  1  0.36343700  0.65182600  0.42644500  1
  S  S49  1  0.13656300  0.15182600  0.07355500  1
  S  S50  1  0.63656300  0.34817400  0.92644500  1
  S  S51  1  0.86343700  0.84817400  0.57355500  1
  S  S52  1  0.51550100  0.32840600  0.42098100  1
  S  S53  1  0.98449900  0.82840600  0.07901900  1
  S  S54  1  0.48449900  0.67159400  0.92098100  1
  S  S55  1  0.01550100  0.17159400  0.57901900  1
  S  S56  1  0.48449900  0.67159400  0.57901900  1
  S  S57  1  0.01550100  0.17159400  0.92098100  1
  S  S58  1  0.51550100  0.32840600  0.07901900  1
  S  S59  1  0.98449900  0.82840600  0.42098100  1
  S  S60  1  0.45888800  0.35679400  0.25000000  1
  S  S61  1  0.04111200  0.85679400  0.25000000  1
  S  S62  1  0.54111200  0.64320600  0.75000000  1
  S  S63  1  0.95888800  0.14320600  0.75000000  1
  S  S64  1  0.84674100  0.27128900  0.33444300  1
  S  S65  1  0.65325900  0.77128900  0.16555700  1
  S  S66  1  0.15325900  0.72871100  0.83444300  1
  S  S67  1  0.34674100  0.22871100  0.66555700  1
  S  S68  1  0.15325900  0.72871100  0.66555700  1
  S  S69  1  0.34674100  0.22871100  0.83444300  1
  S  S70  1  0.84674100  0.27128900  0.16555700  1
  S  S71  1  0.65325900  0.77128900  0.33444300  1
  S  S72  1  0.10273100  0.42217800  0.37551200  1
  S  S73  1  0.39726900  0.92217800  0.12448800  1
  S  S74  1  0.89726900  0.57782200  0.87551200  1
  S  S75  1  0.60273100  0.07782200  0.62448800  1
  S  S76  1  0.89726900  0.57782200  0.62448800  1
  S  S77  1  0.60273100  0.07782200  0.87551200  1
  S  S78  1  0.10273100  0.42217800  0.12448800  1
  S  S79  1  0.39726900  0.92217800  0.37551200  1
  S  S80  1  0.19069800  0.42794000  0.54480300  1
  S  S81  1  0.30930200  0.92794000  0.95519700  1
  S  S82  1  0.80930200  0.57206000  0.04480300  1
  S  S83  1  0.69069800  0.07206000  0.45519700  1
  S  S84  1  0.80930200  0.57206000  0.45519700  1
  S  S85  1  0.69069800  0.07206000  0.04480300  1
  S  S86  1  0.19069800  0.42794000  0.95519700  1
  S  S87  1  0.30930200  0.92794000  0.54480300  1
  S  S88  1  0.32671000  0.61618600  0.25000000  1
  S  S89  1  0.17329000  0.11618600  0.25000000  1
  S  S90  1  0.67329000  0.38381400  0.75000000  1
  S  S91  1  0.82671000  0.88381400  0.75000000  1
