# generated using pymatgen
data_Ca2SnS4
_symmetry_space_group_name_H-M   'P 1'
_cell_length_a   6.88313700
_cell_length_b   7.34067700
_cell_length_c   13.55192400
_cell_angle_alpha   90.00000000
_cell_angle_beta   90.00000000
_cell_angle_gamma   90.00000000
_symmetry_Int_Tables_number   1
_chemical_formula_structural   Ca2SnS4
_chemical_formula_sum   'Ca8 Sn4 S16'
_cell_volume   684.73651176
_cell_formula_units_Z   4
loop_
 _symmetry_equiv_pos_site_id
 _symmetry_equiv_pos_as_xyz
  1  'x, y, z'
loop_
 _atom_site_type_symbol
 _atom_site_label
 _atom_site_symmetry_multiplicity
 _atom_site_fract_x
 _atom_site_fract_y
 _atom_site_fract_z
 _atom_site_occupancy
  Ca  Ca0  1  0.98892200  0.90261800  0.85514900  1
  Ca  Ca1  1  0.48892200  0.59738200  0.14485100  1
  Ca  Ca2  1  0.01107800  0.40261800  0.64485100  1
  Ca  Ca3  1  0.51107800  0.09738200  0.35514900  1
  Ca  Ca4  1  0.01107800  0.09738200  0.14485100  1
  Ca  Ca5  1  0.51107800  0.40261800  0.85514900  1
  Ca  Ca6  1  0.98892200  0.59738200  0.35514900  1
  Ca  Ca7  1  0.48892200  0.90261800  0.64485100  1
  Sn  Sn8  1  0.00000000  0.00000000  0.50000000  1
  Sn  Sn9  1  0.50000000  0.50000000  0.50000000  1
  Sn  Sn10  1  0.00000000  0.50000000  0.00000000  1
  Sn  Sn11  1  0.50000000  0.00000000  0.00000000  1
  S  S12  1  0.81042200  0.69581900  0.55238300  1
  S  S13  1  0.31042200  0.80418100  0.44761700  1
  S  S14  1  0.18957800  0.19581900  0.94761700  1
  S  S15  1  0.68957800  0.30418100  0.05238300  1
  S  S16  1  0.18957800  0.30418100  0.44761700  1
  S  S17  1  0.68957800  0.19581900  0.55238300  1
  S  S18  1  0.81042200  0.80418100  0.05238300  1
  S  S19  1  0.31042200  0.69581900  0.94761700  1
  S  S20  1  0.11755900  0.03968400  0.67357400  1
  S  S21  1  0.61755900  0.46031600  0.32642600  1
  S  S22  1  0.88244100  0.53968400  0.82642600  1
  S  S23  1  0.38244100  0.96031600  0.17357400  1
  S  S24  1  0.88244100  0.96031600  0.32642600  1
  S  S25  1  0.38244100  0.53968400  0.67357400  1
  S  S26  1  0.11755900  0.46031600  0.17357400  1
  S  S27  1  0.61755900  0.03968400  0.82642600  1
