# generated using pymatgen
data_CeMo12(NO27)2
_symmetry_space_group_name_H-M   'P 1'
_cell_length_a   10.53845589
_cell_length_b   10.53845589
_cell_length_c   10.53845620
_cell_angle_alpha   76.50064978
_cell_angle_beta   76.50064978
_cell_angle_gamma   76.50064696
_symmetry_Int_Tables_number   1
_chemical_formula_structural   CeMo12(NO27)2
_chemical_formula_sum   'Ce1 Mo12 N2 O54'
_cell_volume   1086.61559491
_cell_formula_units_Z   1
loop_
 _symmetry_equiv_pos_site_id
 _symmetry_equiv_pos_as_xyz
  1  'x, y, z'
loop_
 _atom_site_type_symbol
 _atom_site_label
 _atom_site_symmetry_multiplicity
 _atom_site_fract_x
 _atom_site_fract_y
 _atom_site_fract_z
 _atom_site_occupancy
  Ce  Ce0  1  0.00000000  0.00000000  0.00000000  1
  Mo  Mo1  1  0.06988100  0.14879700  0.65553900  1
  Mo  Mo2  1  0.65553900  0.06988100  0.14879700  1
  Mo  Mo3  1  0.14879700  0.65553900  0.06988100  1
  Mo  Mo4  1  0.93011900  0.85120300  0.34446100  1
  Mo  Mo5  1  0.34446100  0.93011900  0.85120300  1
  Mo  Mo6  1  0.85120300  0.34446100  0.93011900  1
  Mo  Mo7  1  0.06371100  0.83252400  0.71948400  1
  Mo  Mo8  1  0.71948400  0.06371100  0.83252400  1
  Mo  Mo9  1  0.83252400  0.71948400  0.06371100  1
  Mo  Mo10  1  0.93628900  0.16747600  0.28051600  1
  Mo  Mo11  1  0.28051600  0.93628900  0.16747600  1
  Mo  Mo12  1  0.16747600  0.28051600  0.93628900  1
  N  N13  1  0.63817500  0.63817500  0.63817500  1
  N  N14  1  0.36182500  0.36182500  0.36182500  1
  O  O15  1  0.20992800  0.21487100  0.57386200  1
  O  O16  1  0.57386200  0.20992800  0.21487100  1
  O  O17  1  0.21487100  0.57386200  0.20992800  1
  O  O18  1  0.79007200  0.78512900  0.42613800  1
  O  O19  1  0.42613800  0.79007200  0.78512900  1
  O  O20  1  0.78512900  0.42613800  0.79007200  1
  O  O21  1  0.17271100  0.96966300  0.79213200  1
  O  O22  1  0.79213200  0.17271100  0.96966300  1
  O  O23  1  0.96966300  0.79213200  0.17271100  1
  O  O24  1  0.82728900  0.03033700  0.20786800  1
  O  O25  1  0.20786800  0.82728900  0.03033700  1
  O  O26  1  0.03033700  0.20786800  0.82728900  1
  O  O27  1  0.93900700  0.25509100  0.58182900  1
  O  O28  1  0.58182900  0.93900700  0.25509100  1
  O  O29  1  0.25509100  0.58182900  0.93900700  1
  O  O30  1  0.06099300  0.74490900  0.41817100  1
  O  O31  1  0.41817100  0.06099300  0.74490900  1
  O  O32  1  0.74490900  0.41817100  0.06099300  1
  O  O33  1  0.91336400  0.02456200  0.78751300  1
  O  O34  1  0.78751300  0.91336400  0.02456200  1
  O  O35  1  0.02456200  0.78751300  0.91336400  1
  O  O36  1  0.08663600  0.97543800  0.21248700  1
  O  O37  1  0.21248700  0.08663600  0.97543800  1
  O  O38  1  0.97543800  0.21248700  0.08663600  1
  O  O39  1  0.09244100  0.99127600  0.57999600  1
  O  O40  1  0.57999600  0.09244100  0.99127600  1
  O  O41  1  0.99127600  0.57999600  0.09244100  1
  O  O42  1  0.90755900  0.00872400  0.42000400  1
  O  O43  1  0.42000400  0.90755900  0.00872400  1
  O  O44  1  0.00872400  0.42000400  0.90755900  1
  O  O45  1  0.20604400  0.72030200  0.67048600  1
  O  O46  1  0.67048600  0.20604400  0.72030200  1
  O  O47  1  0.72030200  0.67048600  0.20604400  1
  O  O48  1  0.79395600  0.27969800  0.32951400  1
  O  O49  1  0.32951400  0.79395600  0.27969800  1
  O  O50  1  0.27969800  0.32951400  0.79395600  1
  O  O51  1  0.93963300  0.77705400  0.67653200  1
  O  O52  1  0.67653200  0.93963300  0.77705400  1
  O  O53  1  0.77705400  0.67653200  0.93963300  1
  O  O54  1  0.06036700  0.22294600  0.32346800  1
  O  O55  1  0.32346800  0.06036700  0.22294600  1
  O  O56  1  0.22294600  0.32346800  0.06036700  1
  O  O57  1  0.48618800  0.88773700  0.46369900  1
  O  O58  1  0.46369900  0.48618800  0.88773700  1
  O  O59  1  0.88773700  0.46369900  0.48618800  1
  O  O60  1  0.51381200  0.11226300  0.53630100  1
  O  O61  1  0.53630100  0.51381200  0.11226300  1
  O  O62  1  0.11226300  0.53630100  0.51381200  1
  O  O63  1  0.49037600  0.49932600  0.76936800  1
  O  O64  1  0.76936800  0.49037600  0.49932600  1
  O  O65  1  0.49932600  0.76936800  0.49037600  1
  O  O66  1  0.50962400  0.50067400  0.23063200  1
  O  O67  1  0.23063200  0.50962400  0.50067400  1
  O  O68  1  0.50067400  0.23063200  0.50962400  1
