# generated using pymatgen
data_Ba2Tb2Mn4O11
_symmetry_space_group_name_H-M   'P 1'
_cell_length_a   9.61076898
_cell_length_b   9.61076898
_cell_length_c   9.61076898
_cell_angle_alpha   132.93880975
_cell_angle_beta   129.09120765
_cell_angle_gamma   71.83385050
_symmetry_Int_Tables_number   1
_chemical_formula_structural   Ba2Tb2Mn4O11
_chemical_formula_sum   'Ba4 Tb4 Mn8 O22'
_cell_volume   493.44685920
_cell_formula_units_Z   2
loop_
 _symmetry_equiv_pos_site_id
 _symmetry_equiv_pos_as_xyz
  1  'x, y, z'
loop_
 _atom_site_type_symbol
 _atom_site_label
 _atom_site_symmetry_multiplicity
 _atom_site_fract_x
 _atom_site_fract_y
 _atom_site_fract_z
 _atom_site_occupancy
  Ba  Ba0  1  0.49928900  0.75107500  0.74821400  1
  Ba  Ba1  1  0.50071100  0.24892500  0.25178600  1
  Ba  Ba2  1  0.00286100  0.25107500  0.75178600  1
  Ba  Ba3  1  0.99713900  0.74892500  0.24821400  1
  Tb  Tb4  1  0.27974700  0.50354900  0.77619800  1
  Tb  Tb5  1  0.72025300  0.49645100  0.22380200  1
  Tb  Tb6  1  0.72735000  0.00354900  0.72380200  1
  Tb  Tb7  1  0.27265000  0.99645100  0.27619800  1
  Mn  Mn8  1  0.11424200  0.36424200  0.25000000  1
  Mn  Mn9  1  0.88575800  0.13575800  0.25000000  1
  Mn  Mn10  1  0.88575800  0.63575800  0.75000000  1
  Mn  Mn11  1  0.11424200  0.86424200  0.75000000  1
  Mn  Mn12  1  0.37565200  0.62565200  0.25000000  1
  Mn  Mn13  1  0.62434800  0.87434800  0.25000000  1
  Mn  Mn14  1  0.62434800  0.37434800  0.75000000  1
  Mn  Mn15  1  0.37565200  0.12565200  0.75000000  1
  O  O16  1  0.33149600  0.31559000  0.44803500  1
  O  O17  1  0.66850400  0.11654000  0.98409400  1
  O  O18  1  0.86755400  0.38346000  0.05196500  1
  O  O19  1  0.13244600  0.18441000  0.51590600  1
  O  O20  1  0.66850400  0.68441000  0.55196500  1
  O  O21  1  0.33149600  0.88346000  0.01590600  1
  O  O22  1  0.13244600  0.61654000  0.94803500  1
  O  O23  1  0.86755400  0.81559000  0.48409400  1
  O  O24  1  0.25135400  0.50135400  0.25000000  1
  O  O25  1  0.74864600  0.99864600  0.25000000  1
  O  O26  1  0.74864600  0.49864600  0.75000000  1
  O  O27  1  0.25135400  0.00135400  0.75000000  1
  O  O28  1  0.13537400  0.59121700  0.54415700  1
  O  O29  1  0.86462600  0.40878300  0.45584300  1
  O  O30  1  0.04706000  0.09121700  0.95584300  1
  O  O31  1  0.95294000  0.90878300  0.04415700  1
  O  O32  1  0.35594700  0.88549700  0.47045000  1
  O  O33  1  0.64405300  0.11450300  0.52955000  1
  O  O34  1  0.41504800  0.38549700  0.02955000  1
  O  O35  1  0.58495200  0.61450300  0.97045000  1
  O  O36  1  0.50000000  0.75000000  0.25000000  1
  O  O37  1  0.50000000  0.25000000  0.75000000  1
