# generated using pymatgen
data_V2Sn4H24C8O9
_symmetry_space_group_name_H-M   'P 1'
_cell_length_a   12.84900400
_cell_length_b   13.56576500
_cell_length_c   13.71636100
_cell_angle_alpha   90.00000000
_cell_angle_beta   90.00000000
_cell_angle_gamma   90.00000000
_symmetry_Int_Tables_number   1
_chemical_formula_structural   V2Sn4H24C8O9
_chemical_formula_sum   'V8 Sn16 H96 C32 O36'
_cell_volume   2390.85182162
_cell_formula_units_Z   4
loop_
 _symmetry_equiv_pos_site_id
 _symmetry_equiv_pos_as_xyz
  1  'x, y, z'
loop_
 _atom_site_type_symbol
 _atom_site_label
 _atom_site_symmetry_multiplicity
 _atom_site_fract_x
 _atom_site_fract_y
 _atom_site_fract_z
 _atom_site_occupancy
  V  V0  1  0.47645400  0.74833200  0.36987100  1
  V  V1  1  0.52354600  0.74833200  0.63012900  1
  V  V2  1  0.97645400  0.75166800  0.13012900  1
  V  V3  1  0.02354600  0.75166800  0.86987100  1
  V  V4  1  0.52354600  0.25166800  0.63012900  1
  V  V5  1  0.47645400  0.25166800  0.36987100  1
  V  V6  1  0.02354600  0.24833200  0.86987100  1
  V  V7  1  0.97645400  0.24833200  0.13012900  1
  Sn  Sn8  1  0.13008400  0.50000000  0.21486900  1
  Sn  Sn9  1  0.86991600  0.50000000  0.78513100  1
  Sn  Sn10  1  0.63008400  0.00000000  0.28513100  1
  Sn  Sn11  1  0.36991600  0.00000000  0.71486900  1
  Sn  Sn12  1  0.37781400  0.50000000  0.30183300  1
  Sn  Sn13  1  0.62218600  0.50000000  0.69816700  1
  Sn  Sn14  1  0.87781400  0.00000000  0.19816700  1
  Sn  Sn15  1  0.12218600  0.00000000  0.80183300  1
  Sn  Sn16  1  0.20784200  0.74386000  0.26932600  1
  Sn  Sn17  1  0.79215800  0.74386000  0.73067400  1
  Sn  Sn18  1  0.70784200  0.75614000  0.23067400  1
  Sn  Sn19  1  0.29215800  0.75614000  0.76932600  1
  Sn  Sn20  1  0.79215800  0.25614000  0.73067400  1
  Sn  Sn21  1  0.20784200  0.25614000  0.26932600  1
  Sn  Sn22  1  0.29215800  0.24386000  0.76932600  1
  Sn  Sn23  1  0.70784200  0.24386000  0.23067400  1
  H  H24  1  0.22963900  0.50000000  0.04246000  1
  H  H25  1  0.77036100  0.50000000  0.95754000  1
  H  H26  1  0.72963900  0.00000000  0.45754000  1
  H  H27  1  0.27036100  0.00000000  0.54246000  1
  H  H28  1  0.11035000  0.56665700  0.02958600  1
  H  H29  1  0.88965000  0.56665700  0.97041400  1
  H  H30  1  0.61035000  0.93334300  0.47041400  1
  H  H31  1  0.38965000  0.93334300  0.52958600  1
  H  H32  1  0.88965000  0.43334300  0.97041400  1
  H  H33  1  0.11035000  0.43334300  0.02958600  1
  H  H34  1  0.38965000  0.06665700  0.52958600  1
  H  H35  1  0.61035000  0.06665700  0.47041400  1
  H  H36  1  0.05069500  0.50000000  0.39686600  1
  H  H37  1  0.94930500  0.50000000  0.60313400  1
  H  H38  1  0.55069500  0.00000000  0.10313400  1
  H  H39  1  0.44930500  0.00000000  0.89686600  1
  H  H40  1  0.96467200  0.43352100  0.31746300  1
  H  H41  1  0.03532800  0.43352100  0.68253700  1
  H  H42  1  0.46467200  0.06647900  0.18253700  1
  H  H43  1  0.53532800  0.06647900  0.81746300  1
  H  H44  1  0.03532800  0.56647900  0.68253700  1
  H  H45  1  0.96467200  0.56647900  0.31746300  1
  H  H46  1  0.53532800  0.93352100  0.81746300  1
  H  H47  1  0.46467200  0.93352100  0.18253700  1
  H  H48  1  0.37647900  0.50000000  0.10408300  1
  H  H49  1  0.62352100  0.50000000  0.89591700  1
  H  H50  1  0.87647900  0.00000000  0.39591700  1
  H  H51  1  0.12352100  0.00000000  0.60408300  1
  H  H52  1  0.48820600  0.43421300  0.14740500  1
  H  H53  1  0.51179400  0.43421300  0.85259500  1
  H  H54  1  0.98820600  0.06578700  0.35259500  1
  H  H55  1  0.01179400  0.06578700  0.64740500  1
  H  H56  1  0.51179400  0.56578700  0.85259500  1
  H  H57  1  0.48820600  0.56578700  0.14740500  1
  H  H58  1  0.01179400  0.93421300  0.64740500  1
  H  H59  1  0.98820600  0.93421300  0.35259500  1
  H  H60  1  0.26377300  0.50000000  0.46741800  1
  H  H61  1  0.73622700  0.50000000  0.53258200  1
  H  H62  1  0.76377300  0.00000000  0.03258200  1
  H  H63  1  0.23622700  0.00000000  0.96741800  1
  H  H64  1  0.38329400  0.56585900  0.48744300  1
  H  H65  1  0.61670600  0.56585900  0.51255700  1
  H  H66  1  0.88329400  0.93414100  0.01255700  1
  H  H67  1  0.11670600  0.93414100  0.98744300  1
  H  H68  1  0.61670600  0.43414100  0.51255700  1
  H  H69  1  0.38329400  0.43414100  0.48744300  1
  H  H70  1  0.11670600  0.06585900  0.98744300  1
  H  H71  1  0.88329400  0.06585900  0.01255700  1
  H  H72  1  0.30433100  0.77162900  0.09710300  1
  H  H73  1  0.69566900  0.77162900  0.90289700  1
  H  H74  1  0.80433100  0.72837100  0.40289700  1
  H  H75  1  0.19566900  0.72837100  0.59710300  1
  H  H76  1  0.69566900  0.22837100  0.90289700  1
  H  H77  1  0.30433100  0.22837100  0.09710300  1
  H  H78  1  0.19566900  0.27162900  0.59710300  1
  H  H79  1  0.80433100  0.27162900  0.40289700  1
  H  H80  1  0.30667100  0.88504300  0.16432400  1
  H  H81  1  0.69332900  0.88504300  0.83567600  1
  H  H82  1  0.80667100  0.61495700  0.33567600  1
  H  H83  1  0.19332900  0.61495700  0.66432400  1
  H  H84  1  0.69332900  0.11495700  0.83567600  1
  H  H85  1  0.30667100  0.11495700  0.16432400  1
  H  H86  1  0.19332900  0.38504300  0.66432400  1
  H  H87  1  0.80667100  0.38504300  0.33567600  1
  H  H88  1  0.19104100  0.84862400  0.10110700  1
  H  H89  1  0.80895900  0.84862400  0.89889300  1
  H  H90  1  0.69104100  0.65137600  0.39889300  1
  H  H91  1  0.30895900  0.65137600  0.60110700  1
  H  H92  1  0.80895900  0.15137600  0.89889300  1
  H  H93  1  0.19104100  0.15137600  0.10110700  1
  H  H94  1  0.30895900  0.34862400  0.60110700  1
  H  H95  1  0.69104100  0.34862400  0.39889300  1
  H  H96  1  0.11069300  0.71383100  0.44173600  1
  H  H97  1  0.88930700  0.71383100  0.55826400  1
  H  H98  1  0.61069300  0.78616900  0.05826400  1
  H  H99  1  0.38930700  0.78616900  0.94173600  1
  H  H100  1  0.88930700  0.28616900  0.55826400  1
  H  H101  1  0.11069300  0.28616900  0.44173600  1
  H  H102  1  0.38930700  0.21383100  0.94173600  1
  H  H103  1  0.61069300  0.21383100  0.05826400  1
  H  H104  1  0.03797300  0.80204100  0.37317100  1
  H  H105  1  0.96202700  0.80204100  0.62682900  1
  H  H106  1  0.53797300  0.69795900  0.12682900  1
  H  H107  1  0.46202700  0.69795900  0.87317100  1
  H  H108  1  0.96202700  0.19795900  0.62682900  1
  H  H109  1  0.03797300  0.19795900  0.37317100  1
  H  H110  1  0.46202700  0.30204100  0.87317100  1
  H  H111  1  0.53797300  0.30204100  0.12682900  1
  H  H112  1  0.15425100  0.83937900  0.43596400  1
  H  H113  1  0.84574900  0.83937900  0.56403600  1
  H  H114  1  0.65425100  0.66062100  0.06403600  1
  H  H115  1  0.34574900  0.66062100  0.93596400  1
  H  H116  1  0.84574900  0.16062100  0.56403600  1
  H  H117  1  0.15425100  0.16062100  0.43596400  1
  H  H118  1  0.34574900  0.33937900  0.93596400  1
  H  H119  1  0.65425100  0.33937900  0.06403600  1
  C  C120  1  0.14630100  0.50000000  0.05929300  1
  C  C121  1  0.85369900  0.50000000  0.94070700  1
  C  C122  1  0.64630100  0.00000000  0.44070700  1
  C  C123  1  0.35369900  0.00000000  0.55929300  1
  C  C124  1  0.01205600  0.50000000  0.32563300  1
  C  C125  1  0.98794400  0.50000000  0.67436700  1
  C  C126  1  0.51205600  0.00000000  0.17436700  1
  C  C127  1  0.48794400  0.00000000  0.82563300  1
  C  C128  1  0.44030700  0.50000000  0.15673200  1
  C  C129  1  0.55969300  0.50000000  0.84326800  1
  C  C130  1  0.94030700  0.00000000  0.34326800  1
  C  C131  1  0.05969300  0.00000000  0.65673200  1
  C  C132  1  0.34802200  0.50000000  0.45548400  1
  C  C133  1  0.65197800  0.50000000  0.54451600  1
  C  C134  1  0.84802200  0.00000000  0.04451600  1
  C  C135  1  0.15197800  0.00000000  0.95548400  1
  C  C136  1  0.25845900  0.82242100  0.14203500  1
  C  C137  1  0.74154100  0.82242100  0.85796500  1
  C  C138  1  0.75845900  0.67757900  0.35796500  1
  C  C139  1  0.24154100  0.67757900  0.64203500  1
  C  C140  1  0.74154100  0.17757900  0.85796500  1
  C  C141  1  0.25845900  0.17757900  0.14203500  1
  C  C142  1  0.24154100  0.32242100  0.64203500  1
  C  C143  1  0.75845900  0.32242100  0.35796500  1
  C  C144  1  0.11609200  0.77971500  0.39570700  1
  C  C145  1  0.88390800  0.77971500  0.60429300  1
  C  C146  1  0.61609200  0.72028500  0.10429300  1
  C  C147  1  0.38390800  0.72028500  0.89570700  1
  C  C148  1  0.88390800  0.22028500  0.60429300  1
  C  C149  1  0.11609200  0.22028500  0.39570700  1
  C  C150  1  0.38390800  0.27971500  0.89570700  1
  C  C151  1  0.61609200  0.27971500  0.10429300  1
  O  O152  1  0.24690900  0.59789000  0.26530300  1
  O  O153  1  0.75309100  0.59789000  0.73469700  1
  O  O154  1  0.74690900  0.90211000  0.23469700  1
  O  O155  1  0.25309100  0.90211000  0.76530300  1
  O  O156  1  0.75309100  0.40211000  0.73469700  1
  O  O157  1  0.24690900  0.40211000  0.26530300  1
  O  O158  1  0.25309100  0.09789000  0.76530300  1
  O  O159  1  0.74690900  0.09789000  0.23469700  1
  O  O160  1  0.35100400  0.78417500  0.34538600  1
  O  O161  1  0.64899600  0.78417500  0.65461400  1
  O  O162  1  0.85100400  0.71582500  0.15461400  1
  O  O163  1  0.14899600  0.71582500  0.84538600  1
  O  O164  1  0.64899600  0.21582500  0.65461400  1
  O  O165  1  0.35100400  0.21582500  0.34538600  1
  O  O166  1  0.14899600  0.28417500  0.84538600  1
  O  O167  1  0.85100400  0.28417500  0.15461400  1
  O  O168  1  0.49250200  0.63082500  0.33096500  1
  O  O169  1  0.50749800  0.63082500  0.66903500  1
  O  O170  1  0.99250200  0.86917500  0.16903500  1
  O  O171  1  0.00749800  0.86917500  0.83096500  1
  O  O172  1  0.50749800  0.36917500  0.66903500  1
  O  O173  1  0.49250200  0.36917500  0.33096500  1
  O  O174  1  0.00749800  0.13082500  0.83096500  1
  O  O175  1  0.99250200  0.13082500  0.16903500  1
  O  O176  1  0.56782700  0.82171100  0.30807000  1
  O  O177  1  0.43217300  0.82171100  0.69193000  1
  O  O178  1  0.06782700  0.67828900  0.19193000  1
  O  O179  1  0.93217300  0.67828900  0.80807000  1
  O  O180  1  0.43217300  0.17828900  0.69193000  1
  O  O181  1  0.56782700  0.17828900  0.30807000  1
  O  O182  1  0.93217300  0.32171100  0.80807000  1
  O  O183  1  0.06782700  0.32171100  0.19193000  1
  O  O184  1  0.50000000  0.75658400  0.50000000  1
  O  O185  1  0.00000000  0.74341600  0.00000000  1
  O  O186  1  0.50000000  0.24341600  0.50000000  1
  O  O187  1  0.00000000  0.25658400  0.00000000  1
