# generated using pymatgen
data_Mn7F16
_symmetry_space_group_name_H-M   'P 1'
_cell_length_a   9.64515934
_cell_length_b   9.64515934
_cell_length_c   9.64515893
_cell_angle_alpha   39.78725169
_cell_angle_beta   39.78725169
_cell_angle_gamma   39.78725136
_symmetry_Int_Tables_number   1
_chemical_formula_structural   Mn7F16
_chemical_formula_sum   'Mn7 F16'
_cell_volume   330.95251316
_cell_formula_units_Z   1
loop_
 _symmetry_equiv_pos_site_id
 _symmetry_equiv_pos_as_xyz
  1  'x, y, z'
loop_
 _atom_site_type_symbol
 _atom_site_label
 _atom_site_symmetry_multiplicity
 _atom_site_fract_x
 _atom_site_fract_y
 _atom_site_fract_z
 _atom_site_occupancy
  Mn  Mn0  1  0.88806200  0.25313200  0.51947600  1
  Mn  Mn1  1  0.48052400  0.11193800  0.74686800  1
  Mn  Mn2  1  0.74686800  0.48052400  0.11193800  1
  Mn  Mn3  1  0.25313200  0.51947600  0.88806200  1
  Mn  Mn4  1  0.51947600  0.88806200  0.25313200  1
  Mn  Mn5  1  0.11193800  0.74686800  0.48052400  1
  Mn  Mn6  1  0.00000000  0.00000000  0.00000000  1
  F  F7  1  0.76371200  0.76371200  0.76371200  1
  F  F8  1  0.98254200  0.17683500  0.71986100  1
  F  F9  1  0.85193200  0.15784900  0.40323700  1
  F  F10  1  0.59676300  0.14806800  0.84215100  1
  F  F11  1  0.82316500  0.28013900  0.01745800  1
  F  F12  1  0.28013900  0.01745800  0.82316500  1
  F  F13  1  0.84215100  0.59676300  0.14806800  1
  F  F14  1  0.42466700  0.42466700  0.42466700  1
  F  F15  1  0.57533300  0.57533300  0.57533300  1
  F  F16  1  0.15784900  0.40323700  0.85193200  1
  F  F17  1  0.71986100  0.98254200  0.17683500  1
  F  F18  1  0.17683500  0.71986100  0.98254200  1
  F  F19  1  0.40323700  0.85193200  0.15784900  1
  F  F20  1  0.14806800  0.84215100  0.59676300  1
  F  F21  1  0.01745800  0.82316500  0.28013900  1
  F  F22  1  0.23628800  0.23628800  0.23628800  1
