# generated using pymatgen
data_V3CoO8
_symmetry_space_group_name_H-M   'P 1'
_cell_length_a   9.80227457
_cell_length_b   9.80227457
_cell_length_c   9.80227457
_cell_angle_alpha   128.25773326
_cell_angle_beta   118.87489822
_cell_angle_gamma   84.13996264
_symmetry_Int_Tables_number   1
_chemical_formula_structural   V3CoO8
_chemical_formula_sum   'V12 Co4 O32'
_cell_volume   620.50047878
_cell_formula_units_Z   4
loop_
 _symmetry_equiv_pos_site_id
 _symmetry_equiv_pos_as_xyz
  1  'x, y, z'
loop_
 _atom_site_type_symbol
 _atom_site_label
 _atom_site_symmetry_multiplicity
 _atom_site_fract_x
 _atom_site_fract_y
 _atom_site_fract_z
 _atom_site_occupancy
  V  V0  1  0.75764800  0.19945800  0.55466800  1
  V  V1  1  0.64479000  0.69945800  0.94181000  1
  V  V2  1  0.99107700  0.34293800  0.02916700  1
  V  V3  1  0.31377100  0.84293800  0.85186100  1
  V  V4  1  0.69069100  0.52044400  0.16721100  1
  V  V5  1  0.35323300  0.02044400  0.32975300  1
  V  V6  1  0.64676700  0.97651900  0.66721100  1
  V  V7  1  0.30930900  0.47651900  0.82975300  1
  V  V8  1  0.68622900  0.53809000  0.52916700  1
  V  V9  1  0.00892300  0.03809000  0.35186100  1
  V  V10  1  0.35521000  0.29702000  0.05466800  1
  V  V11  1  0.24235200  0.79702000  0.44181000  1
  Co  Co12  1  0.98614300  0.96541900  0.63697200  1
  Co  Co13  1  0.32844700  0.46541900  0.47927600  1
  Co  Co14  1  0.67155300  0.15082900  0.13697200  1
  Co  Co15  1  0.01385700  0.65082900  0.97927600  1
  O  O16  1  0.87673800  0.63131600  0.73463800  1
  O  O17  1  0.89667900  0.13131600  0.25457800  1
  O  O18  1  0.85386900  0.77379100  0.09340900  1
  O  O19  1  0.68038100  0.27379100  0.41992200  1
  O  O20  1  0.88140800  0.06746900  0.48099100  1
  O  O21  1  0.57605500  0.88876100  0.00947600  1
  O  O22  1  0.87928500  0.38876100  0.81270600  1
  O  O23  1  0.58647800  0.56746900  0.68606100  1
  O  O24  1  0.85795400  0.08856300  0.78224900  1
  O  O25  1  0.30631400  0.58856300  0.73060800  1
  O  O26  1  0.59608400  0.07299100  0.51055500  1
  O  O27  1  0.56243600  0.57299100  0.97690700  1
  O  O28  1  0.80810500  0.41802500  0.06862100  1
  O  O29  1  0.79966600  0.73476100  0.37794700  1
  O  O30  1  0.34940400  0.91802500  0.10992000  1
  O  O31  1  0.35681400  0.23476100  0.43509500  1
  O  O32  1  0.65059600  0.76051600  0.56862100  1
  O  O33  1  0.19189500  0.26051600  0.60992000  1
  O  O34  1  0.20033400  0.57828100  0.93509500  1
  O  O35  1  0.64318600  0.07828100  0.87794700  1
  O  O36  1  0.43756400  0.41447000  0.01055500  1
  O  O37  1  0.40391600  0.91447000  0.47690700  1
  O  O38  1  0.69368600  0.42429500  0.28224900  1
  O  O39  1  0.14204600  0.92429500  0.23060800  1
  O  O40  1  0.42394500  0.43342200  0.31270600  1
  O  O41  1  0.12071500  0.93342200  0.50947600  1
  O  O42  1  0.11859200  0.59958300  0.18606100  1
  O  O43  1  0.41352200  0.09958300  0.98099100  1
  O  O44  1  0.14613100  0.23954000  0.91992200  1
  O  O45  1  0.31961900  0.73954000  0.59340900  1
  O  O46  1  0.12326200  0.85790000  0.75457800  1
  O  O47  1  0.10332100  0.35790000  0.23463800  1
