# generated using pymatgen
data_TcF3
_symmetry_space_group_name_H-M   'P 1'
_cell_length_a   6.71684421
_cell_length_b   6.71684421
_cell_length_c   3.07034900
_cell_angle_alpha   90.00000000
_cell_angle_beta   90.00000000
_cell_angle_gamma   120.22795296
_symmetry_Int_Tables_number   1
_chemical_formula_structural   TcF3
_chemical_formula_sum   'Tc2 F6'
_cell_volume   119.68693901
_cell_formula_units_Z   2
loop_
 _symmetry_equiv_pos_site_id
 _symmetry_equiv_pos_as_xyz
  1  'x, y, z'
loop_
 _atom_site_type_symbol
 _atom_site_label
 _atom_site_symmetry_multiplicity
 _atom_site_fract_x
 _atom_site_fract_y
 _atom_site_fract_z
 _atom_site_occupancy
  Tc  Tc0  1  0.33355500  0.66644500  0.50000000  1
  Tc  Tc1  1  0.64839600  0.35160400  0.00000000  1
  F  F2  1  0.21589100  0.78410900  0.00000000  1
  F  F3  1  0.21328300  0.42273800  0.00000000  1
  F  F4  1  0.57726200  0.78671700  0.00000000  1
  F  F5  1  0.78901200  0.21098800  0.50000000  1
  F  F6  1  0.80934900  0.58848600  0.50000000  1
  F  F7  1  0.41151400  0.19065100  0.50000000  1
