# generated using pymatgen
data_V16FeO41
_symmetry_space_group_name_H-M   'P 1'
_cell_length_a   11.71014600
_cell_length_b   14.63760600
_cell_length_c   4.55702100
_cell_angle_alpha   90.00000000
_cell_angle_beta   90.00000000
_cell_angle_gamma   90.00000000
_symmetry_Int_Tables_number   1
_chemical_formula_structural   V16FeO41
_chemical_formula_sum   'V16 Fe1 O41'
_cell_volume   781.11214935
_cell_formula_units_Z   1
loop_
 _symmetry_equiv_pos_site_id
 _symmetry_equiv_pos_as_xyz
  1  'x, y, z'
loop_
 _atom_site_type_symbol
 _atom_site_label
 _atom_site_symmetry_multiplicity
 _atom_site_fract_x
 _atom_site_fract_y
 _atom_site_fract_z
 _atom_site_occupancy
  V  V0  1  0.10242700  0.31250000  0.89977000  1
  V  V1  1  0.10252700  0.06471900  0.89955500  1
  V  V2  1  0.10252700  0.56028100  0.89955500  1
  V  V3  1  0.10042100  0.81250000  0.90212500  1
  V  V4  1  0.39747300  0.06471900  0.89955500  1
  V  V5  1  0.39757300  0.31250000  0.89977000  1
  V  V6  1  0.39747300  0.56028100  0.89955500  1
  V  V7  1  0.39957900  0.81250000  0.90212500  1
  V  V8  1  0.59430200  0.94486700  0.11392300  1
  V  V9  1  0.60102600  0.18909300  0.09636600  1
  V  V10  1  0.60102600  0.43590700  0.09636600  1
  V  V11  1  0.59430200  0.68013300  0.11392300  1
  V  V12  1  0.90569800  0.94486700  0.11392300  1
  V  V13  1  0.89897400  0.18909300  0.09636600  1
  V  V14  1  0.89897400  0.43590700  0.09636600  1
  V  V15  1  0.90569800  0.68013300  0.11392300  1
  Fe  Fe16  1  0.75000000  0.81250000  0.03671000  1
  O  O17  1  0.07041000  0.18890900  0.00221800  1
  O  O18  1  0.07041000  0.43609100  0.00221800  1
  O  O19  1  0.06993000  0.93828400  0.99787200  1
  O  O20  1  0.06993000  0.68671600  0.99787200  1
  O  O21  1  0.10892400  0.31250000  0.54778200  1
  O  O22  1  0.11097300  0.55986200  0.54772100  1
  O  O23  1  0.11097300  0.06513800  0.54772100  1
  O  O24  1  0.10636300  0.81250000  0.55048600  1
  O  O25  1  0.25000000  0.56125400  0.01984100  1
  O  O26  1  0.25000000  0.06374600  0.01984100  1
  O  O27  1  0.25000000  0.31250000  0.01695700  1
  O  O28  1  0.25000000  0.81250000  0.01151700  1
  O  O29  1  0.38902700  0.06513800  0.54772100  1
  O  O30  1  0.39107600  0.31250000  0.54778200  1
  O  O31  1  0.38902700  0.55986200  0.54772100  1
  O  O32  1  0.39363700  0.81250000  0.55048600  1
  O  O33  1  0.42959000  0.43609100  0.00221800  1
  O  O34  1  0.42959000  0.18890900  0.00221800  1
  O  O35  1  0.43007000  0.68671600  0.99787200  1
  O  O36  1  0.43007000  0.93828400  0.99787200  1
  O  O37  1  0.57326100  0.81250000  0.00897600  1
  O  O38  1  0.56607900  0.06690100  0.98994400  1
  O  O39  1  0.56793300  0.31250000  0.99529100  1
  O  O40  1  0.56607900  0.55809900  0.98994400  1
  O  O41  1  0.59326100  0.95196600  0.46500300  1
  O  O42  1  0.60763900  0.18848900  0.44863500  1
  O  O43  1  0.60763900  0.43651100  0.44863500  1
  O  O44  1  0.59326100  0.67303400  0.46500300  1
  O  O45  1  0.75000000  0.81250000  0.44393100  1
  O  O46  1  0.75000000  0.94923600  0.99699700  1
  O  O47  1  0.75000000  0.18864100  0.98369800  1
  O  O48  1  0.75000000  0.43635800  0.98369800  1
  O  O49  1  0.75000000  0.67576400  0.99699700  1
  O  O50  1  0.90673900  0.95196600  0.46500300  1
  O  O51  1  0.89236100  0.18848900  0.44863500  1
  O  O52  1  0.89236100  0.43651100  0.44863500  1
  O  O53  1  0.90673900  0.67303400  0.46500300  1
  O  O54  1  0.92673900  0.81250000  0.00897600  1
  O  O55  1  0.93392100  0.06690100  0.98994400  1
  O  O56  1  0.93206700  0.31250000  0.99529100  1
  O  O57  1  0.93392100  0.55809900  0.98994400  1
