data_image0
_chemical_formula_structural       Ag2S4Yb2
_chemical_formula_sum              "Ag2 S4 Yb2"
_cell_length_a       5.48476
_cell_length_b       5.48476
_cell_length_c       6.788
_cell_angle_alpha    113.829
_cell_angle_beta     113.829
_cell_angle_gamma    90

_space_group_name_H-M_alt    "P 1"
_space_group_IT_number       1

loop_
  _space_group_symop_operation_xyz
  'x, y, z'

loop_
  _atom_site_type_symbol
  _atom_site_label
  _atom_site_symmetry_multiplicity
  _atom_site_fract_x
  _atom_site_fract_y
  _atom_site_fract_z
  _atom_site_occupancy
  Ag  Ag1       1.0  0.52100  0.52100  0.04140  1.0000
  Ag  Ag2       1.0  0.77100  0.27100  0.54100  1.0000
  S   S1        1.0  0.99700  0.49700  0.99400  1.0000
  S   S2        1.0  0.51200  0.01190  0.02380  1.0000
  S   S3        1.0  0.74700  0.74700  0.49400  1.0000
  S   S4        1.0  0.26200  0.26200  0.52400  1.0000
  Yb  Yb1       1.0  0.01020  0.01020  0.02040  1.0000
  Yb  Yb2       1.0  0.26000  0.76000  0.52000  1.0000
