# generated using pymatgen
data_MnPO4F
_symmetry_space_group_name_H-M   'P 1'
_cell_length_a   4.96952700
_cell_length_b   12.70208200
_cell_length_c   12.78953734
_cell_angle_alpha   60.12338934
_cell_angle_beta   90.00000000
_cell_angle_gamma   90.00000000
_symmetry_Int_Tables_number   1
_chemical_formula_structural   MnPO4F
_chemical_formula_sum   'Mn8 P8 O32 F8'
_cell_volume   700.02584112
_cell_formula_units_Z   8
loop_
 _symmetry_equiv_pos_site_id
 _symmetry_equiv_pos_as_xyz
  1  'x, y, z'
loop_
 _atom_site_type_symbol
 _atom_site_label
 _atom_site_symmetry_multiplicity
 _atom_site_fract_x
 _atom_site_fract_y
 _atom_site_fract_z
 _atom_site_occupancy
  Mn  Mn0  1  0.27373200  0.43280300  0.68836900  1
  Mn  Mn1  1  0.77373200  0.56719700  0.81163100  1
  Mn  Mn2  1  0.22725600  0.93295800  0.37862900  1
  Mn  Mn3  1  0.72725600  0.06704200  0.12137100  1
  Mn  Mn4  1  0.27274400  0.93295800  0.87862900  1
  Mn  Mn5  1  0.77274400  0.06704200  0.62137100  1
  Mn  Mn6  1  0.22626800  0.43280300  0.18836900  1
  Mn  Mn7  1  0.72626800  0.56719700  0.31163100  1
  P  P8  1  0.22240300  0.15594400  0.93225100  1
  P  P9  1  0.21822400  0.65585100  0.41342700  1
  P  P10  1  0.28177600  0.65585100  0.91342700  1
  P  P11  1  0.72240300  0.84405600  0.56774900  1
  P  P12  1  0.27759700  0.15594400  0.43225100  1
  P  P13  1  0.71822400  0.34414900  0.08657300  1
  P  P14  1  0.78177600  0.34414900  0.58657300  1
  P  P15  1  0.77759700  0.84405600  0.06774900  1
  O  O16  1  0.92187200  0.13040600  0.97407400  1
  O  O17  1  0.61154500  0.38692800  0.65901300  1
  O  O18  1  0.25953000  0.29229900  0.84534900  1
  O  O19  1  0.91720900  0.63528700  0.39185100  1
  O  O20  1  0.28739400  0.58986200  0.54894000  1
  O  O21  1  0.78739400  0.41013800  0.95106000  1
  O  O22  1  0.27252600  0.79121300  0.36385600  1
  O  O23  1  0.69335500  0.91149200  0.13472000  1
  O  O24  1  0.75953000  0.70770100  0.65465100  1
  O  O25  1  0.11154500  0.61307200  0.84098700  1
  O  O26  1  0.58279100  0.63528700  0.89185100  1
  O  O27  1  0.89157600  0.87919600  0.45375600  1
  O  O28  1  0.42187200  0.86959400  0.52592600  1
  O  O29  1  0.39157600  0.12080400  0.04624400  1
  O  O30  1  0.22747400  0.79121300  0.86385600  1
  O  O31  1  0.80664500  0.91149200  0.63472000  1
  O  O32  1  0.19335500  0.08850800  0.36528000  1
  O  O33  1  0.77252600  0.20878700  0.13614400  1
  O  O34  1  0.60842400  0.87919600  0.95375600  1
  O  O35  1  0.57812800  0.13040600  0.47407400  1
  O  O36  1  0.10842400  0.12080400  0.54624400  1
  O  O37  1  0.41720900  0.36471300  0.10814900  1
  O  O38  1  0.88845500  0.38692800  0.15901300  1
  O  O39  1  0.24047000  0.29229900  0.34534900  1
  O  O40  1  0.30664500  0.08850800  0.86528000  1
  O  O41  1  0.72747400  0.20878700  0.63614400  1
  O  O42  1  0.21260600  0.58986200  0.04894000  1
  O  O43  1  0.71260600  0.41013800  0.45106000  1
  O  O44  1  0.08279100  0.36471300  0.60814900  1
  O  O45  1  0.74047000  0.70770100  0.15465100  1
  O  O46  1  0.38845500  0.61307200  0.34098700  1
  O  O47  1  0.07812800  0.86959400  0.02592600  1
  F  F48  1  0.96162800  0.48836300  0.73208400  1
  F  F49  1  0.46162800  0.51163700  0.76791600  1
  F  F50  1  0.03825700  0.00237000  0.22186800  1
  F  F51  1  0.53825700  0.99763000  0.27813200  1
  F  F52  1  0.46174300  0.00237000  0.72186800  1
  F  F53  1  0.96174300  0.99763000  0.77813200  1
  F  F54  1  0.53837200  0.48836300  0.23208400  1
  F  F55  1  0.03837200  0.51163700  0.26791600  1
