# generated using pymatgen
data_NbP6(WO8)3
_symmetry_space_group_name_H-M   'P 1'
_cell_length_a   9.01588774
_cell_length_b   9.01588774
_cell_length_c   9.01588796
_cell_angle_alpha   58.86660560
_cell_angle_beta   58.86660560
_cell_angle_gamma   58.86660681
_symmetry_Int_Tables_number   1
_chemical_formula_structural   NbP6(WO8)3
_chemical_formula_sum   'Nb1 P6 W3 O24'
_cell_volume   504.80767872
_cell_formula_units_Z   1
loop_
 _symmetry_equiv_pos_site_id
 _symmetry_equiv_pos_as_xyz
  1  'x, y, z'
loop_
 _atom_site_type_symbol
 _atom_site_label
 _atom_site_symmetry_multiplicity
 _atom_site_fract_x
 _atom_site_fract_y
 _atom_site_fract_z
 _atom_site_occupancy
  Nb  Nb0  1  0.14075800  0.14075800  0.14075800  1
  P  P1  1  0.53502300  0.96481100  0.25253800  1
  P  P2  1  0.25253800  0.53502300  0.96481100  1
  P  P3  1  0.96481100  0.25253800  0.53502300  1
  P  P4  1  0.03666200  0.74768600  0.46330800  1
  P  P5  1  0.74768600  0.46330800  0.03666200  1
  P  P6  1  0.46330800  0.03666200  0.74768600  1
  W  W7  1  0.85810000  0.85810000  0.85810000  1
  W  W8  1  0.64240800  0.64240800  0.64240800  1
  W  W9  1  0.35625300  0.35625300  0.35625300  1
  O  O10  1  0.48972300  0.86710800  0.71886900  1
  O  O11  1  0.86710800  0.71886900  0.48972300  1
  O  O12  1  0.70823800  0.94413300  0.08962500  1
  O  O13  1  0.71886900  0.48972300  0.86710800  1
  O  O14  1  0.55471900  0.79092700  0.42796500  1
  O  O15  1  0.36207600  0.99948400  0.22386200  1
  O  O16  1  0.08962500  0.70823800  0.94413300  1
  O  O17  1  0.42796500  0.55471900  0.79092700  1
  O  O18  1  0.79092700  0.42796500  0.55471900  1
  O  O19  1  0.01759500  0.77011000  0.62668200  1
  O  O20  1  0.06481700  0.91879400  0.28560900  1
  O  O21  1  0.77011000  0.62668200  0.01759500  1
  O  O22  1  0.22386200  0.36207600  0.99948400  1
  O  O23  1  0.94413300  0.08962500  0.70823800  1
  O  O24  1  0.99948400  0.22386200  0.36207600  1
  O  O25  1  0.21205000  0.58023100  0.42626900  1
  O  O26  1  0.58023100  0.42626900  0.21205000  1
  O  O27  1  0.91879400  0.28560900  0.06481700  1
  O  O28  1  0.62668200  0.01759500  0.77011000  1
  O  O29  1  0.42626900  0.21205000  0.58023100  1
  O  O30  1  0.29335700  0.50053100  0.12967900  1
  O  O31  1  0.28560900  0.06481700  0.91879400  1
  O  O32  1  0.12967900  0.29335700  0.50053100  1
  O  O33  1  0.50053100  0.12967900  0.29335700  1
