# generated using pymatgen
data_EuH32C8N4Cl7
_symmetry_space_group_name_H-M   'P 1'
_cell_length_a   8.89532100
_cell_length_b   10.60542600
_cell_length_c   13.57500700
_cell_angle_alpha   90.00000000
_cell_angle_beta   90.00000000
_cell_angle_gamma   90.00000000
_symmetry_Int_Tables_number   1
_chemical_formula_structural   EuH32C8N4Cl7
_chemical_formula_sum   'Eu2 H64 C16 N8 Cl14'
_cell_volume   1280.64808678
_cell_formula_units_Z   2
loop_
 _symmetry_equiv_pos_site_id
 _symmetry_equiv_pos_as_xyz
  1  'x, y, z'
loop_
 _atom_site_type_symbol
 _atom_site_label
 _atom_site_symmetry_multiplicity
 _atom_site_fract_x
 _atom_site_fract_y
 _atom_site_fract_z
 _atom_site_occupancy
  Eu  Eu0  1  0.92939600  0.50000000  0.00000000  1
  Eu  Eu1  1  0.07060400  0.00000000  0.50000000  1
  H  H2  1  0.97731300  0.77258200  0.17397700  1
  H  H3  1  0.97731300  0.22741800  0.82602300  1
  H  H4  1  0.02268700  0.72741800  0.67397700  1
  H  H5  1  0.02268700  0.27258200  0.32602300  1
  H  H6  1  0.96217700  0.88940700  0.25601000  1
  H  H7  1  0.96217700  0.11059300  0.74399000  1
  H  H8  1  0.03782300  0.61059300  0.75601000  1
  H  H9  1  0.03782300  0.38940700  0.24399000  1
  H  H10  1  0.62477700  0.67822200  0.93382400  1
  H  H11  1  0.62477700  0.32177800  0.06617600  1
  H  H12  1  0.37522300  0.82177800  0.43382400  1
  H  H13  1  0.37522300  0.17822200  0.56617600  1
  H  H14  1  0.54224000  0.82197200  0.94215000  1
  H  H15  1  0.54224000  0.17802800  0.05785000  1
  H  H16  1  0.45776000  0.67802800  0.44215000  1
  H  H17  1  0.45776000  0.32197200  0.55785000  1
  H  H18  1  0.54593800  0.65722500  0.76248600  1
  H  H19  1  0.54593800  0.34277500  0.23751400  1
  H  H20  1  0.45406200  0.84277500  0.26248600  1
  H  H21  1  0.45406200  0.15722500  0.73751400  1
  H  H22  1  0.66168900  0.79364700  0.78313200  1
  H  H23  1  0.66168900  0.20635300  0.21686800  1
  H  H24  1  0.33831100  0.70635300  0.28313200  1
  H  H25  1  0.33831100  0.29364700  0.71686800  1
  H  H26  1  0.46181100  0.81161300  0.77169300  1
  H  H27  1  0.46181100  0.18838700  0.22830700  1
  H  H28  1  0.53818900  0.68838700  0.27169300  1
  H  H29  1  0.53818900  0.31161300  0.72830700  1
  H  H30  1  0.81423500  0.01621100  0.14121700  1
  H  H31  1  0.81423500  0.98378900  0.85878300  1
  H  H32  1  0.18576500  0.48378900  0.64121700  1
  H  H33  1  0.18576500  0.51621100  0.35878300  1
  H  H34  1  0.72882200  0.86644200  0.16908300  1
  H  H35  1  0.72882200  0.13355800  0.83091700  1
  H  H36  1  0.27117800  0.63355800  0.66908300  1
  H  H37  1  0.27117800  0.36644200  0.33091700  1
  H  H38  1  0.82620300  0.88711500  0.05486600  1
  H  H39  1  0.82620300  0.11288500  0.94513400  1
  H  H40  1  0.17379700  0.61288500  0.55486600  1
  H  H41  1  0.17379700  0.38711500  0.44513400  1
  H  H42  1  0.12069600  0.89975700  0.06262700  1
  H  H43  1  0.12069600  0.10024300  0.93737300  1
  H  H44  1  0.87930400  0.60024300  0.56262700  1
  H  H45  1  0.87930400  0.39975700  0.43737300  1
  H  H46  1  0.20375100  0.89939700  0.18301500  1
  H  H47  1  0.20375100  0.10060300  0.81698500  1
  H  H48  1  0.79624900  0.60060300  0.68301500  1
  H  H49  1  0.79624900  0.39939700  0.31698500  1
  H  H50  1  0.09563100  0.03311200  0.14355300  1
  H  H51  1  0.09563100  0.96688800  0.85644700  1
  H  H52  1  0.90436900  0.46688800  0.64355300  1
  H  H53  1  0.90436900  0.53311200  0.35644700  1
  H  H54  1  0.29703500  0.72909300  0.91043900  1
  H  H55  1  0.29703500  0.27090700  0.08956100  1
  H  H56  1  0.70296500  0.77090700  0.41043900  1
  H  H57  1  0.70296500  0.22909300  0.58956100  1
  H  H58  1  0.38630700  0.66655800  0.01832700  1
  H  H59  1  0.38630700  0.33344200  0.98167300  1
  H  H60  1  0.61369300  0.83344200  0.51832700  1
  H  H61  1  0.61369300  0.16655800  0.48167300  1
  H  H62  1  0.38555500  0.57644800  0.90631500  1
  H  H63  1  0.38555500  0.42355200  0.09368500  1
  H  H64  1  0.61444500  0.92355200  0.40631500  1
  H  H65  1  0.61444500  0.07644800  0.59368500  1
  C  C66  1  0.55237500  0.74991900  0.79877500  1
  C  C67  1  0.55237500  0.25008100  0.20122500  1
  C  C68  1  0.44762500  0.75008100  0.29877500  1
  C  C69  1  0.44762500  0.24991900  0.70122500  1
  C  C70  1  0.82387400  0.91336900  0.13305700  1
  C  C71  1  0.82387400  0.08663100  0.86694300  1
  C  C72  1  0.17612600  0.58663100  0.63305700  1
  C  C73  1  0.17612600  0.41336900  0.36694300  1
  C  C74  1  0.10659500  0.92984500  0.13944400  1
  C  C75  1  0.10659500  0.07015500  0.86055600  1
  C  C76  1  0.89340500  0.57015500  0.63944400  1
  C  C77  1  0.89340500  0.42984500  0.36055600  1
  C  C78  1  0.39146900  0.67190400  0.93768300  1
  C  C79  1  0.39146900  0.32809600  0.06231700  1
  C  C80  1  0.60853100  0.82809600  0.43768300  1
  C  C81  1  0.60853100  0.17190400  0.56231700  1
  N  N82  1  0.96695600  0.87061600  0.18077000  1
  N  N83  1  0.96695600  0.12938400  0.81923000  1
  N  N84  1  0.03304400  0.62938400  0.68077000  1
  N  N85  1  0.03304400  0.37061600  0.31923000  1
  N  N86  1  0.53599100  0.73249000  0.90748400  1
  N  N87  1  0.53599100  0.26751000  0.09251600  1
  N  N88  1  0.46400900  0.76751000  0.40748400  1
  N  N89  1  0.46400900  0.23249000  0.59251600  1
  Cl  Cl90  1  0.93774500  0.73074300  0.90706600  1
  Cl  Cl91  1  0.93774500  0.26925700  0.09293400  1
  Cl  Cl92  1  0.06225500  0.76925700  0.40706600  1
  Cl  Cl93  1  0.06225500  0.23074300  0.59293400  1
  Cl  Cl94  1  0.12700300  0.58564800  0.14103300  1
  Cl  Cl95  1  0.12700300  0.41435200  0.85896700  1
  Cl  Cl96  1  0.87299700  0.91435200  0.64103300  1
  Cl  Cl97  1  0.87299700  0.08564800  0.35896700  1
  Cl  Cl98  1  0.70068200  0.42063900  0.87946100  1
  Cl  Cl99  1  0.70068200  0.57936100  0.12053900  1
  Cl  Cl100  1  0.29931800  0.07936100  0.37946100  1
  Cl  Cl101  1  0.29931800  0.92063900  0.62053900  1
  Cl  Cl102  1  0.48121100  0.00000000  0.00000000  1
  Cl  Cl103  1  0.51878900  0.50000000  0.50000000  1
