# generated using pymatgen
data_ErOs3
_symmetry_space_group_name_H-M   'P 1'
_cell_length_a   5.77833037
_cell_length_b   5.77833037
_cell_length_c   4.60243900
_cell_angle_alpha   90.00000000
_cell_angle_beta   90.00000000
_cell_angle_gamma   120.00000425
_symmetry_Int_Tables_number   1
_chemical_formula_structural   ErOs3
_chemical_formula_sum   'Er2 Os6'
_cell_volume   133.08324797
_cell_formula_units_Z   2
loop_
 _symmetry_equiv_pos_site_id
 _symmetry_equiv_pos_as_xyz
  1  'x, y, z'
loop_
 _atom_site_type_symbol
 _atom_site_label
 _atom_site_symmetry_multiplicity
 _atom_site_fract_x
 _atom_site_fract_y
 _atom_site_fract_z
 _atom_site_occupancy
  Er  Er0  1  0.33333300  0.66666700  0.75000000  1
  Er  Er1  1  0.66666700  0.33333300  0.25000000  1
  Os  Os2  1  0.16028800  0.32057500  0.25000000  1
  Os  Os3  1  0.67942500  0.83971200  0.25000000  1
  Os  Os4  1  0.16028800  0.83971200  0.25000000  1
  Os  Os5  1  0.83971200  0.67942500  0.75000000  1
  Os  Os6  1  0.32057500  0.16028800  0.75000000  1
  Os  Os7  1  0.83971200  0.16028800  0.75000000  1
