# generated using pymatgen
data_Eu3V
_symmetry_space_group_name_H-M   'P 1'
_cell_length_a   6.11106812
_cell_length_b   6.11106812
_cell_length_c   6.11106812
_cell_angle_alpha   129.17738971
_cell_angle_beta   129.17738971
_cell_angle_gamma   74.72531323
_symmetry_Int_Tables_number   1
_chemical_formula_structural   Eu3V
_chemical_formula_sum   'Eu3 V1'
_cell_volume   133.60384077
_cell_formula_units_Z   1
loop_
 _symmetry_equiv_pos_site_id
 _symmetry_equiv_pos_as_xyz
  1  'x, y, z'
loop_
 _atom_site_type_symbol
 _atom_site_label
 _atom_site_symmetry_multiplicity
 _atom_site_fract_x
 _atom_site_fract_y
 _atom_site_fract_z
 _atom_site_occupancy
  Eu  Eu0  1  0.75000000  0.25000000  0.50000000  1
  Eu  Eu1  1  0.25000000  0.75000000  0.50000000  1
  Eu  Eu2  1  0.50000000  0.50000000  0.00000000  1
  V  V3  1  0.00000000  0.00000000  0.00000000  1
