# generated using pymatgen
data_Mg(B2O5)3
_symmetry_space_group_name_H-M   'P 1'
_cell_length_a   12.14403117
_cell_length_b   21.88509241
_cell_length_c   7.89839909
_cell_angle_alpha   90.00000000
_cell_angle_beta   90.00000000
_cell_angle_gamma   90.00000000
_symmetry_Int_Tables_number   1
_chemical_formula_structural   Mg(B2O5)3
_chemical_formula_sum   'Mg8 B48 O120'
_cell_volume   2099.18315160
_cell_formula_units_Z   8
loop_
 _symmetry_equiv_pos_site_id
 _symmetry_equiv_pos_as_xyz
  1  'x, y, z'
loop_
 _atom_site_type_symbol
 _atom_site_label
 _atom_site_symmetry_multiplicity
 _atom_site_fract_x
 _atom_site_fract_y
 _atom_site_fract_z
 _atom_site_occupancy
  Mg  Mg0  1  0.91473662  0.12244014  0.43050082  1
  Mg  Mg1  1  0.41473662  0.37755986  0.56949918  1
  Mg  Mg2  1  0.08526338  0.62244014  0.06949918  1
  Mg  Mg3  1  0.58526338  0.87755986  0.93050082  1
  Mg  Mg4  1  0.08526338  0.87755986  0.56949918  1
  Mg  Mg5  1  0.58526338  0.62244014  0.43050082  1
  Mg  Mg6  1  0.91473662  0.37755986  0.93050082  1
  Mg  Mg7  1  0.41473662  0.12244014  0.06949918  1
  B  B8  1  0.16236606  0.36420231  0.11791304  1
  B  B9  1  0.66236606  0.13579769  0.88208696  1
  B  B10  1  0.83763394  0.86420231  0.38208696  1
  B  B11  1  0.33763394  0.63579769  0.61791304  1
  B  B12  1  0.83763394  0.63579769  0.88208696  1
  B  B13  1  0.33763394  0.86420231  0.11791304  1
  B  B14  1  0.16236606  0.13579769  0.61791304  1
  B  B15  1  0.66236606  0.36420231  0.38208696  1
  B  B16  1  0.01247908  0.32251497  0.30554655  1
  B  B17  1  0.51247908  0.17748503  0.69445345  1
  B  B18  1  0.98752092  0.82251497  0.19445345  1
  B  B19  1  0.48752092  0.67748503  0.80554655  1
  B  B20  1  0.98752092  0.67748503  0.69445345  1
  B  B21  1  0.48752092  0.82251497  0.30554655  1
  B  B22  1  0.01247908  0.17748503  0.80554655  1
  B  B23  1  0.51247908  0.32251497  0.19445345  1
  B  B24  1  0.03422817  0.43543902  0.27447113  1
  B  B25  1  0.53422817  0.06456098  0.72552887  1
  B  B26  1  0.96577183  0.93543902  0.22552887  1
  B  B27  1  0.46577183  0.56456098  0.77447113  1
  B  B28  1  0.96577183  0.56456098  0.72552887  1
  B  B29  1  0.46577183  0.93543902  0.27447113  1
  B  B30  1  0.03422817  0.06456098  0.77447113  1
  B  B31  1  0.53422817  0.43543902  0.22552887  1
  B  B32  1  0.17178205  0.26326443  0.23627472  1
  B  B33  1  0.67178205  0.23673557  0.76372528  1
  B  B34  1  0.82821795  0.76326443  0.26372528  1
  B  B35  1  0.32821795  0.73673557  0.73627472  1
  B  B36  1  0.82821795  0.73673557  0.76372528  1
  B  B37  1  0.32821795  0.76326443  0.23627472  1
  B  B38  1  0.17178205  0.23673557  0.73627472  1
  B  B39  1  0.67178205  0.26326443  0.26372528  1
  B  B40  1  0.94420444  0.39162800  0.52333155  1
  B  B41  1  0.44420444  0.10837200  0.47666845  1
  B  B42  1  0.05579556  0.89162800  0.97666845  1
  B  B43  1  0.55579556  0.60837200  0.02333155  1
  B  B44  1  0.05579556  0.60837200  0.47666845  1
  B  B45  1  0.55579556  0.89162800  0.52333155  1
  B  B46  1  0.94420444  0.10837200  0.02333155  1
  B  B47  1  0.44420444  0.39162800  0.97666845  1
  B  B48  1  0.21108675  0.47095638  0.15554480  1
  B  B49  1  0.71108675  0.02904362  0.84445520  1
  B  B50  1  0.78891325  0.97095638  0.34445520  1
  B  B51  1  0.28891325  0.52904362  0.65554480  1
  B  B52  1  0.78891325  0.52904362  0.84445520  1
  B  B53  1  0.28891325  0.97095638  0.15554480  1
  B  B54  1  0.21108675  0.02904362  0.65554480  1
  B  B55  1  0.71108675  0.47095638  0.34445520  1
  O  O56  1  0.21872024  0.30540356  0.13666087  1
  O  O57  1  0.71872024  0.19459644  0.86333913  1
  O  O58  1  0.78127976  0.80540356  0.36333913  1
  O  O59  1  0.28127976  0.69459644  0.63666087  1
  O  O60  1  0.78127976  0.69459644  0.86333913  1
  O  O61  1  0.28127976  0.80540356  0.13666087  1
  O  O62  1  0.21872024  0.19459644  0.63666087  1
  O  O63  1  0.71872024  0.30540356  0.36333913  1
  O  O64  1  0.07848419  0.36245087  0.98233293  1
  O  O65  1  0.57848419  0.13754913  0.01766707  1
  O  O66  1  0.92151581  0.86245087  0.51766707  1
  O  O67  1  0.42151581  0.63754913  0.48233293  1
  O  O68  1  0.92151581  0.63754913  0.01766707  1
  O  O69  1  0.42151581  0.86245087  0.98233293  1
  O  O70  1  0.07848419  0.13754913  0.48233293  1
  O  O71  1  0.57848419  0.36245087  0.51766707  1
  O  O72  1  0.09650765  0.37451044  0.27936350  1
  O  O73  1  0.59650765  0.12548956  0.72063650  1
  O  O74  1  0.90349235  0.87451044  0.22063650  1
  O  O75  1  0.40349235  0.62548956  0.77936350  1
  O  O76  1  0.90349235  0.62548956  0.72063650  1
  O  O77  1  0.40349235  0.87451044  0.27936350  1
  O  O78  1  0.09650765  0.12548956  0.77936350  1
  O  O79  1  0.59650765  0.37451044  0.22063650  1
  O  O80  1  0.23808167  0.41438637  0.09283919  1
  O  O81  1  0.73808167  0.08561363  0.90716081  1
  O  O82  1  0.76191833  0.91438637  0.40716081  1
  O  O83  1  0.26191833  0.58561363  0.59283919  1
  O  O84  1  0.76191833  0.58561363  0.90716081  1
  O  O85  1  0.26191833  0.91438637  0.09283919  1
  O  O86  1  0.23808167  0.08561363  0.59283919  1
  O  O87  1  0.73808167  0.41438637  0.40716081  1
  O  O88  1  0.07319703  0.26448181  0.31274219  1
  O  O89  1  0.57319703  0.23551819  0.68725781  1
  O  O90  1  0.92680297  0.76448181  0.18725781  1
  O  O91  1  0.42680297  0.73551819  0.81274219  1
  O  O92  1  0.92680297  0.73551819  0.68725781  1
  O  O93  1  0.42680297  0.76448181  0.31274219  1
  O  O94  1  0.07319703  0.23551819  0.81274219  1
  O  O95  1  0.57319703  0.26448181  0.18725781  1
  O  O96  1  0.94097001  0.32509523  0.15212494  1
  O  O97  1  0.44097001  0.17490477  0.84787506  1
  O  O98  1  0.05902999  0.82509523  0.34787506  1
  O  O99  1  0.55902999  0.67490477  0.65212494  1
  O  O100  1  0.05902999  0.67490477  0.84787506  1
  O  O101  1  0.55902999  0.82509523  0.15212494  1
  O  O102  1  0.94097001  0.17490477  0.65212494  1
  O  O103  1  0.44097001  0.32509523  0.34787506  1
  O  O104  1  0.95223950  0.33341526  0.45676622  1
  O  O105  1  0.45223950  0.16658474  0.54323378  1
  O  O106  1  0.04776050  0.83341526  0.04323378  1
  O  O107  1  0.54776050  0.66658474  0.95676622  1
  O  O108  1  0.04776050  0.66658474  0.54323378  1
  O  O109  1  0.54776050  0.83341526  0.45676622  1
  O  O110  1  0.95223950  0.16658474  0.95676622  1
  O  O111  1  0.45223950  0.33341526  0.04323378  1
  O  O112  1  0.97569915  0.44242566  0.43128217  1
  O  O113  1  0.47569915  0.05757434  0.56871783  1
  O  O114  1  0.02430085  0.94242566  0.06871783  1
  O  O115  1  0.52430085  0.55757434  0.93128217  1
  O  O116  1  0.02430085  0.55757434  0.56871783  1
  O  O117  1  0.52430085  0.94242566  0.43128217  1
  O  O118  1  0.97569915  0.05757434  0.93128217  1
  O  O119  1  0.47569915  0.44242566  0.06871783  1
  O  O120  1  0.95679598  0.42951599  0.13076015  1
  O  O121  1  0.45679598  0.07048401  0.86923985  1
  O  O122  1  0.04320402  0.92951599  0.36923985  1
  O  O123  1  0.54320402  0.57048401  0.63076015  1
  O  O124  1  0.04320402  0.57048401  0.86923985  1
  O  O125  1  0.54320402  0.92951599  0.13076015  1
  O  O126  1  0.95679598  0.07048401  0.63076015  1
  O  O127  1  0.45679598  0.42951599  0.36923985  1
  O  O128  1  0.11101966  0.48398214  0.22823872  1
  O  O129  1  0.61101966  0.01601786  0.77176128  1
  O  O130  1  0.88898034  0.98398214  0.27176128  1
  O  O131  1  0.38898034  0.51601786  0.72823872  1
  O  O132  1  0.88898034  0.51601786  0.77176128  1
  O  O133  1  0.38898034  0.98398214  0.22823872  1
  O  O134  1  0.11101966  0.01601786  0.72823872  1
  O  O135  1  0.61101966  0.48398214  0.27176128  1
  O  O136  1  0.23377383  0.20538299  0.27209486  1
  O  O137  1  0.73377383  0.29461701  0.72790514  1
  O  O138  1  0.76622617  0.70538299  0.22790514  1
  O  O139  1  0.26622617  0.79461701  0.77209486  1
  O  O140  1  0.76622617  0.79461701  0.72790514  1
  O  O141  1  0.26622617  0.70538299  0.27209486  1
  O  O142  1  0.23377383  0.29461701  0.77209486  1
  O  O143  1  0.73377383  0.20538299  0.22790514  1
  O  O144  1  0.91140736  0.39598724  0.68887102  1
  O  O145  1  0.41140736  0.10401276  0.31112898  1
  O  O146  1  0.08859264  0.89598724  0.81112898  1
  O  O147  1  0.58859264  0.60401276  0.18887102  1
  O  O148  1  0.08859264  0.60401276  0.31112898  1
  O  O149  1  0.58859264  0.89598724  0.68887102  1
  O  O150  1  0.91140736  0.10401276  0.18887102  1
  O  O151  1  0.41140736  0.39598724  0.81112898  1
  O  O152  1  0.28813160  0.51804604  0.16321895  1
  O  O153  1  0.78813160  0.98195396  0.83678105  1
  O  O154  1  0.71186840  0.01804604  0.33678105  1
  O  O155  1  0.21186840  0.48195396  0.66321895  1
  O  O156  1  0.71186840  0.48195396  0.83678105  1
  O  O157  1  0.21186840  0.01804604  0.16321895  1
  O  O158  1  0.28813160  0.98195396  0.66321895  1
  O  O159  1  0.78813160  0.51804604  0.33678105  1
  O  O160  1  0.74236996  0.10843376  0.44152037  1
  O  O161  1  0.24236996  0.39156624  0.55847963  1
  O  O162  1  0.25763004  0.60843376  0.05847963  1
  O  O163  1  0.75763004  0.89156624  0.94152037  1
  O  O164  1  0.25763004  0.89156624  0.55847963  1
  O  O165  1  0.75763004  0.60843376  0.44152037  1
  O  O166  1  0.74236996  0.39156624  0.94152037  1
  O  O167  1  0.24236996  0.10843376  0.05847963  1
  O  O168  1  0.83829686  0.20656586  0.26940960  1
  O  O169  1  0.33829686  0.29343414  0.73059040  1
  O  O170  1  0.16170314  0.70656586  0.23059040  1
  O  O171  1  0.66170314  0.79343414  0.76940960  1
  O  O172  1  0.16170314  0.79343414  0.73059040  1
  O  O173  1  0.66170314  0.70656586  0.26940960  1
  O  O174  1  0.83829686  0.29343414  0.76940960  1
  O  O175  1  0.33829686  0.20656586  0.23059040  1
