# generated using pymatgen
data_HoCoSi2
_symmetry_space_group_name_H-M   'P 1'
_cell_length_a   8.31412213
_cell_length_b   8.31412213
_cell_length_c   3.95588600
_cell_angle_alpha   90.00000000
_cell_angle_beta   90.00000000
_cell_angle_gamma   152.19114405
_symmetry_Int_Tables_number   1
_chemical_formula_structural   HoCoSi2
_chemical_formula_sum   'Ho2 Co2 Si4'
_cell_volume   127.57041322
_cell_formula_units_Z   2
loop_
 _symmetry_equiv_pos_site_id
 _symmetry_equiv_pos_as_xyz
  1  'x, y, z'
loop_
 _atom_site_type_symbol
 _atom_site_label
 _atom_site_symmetry_multiplicity
 _atom_site_fract_x
 _atom_site_fract_y
 _atom_site_fract_z
 _atom_site_occupancy
  Ho  Ho0  1  0.10748700  0.89251300  0.25000000  1
  Ho  Ho1  1  0.89251300  0.10748700  0.75000000  1
  Co  Co2  1  0.32104300  0.67895700  0.25000000  1
  Co  Co3  1  0.67895700  0.32104300  0.75000000  1
  Si  Si4  1  0.24987800  0.75012200  0.75000000  1
  Si  Si5  1  0.75012200  0.24987800  0.25000000  1
  Si  Si6  1  0.54236300  0.45763700  0.75000000  1
  Si  Si7  1  0.45763700  0.54236300  0.25000000  1
