# generated using pymatgen
data_Si2O5
_symmetry_space_group_name_H-M   'P 1'
_cell_length_a   7.55860082
_cell_length_b   7.55860082
_cell_length_c   7.55860082
_cell_angle_alpha   139.71818047
_cell_angle_beta   129.56951566
_cell_angle_gamma   66.42885613
_symmetry_Int_Tables_number   1
_chemical_formula_structural   Si2O5
_chemical_formula_sum   'Si4 O10'
_cell_volume   211.99264088
_cell_formula_units_Z   2
loop_
 _symmetry_equiv_pos_site_id
 _symmetry_equiv_pos_as_xyz
  1  'x, y, z'
loop_
 _atom_site_type_symbol
 _atom_site_label
 _atom_site_symmetry_multiplicity
 _atom_site_fract_x
 _atom_site_fract_y
 _atom_site_fract_z
 _atom_site_occupancy
  Si  Si0  1  0.50644700  0.57359400  0.85060100  1
  Si  Si1  1  0.49355300  0.34415400  0.06714600  1
  Si  Si2  1  0.77700800  0.84415400  0.85060100  1
  Si  Si3  1  0.22299200  0.07359400  0.06714600  1
  O  O4  1  0.50000000  0.48238900  0.98238900  1
  O  O5  1  0.00000000  0.98238900  0.98238900  1
  O  O6  1  0.41083300  0.31359200  0.46296100  1
  O  O7  1  0.58916700  0.05212700  0.90275900  1
  O  O8  1  0.64936900  0.55212700  0.46296100  1
  O  O9  1  0.35063100  0.81359200  0.90275900  1
  O  O10  1  0.79057700  0.68378800  0.08983100  1
  O  O11  1  0.20942300  0.29925500  0.89321100  1
  O  O12  1  0.90604300  0.79925500  0.08983100  1
  O  O13  1  0.09395700  0.18378800  0.89321100  1
