# generated using pymatgen
data_CdH10C3NCl3
_symmetry_space_group_name_H-M   'P 1'
_cell_length_a   6.83561800
_cell_length_b   9.18683700
_cell_length_c   14.58536600
_cell_angle_alpha   90.00000000
_cell_angle_beta   90.00000000
_cell_angle_gamma   90.00000000
_symmetry_Int_Tables_number   1
_chemical_formula_structural   CdH10C3NCl3
_chemical_formula_sum   'Cd4 H40 C12 N4 Cl12'
_cell_volume   915.92756040
_cell_formula_units_Z   4
loop_
 _symmetry_equiv_pos_site_id
 _symmetry_equiv_pos_as_xyz
  1  'x, y, z'
loop_
 _atom_site_type_symbol
 _atom_site_label
 _atom_site_symmetry_multiplicity
 _atom_site_fract_x
 _atom_site_fract_y
 _atom_site_fract_z
 _atom_site_occupancy
  Cd  Cd0  1  0.00000000  0.50000000  0.50000000  1
  Cd  Cd1  1  0.50000000  0.00000000  0.00000000  1
  Cd  Cd2  1  0.50000000  0.50000000  0.50000000  1
  Cd  Cd3  1  0.00000000  0.00000000  0.00000000  1
  H  H4  1  0.25000000  0.95837100  0.75580000  1
  H  H5  1  0.25000000  0.54162900  0.25580000  1
  H  H6  1  0.75000000  0.04162900  0.24420000  1
  H  H7  1  0.75000000  0.45837100  0.74420000  1
  H  H8  1  0.25000000  0.24576000  0.66311900  1
  H  H9  1  0.25000000  0.25424000  0.16311900  1
  H  H10  1  0.75000000  0.75424000  0.33688100  1
  H  H11  1  0.75000000  0.74576000  0.83688100  1
  H  H12  1  0.11900100  0.19657900  0.76548500  1
  H  H13  1  0.38099900  0.30342100  0.26548500  1
  H  H14  1  0.61900100  0.80342100  0.23451500  1
  H  H15  1  0.88099900  0.69657900  0.73451500  1
  H  H16  1  0.88099900  0.80342100  0.23451500  1
  H  H17  1  0.61900100  0.69657900  0.73451500  1
  H  H18  1  0.38099900  0.19657900  0.76548500  1
  H  H19  1  0.11900100  0.30342100  0.26548500  1
  H  H20  1  0.06564000  0.05704500  0.58315800  1
  H  H21  1  0.43436000  0.44295500  0.08315800  1
  H  H22  1  0.56564000  0.94295500  0.41684200  1
  H  H23  1  0.93436000  0.55704500  0.91684200  1
  H  H24  1  0.93436000  0.94295500  0.41684200  1
  H  H25  1  0.56564000  0.55704500  0.91684200  1
  H  H26  1  0.43436000  0.05704500  0.58315800  1
  H  H27  1  0.06564000  0.44295500  0.08315800  1
  H  H28  1  0.07569600  0.87066700  0.62160900  1
  H  H29  1  0.42430400  0.62933300  0.12160900  1
  H  H30  1  0.57569600  0.12933300  0.37839100  1
  H  H31  1  0.92430400  0.37066700  0.87839100  1
  H  H32  1  0.92430400  0.12933300  0.37839100  1
  H  H33  1  0.57569600  0.37066700  0.87839100  1
  H  H34  1  0.42430400  0.87066700  0.62160900  1
  H  H35  1  0.07569600  0.62933300  0.12160900  1
  H  H36  1  0.94225900  0.00558800  0.68621800  1
  H  H37  1  0.55774100  0.49441200  0.18621800  1
  H  H38  1  0.44225900  0.99441200  0.31378200  1
  H  H39  1  0.05774100  0.50558800  0.81378200  1
  H  H40  1  0.05774100  0.99441200  0.31378200  1
  H  H41  1  0.44225900  0.50558800  0.81378200  1
  H  H42  1  0.55774100  0.00558800  0.68621800  1
  H  H43  1  0.94225900  0.49441200  0.18621800  1
  C  C44  1  0.25000000  0.17689100  0.72439000  1
  C  C45  1  0.25000000  0.32310900  0.22439000  1
  C  C46  1  0.75000000  0.82310900  0.27561000  1
  C  C47  1  0.75000000  0.67689100  0.77561000  1
  C  C48  1  0.06990200  0.98503100  0.64279300  1
  C  C49  1  0.43009800  0.51496900  0.14279300  1
  C  C50  1  0.56990200  0.01496900  0.35720700  1
  C  C51  1  0.93009800  0.48503100  0.85720700  1
  C  C52  1  0.93009800  0.01496900  0.35720700  1
  C  C53  1  0.56990200  0.48503100  0.85720700  1
  C  C54  1  0.43009800  0.98503100  0.64279300  1
  C  C55  1  0.06990200  0.51496900  0.14279300  1
  N  N56  1  0.25000000  0.02092300  0.69594400  1
  N  N57  1  0.25000000  0.47907700  0.19594400  1
  N  N58  1  0.75000000  0.97907700  0.30405600  1
  N  N59  1  0.75000000  0.52092300  0.80405600  1
  Cl  Cl60  1  0.25000000  0.57478300  0.63418700  1
  Cl  Cl61  1  0.25000000  0.92521700  0.13418700  1
  Cl  Cl62  1  0.75000000  0.42521700  0.36581300  1
  Cl  Cl63  1  0.75000000  0.07478300  0.86581300  1
  Cl  Cl64  1  0.25000000  0.65309900  0.39178400  1
  Cl  Cl65  1  0.25000000  0.84690100  0.89178400  1
  Cl  Cl66  1  0.75000000  0.34690100  0.60821600  1
  Cl  Cl67  1  0.75000000  0.15309900  0.10821600  1
  Cl  Cl68  1  0.25000000  0.28196000  0.47220000  1
  Cl  Cl69  1  0.25000000  0.21804000  0.97220000  1
  Cl  Cl70  1  0.75000000  0.71804000  0.52780000  1
  Cl  Cl71  1  0.75000000  0.78196000  0.02780000  1
