# generated using pymatgen
data_GaFeO3
_symmetry_space_group_name_H-M   'P 1'
_cell_length_a   5.16462200
_cell_length_b   8.85977321
_cell_length_c   9.53169730
_cell_angle_alpha   89.96400447
_cell_angle_beta   89.88732827
_cell_angle_gamma   89.93213573
_symmetry_Int_Tables_number   1
_chemical_formula_structural   GaFeO3
_chemical_formula_sum   'Ga8 Fe8 O24'
_cell_volume   436.14425735
_cell_formula_units_Z   8
loop_
 _symmetry_equiv_pos_site_id
 _symmetry_equiv_pos_as_xyz
  1  'x, y, z'
loop_
 _atom_site_type_symbol
 _atom_site_label
 _atom_site_symmetry_multiplicity
 _atom_site_fract_x
 _atom_site_fract_y
 _atom_site_fract_z
 _atom_site_occupancy
  Ga  Ga0  1  0.32298300  0.96630800  0.79675400  1
  Ga  Ga1  1  0.82440100  0.84694900  0.99890600  1
  Ga  Ga2  1  0.18574100  0.83905400  0.30598600  1
  Ga  Ga3  1  0.68529100  0.66143700  0.30596100  1
  Ga  Ga4  1  0.32361100  0.65364800  0.99881300  1
  Ga  Ga5  1  0.67532800  0.34819500  0.49914400  1
  Ga  Ga6  1  0.31307800  0.33930400  0.80650400  1
  Ga  Ga7  1  0.17694400  0.15264800  0.50000700  1
  Fe  Fe8  1  0.81205700  0.84816800  0.58278300  1
  Fe  Fe9  1  0.31006600  0.65316400  0.58317500  1
  Fe  Fe10  1  0.82358200  0.53092100  0.79764300  1
  Fe  Fe11  1  0.17555000  0.46938800  0.29780100  1
  Fe  Fe12  1  0.69006300  0.34844800  0.08233300  1
  Fe  Fe13  1  0.81238700  0.16044600  0.80731000  1
  Fe  Fe14  1  0.19109700  0.15157300  0.08279000  1
  Fe  Fe15  1  0.67552700  0.03037600  0.29821600  1
  O  O16  1  0.64783400  0.99793300  0.70314100  1
  O  O17  1  0.98631700  0.98917800  0.43229800  1
  O  O18  1  0.84615700  0.83944500  0.19662800  1
  O  O19  1  0.15375300  0.83072100  0.67309500  1
  O  O20  1  0.48471700  0.83204200  0.93845900  1
  O  O21  1  0.52522600  0.82353700  0.42239100  1
  O  O22  1  0.02495200  0.67859600  0.42381700  1
  O  O23  1  0.98442800  0.66877200  0.93972000  1
  O  O24  1  0.65380900  0.67017500  0.67106700  1
  O  O25  1  0.34600900  0.66110900  0.19648600  1
  O  O26  1  0.48589100  0.51219200  0.43139600  1
  O  O27  1  0.15488300  0.49767100  0.70148800  1
  O  O28  1  0.84401700  0.50210000  0.20298600  1
  O  O29  1  0.51288100  0.48910100  0.93178300  1
  O  O30  1  0.65234600  0.34107900  0.69643500  1
  O  O31  1  0.34667900  0.33022000  0.17213600  1
  O  O32  1  0.01514400  0.33052100  0.44021500  1
  O  O33  1  0.97871100  0.32566300  0.92540300  1
  O  O34  1  0.47383700  0.17751600  0.92406900  1
  O  O35  1  0.51562600  0.16964400  0.43990000  1
  O  O36  1  0.84537400  0.16848800  0.17001400  1
  O  O37  1  0.15689300  0.15828800  0.69765600  1
  O  O38  1  0.02280200  0.00792600  0.93078300  1
  O  O39  1  0.34400800  0.99805300  0.20290900  1
