# generated using pymatgen
data_K2USO7F2
_symmetry_space_group_name_H-M   'P 1'
_cell_length_a   8.74827400
_cell_length_b   9.35892000
_cell_length_c   11.15198045
_cell_angle_alpha   78.67518340
_cell_angle_beta   90.00000000
_cell_angle_gamma   90.00000000
_symmetry_Int_Tables_number   1
_chemical_formula_structural   K2USO7F2
_chemical_formula_sum   'K8 U4 S4 O28 F8'
_cell_volume   895.28408086
_cell_formula_units_Z   4
loop_
 _symmetry_equiv_pos_site_id
 _symmetry_equiv_pos_as_xyz
  1  'x, y, z'
loop_
 _atom_site_type_symbol
 _atom_site_label
 _atom_site_symmetry_multiplicity
 _atom_site_fract_x
 _atom_site_fract_y
 _atom_site_fract_z
 _atom_site_occupancy
  K  K0  1  0.97590800  0.58352100  0.69689900  1
  K  K1  1  0.47590800  0.41647900  0.80310100  1
  K  K2  1  0.02409200  0.41647900  0.30310100  1
  K  K3  1  0.52409200  0.58352100  0.19689900  1
  K  K4  1  0.95325300  0.07857200  0.64813100  1
  K  K5  1  0.45325300  0.92142800  0.85186900  1
  K  K6  1  0.04674700  0.92142800  0.35186900  1
  K  K7  1  0.54674700  0.07857200  0.14813100  1
  U  U8  1  0.60549000  0.80979200  0.51133800  1
  U  U9  1  0.10549000  0.19020800  0.98866200  1
  U  U10  1  0.39451000  0.19020800  0.48866200  1
  U  U11  1  0.89451000  0.80979200  0.01133800  1
  S  S12  1  0.27444300  0.57173000  0.49387300  1
  S  S13  1  0.77444300  0.42827000  0.00612700  1
  S  S14  1  0.72555700  0.42827000  0.50612700  1
  S  S15  1  0.22555700  0.57173000  0.99387300  1
  O  O16  1  0.54756400  0.76694600  0.67063000  1
  O  O17  1  0.04756400  0.23305400  0.82937000  1
  O  O18  1  0.45243600  0.23305400  0.32937000  1
  O  O19  1  0.95243600  0.76694600  0.17063000  1
  O  O20  1  0.65799700  0.85429800  0.34964800  1
  O  O21  1  0.15799700  0.14570200  0.15035200  1
  O  O22  1  0.34200300  0.14570200  0.65035200  1
  O  O23  1  0.84200300  0.85429800  0.84964800  1
  O  O24  1  0.41354500  0.65858800  0.44119300  1
  O  O25  1  0.91354500  0.34141200  0.05880700  1
  O  O26  1  0.58645500  0.34141200  0.55880700  1
  O  O27  1  0.08645500  0.65858800  0.94119300  1
  O  O28  1  0.13381100  0.64510600  0.44309400  1
  O  O29  1  0.63381100  0.35489400  0.05690600  1
  O  O30  1  0.86618900  0.35489400  0.55690600  1
  O  O31  1  0.36618900  0.64510600  0.94309400  1
  O  O32  1  0.28557500  0.42802800  0.45156400  1
  O  O33  1  0.78557500  0.57197200  0.04843600  1
  O  O34  1  0.71442500  0.57197200  0.54843600  1
  O  O35  1  0.21442500  0.42802800  0.95156400  1
  O  O36  1  0.27664400  0.54651600  0.62834900  1
  O  O37  1  0.77664400  0.45348400  0.87165100  1
  O  O38  1  0.72335600  0.45348400  0.37165100  1
  O  O39  1  0.22335600  0.54651600  0.12834900  1
  O  O40  1  0.68848200  0.16075600  0.78831900  1
  O  O41  1  0.18848200  0.83924400  0.71168100  1
  O  O42  1  0.31151800  0.83924400  0.21168100  1
  O  O43  1  0.81151800  0.16075600  0.28831900  1
  F  F44  1  0.62489800  0.05298000  0.52987000  1
  F  F45  1  0.12489800  0.94702000  0.97013000  1
  F  F46  1  0.37510200  0.94702000  0.47013000  1
  F  F47  1  0.87510200  0.05298000  0.02987000  1
  F  F48  1  0.84855300  0.84525200  0.55457600  1
  F  F49  1  0.34855300  0.15474800  0.94542400  1
  F  F50  1  0.15144700  0.15474800  0.44542400  1
  F  F51  1  0.65144700  0.84525200  0.05457600  1
