# generated using pymatgen
data_Eu5Mg
_symmetry_space_group_name_H-M   'P 1'
_cell_length_a   6.61345745
_cell_length_b   6.61345745
_cell_length_c   6.13389900
_cell_angle_alpha   90.00000000
_cell_angle_beta   90.00000000
_cell_angle_gamma   119.99999450
_symmetry_Int_Tables_number   1
_chemical_formula_structural   Eu5Mg
_chemical_formula_sum   'Eu5 Mg1'
_cell_volume   232.34022408
_cell_formula_units_Z   1
loop_
 _symmetry_equiv_pos_site_id
 _symmetry_equiv_pos_as_xyz
  1  'x, y, z'
loop_
 _atom_site_type_symbol
 _atom_site_label
 _atom_site_symmetry_multiplicity
 _atom_site_fract_x
 _atom_site_fract_y
 _atom_site_fract_z
 _atom_site_occupancy
  Eu  Eu0  1  0.33333300  0.66666700  0.50000000  1
  Eu  Eu1  1  0.00000000  0.67818900  0.00000000  1
  Eu  Eu2  1  0.67818900  0.00000000  0.00000000  1
  Eu  Eu3  1  0.32181100  0.32181100  0.00000000  1
  Eu  Eu4  1  0.66666700  0.33333300  0.50000000  1
  Mg  Mg5  1  0.00000000  0.00000000  0.50000000  1
