# generated using pymatgen
data_Te2MoW2(SeS)2
_symmetry_space_group_name_H-M   'P 1'
_cell_length_a   3.35126421
_cell_length_b   3.35126421
_cell_length_c   31.04885200
_cell_angle_alpha   90.00000000
_cell_angle_beta   90.00000000
_cell_angle_gamma   120.00000412
_symmetry_Int_Tables_number   1
_chemical_formula_structural   Te2MoW2(SeS)2
_chemical_formula_sum   'Te2 Mo1 W2 Se2 S2'
_cell_volume   301.99065046
_cell_formula_units_Z   1
loop_
 _symmetry_equiv_pos_site_id
 _symmetry_equiv_pos_as_xyz
  1  'x, y, z'
loop_
 _atom_site_type_symbol
 _atom_site_label
 _atom_site_symmetry_multiplicity
 _atom_site_fract_x
 _atom_site_fract_y
 _atom_site_fract_z
 _atom_site_occupancy
  Te  Te0  1  0.00000000  0.00000000  0.40832200  1
  Te  Te1  1  0.00000000  0.00000000  0.28554800  1
  Mo  Mo2  1  0.00000000  0.00000000  0.11564800  1
  W  W3  1  0.00000000  0.00000000  0.57837200  1
  W  W4  1  0.33333300  0.66666700  0.34693500  1
  Se  Se5  1  0.33333300  0.66666700  0.52445600  1
  Se  Se6  1  0.33333300  0.66666700  0.63226300  1
  S  S7  1  0.33333300  0.66666700  0.06684800  1
  S  S8  1  0.33333300  0.66666700  0.16445000  1
