# generated using pymatgen
data_ZrPdF6
_symmetry_space_group_name_H-M   'P 1'
_cell_length_a   5.90583406
_cell_length_b   5.90583406
_cell_length_c   5.90583403
_cell_angle_alpha   57.30451489
_cell_angle_beta   57.30451489
_cell_angle_gamma   57.30452020
_symmetry_Int_Tables_number   1
_chemical_formula_structural   ZrPdF6
_chemical_formula_sum   'Zr1 Pd1 F6'
_cell_volume   136.61715934
_cell_formula_units_Z   1
loop_
 _symmetry_equiv_pos_site_id
 _symmetry_equiv_pos_as_xyz
  1  'x, y, z'
loop_
 _atom_site_type_symbol
 _atom_site_label
 _atom_site_symmetry_multiplicity
 _atom_site_fract_x
 _atom_site_fract_y
 _atom_site_fract_z
 _atom_site_occupancy
  Zr  Zr0  1  0.50000000  0.50000000  0.50000000  1
  Pd  Pd1  1  0.00000000  0.00000000  0.00000000  1
  F  F2  1  0.25885000  0.64304900  0.83798400  1
  F  F3  1  0.83798400  0.25885000  0.64304900  1
  F  F4  1  0.35695100  0.16201600  0.74115000  1
  F  F5  1  0.16201600  0.74115000  0.35695100  1
  F  F6  1  0.74115000  0.35695100  0.16201600  1
  F  F7  1  0.64304900  0.83798400  0.25885000  1
