# generated using pymatgen
data_KRb2ScF6
_symmetry_space_group_name_H-M   'P 1'
_cell_length_a   6.49460125
_cell_length_b   6.49460125
_cell_length_c   6.49460125
_cell_angle_alpha   120.78894973
_cell_angle_beta   120.78894973
_cell_angle_gamma   88.63884587
_symmetry_Int_Tables_number   1
_chemical_formula_structural   KRb2ScF6
_chemical_formula_sum   'K1 Rb2 Sc1 F6'
_cell_volume   191.33722021
_cell_formula_units_Z   1
loop_
 _symmetry_equiv_pos_site_id
 _symmetry_equiv_pos_as_xyz
  1  'x, y, z'
loop_
 _atom_site_type_symbol
 _atom_site_label
 _atom_site_symmetry_multiplicity
 _atom_site_fract_x
 _atom_site_fract_y
 _atom_site_fract_z
 _atom_site_occupancy
  K  K0  1  0.50000000  0.50000000  0.00000000  1
  Rb  Rb1  1  0.75000000  0.25000000  0.50000000  1
  Rb  Rb2  1  0.25000000  0.75000000  0.50000000  1
  Sc  Sc3  1  0.00000000  0.00000000  0.00000000  1
  F  F4  1  0.15969600  0.27528100  0.43497600  1
  F  F5  1  0.72471900  0.15969600  0.88441500  1
  F  F6  1  0.27528100  0.84030400  0.11558500  1
  F  F7  1  0.84030400  0.72471900  0.56502400  1
  F  F8  1  0.77977100  0.77977100  0.00000000  1
  F  F9  1  0.22022900  0.22022900  0.00000000  1
