# generated using pymatgen
data_Eu2BIN2
_symmetry_space_group_name_H-M   'P 1'
_cell_length_a   10.24126248
_cell_length_b   4.15600850
_cell_length_c   13.17440381
_cell_angle_alpha   90.63954037
_cell_angle_beta   91.14915462
_cell_angle_gamma   91.00724369
_symmetry_Int_Tables_number   1
_chemical_formula_structural   Eu2BIN2
_chemical_formula_sum   'Eu8 B4 I4 N8'
_cell_volume   560.50257791
_cell_formula_units_Z   4
loop_
 _symmetry_equiv_pos_site_id
 _symmetry_equiv_pos_as_xyz
  1  'x, y, z'
loop_
 _atom_site_type_symbol
 _atom_site_label
 _atom_site_symmetry_multiplicity
 _atom_site_fract_x
 _atom_site_fract_y
 _atom_site_fract_z
 _atom_site_occupancy
  Eu  Eu0  1  0.60692000  0.27748800  0.82385900  1
  Eu  Eu1  1  0.39308000  0.72251200  0.17614100  1
  Eu  Eu2  1  0.07913800  0.25169200  0.90550600  1
  Eu  Eu3  1  0.92086200  0.74830800  0.09449400  1
  Eu  Eu4  1  0.19684800  0.23888100  0.39022600  1
  Eu  Eu5  1  0.80315100  0.76112200  0.60977400  1
  Eu  Eu6  1  0.65203200  0.23715500  0.36361400  1
  Eu  Eu7  1  0.34796700  0.76284300  0.63638500  1
  B  B8  1  0.15799200  0.23524900  0.15058400  1
  B  B9  1  0.84200800  0.76475100  0.84941500  1
  B  B10  1  0.58136700  0.25981200  0.60198800  1
  B  B11  1  0.41863300  0.74018700  0.39801100  1
  I  I12  1  0.07604700  0.25422600  0.64311600  1
  I  I13  1  0.92395200  0.74577600  0.35688400  1
  I  I14  1  0.64941500  0.24103000  0.09196100  1
  I  I15  1  0.35058500  0.75896900  0.90803800  1
  N  N16  1  0.26575900  0.21616100  0.21129200  1
  N  N17  1  0.73424100  0.78383900  0.78870900  1
  N  N18  1  0.47709600  0.27229600  0.66312900  1
  N  N19  1  0.52290500  0.72770300  0.33687100  1
  N  N20  1  0.69218000  0.24866200  0.54799700  1
  N  N21  1  0.30782000  0.75133800  0.45200300  1
  N  N22  1  0.05091500  0.25704300  0.09005700  1
  N  N23  1  0.94908300  0.74295800  0.90994400  1
