# generated using pymatgen
data_Y4C7
_symmetry_space_group_name_H-M   'P 1'
_cell_length_a   13.77382800
_cell_length_b   3.72263600
_cell_length_c   6.48688420
_cell_angle_alpha   75.26329214
_cell_angle_beta   90.00000000
_cell_angle_gamma   90.00000000
_symmetry_Int_Tables_number   1
_chemical_formula_structural   Y4C7
_chemical_formula_sum   'Y8 C14'
_cell_volume   321.67328354
_cell_formula_units_Z   2
loop_
 _symmetry_equiv_pos_site_id
 _symmetry_equiv_pos_as_xyz
  1  'x, y, z'
loop_
 _atom_site_type_symbol
 _atom_site_label
 _atom_site_symmetry_multiplicity
 _atom_site_fract_x
 _atom_site_fract_y
 _atom_site_fract_z
 _atom_site_occupancy
  Y  Y0  1  0.94491300  0.36628200  0.26101500  1
  Y  Y1  1  0.44491300  0.63371800  0.23898500  1
  Y  Y2  1  0.05508700  0.63371800  0.73898500  1
  Y  Y3  1  0.55508700  0.36628200  0.76101500  1
  Y  Y4  1  0.66256700  0.05604900  0.33976100  1
  Y  Y5  1  0.16256700  0.94395100  0.16023900  1
  Y  Y6  1  0.33743300  0.94395100  0.66023900  1
  Y  Y7  1  0.83743300  0.05604900  0.83976100  1
  C  C8  1  0.50000000  0.00000000  0.50000000  1
  C  C9  1  0.00000000  0.00000000  0.00000000  1
  C  C10  1  0.78420700  0.46914500  0.07648700  1
  C  C11  1  0.28420700  0.53085500  0.42351300  1
  C  C12  1  0.21579300  0.53085500  0.92351300  1
  C  C13  1  0.71579300  0.46914500  0.57648700  1
  C  C14  1  0.19660100  0.37844000  0.45287100  1
  C  C15  1  0.69660100  0.62156000  0.04712900  1
  C  C16  1  0.39538900  0.26741800  0.94953900  1
  C  C17  1  0.89538900  0.73258200  0.55046100  1
  C  C18  1  0.60461100  0.73258200  0.05046100  1
  C  C19  1  0.10461100  0.26741800  0.44953900  1
  C  C20  1  0.30339900  0.37844000  0.95287100  1
  C  C21  1  0.80339900  0.62156000  0.54712900  1
