# generated using pymatgen
data_GeAs
_symmetry_space_group_name_H-M   'P 1'
_cell_length_a   8.54258714
_cell_length_b   8.54258714
_cell_length_c   9.90234846
_cell_angle_alpha   75.56665429
_cell_angle_beta   75.56665429
_cell_angle_gamma   25.93068821
_symmetry_Int_Tables_number   1
_chemical_formula_structural   GeAs
_chemical_formula_sum   'Ge6 As6'
_cell_volume   305.48388041
_cell_formula_units_Z   6
loop_
 _symmetry_equiv_pos_site_id
 _symmetry_equiv_pos_as_xyz
  1  'x, y, z'
loop_
 _atom_site_type_symbol
 _atom_site_label
 _atom_site_symmetry_multiplicity
 _atom_site_fract_x
 _atom_site_fract_y
 _atom_site_fract_z
 _atom_site_occupancy
  Ge  Ge0  1  0.74018700  0.74018700  0.21004400  1
  Ge  Ge1  1  0.25981300  0.25981300  0.78995600  1
  Ge  Ge2  1  0.63070400  0.63070400  0.07971200  1
  Ge  Ge3  1  0.36929600  0.36929600  0.92028800  1
  Ge  Ge4  1  0.06745000  0.06745000  0.40864300  1
  Ge  Ge5  1  0.93255000  0.93255000  0.59135700  1
  As  As6  1  0.33889700  0.33889700  0.17980500  1
  As  As7  1  0.66110300  0.66110300  0.82019500  1
  As  As8  1  0.03670100  0.03670100  0.17261400  1
  As  As9  1  0.96329900  0.96329900  0.82738600  1
  As  As10  1  0.65354700  0.65354700  0.45388400  1
  As  As11  1  0.34645300  0.34645300  0.54611600  1
