# generated using pymatgen
data_EuAg3
_symmetry_space_group_name_H-M   'P 1'
_cell_length_a   6.75436553
_cell_length_b   6.75436553
_cell_length_c   4.82799200
_cell_angle_alpha   90.00000000
_cell_angle_beta   90.00000000
_cell_angle_gamma   119.99999540
_symmetry_Int_Tables_number   1
_chemical_formula_structural   EuAg3
_chemical_formula_sum   'Eu2 Ag6'
_cell_volume   190.75077603
_cell_formula_units_Z   2
loop_
 _symmetry_equiv_pos_site_id
 _symmetry_equiv_pos_as_xyz
  1  'x, y, z'
loop_
 _atom_site_type_symbol
 _atom_site_label
 _atom_site_symmetry_multiplicity
 _atom_site_fract_x
 _atom_site_fract_y
 _atom_site_fract_z
 _atom_site_occupancy
  Eu  Eu0  1  0.33333300  0.66666700  0.75000000  1
  Eu  Eu1  1  0.66666700  0.33333300  0.25000000  1
  Ag  Ag2  1  0.14391900  0.28783800  0.25000000  1
  Ag  Ag3  1  0.71216200  0.85608100  0.25000000  1
  Ag  Ag4  1  0.14391900  0.85608100  0.25000000  1
  Ag  Ag5  1  0.85608100  0.71216200  0.75000000  1
  Ag  Ag6  1  0.28783800  0.14391900  0.75000000  1
  Ag  Ag7  1  0.85608100  0.14391900  0.75000000  1
