# generated using pymatgen
data_ZnPb3
_symmetry_space_group_name_H-M   'P 1'
_cell_length_a   6.86768553
_cell_length_b   6.86768553
_cell_length_c   5.59983500
_cell_angle_alpha   90.00000000
_cell_angle_beta   90.00000000
_cell_angle_gamma   119.99999548
_symmetry_Int_Tables_number   1
_chemical_formula_structural   ZnPb3
_chemical_formula_sum   'Zn2 Pb6'
_cell_volume   228.73187161
_cell_formula_units_Z   2
loop_
 _symmetry_equiv_pos_site_id
 _symmetry_equiv_pos_as_xyz
  1  'x, y, z'
loop_
 _atom_site_type_symbol
 _atom_site_label
 _atom_site_symmetry_multiplicity
 _atom_site_fract_x
 _atom_site_fract_y
 _atom_site_fract_z
 _atom_site_occupancy
  Zn  Zn0  1  0.33333300  0.66666700  0.75000000  1
  Zn  Zn1  1  0.66666700  0.33333300  0.25000000  1
  Pb  Pb2  1  0.17068300  0.34136700  0.25000000  1
  Pb  Pb3  1  0.65863300  0.82931700  0.25000000  1
  Pb  Pb4  1  0.17068300  0.82931700  0.25000000  1
  Pb  Pb5  1  0.82931700  0.65863300  0.75000000  1
  Pb  Pb6  1  0.34136700  0.17068300  0.75000000  1
  Pb  Pb7  1  0.82931700  0.17068300  0.75000000  1
