# generated using pymatgen
data_YbGe3
_symmetry_space_group_name_H-M   'P 1'
_cell_length_a   6.15410365
_cell_length_b   6.15410365
_cell_length_c   4.98783000
_cell_angle_alpha   90.00000000
_cell_angle_beta   90.00000000
_cell_angle_gamma   119.99999626
_symmetry_Int_Tables_number   1
_chemical_formula_structural   YbGe3
_chemical_formula_sum   'Yb2 Ge6'
_cell_volume   163.59570758
_cell_formula_units_Z   2
loop_
 _symmetry_equiv_pos_site_id
 _symmetry_equiv_pos_as_xyz
  1  'x, y, z'
loop_
 _atom_site_type_symbol
 _atom_site_label
 _atom_site_symmetry_multiplicity
 _atom_site_fract_x
 _atom_site_fract_y
 _atom_site_fract_z
 _atom_site_occupancy
  Yb  Yb0  1  0.33333300  0.66666700  0.75000000  1
  Yb  Yb1  1  0.66666700  0.33333300  0.25000000  1
  Ge  Ge2  1  0.14718300  0.29436600  0.25000000  1
  Ge  Ge3  1  0.70563400  0.85281700  0.25000000  1
  Ge  Ge4  1  0.14718300  0.85281700  0.25000000  1
  Ge  Ge5  1  0.85281700  0.70563400  0.75000000  1
  Ge  Ge6  1  0.29436600  0.14718300  0.75000000  1
  Ge  Ge7  1  0.85281700  0.14718300  0.75000000  1
