# generated using pymatgen
data_Eu3Ta
_symmetry_space_group_name_H-M   'P 1'
_cell_length_a   5.96079409
_cell_length_b   5.96079409
_cell_length_c   5.96079409
_cell_angle_alpha   130.29276696
_cell_angle_beta   130.29276696
_cell_angle_gamma   72.93916062
_symmetry_Int_Tables_number   1
_chemical_formula_structural   Eu3Ta
_chemical_formula_sum   'Eu3 Ta1'
_cell_volume   120.34920756
_cell_formula_units_Z   1
loop_
 _symmetry_equiv_pos_site_id
 _symmetry_equiv_pos_as_xyz
  1  'x, y, z'
loop_
 _atom_site_type_symbol
 _atom_site_label
 _atom_site_symmetry_multiplicity
 _atom_site_fract_x
 _atom_site_fract_y
 _atom_site_fract_z
 _atom_site_occupancy
  Eu  Eu0  1  0.75000200  0.25000100  0.50000100  1
  Eu  Eu1  1  0.25000100  0.75000200  0.50000100  1
  Eu  Eu2  1  0.49999900  0.49999900  0.00000000  1
  Ta  Ta3  1  0.00000000  0.00000000  0.00000000  1
