# generated using pymatgen
data_Y(Mg4Al3)4
_symmetry_space_group_name_H-M   'P 1'
_cell_length_a   9.12389459
_cell_length_b   9.12389459
_cell_length_c   9.12389459
_cell_angle_alpha   109.47122063
_cell_angle_beta   109.47122063
_cell_angle_gamma   109.47122063
_symmetry_Int_Tables_number   1
_chemical_formula_structural   Y(Mg4Al3)4
_chemical_formula_sum   'Y1 Mg16 Al12'
_cell_volume   584.68087374
_cell_formula_units_Z   1
loop_
 _symmetry_equiv_pos_site_id
 _symmetry_equiv_pos_as_xyz
  1  'x, y, z'
loop_
 _atom_site_type_symbol
 _atom_site_label
 _atom_site_symmetry_multiplicity
 _atom_site_fract_x
 _atom_site_fract_y
 _atom_site_fract_z
 _atom_site_occupancy
  Y  Y0  1  0.00000000  0.00000000  0.00000000  1
  Mg  Mg1  1  0.31920000  0.60272600  0.00000000  1
  Mg  Mg2  1  0.35785400  0.00000000  0.00000000  1
  Mg  Mg3  1  0.00000000  0.35785400  0.00000000  1
  Mg  Mg4  1  0.60272600  0.31920000  0.00000000  1
  Mg  Mg5  1  0.39727400  0.39727400  0.71647400  1
  Mg  Mg6  1  0.68080000  0.28352600  0.68080000  1
  Mg  Mg7  1  0.28352600  0.68080000  0.68080000  1
  Mg  Mg8  1  0.64214600  0.64214600  0.64214600  1
  Mg  Mg9  1  0.00000000  0.31920000  0.60272600  1
  Mg  Mg10  1  0.31920000  0.00000000  0.60272600  1
  Mg  Mg11  1  0.71647400  0.39727400  0.39727400  1
  Mg  Mg12  1  0.39727400  0.71647400  0.39727400  1
  Mg  Mg13  1  0.00000000  0.00000000  0.35785400  1
  Mg  Mg14  1  0.00000000  0.60272600  0.31920000  1
  Mg  Mg15  1  0.60272600  0.00000000  0.31920000  1
  Mg  Mg16  1  0.68080000  0.68080000  0.28352600  1
  Al  Al17  1  0.63162500  0.81313600  0.00000000  1
  Al  Al18  1  0.81313600  0.63162500  0.00000000  1
  Al  Al19  1  0.18686400  0.18686400  0.81848900  1
  Al  Al20  1  0.00000000  0.63162500  0.81313600  1
  Al  Al21  1  0.63162500  0.00000000  0.81313600  1
  Al  Al22  1  0.81313600  0.00000000  0.63162500  1
  Al  Al23  1  0.00000000  0.81313600  0.63162500  1
  Al  Al24  1  0.36837500  0.18151100  0.36837500  1
  Al  Al25  1  0.18151100  0.36837500  0.36837500  1
  Al  Al26  1  0.81848900  0.18686400  0.18686400  1
  Al  Al27  1  0.18686400  0.81848900  0.18686400  1
  Al  Al28  1  0.36837500  0.36837500  0.18151100  1
