# generated using pymatgen
data_ScSn3
_symmetry_space_group_name_H-M   'P 1'
_cell_length_a   6.35622944
_cell_length_b   6.35622944
_cell_length_c   5.74645900
_cell_angle_alpha   90.00000000
_cell_angle_beta   90.00000000
_cell_angle_gamma   119.99999412
_symmetry_Int_Tables_number   1
_chemical_formula_structural   ScSn3
_chemical_formula_sum   'Sc2 Sn6'
_cell_volume   201.06204719
_cell_formula_units_Z   2
loop_
 _symmetry_equiv_pos_site_id
 _symmetry_equiv_pos_as_xyz
  1  'x, y, z'
loop_
 _atom_site_type_symbol
 _atom_site_label
 _atom_site_symmetry_multiplicity
 _atom_site_fract_x
 _atom_site_fract_y
 _atom_site_fract_z
 _atom_site_occupancy
  Sc  Sc0  1  0.33333300  0.66666700  0.75000000  1
  Sc  Sc1  1  0.66666700  0.33333300  0.25000000  1
  Sn  Sn2  1  0.16791100  0.33582100  0.25000000  1
  Sn  Sn3  1  0.66417900  0.83208900  0.25000000  1
  Sn  Sn4  1  0.16791100  0.83208900  0.25000000  1
  Sn  Sn5  1  0.83208900  0.66417900  0.75000000  1
  Sn  Sn6  1  0.33582100  0.16791100  0.75000000  1
  Sn  Sn7  1  0.83208900  0.16791100  0.75000000  1
