# generated using pymatgen
data_Ge3P
_symmetry_space_group_name_H-M   'P 1'
_cell_length_a   5.90530152
_cell_length_b   5.90530152
_cell_length_c   4.85463800
_cell_angle_alpha   90.00000000
_cell_angle_beta   90.00000000
_cell_angle_gamma   119.99999467
_symmetry_Int_Tables_number   1
_chemical_formula_structural   Ge3P
_chemical_formula_sum   'Ge6 P2'
_cell_volume   146.61272345
_cell_formula_units_Z   2
loop_
 _symmetry_equiv_pos_site_id
 _symmetry_equiv_pos_as_xyz
  1  'x, y, z'
loop_
 _atom_site_type_symbol
 _atom_site_label
 _atom_site_symmetry_multiplicity
 _atom_site_fract_x
 _atom_site_fract_y
 _atom_site_fract_z
 _atom_site_occupancy
  Ge  Ge0  1  0.83010400  0.16989600  0.75000000  1
  Ge  Ge1  1  0.33979100  0.16989600  0.75000000  1
  Ge  Ge2  1  0.83010400  0.66020900  0.75000000  1
  Ge  Ge3  1  0.16989600  0.83010400  0.25000000  1
  Ge  Ge4  1  0.66020900  0.83010400  0.25000000  1
  Ge  Ge5  1  0.16989600  0.33979100  0.25000000  1
  P  P6  1  0.66666700  0.33333300  0.25000000  1
  P  P7  1  0.33333300  0.66666700  0.75000000  1
