# generated using pymatgen
data_OsN2
_symmetry_space_group_name_H-M   'P 1'
_cell_length_a   2.82418889
_cell_length_b   2.82418889
_cell_length_c   4.96432300
_cell_angle_alpha   90.00000000
_cell_angle_beta   90.00000000
_cell_angle_gamma   119.99997393
_symmetry_Int_Tables_number   1
_chemical_formula_structural   OsN2
_chemical_formula_sum   'Os1 N2'
_cell_volume   34.29085044
_cell_formula_units_Z   1
loop_
 _symmetry_equiv_pos_site_id
 _symmetry_equiv_pos_as_xyz
  1  'x, y, z'
loop_
 _atom_site_type_symbol
 _atom_site_label
 _atom_site_symmetry_multiplicity
 _atom_site_fract_x
 _atom_site_fract_y
 _atom_site_fract_z
 _atom_site_occupancy
  Os  Os0  1  0.00000000  0.00000000  0.00000000  1
  N  N1  1  0.00000000  0.00000000  0.38356700  1
  N  N2  1  0.00000000  0.00000000  0.61643300  1
