# generated using pymatgen
data_Hg2H6CN3Cl5
_symmetry_space_group_name_H-M   'P 1'
_cell_length_a   8.07762432
_cell_length_b   8.07762432
_cell_length_c   18.54015100
_cell_angle_alpha   90.00000000
_cell_angle_beta   90.00000000
_cell_angle_gamma   150.74101402
_symmetry_Int_Tables_number   1
_chemical_formula_structural   Hg2H6CN3Cl5
_chemical_formula_sum   'Hg4 H12 C2 N6 Cl10'
_cell_volume   591.25457284
_cell_formula_units_Z   2
loop_
 _symmetry_equiv_pos_site_id
 _symmetry_equiv_pos_as_xyz
  1  'x, y, z'
loop_
 _atom_site_type_symbol
 _atom_site_label
 _atom_site_symmetry_multiplicity
 _atom_site_fract_x
 _atom_site_fract_y
 _atom_site_fract_z
 _atom_site_occupancy
  Hg  Hg0  1  0.98712000  0.71947100  0.96234000  1
  Hg  Hg1  1  0.01288000  0.28052900  0.46234000  1
  Hg  Hg2  1  0.71947100  0.98712000  0.03766000  1
  Hg  Hg3  1  0.28052900  0.01288000  0.53766000  1
  H  H4  1  0.42877800  0.41360100  0.18682100  1
  H  H5  1  0.57122200  0.58639900  0.68682100  1
  H  H6  1  0.41360100  0.42877800  0.81317900  1
  H  H7  1  0.58639900  0.57122200  0.31317900  1
  H  H8  1  0.66537500  0.19750900  0.20615600  1
  H  H9  1  0.33462500  0.80249100  0.70615600  1
  H  H10  1  0.19750900  0.66537500  0.79384400  1
  H  H11  1  0.80249100  0.33462500  0.29384400  1
  H  H12  1  0.36504500  0.16099800  0.15259000  1
  H  H13  1  0.63495500  0.83900200  0.65259000  1
  H  H14  1  0.16099800  0.36504500  0.84741000  1
  H  H15  1  0.83900200  0.63495500  0.34741000  1
  C  C16  1  0.61352000  0.38648000  0.25000000  1
  C  C17  1  0.38648000  0.61352000  0.75000000  1
  N  N18  1  0.69929400  0.30070600  0.25000000  1
  N  N19  1  0.30070600  0.69929400  0.75000000  1
  N  N20  1  0.44044200  0.29908000  0.19439800  1
  N  N21  1  0.55955800  0.70092000  0.69439800  1
  N  N22  1  0.29908000  0.44044200  0.80560200  1
  N  N23  1  0.70092000  0.55955800  0.30560200  1
  Cl  Cl24  1  0.35571200  0.35571200  0.00000000  1
  Cl  Cl25  1  0.64428800  0.64428800  0.50000000  1
  Cl  Cl26  1  0.08169800  0.68324600  0.07803700  1
  Cl  Cl27  1  0.91830200  0.31675400  0.57803700  1
  Cl  Cl28  1  0.68324600  0.08169800  0.92196300  1
  Cl  Cl29  1  0.31675400  0.91830200  0.42196300  1
  Cl  Cl30  1  0.94533800  0.72187300  0.83650400  1
  Cl  Cl31  1  0.05466200  0.27812700  0.33650400  1
  Cl  Cl32  1  0.72187300  0.94533800  0.16349600  1
  Cl  Cl33  1  0.27812700  0.05466200  0.66349600  1
