# generated using pymatgen
data_HgN
_symmetry_space_group_name_H-M   'P 1'
_cell_length_a   3.63525236
_cell_length_b   3.63525236
_cell_length_c   6.14091100
_cell_angle_alpha   90.00000000
_cell_angle_beta   90.00000000
_cell_angle_gamma   120.00000660
_symmetry_Int_Tables_number   1
_chemical_formula_structural   HgN
_chemical_formula_sum   'Hg2 N2'
_cell_volume   70.28012687
_cell_formula_units_Z   2
loop_
 _symmetry_equiv_pos_site_id
 _symmetry_equiv_pos_as_xyz
  1  'x, y, z'
loop_
 _atom_site_type_symbol
 _atom_site_label
 _atom_site_symmetry_multiplicity
 _atom_site_fract_x
 _atom_site_fract_y
 _atom_site_fract_z
 _atom_site_occupancy
  Hg  Hg0  1  0.66666700  0.33333300  0.50826500  1
  Hg  Hg1  1  0.33333300  0.66666700  0.00826500  1
  N  N2  1  0.66666700  0.33333300  0.86673300  1
  N  N3  1  0.33333300  0.66666700  0.36673300  1
