# generated using pymatgen
data_NiPd3
_symmetry_space_group_name_H-M   'P 1'
_cell_length_a   5.38998034
_cell_length_b   5.38998034
_cell_length_c   4.42051400
_cell_angle_alpha   90.00000000
_cell_angle_beta   90.00000000
_cell_angle_gamma   120.00000419
_symmetry_Int_Tables_number   1
_chemical_formula_structural   NiPd3
_chemical_formula_sum   'Ni2 Pd6'
_cell_volume   111.21868250
_cell_formula_units_Z   2
loop_
 _symmetry_equiv_pos_site_id
 _symmetry_equiv_pos_as_xyz
  1  'x, y, z'
loop_
 _atom_site_type_symbol
 _atom_site_label
 _atom_site_symmetry_multiplicity
 _atom_site_fract_x
 _atom_site_fract_y
 _atom_site_fract_z
 _atom_site_occupancy
  Ni  Ni0  1  0.66666700  0.33333300  0.25000000  1
  Ni  Ni1  1  0.33333300  0.66666700  0.75000000  1
  Pd  Pd2  1  0.83070500  0.16929500  0.75000000  1
  Pd  Pd3  1  0.33859000  0.16929500  0.75000000  1
  Pd  Pd4  1  0.83070500  0.66141000  0.75000000  1
  Pd  Pd5  1  0.16929500  0.83070500  0.25000000  1
  Pd  Pd6  1  0.66141000  0.83070500  0.25000000  1
  Pd  Pd7  1  0.16929500  0.33859000  0.25000000  1
