# generated using pymatgen
data_Rb2MgH4
_symmetry_space_group_name_H-M   'P 1'
_cell_length_a   6.66655490
_cell_length_b   6.66655490
_cell_length_c   8.80872700
_cell_angle_alpha   90.00000000
_cell_angle_beta   90.00000000
_cell_angle_gamma   103.79332763
_symmetry_Int_Tables_number   1
_chemical_formula_structural   Rb2MgH4
_chemical_formula_sum   'Rb4 Mg2 H8'
_cell_volume   380.19620232
_cell_formula_units_Z   2
loop_
 _symmetry_equiv_pos_site_id
 _symmetry_equiv_pos_as_xyz
  1  'x, y, z'
loop_
 _atom_site_type_symbol
 _atom_site_label
 _atom_site_symmetry_multiplicity
 _atom_site_fract_x
 _atom_site_fract_y
 _atom_site_fract_z
 _atom_site_occupancy
  Rb  Rb0  1  0.50000000  0.50000000  0.50000000  1
  Rb  Rb1  1  0.50000000  0.50000000  0.00000000  1
  Rb  Rb2  1  0.90951300  0.09048700  0.75000000  1
  Rb  Rb3  1  0.09048700  0.90951300  0.25000000  1
  Mg  Mg4  1  0.25584200  0.74415800  0.75000000  1
  Mg  Mg5  1  0.74415800  0.25584200  0.25000000  1
  H  H6  1  0.54572700  0.78584300  0.75000000  1
  H  H7  1  0.78584300  0.54572700  0.25000000  1
  H  H8  1  0.83846100  0.16153900  0.07343100  1
  H  H9  1  0.83846100  0.16153900  0.42656900  1
  H  H10  1  0.16153900  0.83846100  0.92656900  1
  H  H11  1  0.16153900  0.83846100  0.57343100  1
  H  H12  1  0.21415700  0.45427300  0.75000000  1
  H  H13  1  0.45427300  0.21415700  0.25000000  1
