# generated using pymatgen
data_ThGeO4
_symmetry_space_group_name_H-M   'P 1'
_cell_length_a   6.86933671
_cell_length_b   6.86933671
_cell_length_c   6.86933671
_cell_angle_alpha   135.59923585
_cell_angle_beta   135.59923585
_cell_angle_gamma   64.60053513
_symmetry_Int_Tables_number   1
_chemical_formula_structural   ThGeO4
_chemical_formula_sum   'Th2 Ge2 O8'
_cell_volume   156.46825859
_cell_formula_units_Z   2
loop_
 _symmetry_equiv_pos_site_id
 _symmetry_equiv_pos_as_xyz
  1  'x, y, z'
loop_
 _atom_site_type_symbol
 _atom_site_label
 _atom_site_symmetry_multiplicity
 _atom_site_fract_x
 _atom_site_fract_y
 _atom_site_fract_z
 _atom_site_occupancy
  Th  Th0  1  0.50000000  0.50000000  0.00000000  1
  Th  Th1  1  0.25000000  0.75000000  0.50000000  1
  Ge  Ge2  1  0.00000000  0.00000000  0.00000000  1
  Ge  Ge3  1  0.75000000  0.25000000  0.50000000  1
  O  O4  1  0.22917200  0.82274800  0.89454200  1
  O  O5  1  0.08463100  0.47917200  0.90642500  1
  O  O6  1  0.57274800  0.17820600  0.09357500  1
  O  O7  1  0.92820600  0.33463100  0.10545800  1
  O  O8  1  0.82179400  0.91536900  0.39454200  1
  O  O9  1  0.17725200  0.07179400  0.40642500  1
  O  O10  1  0.66536900  0.77082800  0.59357500  1
  O  O11  1  0.52082800  0.42725200  0.60545800  1
