# generated using pymatgen
data_RbNa3
_symmetry_space_group_name_H-M   'P 1'
_cell_length_a   8.33619866
_cell_length_b   8.33619866
_cell_length_c   6.55704900
_cell_angle_alpha   90.00000000
_cell_angle_beta   90.00000000
_cell_angle_gamma   120.00000523
_symmetry_Int_Tables_number   1
_chemical_formula_structural   RbNa3
_chemical_formula_sum   'Rb2 Na6'
_cell_volume   394.61641730
_cell_formula_units_Z   2
loop_
 _symmetry_equiv_pos_site_id
 _symmetry_equiv_pos_as_xyz
  1  'x, y, z'
loop_
 _atom_site_type_symbol
 _atom_site_label
 _atom_site_symmetry_multiplicity
 _atom_site_fract_x
 _atom_site_fract_y
 _atom_site_fract_z
 _atom_site_occupancy
  Rb  Rb0  1  0.33333300  0.66666700  0.75000000  1
  Rb  Rb1  1  0.66666700  0.33333300  0.25000000  1
  Na  Na2  1  0.15339200  0.30678500  0.25000000  1
  Na  Na3  1  0.69321500  0.84660800  0.25000000  1
  Na  Na4  1  0.15339200  0.84660800  0.25000000  1
  Na  Na5  1  0.84660800  0.69321500  0.75000000  1
  Na  Na6  1  0.30678500  0.15339200  0.75000000  1
  Na  Na7  1  0.84660800  0.15339200  0.75000000  1
