# generated using pymatgen
data_Mo3(SeS2)2
_symmetry_space_group_name_H-M   'P 1'
_cell_length_a   3.23109085
_cell_length_b   3.23109085
_cell_length_c   29.66780500
_cell_angle_alpha   90.00000000
_cell_angle_beta   90.00000000
_cell_angle_gamma   120.00001734
_symmetry_Int_Tables_number   1
_chemical_formula_structural   Mo3(SeS2)2
_chemical_formula_sum   'Mo3 Se2 S4'
_cell_volume   268.23429875
_cell_formula_units_Z   1
loop_
 _symmetry_equiv_pos_site_id
 _symmetry_equiv_pos_as_xyz
  1  'x, y, z'
loop_
 _atom_site_type_symbol
 _atom_site_label
 _atom_site_symmetry_multiplicity
 _atom_site_fract_x
 _atom_site_fract_y
 _atom_site_fract_z
 _atom_site_occupancy
  Mo  Mo0  1  0.00000000  0.00000000  0.76865400  1
  Mo  Mo1  1  0.00000000  0.00000000  0.23134600  1
  Mo  Mo2  1  0.33333300  0.66666700  0.00000000  1
  Se  Se3  1  0.00000000  0.00000000  0.05755100  1
  Se  Se4  1  0.00000000  0.00000000  0.94244900  1
  S  S5  1  0.33333300  0.66666700  0.71632700  1
  S  S6  1  0.33333300  0.66666700  0.17901500  1
  S  S7  1  0.33333300  0.66666700  0.82098500  1
  S  S8  1  0.33333300  0.66666700  0.28367300  1
