data_image0
_chemical_formula_structural       Ce2Mn2Si4
_chemical_formula_sum              "Ce2 Mn2 Si4"
_cell_length_a       4.01488
_cell_length_b       4.11503
_cell_length_c       9.08439
_cell_angle_alpha    76.9095
_cell_angle_beta     90
_cell_angle_gamma    90

_space_group_name_H-M_alt    "P 1"
_space_group_IT_number       1

loop_
  _space_group_symop_operation_xyz
  'x, y, z'

loop_
  _atom_site_type_symbol
  _atom_site_label
  _atom_site_symmetry_multiplicity
  _atom_site_fract_x
  _atom_site_fract_y
  _atom_site_fract_z
  _atom_site_occupancy
  Ce  Ce1       1.0  0.25000  0.89800  0.20300  1.0000
  Ce  Ce2       1.0  0.75000  0.10200  0.79700  1.0000
  Mn  Mn1       1.0  0.75000  0.75000  0.49900  1.0000
  Mn  Mn2       1.0  0.25000  0.25000  0.50100  1.0000
  Si  Si1       1.0  0.75000  0.46300  0.07310  1.0000
  Si  Si2       1.0  0.75000  0.32100  0.35900  1.0000
  Si  Si3       1.0  0.25000  0.67900  0.64100  1.0000
  Si  Si4       1.0  0.25000  0.53700  0.92700  1.0000
