# generated using pymatgen
data_KP2AuS7
_symmetry_space_group_name_H-M   'P 1'
_cell_length_a   6.32102440
_cell_length_b   6.32102440
_cell_length_c   15.26320450
_cell_angle_alpha   89.92448212
_cell_angle_beta   89.92448212
_cell_angle_gamma   100.60864614
_symmetry_Int_Tables_number   1
_chemical_formula_structural   KP2AuS7
_chemical_formula_sum   'K2 P4 Au2 S14'
_cell_volume   599.42163829
_cell_formula_units_Z   2
loop_
 _symmetry_equiv_pos_site_id
 _symmetry_equiv_pos_as_xyz
  1  'x, y, z'
loop_
 _atom_site_type_symbol
 _atom_site_label
 _atom_site_symmetry_multiplicity
 _atom_site_fract_x
 _atom_site_fract_y
 _atom_site_fract_z
 _atom_site_occupancy
  K  K0  1  0.75736000  0.24264000  0.25000000  1
  K  K1  1  0.24264000  0.75736000  0.75000000  1
  P  P2  1  0.35120700  0.67910500  0.13983400  1
  P  P3  1  0.32089500  0.64879300  0.36016600  1
  P  P4  1  0.64879300  0.32089500  0.86016600  1
  P  P5  1  0.67910500  0.35120700  0.63983400  1
  Au  Au6  1  0.00000000  0.50000000  0.00000000  1
  Au  Au7  1  0.50000000  0.00000000  0.50000000  1
  S  S8  1  0.66397000  0.72529200  0.15645600  1
  S  S9  1  0.33603000  0.27470800  0.84354400  1
  S  S10  1  0.27470800  0.33603000  0.34354400  1
  S  S11  1  0.72529200  0.66397000  0.65645600  1
  S  S12  1  0.20046700  0.36417800  0.11256300  1
  S  S13  1  0.63582200  0.79953300  0.38743700  1
  S  S14  1  0.79953300  0.63582200  0.88743700  1
  S  S15  1  0.36417800  0.20046700  0.61256300  1
  S  S16  1  0.22998900  0.83140300  0.03570200  1
  S  S17  1  0.16859700  0.77001100  0.46429800  1
  S  S18  1  0.77001100  0.16859700  0.96429800  1
  S  S19  1  0.83140300  0.22998900  0.53570200  1
  S  S20  1  0.19716500  0.80283500  0.25000000  1
  S  S21  1  0.80283500  0.19716500  0.75000000  1
