# generated using pymatgen
data_Pm2Mg
_symmetry_space_group_name_H-M   'P 1'
_cell_length_a   6.92665035
_cell_length_b   6.92665035
_cell_length_c   6.92665035
_cell_angle_alpha   148.01654884
_cell_angle_beta   148.01654884
_cell_angle_gamma   45.86093708
_symmetry_Int_Tables_number   1
_chemical_formula_structural   Pm2Mg
_chemical_formula_sum   'Pm2 Mg1'
_cell_volume   92.92183654
_cell_formula_units_Z   1
loop_
 _symmetry_equiv_pos_site_id
 _symmetry_equiv_pos_as_xyz
  1  'x, y, z'
loop_
 _atom_site_type_symbol
 _atom_site_label
 _atom_site_symmetry_multiplicity
 _atom_site_fract_x
 _atom_site_fract_y
 _atom_site_fract_z
 _atom_site_occupancy
  Pm  Pm0  1  0.84296100  0.84296100  0.00000000  1
  Pm  Pm1  1  0.15703900  0.15703900  0.00000000  1
  Mg  Mg2  1  0.50000000  0.50000000  0.00000000  1
