# generated using pymatgen
data_NiGe3
_symmetry_space_group_name_H-M   'P 1'
_cell_length_a   4.82367308
_cell_length_b   4.82367308
_cell_length_c   4.82367308
_cell_angle_alpha   129.60173565
_cell_angle_beta   129.60173565
_cell_angle_gamma   74.04426326
_symmetry_Int_Tables_number   1
_chemical_formula_structural   NiGe3
_chemical_formula_sum   'Ni1 Ge3'
_cell_volume   64.97658104
_cell_formula_units_Z   1
loop_
 _symmetry_equiv_pos_site_id
 _symmetry_equiv_pos_as_xyz
  1  'x, y, z'
loop_
 _atom_site_type_symbol
 _atom_site_label
 _atom_site_symmetry_multiplicity
 _atom_site_fract_x
 _atom_site_fract_y
 _atom_site_fract_z
 _atom_site_occupancy
  Ni  Ni0  1  0.00000000  0.00000000  0.00000000  1
  Ge  Ge1  1  0.75000000  0.25000000  0.50000000  1
  Ge  Ge2  1  0.25000000  0.75000000  0.50000000  1
  Ge  Ge3  1  0.50000000  0.50000000  0.00000000  1
