# generated using pymatgen
data_MgPb3
_symmetry_space_group_name_H-M   'P 1'
_cell_length_a   6.11806973
_cell_length_b   6.11806973
_cell_length_c   6.11806973
_cell_angle_alpha   133.61709795
_cell_angle_beta   133.61709795
_cell_angle_gamma   67.68668036
_symmetry_Int_Tables_number   1
_chemical_formula_structural   MgPb3
_chemical_formula_sum   'Mg1 Pb3'
_cell_volume   117.98804215
_cell_formula_units_Z   1
loop_
 _symmetry_equiv_pos_site_id
 _symmetry_equiv_pos_as_xyz
  1  'x, y, z'
loop_
 _atom_site_type_symbol
 _atom_site_label
 _atom_site_symmetry_multiplicity
 _atom_site_fract_x
 _atom_site_fract_y
 _atom_site_fract_z
 _atom_site_occupancy
  Mg  Mg0  1  0.00000000  0.00000000  0.00000000  1
  Pb  Pb1  1  0.50000000  0.50000000  0.00000000  1
  Pb  Pb2  1  0.75000000  0.25000000  0.50000000  1
  Pb  Pb3  1  0.25000000  0.75000000  0.50000000  1
