# generated using pymatgen
data_Ac2S3
_symmetry_space_group_name_H-M   'P 1'
_cell_length_a   7.88325082
_cell_length_b   7.88325082
_cell_length_c   7.88325025
_cell_angle_alpha   57.78403855
_cell_angle_beta   57.78403855
_cell_angle_gamma   57.78404025
_symmetry_Int_Tables_number   1
_chemical_formula_structural   Ac2S3
_chemical_formula_sum   'Ac4 S6'
_cell_volume   328.78911428
_cell_formula_units_Z   2
loop_
 _symmetry_equiv_pos_site_id
 _symmetry_equiv_pos_as_xyz
  1  'x, y, z'
loop_
 _atom_site_type_symbol
 _atom_site_label
 _atom_site_symmetry_multiplicity
 _atom_site_fract_x
 _atom_site_fract_y
 _atom_site_fract_z
 _atom_site_occupancy
  Ac  Ac0  1  0.35653100  0.35653100  0.35653100  1
  Ac  Ac1  1  0.14346900  0.14346900  0.14346900  1
  Ac  Ac2  1  0.85653100  0.85653100  0.85653100  1
  Ac  Ac3  1  0.64346900  0.64346900  0.64346900  1
  S  S4  1  0.03913300  0.46086700  0.75000000  1
  S  S5  1  0.46086700  0.75000000  0.03913300  1
  S  S6  1  0.75000000  0.03913300  0.46086700  1
  S  S7  1  0.25000000  0.96086700  0.53913300  1
  S  S8  1  0.53913300  0.25000000  0.96086700  1
  S  S9  1  0.96086700  0.53913300  0.25000000  1
