# generated using pymatgen
data_Eu3Ga5
_symmetry_space_group_name_H-M   'P 1'
_cell_length_a   5.95983447
_cell_length_b   5.95983447
_cell_length_c   15.09931300
_cell_angle_alpha   90.00000000
_cell_angle_beta   90.00000000
_cell_angle_gamma   134.31642883
_symmetry_Int_Tables_number   1
_chemical_formula_structural   Eu3Ga5
_chemical_formula_sum   'Eu6 Ga10'
_cell_volume   383.73431285
_cell_formula_units_Z   2
loop_
 _symmetry_equiv_pos_site_id
 _symmetry_equiv_pos_as_xyz
  1  'x, y, z'
loop_
 _atom_site_type_symbol
 _atom_site_label
 _atom_site_symmetry_multiplicity
 _atom_site_fract_x
 _atom_site_fract_y
 _atom_site_fract_z
 _atom_site_occupancy
  Eu  Eu0  1  0.87430200  0.12569800  0.75000000  1
  Eu  Eu1  1  0.12569800  0.87430200  0.25000000  1
  Eu  Eu2  1  0.59233500  0.40766500  0.89280900  1
  Eu  Eu3  1  0.59233500  0.40766500  0.60719100  1
  Eu  Eu4  1  0.40766500  0.59233500  0.39280900  1
  Eu  Eu5  1  0.40766500  0.59233500  0.10719100  1
  Ga  Ga6  1  0.16810600  0.83189400  0.75000000  1
  Ga  Ga7  1  0.83189400  0.16810600  0.25000000  1
  Ga  Ga8  1  0.11522200  0.88477800  0.03376600  1
  Ga  Ga9  1  0.11522200  0.88477800  0.46623400  1
  Ga  Ga10  1  0.70692400  0.29307600  0.09813700  1
  Ga  Ga11  1  0.70692400  0.29307600  0.40186300  1
  Ga  Ga12  1  0.29307600  0.70692400  0.90186300  1
  Ga  Ga13  1  0.29307600  0.70692400  0.59813700  1
  Ga  Ga14  1  0.88477800  0.11522200  0.96623400  1
  Ga  Ga15  1  0.88477800  0.11522200  0.53376600  1
