# generated using pymatgen
data_Ni3H
_symmetry_space_group_name_H-M   'P 1'
_cell_length_a   4.96215947
_cell_length_b   4.96215947
_cell_length_c   3.56633200
_cell_angle_alpha   90.00000000
_cell_angle_beta   90.00000000
_cell_angle_gamma   119.99999287
_symmetry_Int_Tables_number   1
_chemical_formula_structural   Ni3H
_chemical_formula_sum   'Ni6 H2'
_cell_volume   76.04906289
_cell_formula_units_Z   2
loop_
 _symmetry_equiv_pos_site_id
 _symmetry_equiv_pos_as_xyz
  1  'x, y, z'
loop_
 _atom_site_type_symbol
 _atom_site_label
 _atom_site_symmetry_multiplicity
 _atom_site_fract_x
 _atom_site_fract_y
 _atom_site_fract_z
 _atom_site_occupancy
  Ni  Ni0  1  0.17615600  0.35231100  0.25000000  1
  Ni  Ni1  1  0.64768900  0.82384400  0.25000000  1
  Ni  Ni2  1  0.17615600  0.82384400  0.25000000  1
  Ni  Ni3  1  0.82384400  0.64768900  0.75000000  1
  Ni  Ni4  1  0.35231100  0.17615600  0.75000000  1
  Ni  Ni5  1  0.82384400  0.17615600  0.75000000  1
  H  H6  1  0.33333300  0.66666700  0.75000000  1
  H  H7  1  0.66666700  0.33333300  0.25000000  1
