# generated using pymatgen
data_NaH6CN2ClO2
_symmetry_space_group_name_H-M   'P 1'
_cell_length_a   9.66781804
_cell_length_b   9.66781804
_cell_length_c   6.43967854
_cell_angle_alpha   70.95006021
_cell_angle_beta   70.95006021
_cell_angle_gamma   30.78825636
_symmetry_Int_Tables_number   1
_chemical_formula_structural   NaH6CN2ClO2
_chemical_formula_sum   'Na2 H12 C2 N4 Cl2 O4'
_cell_volume   289.89844306
_cell_formula_units_Z   2
loop_
 _symmetry_equiv_pos_site_id
 _symmetry_equiv_pos_as_xyz
  1  'x, y, z'
loop_
 _atom_site_type_symbol
 _atom_site_label
 _atom_site_symmetry_multiplicity
 _atom_site_fract_x
 _atom_site_fract_y
 _atom_site_fract_z
 _atom_site_occupancy
  Na  Na0  1  0.30592600  0.69014000  0.73988600  1
  Na  Na1  1  0.30986000  0.69407400  0.26011400  1
  H  H2  1  0.78932500  0.12426300  0.54066200  1
  H  H3  1  0.70102800  0.21098200  0.05091800  1
  H  H4  1  0.64169400  0.02574600  0.90111400  1
  H  H5  1  0.08212100  0.55695300  0.45089000  1
  H  H6  1  0.63685700  0.89108200  0.34357800  1
  H  H7  1  0.96718800  0.54364900  0.10702900  1
  H  H8  1  0.45635100  0.03281200  0.89297100  1
  H  H9  1  0.10891800  0.36314300  0.65642200  1
  H  H10  1  0.44304700  0.91787900  0.54911000  1
  H  H11  1  0.97425400  0.35830600  0.09888600  1
  H  H12  1  0.78901800  0.29897200  0.94908200  1
  H  H13  1  0.87573700  0.21067500  0.45933800  1
  C  C14  1  0.36517300  0.31022200  0.66672900  1
  C  C15  1  0.68977800  0.63482700  0.33327100  1
  N  N16  1  0.49312500  0.11138000  0.83589500  1
  N  N17  1  0.16202500  0.42584100  0.59179700  1
  N  N18  1  0.57415900  0.83797500  0.40820300  1
  N  N19  1  0.88862000  0.50687500  0.16410500  1
  Cl  Cl20  1  0.96079700  0.80311600  0.11322000  1
  Cl  Cl21  1  0.19688400  0.03920300  0.88678000  1
  O  O22  1  0.62468000  0.37532000  0.00000000  1
  O  O23  1  0.95759400  0.04240600  0.50000000  1
  O  O24  1  0.43150100  0.38855700  0.58223900  1
  O  O25  1  0.61144300  0.56849900  0.41776100  1
