# generated using pymatgen
data_Ho2S3
_symmetry_space_group_name_H-M   'P 1'
_cell_length_a   7.31652371
_cell_length_b   7.31652371
_cell_length_c   7.31652421
_cell_angle_alpha   56.00861258
_cell_angle_beta   56.00861258
_cell_angle_gamma   56.00860645
_symmetry_Int_Tables_number   1
_chemical_formula_structural   Ho2S3
_chemical_formula_sum   'Ho4 S6'
_cell_volume   251.34061982
_cell_formula_units_Z   2
loop_
 _symmetry_equiv_pos_site_id
 _symmetry_equiv_pos_as_xyz
  1  'x, y, z'
loop_
 _atom_site_type_symbol
 _atom_site_label
 _atom_site_symmetry_multiplicity
 _atom_site_fract_x
 _atom_site_fract_y
 _atom_site_fract_z
 _atom_site_occupancy
  Ho  Ho0  1  0.85018700  0.85018700  0.85018700  1
  Ho  Ho1  1  0.64981300  0.64981300  0.64981300  1
  Ho  Ho2  1  0.35018700  0.35018700  0.35018700  1
  Ho  Ho3  1  0.14981300  0.14981300  0.14981300  1
  S  S4  1  0.55139200  0.94860800  0.25000000  1
  S  S5  1  0.25000000  0.55139200  0.94860800  1
  S  S6  1  0.94860800  0.25000000  0.55139200  1
  S  S7  1  0.05139200  0.75000000  0.44860800  1
  S  S8  1  0.75000000  0.44860800  0.05139200  1
  S  S9  1  0.44860800  0.05139200  0.75000000  1
