# generated using pymatgen
data_MgU
_symmetry_space_group_name_H-M   'P 1'
_cell_length_a   2.80034800
_cell_length_b   4.79778000
_cell_length_c   6.19795100
_cell_angle_alpha   90.00000000
_cell_angle_beta   90.00000000
_cell_angle_gamma   90.00000000
_symmetry_Int_Tables_number   1
_chemical_formula_structural   MgU
_chemical_formula_sum   'Mg2 U2'
_cell_volume   83.27228325
_cell_formula_units_Z   2
loop_
 _symmetry_equiv_pos_site_id
 _symmetry_equiv_pos_as_xyz
  1  'x, y, z'
loop_
 _atom_site_type_symbol
 _atom_site_label
 _atom_site_symmetry_multiplicity
 _atom_site_fract_x
 _atom_site_fract_y
 _atom_site_fract_z
 _atom_site_occupancy
  Mg  Mg0  1  0.00000000  0.25000000  0.11832700  1
  Mg  Mg1  1  0.00000000  0.75000000  0.88167300  1
  U  U2  1  0.50000000  0.75000000  0.40944300  1
  U  U3  1  0.50000000  0.25000000  0.59055700  1
