# generated using pymatgen
data_Mo2W(SeS2)2
_symmetry_space_group_name_H-M   'P 1'
_cell_length_a   3.23096185
_cell_length_b   3.23096185
_cell_length_c   29.65828700
_cell_angle_alpha   90.00000000
_cell_angle_beta   90.00000000
_cell_angle_gamma   119.99999697
_symmetry_Int_Tables_number   1
_chemical_formula_structural   Mo2W(SeS2)2
_chemical_formula_sum   'Mo2 W1 Se2 S4'
_cell_volume   268.12688895
_cell_formula_units_Z   1
loop_
 _symmetry_equiv_pos_site_id
 _symmetry_equiv_pos_as_xyz
  1  'x, y, z'
loop_
 _atom_site_type_symbol
 _atom_site_label
 _atom_site_symmetry_multiplicity
 _atom_site_fract_x
 _atom_site_fract_y
 _atom_site_fract_z
 _atom_site_occupancy
  Mo  Mo0  1  0.33333300  0.66666700  0.11564300  1
  Mo  Mo1  1  0.33333300  0.66666700  0.57832600  1
  W  W2  1  0.66666700  0.33333300  0.34696400  1
  Se  Se3  1  0.66666700  0.33333300  0.52077400  1
  Se  Se4  1  0.66666700  0.33333300  0.63589100  1
  S  S5  1  0.33333300  0.66666700  0.39952100  1
  S  S6  1  0.66666700  0.33333300  0.06326200  1
  S  S7  1  0.66666700  0.33333300  0.16803000  1
  S  S8  1  0.33333300  0.66666700  0.29443100  1
