# generated using pymatgen
data_Si3Mo
_symmetry_space_group_name_H-M   'P 1'
_cell_length_a   5.21028460
_cell_length_b   5.21028460
_cell_length_c   4.84001900
_cell_angle_alpha   90.00000000
_cell_angle_beta   90.00000000
_cell_angle_gamma   120.00000764
_symmetry_Int_Tables_number   1
_chemical_formula_structural   Si3Mo
_chemical_formula_sum   'Si6 Mo2'
_cell_volume   113.78907255
_cell_formula_units_Z   2
loop_
 _symmetry_equiv_pos_site_id
 _symmetry_equiv_pos_as_xyz
  1  'x, y, z'
loop_
 _atom_site_type_symbol
 _atom_site_label
 _atom_site_symmetry_multiplicity
 _atom_site_fract_x
 _atom_site_fract_y
 _atom_site_fract_z
 _atom_site_occupancy
  Si  Si0  1  0.82542100  0.17457900  0.75000000  1
  Si  Si1  1  0.34915800  0.17457900  0.75000000  1
  Si  Si2  1  0.82542100  0.65084200  0.75000000  1
  Si  Si3  1  0.17457900  0.82542100  0.25000000  1
  Si  Si4  1  0.65084200  0.82542100  0.25000000  1
  Si  Si5  1  0.17457900  0.34915800  0.25000000  1
  Mo  Mo6  1  0.66666700  0.33333300  0.25000000  1
  Mo  Mo7  1  0.33333300  0.66666700  0.75000000  1
