# generated using pymatgen
data_Sm3Pd
_symmetry_space_group_name_H-M   'P 1'
_cell_length_a   6.33104838
_cell_length_b   6.33104838
_cell_length_c   6.33104838
_cell_angle_alpha   138.64210712
_cell_angle_beta   138.64210712
_cell_angle_gamma   59.92099127
_symmetry_Int_Tables_number   1
_chemical_formula_structural   Sm3Pd
_chemical_formula_sum   'Sm3 Pd1'
_cell_volume   109.66351628
_cell_formula_units_Z   1
loop_
 _symmetry_equiv_pos_site_id
 _symmetry_equiv_pos_as_xyz
  1  'x, y, z'
loop_
 _atom_site_type_symbol
 _atom_site_label
 _atom_site_symmetry_multiplicity
 _atom_site_fract_x
 _atom_site_fract_y
 _atom_site_fract_z
 _atom_site_occupancy
  Sm  Sm0  1  0.75000000  0.25000000  0.50000000  1
  Sm  Sm1  1  0.25000000  0.75000000  0.50000000  1
  Sm  Sm2  1  0.50000000  0.50000000  0.00000000  1
  Pd  Pd3  1  0.00000000  0.00000000  0.00000000  1
