# generated using pymatgen
data_Ti3O2
_symmetry_space_group_name_H-M   'P 1'
_cell_length_a   5.79126400
_cell_length_b   5.79126400
_cell_length_c   5.79126436
_cell_angle_alpha   52.56228290
_cell_angle_beta   52.56228290
_cell_angle_gamma   52.56227731
_symmetry_Int_Tables_number   1
_chemical_formula_structural   Ti3O2
_chemical_formula_sum   'Ti6 O4'
_cell_volume   113.36615950
_cell_formula_units_Z   2
loop_
 _symmetry_equiv_pos_site_id
 _symmetry_equiv_pos_as_xyz
  1  'x, y, z'
loop_
 _atom_site_type_symbol
 _atom_site_label
 _atom_site_symmetry_multiplicity
 _atom_site_fract_x
 _atom_site_fract_y
 _atom_site_fract_z
 _atom_site_occupancy
  Ti  Ti0  1  0.58008500  0.91991500  0.25000000  1
  Ti  Ti1  1  0.25000000  0.58008500  0.91991500  1
  Ti  Ti2  1  0.91991500  0.25000000  0.58008500  1
  Ti  Ti3  1  0.08008500  0.75000000  0.41991500  1
  Ti  Ti4  1  0.75000000  0.41991500  0.08008500  1
  Ti  Ti5  1  0.41991500  0.08008500  0.75000000  1
  O  O6  1  0.83773200  0.83773200  0.83773200  1
  O  O7  1  0.66226800  0.66226800  0.66226800  1
  O  O8  1  0.33773200  0.33773200  0.33773200  1
  O  O9  1  0.16226800  0.16226800  0.16226800  1
