data_image0
_chemical_formula_structural       Cs4Se2
_chemical_formula_sum              "Cs4 Se2"
_cell_length_a       5.55719
_cell_length_b       6.00054
_cell_length_c       10.4279
_cell_angle_alpha    97.0875
_cell_angle_beta     74.5464
_cell_angle_gamma    117.585

_space_group_name_H-M_alt    "P 1"
_space_group_IT_number       1

loop_
  _space_group_symop_operation_xyz
  'x, y, z'

loop_
  _atom_site_type_symbol
  _atom_site_label
  _atom_site_symmetry_multiplicity
  _atom_site_fract_x
  _atom_site_fract_y
  _atom_site_fract_z
  _atom_site_occupancy
  Cs  Cs1       1.0  0.56600  0.35300  0.12700  1.0000
  Cs  Cs2       1.0  0.94300  0.85300  0.37300  1.0000
  Cs  Cs3       1.0  0.46300  0.14700  0.62700  1.0000
  Cs  Cs4       1.0  0.34000  0.64700  0.87300  1.0000
  Se  Se1       1.0  0.97100  0.00000  0.00000  1.0000
  Se  Se2       1.0  0.22100  0.50000  0.50000  1.0000
