# generated using pymatgen
data_Ta2Be2O5
_symmetry_space_group_name_H-M   'P 1'
_cell_length_a   3.53261600
_cell_length_b   3.53261600
_cell_length_c   6.42903400
_cell_angle_alpha   90.00000000
_cell_angle_beta   90.00000000
_cell_angle_gamma   90.00000000
_symmetry_Int_Tables_number   1
_chemical_formula_structural   Ta2Be2O5
_chemical_formula_sum   'Ta2 Be2 O5'
_cell_volume   80.23033134
_cell_formula_units_Z   1
loop_
 _symmetry_equiv_pos_site_id
 _symmetry_equiv_pos_as_xyz
  1  'x, y, z'
loop_
 _atom_site_type_symbol
 _atom_site_label
 _atom_site_symmetry_multiplicity
 _atom_site_fract_x
 _atom_site_fract_y
 _atom_site_fract_z
 _atom_site_occupancy
  Ta  Ta0  1  0.50000000  0.50000000  0.00000000  1
  Ta  Ta1  1  0.50000000  0.50000000  0.50000000  1
  Be  Be2  1  0.00000000  0.00000000  0.74561100  1
  Be  Be3  1  0.00000000  0.00000000  0.25438900  1
  O  O4  1  0.50000000  0.00000000  0.79801100  1
  O  O5  1  0.50000000  0.00000000  0.20198900  1
  O  O6  1  0.00000000  0.00000000  0.50000000  1
  O  O7  1  0.00000000  0.50000000  0.79801100  1
  O  O8  1  0.00000000  0.50000000  0.20198900  1
