# generated using pymatgen
data_UAg3
_symmetry_space_group_name_H-M   'P 1'
_cell_length_a   5.06969302
_cell_length_b   5.06969302
_cell_length_c   5.06969302
_cell_angle_alpha   123.60306008
_cell_angle_beta   123.60306008
_cell_angle_gamma   83.86496490
_symmetry_Int_Tables_number   1
_chemical_formula_structural   UAg3
_chemical_formula_sum   'U1 Ag3'
_cell_volume   86.57497530
_cell_formula_units_Z   1
loop_
 _symmetry_equiv_pos_site_id
 _symmetry_equiv_pos_as_xyz
  1  'x, y, z'
loop_
 _atom_site_type_symbol
 _atom_site_label
 _atom_site_symmetry_multiplicity
 _atom_site_fract_x
 _atom_site_fract_y
 _atom_site_fract_z
 _atom_site_occupancy
  U  U0  1  0.00000000  0.00000000  0.00000000  1
  Ag  Ag1  1  0.75000000  0.25000000  0.50000000  1
  Ag  Ag2  1  0.25000000  0.75000000  0.50000000  1
  Ag  Ag3  1  0.50000000  0.50000000  0.00000000  1
