# generated using pymatgen
data_Y(Mg4Al3)4
_symmetry_space_group_name_H-M   'P 1'
_cell_length_a   9.23914175
_cell_length_b   9.23914175
_cell_length_c   9.23914188
_cell_angle_alpha   110.18700118
_cell_angle_beta   110.18700118
_cell_angle_gamma   110.18700656
_symmetry_Int_Tables_number   1
_chemical_formula_structural   Y(Mg4Al3)4
_chemical_formula_sum   'Y1 Mg16 Al12'
_cell_volume   590.48114555
_cell_formula_units_Z   1
loop_
 _symmetry_equiv_pos_site_id
 _symmetry_equiv_pos_as_xyz
  1  'x, y, z'
loop_
 _atom_site_type_symbol
 _atom_site_label
 _atom_site_symmetry_multiplicity
 _atom_site_fract_x
 _atom_site_fract_y
 _atom_site_fract_z
 _atom_site_occupancy
  Y  Y0  1  0.62925600  0.62925600  0.62925600  1
  Mg  Mg1  1  0.34577100  0.00433900  0.00433900  1
  Mg  Mg2  1  0.28234500  0.68456500  0.68456500  1
  Mg  Mg3  1  0.00188700  0.00188700  0.00188700  1
  Mg  Mg4  1  0.71990400  0.38953000  0.38953000  1
  Mg  Mg5  1  0.99868800  0.60574300  0.31124900  1
  Mg  Mg6  1  0.60574300  0.31124900  0.99868800  1
  Mg  Mg7  1  0.38953000  0.71990400  0.38953000  1
  Mg  Mg8  1  0.00433900  0.34577100  0.00433900  1
  Mg  Mg9  1  0.31124900  0.99868800  0.60574300  1
  Mg  Mg10  1  0.68456500  0.68456500  0.28234500  1
  Mg  Mg11  1  0.68456500  0.28234500  0.68456500  1
  Mg  Mg12  1  0.31124900  0.60574300  0.99868800  1
  Mg  Mg13  1  0.00433900  0.00433900  0.34577100  1
  Mg  Mg14  1  0.38953000  0.38953000  0.71990400  1
  Mg  Mg15  1  0.60574300  0.99868800  0.31124900  1
  Mg  Mg16  1  0.99868800  0.31124900  0.60574300  1
  Al  Al17  1  0.18912100  0.37217600  0.37217600  1
  Al  Al18  1  0.82594600  0.18962300  0.18962300  1
  Al  Al19  1  0.99849200  0.81369600  0.63479000  1
  Al  Al20  1  0.37217600  0.37217600  0.18912100  1
  Al  Al21  1  0.63479000  0.99849200  0.81369600  1
  Al  Al22  1  0.18962300  0.18962300  0.82594600  1
  Al  Al23  1  0.81369600  0.99849200  0.63479000  1
  Al  Al24  1  0.81369600  0.63479000  0.99849200  1
  Al  Al25  1  0.18962300  0.82594600  0.18962300  1
  Al  Al26  1  0.63479000  0.81369600  0.99849200  1
  Al  Al27  1  0.37217600  0.18912100  0.37217600  1
  Al  Al28  1  0.99849200  0.63479000  0.81369600  1
