data_image0
_chemical_formula_structural       As3Cd4Na
_chemical_formula_sum              "As3 Cd4 Na1"
_cell_length_a       4.49392
_cell_length_b       4.49392
_cell_length_c       11.5142
_cell_angle_alpha    101.253
_cell_angle_beta     101.253
_cell_angle_gamma    60

_space_group_name_H-M_alt    "P 1"
_space_group_IT_number       1

loop_
  _space_group_symop_operation_xyz
  'x, y, z'

loop_
  _atom_site_type_symbol
  _atom_site_label
  _atom_site_symmetry_multiplicity
  _atom_site_fract_x
  _atom_site_fract_y
  _atom_site_fract_z
  _atom_site_occupancy
  As  As1       1.0  0.00000  0.00000  0.00000  1.0000
  As  As2       1.0  0.78100  0.78100  0.34300  1.0000
  As  As3       1.0  0.21900  0.21900  0.65700  1.0000
  Cd  Cd1       1.0  0.70100  0.70100  0.10300  1.0000
  Cd  Cd2       1.0  0.09520  0.09520  0.28600  1.0000
  Cd  Cd3       1.0  0.90500  0.90500  0.71400  1.0000
  Cd  Cd4       1.0  0.29900  0.29900  0.89700  1.0000
  Na  Na1       1.0  0.50000  0.50000  0.50000  1.0000
