# generated using pymatgen
data_SnH22C6(NCl2)2
_symmetry_space_group_name_H-M   'P 1'
_cell_length_a   6.60014700
_cell_length_b   7.42269819
_cell_length_c   8.48186005
_cell_angle_alpha   108.85606275
_cell_angle_beta   97.50118624
_cell_angle_gamma   94.20540987
_symmetry_Int_Tables_number   1
_chemical_formula_structural   SnH22C6(NCl2)2
_chemical_formula_sum   'Sn1 H22 C6 N2 Cl4'
_cell_volume   386.90181672
_cell_formula_units_Z   1
loop_
 _symmetry_equiv_pos_site_id
 _symmetry_equiv_pos_as_xyz
  1  'x, y, z'
loop_
 _atom_site_type_symbol
 _atom_site_label
 _atom_site_symmetry_multiplicity
 _atom_site_fract_x
 _atom_site_fract_y
 _atom_site_fract_z
 _atom_site_occupancy
  Sn  Sn0  1  0.50000000  0.50000000  0.50000000  1
  H  H1  1  0.25340700  0.70745900  0.21045500  1
  H  H2  1  0.74659300  0.29254100  0.78954500  1
  H  H3  1  0.93054700  0.82230300  0.13832200  1
  H  H4  1  0.06945300  0.17769700  0.86167800  1
  H  H5  1  0.06253600  0.06283100  0.22131700  1
  H  H6  1  0.93746400  0.93716900  0.77868300  1
  H  H7  1  0.11436600  0.37486800  0.53118300  1
  H  H8  1  0.88563400  0.62513200  0.46881700  1
  H  H9  1  0.27889800  0.45734500  0.73324200  1
  H  H10  1  0.72110200  0.54265500  0.26675800  1
  H  H11  1  0.29506100  0.22533100  0.58517600  1
  H  H12  1  0.70493900  0.77466900  0.41482400  1
  H  H13  1  0.16892900  0.72856800  0.92910500  1
  H  H14  1  0.83107100  0.27143200  0.07089500  1
  H  H15  1  0.03941100  0.92512800  0.35876900  1
  H  H16  1  0.96058900  0.07487200  0.64123100  1
  H  H17  1  0.44129400  0.76112800  0.00511300  1
  H  H18  1  0.55870600  0.23887200  0.99488700  1
  H  H19  1  0.30798000  0.96505300  0.00997700  1
  H  H20  1  0.69202000  0.03494700  0.99002300  1
  H  H21  1  0.37559800  0.93371400  0.28265400  1
  H  H22  1  0.62440200  0.06628600  0.71734600  1
  C  C23  1  0.05688200  0.91892300  0.23056800  1
  C  C24  1  0.94311800  0.08107700  0.76943200  1
  C  C25  1  0.29607700  0.82268500  0.02220300  1
  C  C26  1  0.70392300  0.17731500  0.97779700  1
  C  C27  1  0.26612100  0.37266800  0.59955700  1
  C  C28  1  0.73387900  0.62733200  0.40044300  1
  N  N29  1  0.25462700  0.84196700  0.19499700  1
  N  N30  1  0.74537300  0.15803300  0.80500300  1
  Cl  Cl31  1  0.25511900  0.41066900  0.19993600  1
  Cl  Cl32  1  0.74488100  0.58933100  0.80006400  1
  Cl  Cl33  1  0.64943600  0.16566300  0.39605100  1
  Cl  Cl34  1  0.35056400  0.83433700  0.60394900  1
