# generated using pymatgen
data_TiPHO5
_symmetry_space_group_name_H-M   'P 1'
_cell_length_a   7.07350400
_cell_length_b   7.45231200
_cell_length_c   7.51752792
_cell_angle_alpha   62.82469750
_cell_angle_beta   90.00000000
_cell_angle_gamma   90.00000000
_symmetry_Int_Tables_number   1
_chemical_formula_structural   TiPHO5
_chemical_formula_sum   'Ti4 P4 H4 O20'
_cell_volume   352.53477288
_cell_formula_units_Z   4
loop_
 _symmetry_equiv_pos_site_id
 _symmetry_equiv_pos_as_xyz
  1  'x, y, z'
loop_
 _atom_site_type_symbol
 _atom_site_label
 _atom_site_symmetry_multiplicity
 _atom_site_fract_x
 _atom_site_fract_y
 _atom_site_fract_z
 _atom_site_occupancy
  Ti  Ti0  1  0.72323200  0.71863100  0.52949000  1
  Ti  Ti1  1  0.22323200  0.28136900  0.47051000  1
  Ti  Ti2  1  0.22685600  0.71917400  0.02549800  1
  Ti  Ti3  1  0.72685600  0.28082600  0.97450200  1
  P  P4  1  0.35699600  0.99992200  0.24932900  1
  P  P5  1  0.85699600  0.00007800  0.75067100  1
  P  P6  1  0.61661800  0.49871300  0.25136500  1
  P  P7  1  0.11661800  0.50128700  0.74863500  1
  H  H8  1  0.46159900  0.94739100  0.69220800  1
  H  H9  1  0.96159900  0.05260900  0.30779200  1
  H  H10  1  0.44357200  0.06793100  0.81094600  1
  H  H11  1  0.94357200  0.93206900  0.18905400  1
  O  O12  1  0.36384900  0.00262500  0.74861000  1
  O  O13  1  0.86384900  0.99737500  0.25139000  1
  O  O14  1  0.64763700  0.49938400  0.75261300  1
  O  O15  1  0.14763700  0.50061600  0.24738700  1
  O  O16  1  0.48912500  0.33136600  0.40628300  1
  O  O17  1  0.98912500  0.66863400  0.59371700  1
  O  O18  1  0.48410800  0.16427900  0.09062500  1
  O  O19  1  0.98410800  0.83572100  0.90937500  1
  O  O20  1  0.22368600  0.09008800  0.35149900  1
  O  O21  1  0.72368600  0.90991200  0.64850100  1
  O  O22  1  0.74565700  0.40575700  0.14940600  1
  O  O23  1  0.24565700  0.59424300  0.85059400  1
  O  O24  1  0.48236900  0.83661400  0.41059600  1
  O  O25  1  0.98236900  0.16338600  0.58940400  1
  O  O26  1  0.49185100  0.66644900  0.09221300  1
  O  O27  1  0.99185100  0.33355100  0.90778700  1
  O  O28  1  0.24188500  0.40884600  0.64398800  1
  O  O29  1  0.74188500  0.59115400  0.35601200  1
  O  O30  1  0.72865400  0.09051200  0.85598500  1
  O  O31  1  0.22865400  0.90948800  0.14401500  1
