# generated using pymatgen
data_Te2Mo2WS4
_symmetry_space_group_name_H-M   'P 1'
_cell_length_a   3.30542250
_cell_length_b   3.30542250
_cell_length_c   30.51326700
_cell_angle_alpha   90.00000000
_cell_angle_beta   90.00000000
_cell_angle_gamma   120.00001002
_symmetry_Int_Tables_number   1
_chemical_formula_structural   Te2Mo2WS4
_chemical_formula_sum   'Te2 Mo2 W1 S4'
_cell_volume   288.71759753
_cell_formula_units_Z   1
loop_
 _symmetry_equiv_pos_site_id
 _symmetry_equiv_pos_as_xyz
  1  'x, y, z'
loop_
 _atom_site_type_symbol
 _atom_site_label
 _atom_site_symmetry_multiplicity
 _atom_site_fract_x
 _atom_site_fract_y
 _atom_site_fract_z
 _atom_site_occupancy
  Te  Te0  1  0.33333300  0.66666700  0.51520900  1
  Te  Te1  1  0.33333300  0.66666700  0.64144400  1
  Mo  Mo2  1  0.00000000  0.00000000  0.11564900  1
  Mo  Mo3  1  0.33333300  0.66666700  0.34695100  1
  W  W4  1  0.00000000  0.00000000  0.57835000  1
  S  S5  1  0.00000000  0.00000000  0.39707700  1
  S  S6  1  0.33333300  0.66666700  0.06549400  1
  S  S7  1  0.33333300  0.66666700  0.16582000  1
  S  S8  1  0.00000000  0.00000000  0.29684700  1
