# generated using pymatgen
data_Sr3N2
_symmetry_space_group_name_H-M   'P 1'
_cell_length_a   10.69757360
_cell_length_b   10.69757360
_cell_length_c   10.69757360
_cell_angle_alpha   109.47122063
_cell_angle_beta   109.47122063
_cell_angle_gamma   109.47122063
_symmetry_Int_Tables_number   1
_chemical_formula_structural   Sr3N2
_chemical_formula_sum   'Sr24 N16'
_cell_volume   942.39713941
_cell_formula_units_Z   8
loop_
 _symmetry_equiv_pos_site_id
 _symmetry_equiv_pos_as_xyz
  1  'x, y, z'
loop_
 _atom_site_type_symbol
 _atom_site_label
 _atom_site_symmetry_multiplicity
 _atom_site_fract_x
 _atom_site_fract_y
 _atom_site_fract_z
 _atom_site_occupancy
  Sr  Sr0  1  0.53991100  0.26694200  0.99491200  1
  Sr  Sr1  1  0.45500100  0.49491200  0.22797000  1
  Sr  Sr2  1  0.76694200  0.22703100  0.27203000  1
  Sr  Sr3  1  0.22703100  0.27203000  0.76694200  1
  Sr  Sr4  1  0.54499900  0.50508800  0.77203000  1
  Sr  Sr5  1  0.73305800  0.00508800  0.46008900  1
  Sr  Sr6  1  0.03991100  0.04499900  0.27296900  1
  Sr  Sr7  1  0.04499900  0.27296900  0.03991100  1
  Sr  Sr8  1  0.99491200  0.53991100  0.26694200  1
  Sr  Sr9  1  0.95500100  0.72703100  0.96008900  1
  Sr  Sr10  1  0.49491200  0.22797000  0.45500100  1
  Sr  Sr11  1  0.50508800  0.77203000  0.54499900  1
  Sr  Sr12  1  0.77203000  0.54499900  0.50508800  1
  Sr  Sr13  1  0.77296900  0.72797000  0.23305800  1
  Sr  Sr14  1  0.23305800  0.77296900  0.72797000  1
  Sr  Sr15  1  0.46008900  0.73305800  0.00508800  1
  Sr  Sr16  1  0.22797000  0.45500100  0.49491200  1
  Sr  Sr17  1  0.27203000  0.76694200  0.22703100  1
  Sr  Sr18  1  0.72703100  0.96008900  0.95500100  1
  Sr  Sr19  1  0.96008900  0.95500100  0.72703100  1
  Sr  Sr20  1  0.26694200  0.99491200  0.53991100  1
  Sr  Sr21  1  0.27296900  0.03991100  0.04499900  1
  Sr  Sr22  1  0.72797000  0.23305800  0.77296900  1
  Sr  Sr23  1  0.00508800  0.46008900  0.73305800  1
  N  N24  1  0.75000000  0.95556500  0.20556500  1
  N  N25  1  0.45556500  0.70556500  0.75000000  1
  N  N26  1  0.79443500  0.25000000  0.04443500  1
  N  N27  1  0.20556500  0.75000000  0.95556500  1
  N  N28  1  0.25000000  0.54443500  0.29443500  1
  N  N29  1  0.25000000  0.04443500  0.79443500  1
  N  N30  1  0.75000000  0.45556500  0.70556500  1
  N  N31  1  0.29443500  0.25000000  0.54443500  1
  N  N32  1  0.95556500  0.20556500  0.75000000  1
  N  N33  1  0.70556500  0.75000000  0.45556500  1
  N  N34  1  0.50000000  0.50000000  0.00000000  1
  N  N35  1  0.50000000  0.00000000  0.50000000  1
  N  N36  1  0.54443500  0.29443500  0.25000000  1
  N  N37  1  0.04443500  0.79443500  0.25000000  1
  N  N38  1  0.00000000  0.00000000  0.00000000  1
  N  N39  1  0.00000000  0.50000000  0.50000000  1
