# generated using pymatgen
data_InTc3
_symmetry_space_group_name_H-M   'P 1'
_cell_length_a   5.04063696
_cell_length_b   5.04063696
_cell_length_c   5.04063696
_cell_angle_alpha   134.77877802
_cell_angle_beta   134.77877802
_cell_angle_gamma   65.87412347
_symmetry_Int_Tables_number   1
_chemical_formula_structural   InTc3
_chemical_formula_sum   'In1 Tc3'
_cell_volume   63.55264447
_cell_formula_units_Z   1
loop_
 _symmetry_equiv_pos_site_id
 _symmetry_equiv_pos_as_xyz
  1  'x, y, z'
loop_
 _atom_site_type_symbol
 _atom_site_label
 _atom_site_symmetry_multiplicity
 _atom_site_fract_x
 _atom_site_fract_y
 _atom_site_fract_z
 _atom_site_occupancy
  In  In0  1  0.00000000  0.00000000  0.00000000  1
  Tc  Tc1  1  0.75000000  0.25000000  0.50000000  1
  Tc  Tc2  1  0.25000000  0.75000000  0.50000000  1
  Tc  Tc3  1  0.50000000  0.50000000  0.00000000  1
