# generated using pymatgen
data_Ba3Te
_symmetry_space_group_name_H-M   'P 1'
_cell_length_a   7.98106385
_cell_length_b   7.98106385
_cell_length_c   6.23748700
_cell_angle_alpha   90.00000000
_cell_angle_beta   90.00000000
_cell_angle_gamma   119.99999876
_symmetry_Int_Tables_number   1
_chemical_formula_structural   Ba3Te
_chemical_formula_sum   'Ba6 Te2'
_cell_volume   344.08192649
_cell_formula_units_Z   2
loop_
 _symmetry_equiv_pos_site_id
 _symmetry_equiv_pos_as_xyz
  1  'x, y, z'
loop_
 _atom_site_type_symbol
 _atom_site_label
 _atom_site_symmetry_multiplicity
 _atom_site_fract_x
 _atom_site_fract_y
 _atom_site_fract_z
 _atom_site_occupancy
  Ba  Ba0  1  0.17754500  0.35508900  0.25000000  1
  Ba  Ba1  1  0.64491100  0.82245600  0.25000000  1
  Ba  Ba2  1  0.17754500  0.82245600  0.25000000  1
  Ba  Ba3  1  0.82245600  0.64491100  0.75000000  1
  Ba  Ba4  1  0.35508900  0.17754500  0.75000000  1
  Ba  Ba5  1  0.82245600  0.17754500  0.75000000  1
  Te  Te6  1  0.33333300  0.66666700  0.75000000  1
  Te  Te7  1  0.66666700  0.33333300  0.25000000  1
