# generated using pymatgen
data_Ge3O
_symmetry_space_group_name_H-M   'P 1'
_cell_length_a   5.53077142
_cell_length_b   5.53077142
_cell_length_c   5.53077142
_cell_angle_alpha   141.09237681
_cell_angle_beta   141.09237681
_cell_angle_gamma   56.19837505
_symmetry_Int_Tables_number   1
_chemical_formula_structural   Ge3O
_chemical_formula_sum   'Ge3 O1'
_cell_volume   66.21587460
_cell_formula_units_Z   1
loop_
 _symmetry_equiv_pos_site_id
 _symmetry_equiv_pos_as_xyz
  1  'x, y, z'
loop_
 _atom_site_type_symbol
 _atom_site_label
 _atom_site_symmetry_multiplicity
 _atom_site_fract_x
 _atom_site_fract_y
 _atom_site_fract_z
 _atom_site_occupancy
  Ge  Ge0  1  0.75000000  0.25000000  0.50000000  1
  Ge  Ge1  1  0.25000000  0.75000000  0.50000000  1
  Ge  Ge2  1  0.50000000  0.50000000  0.00000000  1
  O  O3  1  0.00000000  0.00000000  0.00000000  1
