# generated using pymatgen
data_HfP3
_symmetry_space_group_name_H-M   'P 1'
_cell_length_a   5.57469210
_cell_length_b   5.57469210
_cell_length_c   4.92798800
_cell_angle_alpha   90.00000000
_cell_angle_beta   90.00000000
_cell_angle_gamma   120.00000113
_symmetry_Int_Tables_number   1
_chemical_formula_structural   HfP3
_chemical_formula_sum   'Hf2 P6'
_cell_volume   132.63008217
_cell_formula_units_Z   2
loop_
 _symmetry_equiv_pos_site_id
 _symmetry_equiv_pos_as_xyz
  1  'x, y, z'
loop_
 _atom_site_type_symbol
 _atom_site_label
 _atom_site_symmetry_multiplicity
 _atom_site_fract_x
 _atom_site_fract_y
 _atom_site_fract_z
 _atom_site_occupancy
  Hf  Hf0  1  0.33333300  0.66666700  0.75000000  1
  Hf  Hf1  1  0.66666700  0.33333300  0.25000000  1
  P  P2  1  0.19087500  0.38175000  0.25000000  1
  P  P3  1  0.61825000  0.80912500  0.25000000  1
  P  P4  1  0.19087500  0.80912500  0.25000000  1
  P  P5  1  0.80912500  0.61825000  0.75000000  1
  P  P6  1  0.38175000  0.19087500  0.75000000  1
  P  P7  1  0.80912500  0.19087500  0.75000000  1
