# generated using pymatgen
data_Ag2WS4
_symmetry_space_group_name_H-M   'P 1'
_cell_length_a   7.38433200
_cell_length_b   7.85205600
_cell_length_c   12.05865000
_cell_angle_alpha   90.00000000
_cell_angle_beta   90.00000000
_cell_angle_gamma   90.00000000
_symmetry_Int_Tables_number   1
_chemical_formula_structural   Ag2WS4
_chemical_formula_sum   'Ag8 W4 S16'
_cell_volume   699.18691599
_cell_formula_units_Z   4
loop_
 _symmetry_equiv_pos_site_id
 _symmetry_equiv_pos_as_xyz
  1  'x, y, z'
loop_
 _atom_site_type_symbol
 _atom_site_label
 _atom_site_symmetry_multiplicity
 _atom_site_fract_x
 _atom_site_fract_y
 _atom_site_fract_z
 _atom_site_occupancy
  Ag  Ag0  1  0.09317900  0.75000000  0.04568700  1
  Ag  Ag1  1  0.90682100  0.25000000  0.95431300  1
  Ag  Ag2  1  0.59317900  0.75000000  0.45431300  1
  Ag  Ag3  1  0.40682100  0.25000000  0.54568700  1
  Ag  Ag4  1  0.36407600  0.75000000  0.87096200  1
  Ag  Ag5  1  0.63592400  0.25000000  0.12903800  1
  Ag  Ag6  1  0.86407600  0.75000000  0.62903800  1
  Ag  Ag7  1  0.13592400  0.25000000  0.37096200  1
  W  W8  1  0.18484100  0.75000000  0.45497300  1
  W  W9  1  0.81515900  0.25000000  0.54502700  1
  W  W10  1  0.68484100  0.75000000  0.04502700  1
  W  W11  1  0.31515900  0.25000000  0.95497300  1
  S  S12  1  0.66223600  0.47446900  0.61026700  1
  S  S13  1  0.33776400  0.97446900  0.38973300  1
  S  S14  1  0.16223600  0.02553100  0.88973300  1
  S  S15  1  0.83776400  0.52553100  0.11026700  1
  S  S16  1  0.33776400  0.52553100  0.38973300  1
  S  S17  1  0.66223600  0.02553100  0.61026700  1
  S  S18  1  0.83776400  0.97446900  0.11026700  1
  S  S19  1  0.16223600  0.47446900  0.88973300  1
  S  S20  1  0.91405500  0.75000000  0.37885700  1
  S  S21  1  0.08594500  0.25000000  0.62114300  1
  S  S22  1  0.41405500  0.75000000  0.12114300  1
  S  S23  1  0.58594500  0.25000000  0.87885700  1
  S  S24  1  0.30283800  0.25000000  0.13966400  1
  S  S25  1  0.69716200  0.75000000  0.86033600  1
  S  S26  1  0.80283800  0.25000000  0.36033600  1
  S  S27  1  0.19716200  0.75000000  0.63966400  1
