# generated using pymatgen
data_Hf3Sn
_symmetry_space_group_name_H-M   'P 1'
_cell_length_a   6.27284018
_cell_length_b   6.27284018
_cell_length_c   5.11163000
_cell_angle_alpha   90.00000000
_cell_angle_beta   90.00000000
_cell_angle_gamma   120.00000188
_symmetry_Int_Tables_number   1
_chemical_formula_structural   Hf3Sn
_chemical_formula_sum   'Hf6 Sn2'
_cell_volume   174.18809877
_cell_formula_units_Z   2
loop_
 _symmetry_equiv_pos_site_id
 _symmetry_equiv_pos_as_xyz
  1  'x, y, z'
loop_
 _atom_site_type_symbol
 _atom_site_label
 _atom_site_symmetry_multiplicity
 _atom_site_fract_x
 _atom_site_fract_y
 _atom_site_fract_z
 _atom_site_occupancy
  Hf  Hf0  1  0.16627300  0.33254600  0.25000000  1
  Hf  Hf1  1  0.66745400  0.83372700  0.25000000  1
  Hf  Hf2  1  0.16627300  0.83372700  0.25000000  1
  Hf  Hf3  1  0.83372700  0.66745400  0.75000000  1
  Hf  Hf4  1  0.33254600  0.16627300  0.75000000  1
  Hf  Hf5  1  0.83372700  0.16627300  0.75000000  1
  Sn  Sn6  1  0.33333300  0.66666700  0.75000000  1
  Sn  Sn7  1  0.66666700  0.33333300  0.25000000  1
