# generated using pymatgen
data_LaMoN3
_symmetry_space_group_name_H-M   'P 1'
_cell_length_a   7.78590975
_cell_length_b   7.78590975
_cell_length_c   3.96074000
_cell_angle_alpha   90.00000000
_cell_angle_beta   90.00000000
_cell_angle_gamma   136.54977975
_symmetry_Int_Tables_number   1
_chemical_formula_structural   LaMoN3
_chemical_formula_sum   'La2 Mo2 N6'
_cell_volume   165.12365988
_cell_formula_units_Z   2
loop_
 _symmetry_equiv_pos_site_id
 _symmetry_equiv_pos_as_xyz
  1  'x, y, z'
loop_
 _atom_site_type_symbol
 _atom_site_label
 _atom_site_symmetry_multiplicity
 _atom_site_fract_x
 _atom_site_fract_y
 _atom_site_fract_z
 _atom_site_occupancy
  La  La0  1  0.61147000  0.95933000  0.75000000  1
  La  La1  1  0.95933000  0.61147000  0.25000000  1
  Mo  Mo2  1  0.42577000  0.25051000  0.75000000  1
  Mo  Mo3  1  0.25051000  0.42577000  0.25000000  1
  N  N4  1  0.91382000  0.19108000  0.25000000  1
  N  N5  1  0.46337000  0.35105000  0.25000000  1
  N  N6  1  0.35004000  0.72552000  0.25000000  1
  N  N7  1  0.35105000  0.46337000  0.75000000  1
  N  N8  1  0.19108000  0.91382000  0.75000000  1
  N  N9  1  0.72552000  0.35004000  0.75000000  1
