# generated using pymatgen
data_PdAuO2
_symmetry_space_group_name_H-M   'P 1'
_cell_length_a   6.48940775
_cell_length_b   6.48940775
_cell_length_c   6.30874180
_cell_angle_alpha   72.15496230
_cell_angle_beta   72.15496230
_cell_angle_gamma   27.58151054
_symmetry_Int_Tables_number   1
_chemical_formula_structural   PdAuO2
_chemical_formula_sum   'Pd2 Au2 O4'
_cell_volume   116.72647702
_cell_formula_units_Z   2
loop_
 _symmetry_equiv_pos_site_id
 _symmetry_equiv_pos_as_xyz
  1  'x, y, z'
loop_
 _atom_site_type_symbol
 _atom_site_label
 _atom_site_symmetry_multiplicity
 _atom_site_fract_x
 _atom_site_fract_y
 _atom_site_fract_z
 _atom_site_occupancy
  Pd  Pd0  1  0.00000000  0.00000000  0.50000000  1
  Pd  Pd1  1  0.50000000  0.50000000  0.00000000  1
  Au  Au2  1  0.26515700  0.26515700  0.78935000  1
  Au  Au3  1  0.73484300  0.73484300  0.21065000  1
  O  O4  1  0.56136900  0.56136900  0.27779400  1
  O  O5  1  0.90160600  0.90160600  0.16787900  1
  O  O6  1  0.09839400  0.09839400  0.83212100  1
  O  O7  1  0.43863100  0.43863100  0.72220600  1
