# generated using pymatgen
data_MnAgO2
_symmetry_space_group_name_H-M   'P 1'
_cell_length_a   3.12223665
_cell_length_b   3.12224427
_cell_length_c   12.60082141
_cell_angle_alpha   82.88358194
_cell_angle_beta   89.99982183
_cell_angle_gamma   119.99974362
_symmetry_Int_Tables_number   1
_chemical_formula_structural   MnAgO2
_chemical_formula_sum   'Mn2 Ag2 O4'
_cell_volume   105.28669786
_cell_formula_units_Z   2
loop_
 _symmetry_equiv_pos_site_id
 _symmetry_equiv_pos_as_xyz
  1  'x, y, z'
loop_
 _atom_site_type_symbol
 _atom_site_label
 _atom_site_symmetry_multiplicity
 _atom_site_fract_x
 _atom_site_fract_y
 _atom_site_fract_z
 _atom_site_occupancy
  Mn  Mn0  1  0.74999900  0.50000000  0.75000000  1
  Mn  Mn1  1  0.25000300  0.50000000  0.25000100  1
  Ag  Ag2  1  0.00000900  0.00001900  0.99997200  1
  Ag  Ag3  1  0.49999000  0.99998100  0.50002800  1
  O  O4  1  0.94350600  0.88702400  0.16945900  1
  O  O5  1  0.44349400  0.88697300  0.66953900  1
  O  O6  1  0.55649300  0.11297600  0.33054100  1
  O  O7  1  0.05650600  0.11302700  0.83046000  1
