# generated using pymatgen
data_H2CSO4
_symmetry_space_group_name_H-M   'P 1'
_cell_length_a   6.01775948
_cell_length_b   6.01775948
_cell_length_c   7.50615700
_cell_angle_alpha   90.00000000
_cell_angle_beta   90.00000000
_cell_angle_gamma   132.90868277
_symmetry_Int_Tables_number   1
_chemical_formula_structural   H2CSO4
_chemical_formula_sum   'H4 C2 S2 O8'
_cell_volume   199.09446692
_cell_formula_units_Z   2
loop_
 _symmetry_equiv_pos_site_id
 _symmetry_equiv_pos_as_xyz
  1  'x, y, z'
loop_
 _atom_site_type_symbol
 _atom_site_label
 _atom_site_symmetry_multiplicity
 _atom_site_fract_x
 _atom_site_fract_y
 _atom_site_fract_z
 _atom_site_occupancy
  H  H0  1  0.21958700  0.09035400  0.07605100  1
  H  H1  1  0.78041300  0.90964600  0.57605100  1
  H  H2  1  0.09035400  0.21958700  0.92394900  1
  H  H3  1  0.90964600  0.78041300  0.42394900  1
  C  C4  1  0.02845700  0.02845700  0.00000000  1
  C  C5  1  0.97154300  0.97154300  0.50000000  1
  S  S6  1  0.84328300  0.15671700  0.25000000  1
  S  S7  1  0.15671700  0.84328300  0.75000000  1
  O  O8  1  0.09317900  0.22069000  0.38224800  1
  O  O9  1  0.90682100  0.77931000  0.88224800  1
  O  O10  1  0.22069000  0.09317900  0.61775200  1
  O  O11  1  0.77931000  0.90682100  0.11775200  1
  O  O12  1  0.56681800  0.00183800  0.34422700  1
  O  O13  1  0.43318200  0.99816200  0.84422700  1
  O  O14  1  0.00183800  0.56681800  0.65577300  1
  O  O15  1  0.99816200  0.43318200  0.15577300  1
