# generated using pymatgen
data_PdAuO2
_symmetry_space_group_name_H-M   'P 1'
_cell_length_a   6.45133668
_cell_length_b   6.45133668
_cell_length_c   6.45133679
_cell_angle_alpha   29.09288745
_cell_angle_beta   29.09288745
_cell_angle_gamma   29.09288687
_symmetry_Int_Tables_number   1
_chemical_formula_structural   PdAuO2
_chemical_formula_sum   'Pd1 Au1 O2'
_cell_volume   56.15367986
_cell_formula_units_Z   1
loop_
 _symmetry_equiv_pos_site_id
 _symmetry_equiv_pos_as_xyz
  1  'x, y, z'
loop_
 _atom_site_type_symbol
 _atom_site_label
 _atom_site_symmetry_multiplicity
 _atom_site_fract_x
 _atom_site_fract_y
 _atom_site_fract_z
 _atom_site_occupancy
  Pd  Pd0  1  0.50000000  0.50000000  0.50000000  1
  Au  Au1  1  0.00000000  0.00000000  0.00000000  1
  O  O2  1  0.11154600  0.11154600  0.11154600  1
  O  O3  1  0.88845400  0.88845400  0.88845400  1
