# generated using pymatgen
data_AgAsO2
_symmetry_space_group_name_H-M   'P 1'
_cell_length_a   5.27788010
_cell_length_b   5.27788010
_cell_length_c   6.91504916
_cell_angle_alpha   70.98095751
_cell_angle_beta   70.98095751
_cell_angle_gamma   51.64455619
_symmetry_Int_Tables_number   1
_chemical_formula_structural   AgAsO2
_chemical_formula_sum   'Ag2 As2 O4'
_cell_volume   140.80601625
_cell_formula_units_Z   2
loop_
 _symmetry_equiv_pos_site_id
 _symmetry_equiv_pos_as_xyz
  1  'x, y, z'
loop_
 _atom_site_type_symbol
 _atom_site_label
 _atom_site_symmetry_multiplicity
 _atom_site_fract_x
 _atom_site_fract_y
 _atom_site_fract_z
 _atom_site_occupancy
  Ag  Ag0  1  0.59755000  0.63585000  0.17180000  1
  Ag  Ag1  1  0.36415000  0.40245000  0.82820000  1
  As  As2  1  0.58971000  0.74107000  0.66777000  1
  As  As3  1  0.25893000  0.41029000  0.33223000  1
  O  O4  1  0.75118000  0.79692000  0.81975000  1
  O  O5  1  0.20308000  0.24882000  0.18025000  1
  O  O6  1  0.25386000  0.17172000  0.59694000  1
  O  O7  1  0.82828000  0.74614000  0.40306000  1
