# generated using pymatgen
data_AgO2F
_symmetry_space_group_name_H-M   'P 1'
_cell_length_a   5.35588620
_cell_length_b   5.35588620
_cell_length_c   4.40860000
_cell_angle_alpha   90.00000000
_cell_angle_beta   90.00000000
_cell_angle_gamma   97.33265274
_symmetry_Int_Tables_number   1
_chemical_formula_structural   AgO2F
_chemical_formula_sum   'Ag2 O4 F2'
_cell_volume   125.42873943
_cell_formula_units_Z   2
loop_
 _symmetry_equiv_pos_site_id
 _symmetry_equiv_pos_as_xyz
  1  'x, y, z'
loop_
 _atom_site_type_symbol
 _atom_site_label
 _atom_site_symmetry_multiplicity
 _atom_site_fract_x
 _atom_site_fract_y
 _atom_site_fract_z
 _atom_site_occupancy
  Ag  Ag0  1  0.28175200  0.28175200  0.00000000  1
  Ag  Ag1  1  0.71824800  0.71824800  0.50000000  1
  O  O2  1  0.96876700  0.20795000  0.71148600  1
  O  O3  1  0.03123300  0.79205000  0.21148600  1
  O  O4  1  0.79205000  0.03123300  0.78851400  1
  O  O5  1  0.20795000  0.96876700  0.28851400  1
  F  F6  1  0.62197600  0.37802400  0.25000000  1
  F  F7  1  0.37802400  0.62197600  0.75000000  1
