# generated using pymatgen
data_Ho3Si
_symmetry_space_group_name_H-M   'P 1'
_cell_length_a   6.62068100
_cell_length_b   6.62068217
_cell_length_c   5.17767500
_cell_angle_alpha   90.00000000
_cell_angle_beta   90.00000000
_cell_angle_gamma   119.99999914
_symmetry_Int_Tables_number   1
_chemical_formula_structural   Ho3Si
_chemical_formula_sum   'Ho6 Si2'
_cell_volume   196.54899381
_cell_formula_units_Z   2
loop_
 _symmetry_equiv_pos_site_id
 _symmetry_equiv_pos_as_xyz
  1  'x, y, z'
loop_
 _atom_site_type_symbol
 _atom_site_label
 _atom_site_symmetry_multiplicity
 _atom_site_fract_x
 _atom_site_fract_y
 _atom_site_fract_z
 _atom_site_occupancy
  Ho  Ho0  1  0.17484400  0.34968900  0.25000100  1
  Ho  Ho1  1  0.65031100  0.82515700  0.25000100  1
  Ho  Ho2  1  0.17484600  0.82515700  0.25000100  1
  Ho  Ho3  1  0.82515400  0.65030900  0.75000000  1
  Ho  Ho4  1  0.82515600  0.17484400  0.75000000  1
  Ho  Ho5  1  0.34968900  0.17484400  0.75000000  1
  Si  Si6  1  0.33333300  0.66666700  0.75000000  1
  Si  Si7  1  0.66666700  0.33333300  0.25000100  1
