# generated using pymatgen
data_RbSrCl3
_symmetry_space_group_name_H-M   'P 1'
_cell_length_a   5.70254771
_cell_length_b   5.70254771
_cell_length_c   5.69859181
_cell_angle_alpha   89.92488093
_cell_angle_beta   89.92488093
_cell_angle_gamma   90.06517747
_symmetry_Int_Tables_number   1
_chemical_formula_structural   RbSrCl3
_chemical_formula_sum   'Rb1 Sr1 Cl3'
_cell_volume   185.31235495
_cell_formula_units_Z   1
loop_
 _symmetry_equiv_pos_site_id
 _symmetry_equiv_pos_as_xyz
  1  'x, y, z'
loop_
 _atom_site_type_symbol
 _atom_site_label
 _atom_site_symmetry_multiplicity
 _atom_site_fract_x
 _atom_site_fract_y
 _atom_site_fract_z
 _atom_site_occupancy
  Rb  Rb0  1  0.99738400  0.99738400  0.00123300  1
  Sr  Sr1  1  0.49782200  0.49782200  0.51522900  1
  Cl  Cl2  1  0.99891100  0.49798000  0.51638500  1
  Cl  Cl3  1  0.51107100  0.51107100  0.01526100  1
  Cl  Cl4  1  0.49798000  0.99891100  0.51638500  1
