# generated using pymatgen
data_MgAgF3
_symmetry_space_group_name_H-M   'P 1'
_cell_length_a   5.62783170
_cell_length_b   5.62783170
_cell_length_c   5.62783139
_cell_angle_alpha   59.84229845
_cell_angle_beta   59.84229845
_cell_angle_gamma   59.84230376
_symmetry_Int_Tables_number   1
_chemical_formula_structural   MgAgF3
_chemical_formula_sum   'Mg2 Ag2 F6'
_cell_volume   125.58887310
_cell_formula_units_Z   2
loop_
 _symmetry_equiv_pos_site_id
 _symmetry_equiv_pos_as_xyz
  1  'x, y, z'
loop_
 _atom_site_type_symbol
 _atom_site_label
 _atom_site_symmetry_multiplicity
 _atom_site_fract_x
 _atom_site_fract_y
 _atom_site_fract_z
 _atom_site_occupancy
  Mg  Mg0  1  0.00000000  0.00000000  0.00000000  1
  Mg  Mg1  1  0.50000000  0.50000000  0.50000000  1
  Ag  Ag2  1  0.25000000  0.25000000  0.25000000  1
  Ag  Ag3  1  0.75000000  0.75000000  0.75000000  1
  F  F4  1  0.81093900  0.25000000  0.68906100  1
  F  F5  1  0.68906100  0.81093900  0.25000000  1
  F  F6  1  0.25000000  0.68906100  0.81093900  1
  F  F7  1  0.31093900  0.18906100  0.75000000  1
  F  F8  1  0.18906100  0.75000000  0.31093900  1
  F  F9  1  0.75000000  0.31093900  0.18906100  1
