# generated using pymatgen
data_ZnCr2P2O9
_symmetry_space_group_name_H-M   'P 1'
_cell_length_a   6.28839000
_cell_length_b   7.39118100
_cell_length_c   14.11220800
_cell_angle_alpha   90.00000000
_cell_angle_beta   90.00000000
_cell_angle_gamma   90.00000000
_symmetry_Int_Tables_number   1
_chemical_formula_structural   ZnCr2P2O9
_chemical_formula_sum   'Zn4 Cr8 P8 O36'
_cell_volume   655.91607561
_cell_formula_units_Z   4
loop_
 _symmetry_equiv_pos_site_id
 _symmetry_equiv_pos_as_xyz
  1  'x, y, z'
loop_
 _atom_site_type_symbol
 _atom_site_label
 _atom_site_symmetry_multiplicity
 _atom_site_fract_x
 _atom_site_fract_y
 _atom_site_fract_z
 _atom_site_occupancy
  Zn  Zn0  1  0.75000000  0.93356600  0.77620900  1
  Zn  Zn1  1  0.75000000  0.56643400  0.27620900  1
  Zn  Zn2  1  0.25000000  0.43356600  0.72379100  1
  Zn  Zn3  1  0.25000000  0.06643400  0.22379100  1
  Cr  Cr4  1  0.75000000  0.35671300  0.87787800  1
  Cr  Cr5  1  0.25000000  0.64328700  0.12212200  1
  Cr  Cr6  1  0.25000000  0.85671300  0.62212200  1
  Cr  Cr7  1  0.75000000  0.14328700  0.37787800  1
  Cr  Cr8  1  0.50000000  0.00000000  0.00000000  1
  Cr  Cr9  1  0.50000000  0.50000000  0.50000000  1
  Cr  Cr10  1  0.00000000  0.50000000  0.50000000  1
  Cr  Cr11  1  0.00000000  0.00000000  0.00000000  1
  P  P12  1  0.25000000  0.36349100  0.92808900  1
  P  P13  1  0.75000000  0.63650900  0.07191100  1
  P  P14  1  0.75000000  0.86349100  0.57191100  1
  P  P15  1  0.25000000  0.13650900  0.42808900  1
  P  P16  1  0.75000000  0.38799800  0.69343400  1
  P  P17  1  0.75000000  0.11200200  0.19343400  1
  P  P18  1  0.25000000  0.88799800  0.80656600  1
  P  P19  1  0.25000000  0.61200200  0.30656600  1
  O  O20  1  0.03929600  0.60669600  0.36618200  1
  O  O21  1  0.53929600  0.39330400  0.63381800  1
  O  O22  1  0.96070400  0.10669600  0.13381800  1
  O  O23  1  0.46070400  0.89330400  0.86618200  1
  O  O24  1  0.96070400  0.39330400  0.63381800  1
  O  O25  1  0.46070400  0.60669600  0.36618200  1
  O  O26  1  0.03929600  0.89330400  0.86618200  1
  O  O27  1  0.53929600  0.10669600  0.13381800  1
  O  O28  1  0.25000000  0.32926300  0.47578000  1
  O  O29  1  0.75000000  0.67073700  0.52422000  1
  O  O30  1  0.75000000  0.82926300  0.02422000  1
  O  O31  1  0.25000000  0.17073700  0.97578000  1
  O  O32  1  0.75000000  0.12972600  0.94709400  1
  O  O33  1  0.25000000  0.87027400  0.05290600  1
  O  O34  1  0.25000000  0.62972600  0.55290600  1
  O  O35  1  0.75000000  0.37027400  0.44709400  1
  O  O36  1  0.75000000  0.21031100  0.75457700  1
  O  O37  1  0.25000000  0.78968900  0.24542300  1
  O  O38  1  0.25000000  0.71031100  0.74542300  1
  O  O39  1  0.75000000  0.28968900  0.25457700  1
  O  O40  1  0.43791500  0.12594500  0.35762100  1
  O  O41  1  0.93791500  0.87405500  0.64237900  1
  O  O42  1  0.56208500  0.62594500  0.14237900  1
  O  O43  1  0.06208500  0.37405500  0.85762100  1
  O  O44  1  0.56208500  0.87405500  0.64237900  1
  O  O45  1  0.06208500  0.12594500  0.35762100  1
  O  O46  1  0.43791500  0.37405500  0.85762100  1
  O  O47  1  0.93791500  0.62594500  0.14237900  1
  O  O48  1  0.75000000  0.49266700  0.99698400  1
  O  O49  1  0.25000000  0.04160900  0.73247400  1
  O  O50  1  0.25000000  0.45839100  0.23247400  1
  O  O51  1  0.75000000  0.54160900  0.76752600  1
  O  O52  1  0.75000000  0.00733300  0.49698400  1
  O  O53  1  0.25000000  0.99266700  0.50301600  1
  O  O54  1  0.25000000  0.50733300  0.00301600  1
  O  O55  1  0.75000000  0.95839100  0.26752600  1
