# generated using pymatgen
data_NaVS2
_symmetry_space_group_name_H-M   'P 1'
_cell_length_a   3.54919386
_cell_length_b   3.54919386
_cell_length_c   6.68804700
_cell_angle_alpha   90.00000000
_cell_angle_beta   90.00000000
_cell_angle_gamma   119.99999730
_symmetry_Int_Tables_number   1
_chemical_formula_structural   NaVS2
_chemical_formula_sum   'Na1 V1 S2'
_cell_volume   72.96076885
_cell_formula_units_Z   1
loop_
 _symmetry_equiv_pos_site_id
 _symmetry_equiv_pos_as_xyz
  1  'x, y, z'
loop_
 _atom_site_type_symbol
 _atom_site_label
 _atom_site_symmetry_multiplicity
 _atom_site_fract_x
 _atom_site_fract_y
 _atom_site_fract_z
 _atom_site_occupancy
  Na  Na0  1  0.00000000  0.00000000  0.50000000  1
  V  V1  1  0.00000000  0.00000000  0.00000000  1
  S  S2  1  0.66666700  0.33333300  0.79795800  1
  S  S3  1  0.33333300  0.66666700  0.20204200  1
