# generated using pymatgen
data_Zn(CoO2)2
_symmetry_space_group_name_H-M   'P 1'
_cell_length_a   5.95410372
_cell_length_b   5.95410372
_cell_length_c   14.64014700
_cell_angle_alpha   90.00000000
_cell_angle_beta   90.00000000
_cell_angle_gamma   119.99999691
_symmetry_Int_Tables_number   1
_chemical_formula_structural   Zn(CoO2)2
_chemical_formula_sum   'Zn6 Co12 O24'
_cell_volume   449.47844991
_cell_formula_units_Z   6
loop_
 _symmetry_equiv_pos_site_id
 _symmetry_equiv_pos_as_xyz
  1  'x, y, z'
loop_
 _atom_site_type_symbol
 _atom_site_label
 _atom_site_symmetry_multiplicity
 _atom_site_fract_x
 _atom_site_fract_y
 _atom_site_fract_z
 _atom_site_occupancy
  Zn  Zn0  1  0.33333300  0.66666700  0.95700200  1
  Zn  Zn1  1  0.00000000  0.00000000  0.62433900  1
  Zn  Zn2  1  0.00000000  0.00000000  0.00010400  1
  Zn  Zn3  1  0.66666700  0.33333300  0.29234000  1
  Zn  Zn4  1  0.33333300  0.66666700  0.70838800  1
  Zn  Zn5  1  0.00000000  0.00000000  0.37521700  1
  Co  Co6  1  0.83436800  0.66873600  0.83317500  1
  Co  Co7  1  0.33126400  0.16563200  0.83317500  1
  Co  Co8  1  0.49974700  0.99949400  0.49992300  1
  Co  Co9  1  0.83436800  0.16563200  0.83317500  1
  Co  Co10  1  0.66666700  0.33333300  0.66821700  1
  Co  Co11  1  0.00050600  0.50025300  0.49992300  1
  Co  Co12  1  0.16674000  0.33348000  0.16709500  1
  Co  Co13  1  0.49974700  0.50025300  0.49992300  1
  Co  Co14  1  0.16674000  0.83326000  0.16709500  1
  Co  Co15  1  0.33333300  0.66666700  0.33184300  1
  Co  Co16  1  0.66652000  0.83326000  0.16709500  1
  Co  Co17  1  0.66666700  0.33333300  0.04301800  1
  O  O18  1  0.68752900  0.84376400  0.90594300  1
  O  O19  1  0.00000000  0.00000000  0.75819400  1
  O  O20  1  0.15623600  0.84376400  0.90594300  1
  O  O21  1  0.15623600  0.31247100  0.90594300  1
  O  O22  1  0.51501900  0.03003800  0.75324800  1
  O  O23  1  0.36086300  0.18043100  0.57791700  1
  O  O24  1  0.51501900  0.48498100  0.75324800  1
  O  O25  1  0.66666700  0.33333300  0.90862400  1
  O  O26  1  0.81956900  0.18043100  0.57791700  1
  O  O27  1  0.66666700  0.33333300  0.42734200  1
  O  O28  1  0.96996200  0.48498100  0.75324800  1
  O  O29  1  0.81956900  0.63913700  0.57791700  1
  O  O30  1  0.18111500  0.36223100  0.41973600  1
  O  O31  1  0.02754000  0.51377000  0.24692300  1
  O  O32  1  0.18111500  0.81888500  0.41973600  1
  O  O33  1  0.33333300  0.66666700  0.57346900  1
  O  O34  1  0.33333300  0.66666700  0.09170600  1
  O  O35  1  0.48623000  0.51377000  0.24692300  1
  O  O36  1  0.63776900  0.81888500  0.41973600  1
  O  O37  1  0.48623000  0.97246000  0.24692300  1
  O  O38  1  0.84163100  0.68326300  0.09318100  1
  O  O39  1  0.00000000  0.00000000  0.24117700  1
  O  O40  1  0.84163100  0.15836900  0.09318100  1
  O  O41  1  0.31673700  0.15836900  0.09318100  1
