# generated using pymatgen
data_SmCoC2
_symmetry_space_group_name_H-M   'P 1'
_cell_length_a   3.77623608
_cell_length_b   3.77623608
_cell_length_c   3.70834000
_cell_angle_alpha   90.00000000
_cell_angle_beta   90.00000000
_cell_angle_gamma   106.37443712
_symmetry_Int_Tables_number   1
_chemical_formula_structural   SmCoC2
_chemical_formula_sum   'Sm1 Co1 C2'
_cell_volume   50.73592366
_cell_formula_units_Z   1
loop_
 _symmetry_equiv_pos_site_id
 _symmetry_equiv_pos_as_xyz
  1  'x, y, z'
loop_
 _atom_site_type_symbol
 _atom_site_label
 _atom_site_symmetry_multiplicity
 _atom_site_fract_x
 _atom_site_fract_y
 _atom_site_fract_z
 _atom_site_occupancy
  Sm  Sm0  1  0.99825100  0.00174900  0.00000000  1
  Co  Co1  1  0.61166200  0.38833800  0.50000000  1
  C  C2  1  0.45494300  0.84985600  0.50000000  1
  C  C3  1  0.15014400  0.54505700  0.50000000  1
