# generated using pymatgen
data_BMo
_symmetry_space_group_name_H-M   'P 1'
_cell_length_a   4.55342510
_cell_length_b   4.55342510
_cell_length_c   3.09570800
_cell_angle_alpha   90.00000000
_cell_angle_beta   90.00000000
_cell_angle_gamma   139.32889890
_symmetry_Int_Tables_number   1
_chemical_formula_structural   BMo
_chemical_formula_sum   'B2 Mo2'
_cell_volume   41.83066045
_cell_formula_units_Z   2
loop_
 _symmetry_equiv_pos_site_id
 _symmetry_equiv_pos_as_xyz
  1  'x, y, z'
loop_
 _atom_site_type_symbol
 _atom_site_label
 _atom_site_symmetry_multiplicity
 _atom_site_fract_x
 _atom_site_fract_y
 _atom_site_fract_z
 _atom_site_occupancy
  B  B0  1  0.55946600  0.44053400  0.75000000  1
  B  B1  1  0.44053400  0.55946600  0.25000000  1
  Mo  Mo2  1  0.85568700  0.14431300  0.75000000  1
  Mo  Mo3  1  0.14431300  0.85568700  0.25000000  1
