# generated using pymatgen
data_Ho(SbO3)2
_symmetry_space_group_name_H-M   'P 1'
_cell_length_a   5.42532300
_cell_length_b   5.81265200
_cell_length_c   7.91634900
_cell_angle_alpha   90.00000000
_cell_angle_beta   90.00000000
_cell_angle_gamma   90.00000000
_symmetry_Int_Tables_number   1
_chemical_formula_structural   Ho(SbO3)2
_chemical_formula_sum   'Ho2 Sb4 O12'
_cell_volume   249.64613936
_cell_formula_units_Z   2
loop_
 _symmetry_equiv_pos_site_id
 _symmetry_equiv_pos_as_xyz
  1  'x, y, z'
loop_
 _atom_site_type_symbol
 _atom_site_label
 _atom_site_symmetry_multiplicity
 _atom_site_fract_x
 _atom_site_fract_y
 _atom_site_fract_z
 _atom_site_occupancy
  Ho  Ho0  1  0.02587600  0.66410500  0.00000000  1
  Ho  Ho1  1  0.52587600  0.33589500  0.50000000  1
  Sb  Sb2  1  0.00558700  0.23237400  0.75155500  1
  Sb  Sb3  1  0.00558700  0.23237400  0.24844500  1
  Sb  Sb4  1  0.50558700  0.76762600  0.25155500  1
  Sb  Sb5  1  0.50558700  0.76762600  0.74844500  1
  O  O6  1  0.12879700  0.22144200  0.50000000  1
  O  O7  1  0.17979700  0.93095700  0.81162900  1
  O  O8  1  0.17979700  0.93095700  0.18837100  1
  O  O9  1  0.28317900  0.47436600  0.79484100  1
  O  O10  1  0.28317900  0.47436600  0.20515900  1
  O  O11  1  0.42020700  0.71544100  0.50000000  1
  O  O12  1  0.62879700  0.77855800  0.00000000  1
  O  O13  1  0.67979700  0.06904300  0.31162900  1
  O  O14  1  0.67979700  0.06904300  0.68837100  1
  O  O15  1  0.78317900  0.52563400  0.70515900  1
  O  O16  1  0.78317900  0.52563400  0.29484100  1
  O  O17  1  0.92020700  0.28455900  0.00000000  1
