# generated using pymatgen
data_Ca(MoO2)2
_symmetry_space_group_name_H-M   'P 1'
_cell_length_a   6.66434917
_cell_length_b   6.66434917
_cell_length_c   6.66434927
_cell_angle_alpha   59.21924720
_cell_angle_beta   59.21924720
_cell_angle_gamma   59.21924115
_symmetry_Int_Tables_number   1
_chemical_formula_structural   Ca(MoO2)2
_chemical_formula_sum   'Ca2 Mo4 O8'
_cell_volume   205.57210261
_cell_formula_units_Z   2
loop_
 _symmetry_equiv_pos_site_id
 _symmetry_equiv_pos_as_xyz
  1  'x, y, z'
loop_
 _atom_site_type_symbol
 _atom_site_label
 _atom_site_symmetry_multiplicity
 _atom_site_fract_x
 _atom_site_fract_y
 _atom_site_fract_z
 _atom_site_occupancy
  Ca  Ca0  1  0.99784500  0.99784500  0.99784500  1
  Ca  Ca1  1  0.37145900  0.37145900  0.37145900  1
  Mo  Mo2  1  0.77859000  0.77859000  0.77859000  1
  Mo  Mo3  1  0.37503900  0.37503900  0.87756500  1
  Mo  Mo4  1  0.37503900  0.87756500  0.37503900  1
  Mo  Mo5  1  0.87756500  0.37503900  0.37503900  1
  O  O6  1  0.14812200  0.62341700  0.62341700  1
  O  O7  1  0.62341700  0.14812200  0.62341700  1
  O  O8  1  0.62341700  0.62341700  0.14812200  1
  O  O9  1  0.60643100  0.60643100  0.60643100  1
  O  O10  1  0.13920800  0.13920800  0.13920800  1
  O  O11  1  0.12554000  0.12554000  0.58279100  1
  O  O12  1  0.12554000  0.58279100  0.12554000  1
  O  O13  1  0.58279100  0.12554000  0.12554000  1
