# generated using pymatgen
data_LaCrMoO6
_symmetry_space_group_name_H-M   'P 1'
_cell_length_a   5.50069200
_cell_length_b   5.50461180
_cell_length_c   5.50970716
_cell_angle_alpha   119.84844815
_cell_angle_beta   119.74962120
_cell_angle_gamma   90.26028051
_symmetry_Int_Tables_number   1
_chemical_formula_structural   LaCrMoO6
_chemical_formula_sum   'La1 Cr1 Mo1 O6'
_cell_volume   118.41333072
_cell_formula_units_Z   1
loop_
 _symmetry_equiv_pos_site_id
 _symmetry_equiv_pos_as_xyz
  1  'x, y, z'
loop_
 _atom_site_type_symbol
 _atom_site_label
 _atom_site_symmetry_multiplicity
 _atom_site_fract_x
 _atom_site_fract_y
 _atom_site_fract_z
 _atom_site_occupancy
  La  La0  1  0.74503200  0.74103200  0.01820100  1
  Cr  Cr1  1  0.99889800  0.48978500  0.51162800  1
  Mo  Mo2  1  0.50137900  0.99084900  0.51192500  1
  O  O3  1  0.18763900  0.74810800  0.57180400  1
  O  O4  1  0.71467400  0.71301300  0.50986800  1
  O  O5  1  0.29765900  0.28080700  0.48430200  1
  O  O6  1  0.72861700  0.19692000  0.01864200  1
  O  O7  1  0.27588200  0.76891700  0.00313600  1
  O  O8  1  0.79039700  0.22915900  0.47214300  1
