# generated using pymatgen
data_BaMgTiF7
_symmetry_space_group_name_H-M   'P 1'
_cell_length_a   10.01736400
_cell_length_b   5.71290000
_cell_length_c   9.68460681
_cell_angle_alpha   86.99047464
_cell_angle_beta   90.00000000
_cell_angle_gamma   90.00000000
_symmetry_Int_Tables_number   1
_chemical_formula_structural   BaMgTiF7
_chemical_formula_sum   'Ba4 Mg4 Ti4 F28'
_cell_volume   553.46821760
_cell_formula_units_Z   4
loop_
 _symmetry_equiv_pos_site_id
 _symmetry_equiv_pos_as_xyz
  1  'x, y, z'
loop_
 _atom_site_type_symbol
 _atom_site_label
 _atom_site_symmetry_multiplicity
 _atom_site_fract_x
 _atom_site_fract_y
 _atom_site_fract_z
 _atom_site_occupancy
  Ba  Ba0  1  0.31844900  0.73230000  0.49917000  1
  Ba  Ba1  1  0.81844900  0.26770000  0.00083000  1
  Ba  Ba2  1  0.68155100  0.26770000  0.50083000  1
  Ba  Ba3  1  0.18155100  0.73230000  0.99917000  1
  Mg  Mg4  1  0.39511200  0.30681700  0.80950300  1
  Mg  Mg5  1  0.89511200  0.69318300  0.69049700  1
  Mg  Mg6  1  0.10488800  0.30681700  0.30950300  1
  Mg  Mg7  1  0.60488800  0.69318300  0.19049700  1
  Ti  Ti8  1  0.61032800  0.80589900  0.81174300  1
  Ti  Ti9  1  0.38967200  0.19410100  0.18825700  1
  Ti  Ti10  1  0.88967200  0.80589900  0.31174300  1
  Ti  Ti11  1  0.11032800  0.19410100  0.68825700  1
  F  F12  1  0.44915900  0.87938300  0.12521000  1
  F  F13  1  0.05405500  0.62553300  0.37188500  1
  F  F14  1  0.71526500  0.52150000  0.74917800  1
  F  F15  1  0.28473500  0.47850000  0.25082200  1
  F  F16  1  0.45618900  0.10901500  0.36779000  1
  F  F17  1  0.81029900  0.74174000  0.49735100  1
  F  F18  1  0.78366000  0.97259900  0.75039800  1
  F  F19  1  0.95618900  0.89098500  0.13221000  1
  F  F20  1  0.44594500  0.62553300  0.87188500  1
  F  F21  1  0.21526500  0.47850000  0.75082200  1
  F  F22  1  0.05084100  0.87938300  0.62521000  1
  F  F23  1  0.55084100  0.12061700  0.87479000  1
  F  F24  1  0.28366000  0.02740100  0.74960200  1
  F  F25  1  0.95874300  0.61213000  0.87486300  1
  F  F26  1  0.54381100  0.89098500  0.63221000  1
  F  F27  1  0.04381100  0.10901500  0.86779000  1
  F  F28  1  0.21634000  0.02740100  0.24960200  1
  F  F29  1  0.94915900  0.12061700  0.37479000  1
  F  F30  1  0.45874300  0.38787000  0.62513700  1
  F  F31  1  0.94594500  0.37446700  0.62811500  1
  F  F32  1  0.04125700  0.38787000  0.12513700  1
  F  F33  1  0.71634000  0.97259900  0.25039800  1
  F  F34  1  0.54125700  0.61213000  0.37486300  1
  F  F35  1  0.31029900  0.25826000  0.00264900  1
  F  F36  1  0.18970100  0.25826000  0.50264900  1
  F  F37  1  0.68970100  0.74174000  0.99735100  1
  F  F38  1  0.55405500  0.37446700  0.12811500  1
  F  F39  1  0.78473500  0.52150000  0.24917800  1
