# generated using pymatgen
data_Zn(NiO2)2
_symmetry_space_group_name_H-M   'P 1'
_cell_length_a   5.89278208
_cell_length_b   5.89278208
_cell_length_c   14.51005300
_cell_angle_alpha   90.00000000
_cell_angle_beta   90.00000000
_cell_angle_gamma   120.00000087
_symmetry_Int_Tables_number   1
_chemical_formula_structural   Zn(NiO2)2
_chemical_formula_sum   'Zn6 Ni12 O24'
_cell_volume   436.35543321
_cell_formula_units_Z   6
loop_
 _symmetry_equiv_pos_site_id
 _symmetry_equiv_pos_as_xyz
  1  'x, y, z'
loop_
 _atom_site_type_symbol
 _atom_site_label
 _atom_site_symmetry_multiplicity
 _atom_site_fract_x
 _atom_site_fract_y
 _atom_site_fract_z
 _atom_site_occupancy
  Zn  Zn0  1  0.66666700  0.33333300  0.95360300  1
  Zn  Zn1  1  0.33333300  0.66666700  0.62001500  1
  Zn  Zn2  1  0.00000000  0.00000000  0.66658000  1
  Zn  Zn3  1  0.00000000  0.00000000  0.28858300  1
  Zn  Zn4  1  0.33333300  0.66666700  0.00133300  1
  Zn  Zn5  1  0.33333300  0.66666700  0.37635200  1
  Ni  Ni6  1  0.16738200  0.33476400  0.83389700  1
  Ni  Ni7  1  0.66523600  0.83261800  0.83389700  1
  Ni  Ni8  1  0.83331700  0.66663500  0.49854800  1
  Ni  Ni9  1  0.16738200  0.83261800  0.83389700  1
  Ni  Ni10  1  0.33336500  0.16668300  0.49854800  1
  Ni  Ni11  1  0.66666700  0.33333300  0.33367700  1
  Ni  Ni12  1  0.66666700  0.33333300  0.71357500  1
  Ni  Ni13  1  0.50107400  0.00214700  0.16734000  1
  Ni  Ni14  1  0.83331700  0.16668300  0.49854800  1
  Ni  Ni15  1  0.99785300  0.49892600  0.16734000  1
  Ni  Ni16  1  0.50107400  0.49892600  0.16734000  1
  Ni  Ni17  1  0.00000000  0.00000000  0.04436400  1
  O  O18  1  0.48542400  0.97084800  0.90644600  1
  O  O19  1  0.33333300  0.66666700  0.75439500  1
  O  O20  1  0.02915200  0.51457600  0.90644600  1
  O  O21  1  0.48542400  0.51457600  0.90644600  1
  O  O22  1  0.15326700  0.30653400  0.57150000  1
  O  O23  1  0.84632200  0.15367800  0.76198000  1
  O  O24  1  0.00000000  0.00000000  0.42442900  1
  O  O25  1  0.30735600  0.15367800  0.76198000  1
  O  O26  1  0.00000000  0.00000000  0.91604300  1
  O  O27  1  0.69346600  0.84673300  0.57150000  1
  O  O28  1  0.15326700  0.84673300  0.57150000  1
  O  O29  1  0.84632200  0.69264400  0.76198000  1
  O  O30  1  0.81679700  0.63359300  0.24694500  1
  O  O31  1  0.51699700  0.48300300  0.42312500  1
  O  O32  1  0.96600500  0.48300300  0.42312500  1
  O  O33  1  0.66666700  0.33333300  0.09182900  1
  O  O34  1  0.66666700  0.33333300  0.57616200  1
  O  O35  1  0.36640700  0.18320300  0.24694500  1
  O  O36  1  0.81679700  0.18320300  0.24694500  1
  O  O37  1  0.51699700  0.03399500  0.42312500  1
  O  O38  1  0.17368300  0.82631700  0.09115500  1
  O  O39  1  0.65263400  0.82631700  0.09115500  1
  O  O40  1  0.33333300  0.66666700  0.23937200  1
  O  O41  1  0.17368300  0.34736600  0.09115500  1
