# generated using pymatgen
data_BaMgSnF7
_symmetry_space_group_name_H-M   'P 1'
_cell_length_a   10.37032400
_cell_length_b   5.80196400
_cell_length_c   9.96785138
_cell_angle_alpha   87.33688026
_cell_angle_beta   90.00000000
_cell_angle_gamma   90.00000000
_symmetry_Int_Tables_number   1
_chemical_formula_structural   BaMgSnF7
_chemical_formula_sum   'Ba4 Mg4 Sn4 F28'
_cell_volume   599.10040503
_cell_formula_units_Z   4
loop_
 _symmetry_equiv_pos_site_id
 _symmetry_equiv_pos_as_xyz
  1  'x, y, z'
loop_
 _atom_site_type_symbol
 _atom_site_label
 _atom_site_symmetry_multiplicity
 _atom_site_fract_x
 _atom_site_fract_y
 _atom_site_fract_z
 _atom_site_occupancy
  Ba  Ba0  1  0.32621100  0.72873400  0.49530800  1
  Ba  Ba1  1  0.82621100  0.27126600  0.00469200  1
  Ba  Ba2  1  0.67378900  0.27126600  0.50469200  1
  Ba  Ba3  1  0.17378900  0.72873400  0.99530800  1
  Mg  Mg4  1  0.38899900  0.30573800  0.80688800  1
  Mg  Mg5  1  0.88899900  0.69426200  0.69311200  1
  Mg  Mg6  1  0.11100100  0.30573800  0.30688800  1
  Mg  Mg7  1  0.61100100  0.69426200  0.19311200  1
  Sn  Sn8  1  0.60018000  0.80155100  0.81745500  1
  Sn  Sn9  1  0.39982000  0.19844900  0.18254500  1
  Sn  Sn10  1  0.89982000  0.80155100  0.31745500  1
  Sn  Sn11  1  0.10018000  0.19844900  0.68254500  1
  F  F12  1  0.45098600  0.85611200  0.12532300  1
  F  F13  1  0.07288700  0.61596600  0.38301000  1
  F  F14  1  0.72239800  0.51530900  0.75353800  1
  F  F15  1  0.27760200  0.48469100  0.24646200  1
  F  F16  1  0.45986900  0.09499600  0.37918500  1
  F  F17  1  0.79901200  0.75809400  0.51139900  1
  F  F18  1  0.78547500  0.97206800  0.75518800  1
  F  F19  1  0.95986900  0.90500400  0.12081500  1
  F  F20  1  0.42711300  0.61596600  0.88301000  1
  F  F21  1  0.22239800  0.48469100  0.74646200  1
  F  F22  1  0.04901400  0.85611200  0.62532300  1
  F  F23  1  0.54901400  0.14388800  0.87467700  1
  F  F24  1  0.28547500  0.02793200  0.74481200  1
  F  F25  1  0.96380500  0.59273600  0.86544200  1
  F  F26  1  0.54013100  0.90500400  0.62081500  1
  F  F27  1  0.04013100  0.09499600  0.87918500  1
  F  F28  1  0.21452500  0.02793200  0.24481200  1
  F  F29  1  0.95098600  0.14388800  0.37467700  1
  F  F30  1  0.46380500  0.40726400  0.63455800  1
  F  F31  1  0.92711300  0.38403400  0.61699000  1
  F  F32  1  0.03619500  0.40726400  0.13455800  1
  F  F33  1  0.71452500  0.97206800  0.25518800  1
  F  F34  1  0.53619500  0.59273600  0.36544200  1
  F  F35  1  0.29901200  0.24190600  0.98860100  1
  F  F36  1  0.20098800  0.24190600  0.48860100  1
  F  F37  1  0.70098800  0.75809400  0.01139900  1
  F  F38  1  0.57288700  0.38403400  0.11699000  1
  F  F39  1  0.77760200  0.51530900  0.25353800  1
