# generated using pymatgen
data_Mg(WO2)2
_symmetry_space_group_name_H-M   'P 1'
_cell_length_a   6.45664705
_cell_length_b   6.45664705
_cell_length_c   15.53027553
_cell_angle_alpha   88.89116880
_cell_angle_beta   88.89116880
_cell_angle_gamma   59.11409951
_symmetry_Int_Tables_number   1
_chemical_formula_structural   Mg(WO2)2
_chemical_formula_sum   'Mg6 W12 O24'
_cell_volume   555.48181113
_cell_formula_units_Z   6
loop_
 _symmetry_equiv_pos_site_id
 _symmetry_equiv_pos_as_xyz
  1  'x, y, z'
loop_
 _atom_site_type_symbol
 _atom_site_label
 _atom_site_symmetry_multiplicity
 _atom_site_fract_x
 _atom_site_fract_y
 _atom_site_fract_z
 _atom_site_occupancy
  Mg  Mg0  1  0.16508100  0.16508100  0.95456300  1
  Mg  Mg1  1  0.50075100  0.50075100  0.62556200  1
  Mg  Mg2  1  0.49913600  0.49913600  0.99532800  1
  Mg  Mg3  1  0.83553500  0.83553500  0.29189000  1
  Mg  Mg4  1  0.16730700  0.16730700  0.71075100  1
  Mg  Mg5  1  0.50056900  0.50056900  0.37511000  1
  W  W6  1  0.16749400  0.66412600  0.83628200  1
  W  W7  1  0.66231900  0.66231900  0.83460700  1
  W  W8  1  0.50005500  0.00126800  0.50042900  1
  W  W9  1  0.66412600  0.16749400  0.83628200  1
  W  W10  1  0.83434000  0.83434000  0.66804700  1
  W  W11  1  0.00078500  0.00078500  0.50006200  1
  W  W12  1  0.83496100  0.33787700  0.16488400  1
  W  W13  1  0.00126800  0.50005500  0.50042900  1
  W  W14  1  0.33787700  0.83496100  0.16488400  1
  W  W15  1  0.16902100  0.16902100  0.33249200  1
  W  W16  1  0.33708900  0.33708900  0.16418600  1
  W  W17  1  0.82979200  0.82979200  0.04538200  1
  O  O18  1  0.34301300  0.34301300  0.91962900  1
  O  O19  1  0.50018300  0.50018300  0.75795500  1
  O  O20  1  0.33695200  0.81278600  0.91516100  1
  O  O21  1  0.81278600  0.33695200  0.91516100  1
  O  O22  1  0.51751700  0.99538800  0.75426300  1
  O  O23  1  0.67739800  0.67739800  0.58361100  1
  O  O24  1  0.99538800  0.51751700  0.75426300  1
  O  O25  1  0.82282800  0.82282800  0.90946600  1
  O  O26  1  0.67087300  0.15155900  0.58003600  1
  O  O27  1  0.83697600  0.83697600  0.42328000  1
  O  O28  1  0.98983400  0.98983400  0.75245100  1
  O  O29  1  0.15155900  0.67087300  0.58003600  1
  O  O30  1  0.85089700  0.33073800  0.41903000  1
  O  O31  1  0.01290900  0.01290900  0.24819900  1
  O  O32  1  0.33073800  0.85089700  0.41903000  1
  O  O33  1  0.16411100  0.16411100  0.57695000  1
  O  O34  1  0.17258200  0.17258200  0.08918000  1
  O  O35  1  0.00733500  0.48766700  0.24472000  1
  O  O36  1  0.32444000  0.32444000  0.41651200  1
  O  O37  1  0.48766700  0.00733500  0.24472000  1
  O  O38  1  0.18894700  0.67180900  0.08802600  1
  O  O39  1  0.49954500  0.49954500  0.24177800  1
  O  O40  1  0.67180900  0.18894700  0.08802600  1
  O  O41  1  0.64601800  0.64601800  0.07645000  1
