# generated using pymatgen
data_CaSn3P3O13
_symmetry_space_group_name_H-M   'P 1'
_cell_length_a   6.88282000
_cell_length_b   7.72538400
_cell_length_c   11.13359564
_cell_angle_alpha   81.90613544
_cell_angle_beta   90.00000000
_cell_angle_gamma   90.00000000
_symmetry_Int_Tables_number   1
_chemical_formula_structural   CaSn3P3O13
_chemical_formula_sum   'Ca2 Sn6 P6 O26'
_cell_volume   586.10323808
_cell_formula_units_Z   2
loop_
 _symmetry_equiv_pos_site_id
 _symmetry_equiv_pos_as_xyz
  1  'x, y, z'
loop_
 _atom_site_type_symbol
 _atom_site_label
 _atom_site_symmetry_multiplicity
 _atom_site_fract_x
 _atom_site_fract_y
 _atom_site_fract_z
 _atom_site_occupancy
  Ca  Ca0  1  0.75000000  0.35659000  0.20285700  1
  Ca  Ca1  1  0.25000000  0.64341000  0.79714300  1
  Sn  Sn2  1  0.25000000  0.67554900  0.24288500  1
  Sn  Sn3  1  0.75000000  0.32445100  0.75711500  1
  Sn  Sn4  1  0.25000000  0.23967600  0.45608500  1
  Sn  Sn5  1  0.50000000  0.00000000  0.00000000  1
  Sn  Sn6  1  0.75000000  0.76032400  0.54391500  1
  Sn  Sn7  1  0.00000000  0.00000000  0.00000000  1
  P  P8  1  0.25000000  0.78640400  0.51850100  1
  P  P9  1  0.75000000  0.21359600  0.48149900  1
  P  P10  1  0.25000000  0.23204700  0.75963600  1
  P  P11  1  0.75000000  0.76795300  0.24036400  1
  P  P12  1  0.75000000  0.66015800  0.90632600  1
  P  P13  1  0.25000000  0.33984200  0.09367400  1
  O  O14  1  0.75000000  0.57823200  0.78234600  1
  O  O15  1  0.57563000  0.24941400  0.39444400  1
  O  O16  1  0.25000000  0.12425600  0.65652500  1
  O  O17  1  0.56086900  0.77650100  0.89644800  1
  O  O18  1  0.75000000  0.35595700  0.57426900  1
  O  O19  1  0.75000000  0.13234900  0.90321600  1
  O  O20  1  0.25000000  0.64404300  0.42573100  1
  O  O21  1  0.06086900  0.22349900  0.10355200  1
  O  O22  1  0.25000000  0.96208700  0.43441400  1
  O  O23  1  0.75000000  0.03791300  0.56558600  1
  O  O24  1  0.06961100  0.35327200  0.76425200  1
  O  O25  1  0.25000000  0.86765100  0.09678400  1
  O  O26  1  0.56961100  0.64672800  0.23574800  1
  O  O27  1  0.75000000  0.51737000  0.01327600  1
  O  O28  1  0.75000000  0.87574400  0.34347500  1
  O  O29  1  0.43913100  0.22349900  0.10355200  1
  O  O30  1  0.92437000  0.24941400  0.39444400  1
  O  O31  1  0.42437000  0.75058600  0.60555600  1
  O  O32  1  0.43038900  0.35327200  0.76425200  1
  O  O33  1  0.25000000  0.42176800  0.21765400  1
  O  O34  1  0.75000000  0.90654700  0.11785700  1
  O  O35  1  0.25000000  0.09345300  0.88214300  1
  O  O36  1  0.93038900  0.64672800  0.23574800  1
  O  O37  1  0.93913100  0.77650100  0.89644800  1
  O  O38  1  0.07563000  0.75058600  0.60555600  1
  O  O39  1  0.25000000  0.48263000  0.98672400  1
