# generated using pymatgen
data_CaTi2(CuO4)2
_symmetry_space_group_name_H-M   'P 1'
_cell_length_a   8.81999000
_cell_length_b   6.40749200
_cell_length_c   12.50329060
_cell_angle_alpha   84.16042931
_cell_angle_beta   90.00000000
_cell_angle_gamma   90.00000000
_symmetry_Int_Tables_number   1
_chemical_formula_structural   CaTi2(CuO4)2
_chemical_formula_sum   'Ca4 Ti8 Cu8 O32'
_cell_volume   702.94432432
_cell_formula_units_Z   4
loop_
 _symmetry_equiv_pos_site_id
 _symmetry_equiv_pos_as_xyz
  1  'x, y, z'
loop_
 _atom_site_type_symbol
 _atom_site_label
 _atom_site_symmetry_multiplicity
 _atom_site_fract_x
 _atom_site_fract_y
 _atom_site_fract_z
 _atom_site_occupancy
  Ca  Ca0  1  0.16579500  0.15055300  0.01828100  1
  Ca  Ca1  1  0.83420500  0.84944700  0.98171900  1
  Ca  Ca2  1  0.66579500  0.84944700  0.48171900  1
  Ca  Ca3  1  0.33420500  0.15055300  0.51828100  1
  Ti  Ti4  1  0.45912300  0.08761800  0.82952400  1
  Ti  Ti5  1  0.04087700  0.08761800  0.32952400  1
  Ti  Ti6  1  0.09031800  0.59692300  0.15148900  1
  Ti  Ti7  1  0.95912300  0.91238200  0.67047600  1
  Ti  Ti8  1  0.90968200  0.40307700  0.84851100  1
  Ti  Ti9  1  0.59031800  0.40307700  0.34851100  1
  Ti  Ti10  1  0.40968200  0.59692300  0.65148900  1
  Ti  Ti11  1  0.54087700  0.91238200  0.17047600  1
  Cu  Cu12  1  0.18327700  0.75934900  0.84428300  1
  Cu  Cu13  1  0.05630700  0.39053000  0.62928100  1
  Cu  Cu14  1  0.94369300  0.60947000  0.37071900  1
  Cu  Cu15  1  0.81672300  0.24065100  0.15571700  1
  Cu  Cu16  1  0.31672300  0.75934900  0.34428300  1
  Cu  Cu17  1  0.44369300  0.39053000  0.12928100  1
  Cu  Cu18  1  0.68327700  0.24065100  0.65571700  1
  Cu  Cu19  1  0.55630700  0.60947000  0.87071900  1
  O  O20  1  0.24020900  0.02308700  0.36214500  1
  O  O21  1  0.00408700  0.67184800  0.61499500  1
  O  O22  1  0.58147900  0.18789400  0.44680500  1
  O  O23  1  0.08147900  0.81210600  0.05319500  1
  O  O24  1  0.25979100  0.02308700  0.86214500  1
  O  O25  1  0.75979100  0.97691300  0.63785500  1
  O  O26  1  0.09481300  0.11144700  0.60954800  1
  O  O27  1  0.89131300  0.50918600  0.14302700  1
  O  O28  1  0.60868700  0.50918600  0.64302700  1
  O  O29  1  0.87917700  0.31283000  0.70453000  1
  O  O30  1  0.37917700  0.68717000  0.79547000  1
  O  O31  1  0.10868700  0.49081400  0.85697300  1
  O  O32  1  0.90518700  0.88855300  0.39045200  1
  O  O33  1  0.51252500  0.85495400  0.31777700  1
  O  O34  1  0.25737400  0.44096800  0.60189700  1
  O  O35  1  0.24262600  0.44096800  0.10189700  1
  O  O36  1  0.01252500  0.14504600  0.18222300  1
  O  O37  1  0.39131300  0.49081400  0.35697300  1
  O  O38  1  0.48747500  0.14504600  0.68222300  1
  O  O39  1  0.41852100  0.81210600  0.55319500  1
  O  O40  1  0.49591300  0.67184800  0.11499500  1
  O  O41  1  0.12082300  0.68717000  0.29547000  1
  O  O42  1  0.74020900  0.97691300  0.13785500  1
  O  O43  1  0.40518700  0.11144700  0.10954800  1
  O  O44  1  0.91852100  0.18789400  0.94680500  1
  O  O45  1  0.75737400  0.55903200  0.89810300  1
  O  O46  1  0.99591300  0.32815200  0.38500500  1
  O  O47  1  0.50408700  0.32815200  0.88500500  1
  O  O48  1  0.59481300  0.88855300  0.89045200  1
  O  O49  1  0.74262600  0.55903200  0.39810300  1
  O  O50  1  0.62082300  0.31283000  0.20453000  1
  O  O51  1  0.98747500  0.85495400  0.81777700  1
