# generated using pymatgen
data_MgCu2(BiO4)2
_symmetry_space_group_name_H-M   'P 1'
_cell_length_a   8.57126700
_cell_length_b   6.42992300
_cell_length_c   13.77103965
_cell_angle_alpha   86.64248043
_cell_angle_beta   90.00000000
_cell_angle_gamma   90.00000000
_symmetry_Int_Tables_number   1
_chemical_formula_structural   MgCu2(BiO4)2
_chemical_formula_sum   'Mg4 Cu8 Bi8 O32'
_cell_volume   757.65488631
_cell_formula_units_Z   4
loop_
 _symmetry_equiv_pos_site_id
 _symmetry_equiv_pos_as_xyz
  1  'x, y, z'
loop_
 _atom_site_type_symbol
 _atom_site_label
 _atom_site_symmetry_multiplicity
 _atom_site_fract_x
 _atom_site_fract_y
 _atom_site_fract_z
 _atom_site_occupancy
  Mg  Mg0  1  0.84925400  0.89504400  0.04864200  1
  Mg  Mg1  1  0.15074600  0.10495600  0.95135800  1
  Mg  Mg2  1  0.34925400  0.10495600  0.45135800  1
  Mg  Mg3  1  0.65074600  0.89504400  0.54864200  1
  Cu  Cu4  1  0.80286100  0.24856300  0.89294200  1
  Cu  Cu5  1  0.93429500  0.64433500  0.61414700  1
  Cu  Cu6  1  0.06570500  0.35566500  0.38585300  1
  Cu  Cu7  1  0.19713900  0.75143700  0.10705800  1
  Cu  Cu8  1  0.69713900  0.24856300  0.39294200  1
  Cu  Cu9  1  0.56570500  0.64433500  0.11414700  1
  Cu  Cu10  1  0.30286100  0.75143700  0.60705800  1
  Cu  Cu11  1  0.43429500  0.35566500  0.88585300  1
  Bi  Bi12  1  0.55950700  0.90064400  0.83303900  1
  Bi  Bi13  1  0.94049300  0.90064400  0.33303900  1
  Bi  Bi14  1  0.90365100  0.36638300  0.13697300  1
  Bi  Bi15  1  0.05950700  0.09935600  0.66696100  1
  Bi  Bi16  1  0.09634900  0.63361700  0.86302700  1
  Bi  Bi17  1  0.40365100  0.63361700  0.36302700  1
  Bi  Bi18  1  0.59634900  0.36638300  0.63697300  1
  Bi  Bi19  1  0.44049300  0.09935600  0.16696100  1
  O  O20  1  0.73588500  0.96345400  0.40884200  1
  O  O21  1  0.96021600  0.36203500  0.59561000  1
  O  O22  1  0.43340500  0.80168800  0.49640200  1
  O  O23  1  0.93340500  0.19831200  0.00359800  1
  O  O24  1  0.76411500  0.96345400  0.90884200  1
  O  O25  1  0.26411500  0.03654600  0.59115800  1
  O  O26  1  0.87712600  0.92321000  0.60949700  1
  O  O27  1  0.13179200  0.48669500  0.14249500  1
  O  O28  1  0.36820800  0.48669500  0.64249500  1
  O  O29  1  0.11706100  0.71927500  0.67971700  1
  O  O30  1  0.61706100  0.28072500  0.82028300  1
  O  O31  1  0.86820800  0.51330500  0.85750500  1
  O  O32  1  0.12287400  0.07679000  0.39050300  1
  O  O33  1  0.45642500  0.10786400  0.31324400  1
  O  O34  1  0.73634300  0.60591700  0.56429300  1
  O  O35  1  0.76365700  0.60591700  0.06429300  1
  O  O36  1  0.95642500  0.89213600  0.18675600  1
  O  O37  1  0.63179200  0.51330500  0.35750500  1
  O  O38  1  0.54357500  0.89213600  0.68675600  1
  O  O39  1  0.56659500  0.19831200  0.50359800  1
  O  O40  1  0.53978400  0.36203500  0.09561000  1
  O  O41  1  0.88293900  0.28072500  0.32028300  1
  O  O42  1  0.23588500  0.03654600  0.09115800  1
  O  O43  1  0.62287400  0.92321000  0.10949700  1
  O  O44  1  0.06659500  0.80168800  0.99640200  1
  O  O45  1  0.23634300  0.39408300  0.93570700  1
  O  O46  1  0.03978400  0.63796500  0.40439000  1
  O  O47  1  0.46021600  0.63796500  0.90439000  1
  O  O48  1  0.37712600  0.07679000  0.89050300  1
  O  O49  1  0.26365700  0.39408300  0.43570700  1
  O  O50  1  0.38293900  0.71927500  0.17971700  1
  O  O51  1  0.04357500  0.10786400  0.81324400  1
