# generated using pymatgen
data_CaMn2O4
_symmetry_space_group_name_H-M   'P 1'
_cell_length_a   6.05420500
_cell_length_b   6.47265827
_cell_length_c   15.56623652
_cell_angle_alpha   93.84942794
_cell_angle_beta   90.19072695
_cell_angle_gamma   117.81207565
_symmetry_Int_Tables_number   1
_chemical_formula_structural   CaMn2O4
_chemical_formula_sum   'Ca6 Mn12 O24'
_cell_volume   537.89409280
_cell_formula_units_Z   6
loop_
 _symmetry_equiv_pos_site_id
 _symmetry_equiv_pos_as_xyz
  1  'x, y, z'
loop_
 _atom_site_type_symbol
 _atom_site_label
 _atom_site_symmetry_multiplicity
 _atom_site_fract_x
 _atom_site_fract_y
 _atom_site_fract_z
 _atom_site_occupancy
  Ca  Ca0  1  0.33874400  0.17058700  0.95034700  1
  Ca  Ca1  1  0.00053800  0.48744900  0.61573100  1
  Ca  Ca2  1  0.66499900  0.83028400  0.66472800  1
  Ca  Ca3  1  0.66458200  0.82187500  0.27517600  1
  Ca  Ca4  1  0.01036400  0.51765000  0.00562400  1
  Ca  Ca5  1  0.99205400  0.49236200  0.38043900  1
  Mn  Mn6  1  0.33217200  0.66396900  0.83406100  1
  Mn  Mn7  1  0.83515800  0.66848200  0.83380300  1
  Mn  Mn8  1  0.99204400  0.98159300  0.49772000  1
  Mn  Mn9  1  0.83726800  0.17898000  0.83178800  1
  Mn  Mn10  1  0.49176700  0.98769000  0.49628000  1
  Mn  Mn11  1  0.32789500  0.15920000  0.33511200  1
  Mn  Mn12  1  0.32423500  0.16420200  0.71939600  1
  Mn  Mn13  1  0.66794300  0.33812800  0.16936200  1
  Mn  Mn14  1  0.49903400  0.49808700  0.48971600  1
  Mn  Mn15  1  0.17026700  0.33763300  0.16923100  1
  Mn  Mn16  1  0.17797900  0.85280500  0.17268400  1
  Mn  Mn17  1  0.67530800  0.84618100  0.04771600  1
  O  O18  1  0.70927900  0.37915300  0.89254100  1
  O  O19  1  0.01373500  0.53461000  0.75958500  1
  O  O20  1  0.14051000  0.34349300  0.89999800  1
  O  O21  1  0.14560100  0.79181700  0.90394100  1
  O  O22  1  0.36073700  0.67529000  0.55181800  1
  O  O23  1  0.51480400  0.53231000  0.75941500  1
  O  O24  1  0.69883900  0.83267000  0.42006700  1
  O  O25  1  0.52531600  0.00942400  0.76362600  1
  O  O26  1  0.65335600  0.79919700  0.91030700  1
  O  O27  1  0.82620200  0.68289900  0.55333300  1
  O  O28  1  0.80532100  0.11188700  0.56318200  1
  O  O29  1  0.97063500  0.97177800  0.77324500  1
  O  O30  1  0.05649400  0.02925800  0.25013400  1
  O  O31  1  0.18656600  0.87406100  0.42706600  1
  O  O32  1  0.17314700  0.28003300  0.42784100  1
  O  O33  1  0.35193600  0.20390000  0.09852400  1
  O  O34  1  0.27831500  0.12560000  0.58203700  1
  O  O35  1  0.47310500  0.02722100  0.25271400  1
  O  O36  1  0.47168100  0.44225200  0.24870300  1
  O  O37  1  0.60580600  0.28600300  0.42778500  1
  O  O38  1  0.84918500  0.20235100  0.09485500  1
  O  O39  1  0.85933600  0.69364400  0.10670300  1
  O  O40  1  0.99045800  0.47853400  0.23748300  1
  O  O41  1  0.33728600  0.69546000  0.10618300  1
