# generated using pymatgen
data_Ca(FeO2)2
_symmetry_space_group_name_H-M   'P 1'
_cell_length_a   6.28335384
_cell_length_b   6.28335384
_cell_length_c   15.45060300
_cell_angle_alpha   90.00000000
_cell_angle_beta   90.00000000
_cell_angle_gamma   119.99999831
_symmetry_Int_Tables_number   1
_chemical_formula_structural   Ca(FeO2)2
_chemical_formula_sum   'Ca6 Fe12 O24'
_cell_volume   528.27384241
_cell_formula_units_Z   6
loop_
 _symmetry_equiv_pos_site_id
 _symmetry_equiv_pos_as_xyz
  1  'x, y, z'
loop_
 _atom_site_type_symbol
 _atom_site_label
 _atom_site_symmetry_multiplicity
 _atom_site_fract_x
 _atom_site_fract_y
 _atom_site_fract_z
 _atom_site_occupancy
  Ca  Ca0  1  0.33333300  0.66666700  0.04332700  1
  Ca  Ca1  1  0.66666700  0.33333300  0.37906100  1
  Ca  Ca2  1  0.66666700  0.33333300  0.00213200  1
  Ca  Ca3  1  0.00000000  0.00000000  0.71181800  1
  Ca  Ca4  1  0.33333300  0.66666700  0.28590800  1
  Ca  Ca5  1  0.66666700  0.33333300  0.62715800  1
  Fe  Fe6  1  0.83057900  0.66115900  0.16932100  1
  Fe  Fe7  1  0.83057900  0.16942100  0.16932100  1
  Fe  Fe8  1  0.16590300  0.33180700  0.49958300  1
  Fe  Fe9  1  0.33884100  0.16942100  0.16932100  1
  Fe  Fe10  1  0.00000000  0.00000000  0.33337300  1
  Fe  Fe11  1  0.16590300  0.83409700  0.49958300  1
  Fe  Fe12  1  0.49482400  0.98964800  0.83003400  1
  Fe  Fe13  1  0.66819300  0.83409700  0.49958300  1
  Fe  Fe14  1  0.01035200  0.50517600  0.83003400  1
  Fe  Fe15  1  0.33333300  0.66666700  0.66152700  1
  Fe  Fe16  1  0.49482400  0.50517600  0.83003400  1
  Fe  Fe17  1  0.00000000  0.00000000  0.95258400  1
  O  O18  1  0.51487700  0.48512300  0.10268100  1
  O  O19  1  0.66666700  0.33333300  0.23785700  1
  O  O20  1  0.97024600  0.48512300  0.10268100  1
  O  O21  1  0.51487700  0.02975400  0.10268100  1
  O  O22  1  0.13916000  0.27832000  0.24536300  1
  O  O23  1  0.85740200  0.14259800  0.42461400  1
  O  O24  1  0.72168000  0.86084000  0.24536300  1
  O  O25  1  0.00000000  0.00000000  0.07961100  1
  O  O26  1  0.28519600  0.14259800  0.42461400  1
  O  O27  1  0.00000000  0.00000000  0.56827400  1
  O  O28  1  0.13916000  0.86084000  0.24536300  1
  O  O29  1  0.85740200  0.71480400  0.42461400  1
  O  O30  1  0.47723700  0.95447500  0.57702100  1
  O  O31  1  0.19258200  0.80741800  0.75319700  1
  O  O32  1  0.04552500  0.52276300  0.57702100  1
  O  O33  1  0.33333300  0.66666700  0.43231800  1
  O  O34  1  0.33333300  0.66666700  0.89754600  1
  O  O35  1  0.61483600  0.80741800  0.75319700  1
  O  O36  1  0.47723700  0.52276300  0.57702100  1
  O  O37  1  0.19258200  0.38516400  0.75319700  1
  O  O38  1  0.83301800  0.66603600  0.90314700  1
  O  O39  1  0.66666700  0.33333300  0.77263000  1
  O  O40  1  0.33396400  0.16698200  0.90314700  1
  O  O41  1  0.83301800  0.16698200  0.90314700  1
