# generated using pymatgen
data_MgCu2(WO4)2
_symmetry_space_group_name_H-M   'P 1'
_cell_length_a   8.65839000
_cell_length_b   6.67683900
_cell_length_c   12.68636685
_cell_angle_alpha   87.98495961
_cell_angle_beta   90.00000000
_cell_angle_gamma   90.00000000
_symmetry_Int_Tables_number   1
_chemical_formula_structural   MgCu2(WO4)2
_chemical_formula_sum   'Mg4 Cu8 W8 O32'
_cell_volume   732.95392787
_cell_formula_units_Z   4
loop_
 _symmetry_equiv_pos_site_id
 _symmetry_equiv_pos_as_xyz
  1  'x, y, z'
loop_
 _atom_site_type_symbol
 _atom_site_label
 _atom_site_symmetry_multiplicity
 _atom_site_fract_x
 _atom_site_fract_y
 _atom_site_fract_z
 _atom_site_occupancy
  Mg  Mg0  1  0.83810100  0.88994900  0.05259400  1
  Mg  Mg1  1  0.16189900  0.11005100  0.94740600  1
  Mg  Mg2  1  0.33810100  0.11005100  0.44740600  1
  Mg  Mg3  1  0.66189900  0.88994900  0.55259400  1
  Cu  Cu4  1  0.81497500  0.23012200  0.86651800  1
  Cu  Cu5  1  0.94803900  0.62439500  0.61755400  1
  Cu  Cu6  1  0.05196100  0.37560500  0.38244600  1
  Cu  Cu7  1  0.18502500  0.76987800  0.13348200  1
  Cu  Cu8  1  0.68502500  0.23012200  0.36651800  1
  Cu  Cu9  1  0.55196100  0.62439500  0.11755400  1
  Cu  Cu10  1  0.31497500  0.76987800  0.63348200  1
  Cu  Cu11  1  0.44803900  0.37560500  0.88244600  1
  W  W12  1  0.54387400  0.90258500  0.84441700  1
  W  W13  1  0.95612600  0.90258500  0.34441700  1
  W  W14  1  0.92178200  0.38777300  0.12969600  1
  W  W15  1  0.04387400  0.09741500  0.65558300  1
  W  W16  1  0.07821800  0.61222700  0.87030400  1
  W  W17  1  0.42178200  0.61222700  0.37030400  1
  W  W18  1  0.57821800  0.38777300  0.62969600  1
  W  W19  1  0.45612600  0.09741500  0.15558300  1
  O  O20  1  0.76539200  0.95585900  0.40357000  1
  O  O21  1  0.98730400  0.34030100  0.60243100  1
  O  O22  1  0.43195500  0.82126600  0.46411100  1
  O  O23  1  0.93195500  0.17873400  0.03588900  1
  O  O24  1  0.73460800  0.95585900  0.90357000  1
  O  O25  1  0.23460800  0.04414100  0.59643000  1
  O  O26  1  0.89139100  0.92097100  0.61382100  1
  O  O27  1  0.11120300  0.49475600  0.13597400  1
  O  O28  1  0.38879700  0.49475600  0.63597400  1
  O  O29  1  0.12873000  0.70171300  0.73663800  1
  O  O30  1  0.62873000  0.29828700  0.76336200  1
  O  O31  1  0.88879700  0.50524400  0.86402600  1
  O  O32  1  0.10860900  0.07902900  0.38617900  1
  O  O33  1  0.44900400  0.11868900  0.29860500  1
  O  O34  1  0.70745800  0.58929300  0.58291000  1
  O  O35  1  0.79254200  0.58929300  0.08291000  1
  O  O36  1  0.94900400  0.88131100  0.20139500  1
  O  O37  1  0.61120300  0.50524400  0.36402600  1
  O  O38  1  0.55099600  0.88131100  0.70139500  1
  O  O39  1  0.56804500  0.17873400  0.53588900  1
  O  O40  1  0.51269600  0.34030100  0.10243100  1
  O  O41  1  0.87127000  0.29828700  0.26336200  1
  O  O42  1  0.26539200  0.04414100  0.09643000  1
  O  O43  1  0.60860900  0.92097100  0.11382100  1
  O  O44  1  0.06804500  0.82126600  0.96411100  1
  O  O45  1  0.20745800  0.41070700  0.91709000  1
  O  O46  1  0.01269600  0.65969900  0.39756900  1
  O  O47  1  0.48730400  0.65969900  0.89756900  1
  O  O48  1  0.39139100  0.07902900  0.88617900  1
  O  O49  1  0.29254200  0.41070700  0.41709000  1
  O  O50  1  0.37127000  0.70171300  0.23663800  1
  O  O51  1  0.05099600  0.11868900  0.79860500  1
