# generated using pymatgen
data_Zn(MoO2)2
_symmetry_space_group_name_H-M   'P 1'
_cell_length_a   6.38936582
_cell_length_b   6.38936582
_cell_length_c   15.43857532
_cell_angle_alpha   88.92447136
_cell_angle_beta   88.92447136
_cell_angle_gamma   59.32529861
_symmetry_Int_Tables_number   1
_chemical_formula_structural   Zn(MoO2)2
_chemical_formula_sum   'Zn6 Mo12 O24'
_cell_volume   541.94975763
_cell_formula_units_Z   6
loop_
 _symmetry_equiv_pos_site_id
 _symmetry_equiv_pos_as_xyz
  1  'x, y, z'
loop_
 _atom_site_type_symbol
 _atom_site_label
 _atom_site_symmetry_multiplicity
 _atom_site_fract_x
 _atom_site_fract_y
 _atom_site_fract_z
 _atom_site_occupancy
  Zn  Zn0  1  0.66404200  0.66404200  0.95456000  1
  Zn  Zn1  1  0.99898300  0.99898300  0.62417000  1
  Zn  Zn2  1  0.99939100  0.99939100  0.99609300  1
  Zn  Zn3  1  0.33589100  0.33589100  0.29242500  1
  Zn  Zn4  1  0.66502100  0.66502100  0.70947900  1
  Zn  Zn5  1  0.00068100  0.00068100  0.37545000  1
  Mo  Mo6  1  0.16114500  0.66664900  0.83451500  1
  Mo  Mo7  1  0.66664900  0.16114500  0.83451500  1
  Mo  Mo8  1  0.50241700  0.99807400  0.50044200  1
  Mo  Mo9  1  0.16005200  0.16005200  0.83316000  1
  Mo  Mo10  1  0.33230900  0.33230900  0.66730100  1
  Mo  Mo11  1  0.99807400  0.50241700  0.50044200  1
  Mo  Mo12  1  0.83603100  0.33556600  0.16621000  1
  Mo  Mo13  1  0.50059000  0.50059000  0.50013800  1
  Mo  Mo14  1  0.83664100  0.83664100  0.16563600  1
  Mo  Mo15  1  0.66914200  0.66914200  0.33328000  1
  Mo  Mo16  1  0.33556600  0.83603100  0.16621000  1
  Mo  Mo17  1  0.33228000  0.33228000  0.04235800  1
  O  O18  1  0.31323300  0.83375600  0.91311100  1
  O  O19  1  0.99757500  0.99757500  0.75746900  1
  O  O20  1  0.84172100  0.84172100  0.91799500  1
  O  O21  1  0.83375600  0.31323300  0.91311100  1
  O  O22  1  0.49128700  0.01657800  0.75328000  1
  O  O23  1  0.64931500  0.17096800  0.58021000  1
  O  O24  1  0.48705300  0.48705300  0.75164700  1
  O  O25  1  0.32071500  0.32071500  0.90739700  1
  O  O26  1  0.17632100  0.17632100  0.58254600  1
  O  O27  1  0.33667700  0.33667700  0.42410000  1
  O  O28  1  0.01657800  0.49128700  0.75328000  1
  O  O29  1  0.17096800  0.64931500  0.58021000  1
  O  O30  1  0.83073500  0.35100700  0.41953400  1
  O  O31  1  0.98613600  0.50835700  0.24591600  1
  O  O32  1  0.82433500  0.82433500  0.41777600  1
  O  O33  1  0.66423700  0.66423700  0.57610400  1
  O  O34  1  0.67170500  0.67170500  0.09026000  1
  O  O35  1  0.51383200  0.51383200  0.24940300  1
  O  O36  1  0.35100700  0.83073500  0.41953400  1
  O  O37  1  0.50835700  0.98613600  0.24591600  1
  O  O38  1  0.17192200  0.68424700  0.09090000  1
  O  O39  1  0.99955800  0.99955800  0.24245900  1
  O  O40  1  0.14823600  0.14823600  0.07914900  1
  O  O41  1  0.68424700  0.17192200  0.09090000  1
