# generated using pymatgen
data_CaSb3P3O13
_symmetry_space_group_name_H-M   'P 1'
_cell_length_a   6.97776500
_cell_length_b   8.20479600
_cell_length_c   11.16964265
_cell_angle_alpha   77.87818268
_cell_angle_beta   90.00000000
_cell_angle_gamma   90.00000000
_symmetry_Int_Tables_number   1
_chemical_formula_structural   CaSb3P3O13
_chemical_formula_sum   'Ca2 Sb6 P6 O26'
_cell_volume   625.21660983
_cell_formula_units_Z   2
loop_
 _symmetry_equiv_pos_site_id
 _symmetry_equiv_pos_as_xyz
  1  'x, y, z'
loop_
 _atom_site_type_symbol
 _atom_site_label
 _atom_site_symmetry_multiplicity
 _atom_site_fract_x
 _atom_site_fract_y
 _atom_site_fract_z
 _atom_site_occupancy
  Ca  Ca0  1  0.75000000  0.37427400  0.17771000  1
  Ca  Ca1  1  0.25000000  0.62572600  0.82229000  1
  Sb  Sb2  1  0.25000000  0.64873300  0.23064200  1
  Sb  Sb3  1  0.75000000  0.35126700  0.76935800  1
  Sb  Sb4  1  0.25000000  0.23926600  0.43920600  1
  Sb  Sb5  1  0.50000000  0.00000000  0.00000000  1
  Sb  Sb6  1  0.75000000  0.76073400  0.56079400  1
  Sb  Sb7  1  0.00000000  0.00000000  0.00000000  1
  P  P8  1  0.25000000  0.80816200  0.51347600  1
  P  P9  1  0.75000000  0.19183800  0.48652400  1
  P  P10  1  0.25000000  0.26131300  0.76313200  1
  P  P11  1  0.75000000  0.73868700  0.23686800  1
  P  P12  1  0.75000000  0.68510800  0.89375400  1
  P  P13  1  0.25000000  0.31489200  0.10624600  1
  O  O14  1  0.75000000  0.67704100  0.75535700  1
  O  O15  1  0.57429600  0.22889200  0.39927100  1
  O  O16  1  0.25000000  0.19418600  0.64659600  1
  O  O17  1  0.55879300  0.77483000  0.91432900  1
  O  O18  1  0.75000000  0.30218000  0.58369700  1
  O  O19  1  0.75000000  0.12975600  0.88766100  1
  O  O20  1  0.25000000  0.69782000  0.41630300  1
  O  O21  1  0.05879300  0.22517000  0.08567100  1
  O  O22  1  0.25000000  0.99331200  0.43870100  1
  O  O23  1  0.75000000  0.00668800  0.56129900  1
  O  O24  1  0.07695100  0.37474600  0.77988600  1
  O  O25  1  0.25000000  0.87024400  0.11233900  1
  O  O26  1  0.57695100  0.62525400  0.22011400  1
  O  O27  1  0.75000000  0.50460300  0.96902200  1
  O  O28  1  0.75000000  0.80581400  0.35340400  1
  O  O29  1  0.44120700  0.22517000  0.08567100  1
  O  O30  1  0.92570400  0.22889200  0.39927100  1
  O  O31  1  0.42570400  0.77110800  0.60072900  1
  O  O32  1  0.42304900  0.37474600  0.77988600  1
  O  O33  1  0.25000000  0.32295900  0.24464300  1
  O  O34  1  0.75000000  0.89957300  0.12978400  1
  O  O35  1  0.25000000  0.10042700  0.87021600  1
  O  O36  1  0.92304900  0.62525400  0.22011400  1
  O  O37  1  0.94120700  0.77483000  0.91432900  1
  O  O38  1  0.07429600  0.77110800  0.60072900  1
  O  O39  1  0.25000000  0.49539700  0.03097800  1
