# generated using pymatgen
data_Zn(MoO2)2
_symmetry_space_group_name_H-M   'P 1'
_cell_length_a   6.45084643
_cell_length_b   6.45074401
_cell_length_c   18.60280098
_cell_angle_alpha   59.99852428
_cell_angle_beta   60.45072186
_cell_angle_gamma   58.59123963
_symmetry_Int_Tables_number   1
_chemical_formula_structural   Zn(MoO2)2
_chemical_formula_sum   'Zn6 Mo12 O24'
_cell_volume   543.09219273
_cell_formula_units_Z   6
loop_
 _symmetry_equiv_pos_site_id
 _symmetry_equiv_pos_as_xyz
  1  'x, y, z'
loop_
 _atom_site_type_symbol
 _atom_site_label
 _atom_site_symmetry_multiplicity
 _atom_site_fract_x
 _atom_site_fract_y
 _atom_site_fract_z
 _atom_site_occupancy
  Zn  Zn0  1  0.12408100  0.11966000  0.04558200  1
  Zn  Zn1  1  0.11189100  0.11822600  0.38005000  1
  Zn  Zn2  1  0.49719800  0.49732300  0.33583800  1
  Zn  Zn3  1  0.12634000  0.12871700  0.70845900  1
  Zn  Zn4  1  0.50114700  0.49859800  0.00384600  1
  Zn  Zn5  1  0.87282200  0.88014100  0.62197700  1
  Mo  Mo6  1  0.50085700  0.49264600  0.16787900  1
  Mo  Mo7  1  0.50352800  0.00184600  0.16517500  1
  Mo  Mo8  1  0.48745500  0.49799500  0.49939100  1
  Mo  Mo9  1  0.00550400  0.49566700  0.16630500  1
  Mo  Mo10  1  0.49017300  0.00590900  0.49776800  1
  Mo  Mo11  1  0.49924200  0.50474900  0.66616300  1
  Mo  Mo12  1  0.88699700  0.86671500  0.28750700  1
  Mo  Mo13  1  0.50727300  0.50305800  0.83468300  1
  Mo  Mo14  1  0.99508400  0.50066700  0.49789500  1
  Mo  Mo15  1  0.50714800  0.00281600  0.83357000  1
  Mo  Mo16  1  0.00530900  0.50307800  0.83402800  1
  Mo  Mo17  1  0.88592300  0.87442300  0.95551000  1
  O  O18  1  0.26511100  0.26501400  0.08118700  1
  O  O19  1  0.26460500  0.25710100  0.24268900  1
  O  O20  1  0.24678000  0.72648900  0.08881400  1
  O  O21  1  0.73151000  0.24490300  0.08836600  1
  O  O22  1  0.25040200  0.26604000  0.41436800  1
  O  O23  1  0.28344400  0.76172100  0.24120200  1
  O  O24  1  0.25370200  0.26095800  0.57523700  1
  O  O25  1  0.76771300  0.26981600  0.24320200  1
  O  O26  1  0.73121200  0.72870500  0.09207600  1
  O  O27  1  0.23611100  0.72746000  0.42010600  1
  O  O28  1  0.71918200  0.24574000  0.42134500  1
  O  O29  1  0.73039400  0.72516500  0.25412500  1
  O  O30  1  0.26442000  0.26548900  0.75015900  1
  O  O31  1  0.26675600  0.75170200  0.57928400  1
  O  O32  1  0.74287700  0.27539500  0.57973500  1
  O  O33  1  0.27031900  0.26395800  0.91008600  1
  O  O34  1  0.71839700  0.73396600  0.42459900  1
  O  O35  1  0.25247000  0.73160500  0.75540100  1
  O  O36  1  0.73132600  0.25358100  0.75505600  1
  O  O37  1  0.73334200  0.74092400  0.58257600  1
  O  O38  1  0.28388400  0.76693500  0.90906700  1
  O  O39  1  0.77271200  0.27547500  0.90972500  1
  O  O40  1  0.74162800  0.74153000  0.75777600  1
  O  O41  1  0.73373000  0.72809400  0.92219100  1
