# generated using pymatgen
data_MgNi2(PO4)2
_symmetry_space_group_name_H-M   'P 1'
_cell_length_a   8.88247939
_cell_length_b   8.88247939
_cell_length_c   16.34737877
_cell_angle_alpha   61.18123245
_cell_angle_beta   61.18123245
_cell_angle_gamma   32.28827286
_symmetry_Int_Tables_number   1
_chemical_formula_structural   MgNi2(PO4)2
_chemical_formula_sum   'Mg4 Ni8 P8 O32'
_cell_volume   595.94026024
_cell_formula_units_Z   4
loop_
 _symmetry_equiv_pos_site_id
 _symmetry_equiv_pos_as_xyz
  1  'x, y, z'
loop_
 _atom_site_type_symbol
 _atom_site_label
 _atom_site_symmetry_multiplicity
 _atom_site_fract_x
 _atom_site_fract_y
 _atom_site_fract_z
 _atom_site_occupancy
  Mg  Mg0  1  0.44302300  0.85574300  0.37344900  1
  Mg  Mg1  1  0.14425700  0.55697700  0.12655100  1
  Mg  Mg2  1  0.85574300  0.44302300  0.87344900  1
  Mg  Mg3  1  0.55697700  0.14425700  0.62655100  1
  Ni  Ni4  1  0.20044300  0.60354100  0.46931500  1
  Ni  Ni5  1  0.39645900  0.79955700  0.03068500  1
  Ni  Ni6  1  0.79955700  0.39645900  0.53068500  1
  Ni  Ni7  1  0.50000000  0.00000000  0.50000000  1
  Ni  Ni8  1  0.60354100  0.20044300  0.96931500  1
  Ni  Ni9  1  0.60983600  0.39016400  0.75000000  1
  Ni  Ni10  1  0.39016400  0.60983600  0.25000000  1
  Ni  Ni11  1  0.00000000  0.50000000  0.00000000  1
  P  P12  1  0.06878300  0.51084000  0.35814500  1
  P  P13  1  0.77734500  0.17812200  0.11343300  1
  P  P14  1  0.93121700  0.48916000  0.64185500  1
  P  P15  1  0.17812200  0.77734500  0.61343300  1
  P  P16  1  0.51084000  0.06878300  0.85814500  1
  P  P17  1  0.48916000  0.93121700  0.14185500  1
  P  P18  1  0.22265500  0.82187800  0.88656700  1
  P  P19  1  0.82187800  0.22265500  0.38656700  1
  O  O20  1  0.70502500  0.81373300  0.60339100  1
  O  O21  1  0.77443300  0.40815700  0.41345800  1
  O  O22  1  0.81373300  0.70502500  0.10339100  1
  O  O23  1  0.79505000  0.35980900  0.03706600  1
  O  O24  1  0.20700900  0.33801300  0.56243300  1
  O  O25  1  0.63597300  0.26356300  0.21002700  1
  O  O26  1  0.64019100  0.20495000  0.46293400  1
  O  O27  1  0.85884100  0.08946700  0.61070300  1
  O  O28  1  0.20495000  0.64019100  0.96293400  1
  O  O29  1  0.59184300  0.22556700  0.08654200  1
  O  O30  1  0.84568000  0.39158000  0.64240600  1
  O  O31  1  0.59279400  0.00328300  0.76457100  1
  O  O32  1  0.22556700  0.59184300  0.58654200  1
  O  O33  1  0.08946700  0.85884100  0.11070300  1
  O  O34  1  0.29497500  0.18626700  0.39660900  1
  O  O35  1  0.15432000  0.60842000  0.35759400  1
  O  O36  1  0.00328300  0.59279400  0.26457100  1
  O  O37  1  0.35980900  0.79505000  0.53706600  1
  O  O38  1  0.39158000  0.84568000  0.14240600  1
  O  O39  1  0.40720600  0.99671700  0.23542900  1
  O  O40  1  0.91053300  0.14115900  0.88929700  1
  O  O41  1  0.33801300  0.20700900  0.06243300  1
  O  O42  1  0.14115900  0.91053300  0.38929700  1
  O  O43  1  0.26356300  0.63597300  0.71002700  1
  O  O44  1  0.40815700  0.77443300  0.91345800  1
  O  O45  1  0.18626700  0.29497500  0.89660900  1
  O  O46  1  0.99671700  0.40720600  0.73542900  1
  O  O47  1  0.66198700  0.79299100  0.93756700  1
  O  O48  1  0.79299100  0.66198700  0.43756700  1
  O  O49  1  0.73643700  0.36402700  0.28997300  1
  O  O50  1  0.36402700  0.73643700  0.78997300  1
  O  O51  1  0.60842000  0.15432000  0.85759400  1
