# generated using pymatgen
data_BaTiZnF7
_symmetry_space_group_name_H-M   'P 1'
_cell_length_a   10.08126200
_cell_length_b   5.71604500
_cell_length_c   9.68163113
_cell_angle_alpha   87.30159536
_cell_angle_beta   90.00000000
_cell_angle_gamma   90.00000000
_symmetry_Int_Tables_number   1
_chemical_formula_structural   BaTiZnF7
_chemical_formula_sum   'Ba4 Ti4 Zn4 F28'
_cell_volume   557.28487185
_cell_formula_units_Z   4
loop_
 _symmetry_equiv_pos_site_id
 _symmetry_equiv_pos_as_xyz
  1  'x, y, z'
loop_
 _atom_site_type_symbol
 _atom_site_label
 _atom_site_symmetry_multiplicity
 _atom_site_fract_x
 _atom_site_fract_y
 _atom_site_fract_z
 _atom_site_occupancy
  Ba  Ba0  1  0.31541400  0.73490900  0.49896900  1
  Ba  Ba1  1  0.81541400  0.26509100  0.00103100  1
  Ba  Ba2  1  0.68458600  0.26509100  0.50103100  1
  Ba  Ba3  1  0.18458600  0.73490900  0.99896900  1
  Ti  Ti4  1  0.61073000  0.80372100  0.81089600  1
  Ti  Ti5  1  0.38927000  0.19627900  0.18910400  1
  Ti  Ti6  1  0.88927000  0.80372100  0.31089600  1
  Ti  Ti7  1  0.11073000  0.19627900  0.68910400  1
  Zn  Zn8  1  0.39904900  0.30377400  0.80967400  1
  Zn  Zn9  1  0.89904900  0.69622600  0.69032600  1
  Zn  Zn10  1  0.10095100  0.30377400  0.30967400  1
  Zn  Zn11  1  0.60095100  0.69622600  0.19032600  1
  F  F12  1  0.44423200  0.88200200  0.12042100  1
  F  F13  1  0.05497200  0.63265800  0.37319200  1
  F  F14  1  0.71038200  0.51614800  0.75190700  1
  F  F15  1  0.28961800  0.48385200  0.24809300  1
  F  F16  1  0.45773800  0.10759600  0.36713700  1
  F  F17  1  0.80644000  0.74248300  0.49515500  1
  F  F18  1  0.78073900  0.97730400  0.75000700  1
  F  F19  1  0.95773800  0.89240400  0.13286300  1
  F  F20  1  0.44502800  0.63265800  0.87319200  1
  F  F21  1  0.21038200  0.48385200  0.74809300  1
  F  F22  1  0.05576800  0.88200200  0.62042100  1
  F  F23  1  0.55576800  0.11799800  0.87957900  1
  F  F24  1  0.28073900  0.02269600  0.74999300  1
  F  F25  1  0.95888900  0.61046700  0.87807400  1
  F  F26  1  0.54226200  0.89240400  0.63286300  1
  F  F27  1  0.04226200  0.10759600  0.86713700  1
  F  F28  1  0.21926100  0.02269600  0.24999300  1
  F  F29  1  0.94423200  0.11799800  0.37957900  1
  F  F30  1  0.45888900  0.38953300  0.62192600  1
  F  F31  1  0.94502800  0.36734200  0.62680800  1
  F  F32  1  0.04111100  0.38953300  0.12192600  1
  F  F33  1  0.71926100  0.97730400  0.25000700  1
  F  F34  1  0.54111100  0.61046700  0.37807400  1
  F  F35  1  0.30644000  0.25751700  0.00484500  1
  F  F36  1  0.19356000  0.25751700  0.50484500  1
  F  F37  1  0.69356000  0.74248300  0.99515500  1
  F  F38  1  0.55497200  0.36734200  0.12680800  1
  F  F39  1  0.78961800  0.51614800  0.25190700  1
