# generated using pymatgen
data_BaMgBiF7
_symmetry_space_group_name_H-M   'P 1'
_cell_length_a   10.78742600
_cell_length_b   5.71258600
_cell_length_c   9.92136915
_cell_angle_alpha   88.57110274
_cell_angle_beta   90.00000000
_cell_angle_gamma   90.00000000
_symmetry_Int_Tables_number   1
_chemical_formula_structural   BaMgBiF7
_chemical_formula_sum   'Ba4 Mg4 Bi4 F28'
_cell_volume   611.20531258
_cell_formula_units_Z   4
loop_
 _symmetry_equiv_pos_site_id
 _symmetry_equiv_pos_as_xyz
  1  'x, y, z'
loop_
 _atom_site_type_symbol
 _atom_site_label
 _atom_site_symmetry_multiplicity
 _atom_site_fract_x
 _atom_site_fract_y
 _atom_site_fract_z
 _atom_site_occupancy
  Ba  Ba0  1  0.33226000  0.74389700  0.49145600  1
  Ba  Ba1  1  0.83226000  0.25610300  0.00854400  1
  Ba  Ba2  1  0.66774000  0.25610300  0.50854400  1
  Ba  Ba3  1  0.16774000  0.74389700  0.99145600  1
  Mg  Mg4  1  0.37389100  0.30381600  0.80139500  1
  Mg  Mg5  1  0.87389100  0.69618400  0.69860500  1
  Mg  Mg6  1  0.12610900  0.30381600  0.30139500  1
  Mg  Mg7  1  0.62610900  0.69618400  0.19860500  1
  Bi  Bi8  1  0.58534200  0.77700900  0.83296700  1
  Bi  Bi9  1  0.41465800  0.22299100  0.16703300  1
  Bi  Bi10  1  0.91465800  0.77700900  0.33296700  1
  Bi  Bi11  1  0.08534200  0.22299100  0.66703300  1
  F  F12  1  0.47491300  0.85545700  0.12413600  1
  F  F13  1  0.09850000  0.59940100  0.40697500  1
  F  F14  1  0.72692000  0.49832000  0.76642900  1
  F  F15  1  0.27308000  0.50168000  0.23357100  1
  F  F16  1  0.46484200  0.08290600  0.37214800  1
  F  F17  1  0.78851600  0.79862700  0.52363200  1
  F  F18  1  0.77410500  0.96497500  0.77476300  1
  F  F19  1  0.96484200  0.91709400  0.12785200  1
  F  F20  1  0.40150000  0.59940100  0.90697500  1
  F  F21  1  0.22692000  0.50168000  0.73357100  1
  F  F22  1  0.02508700  0.85545700  0.62413600  1
  F  F23  1  0.52508700  0.14454300  0.87586400  1
  F  F24  1  0.27410500  0.03502500  0.72523700  1
  F  F25  1  0.97236200  0.55698500  0.84840800  1
  F  F26  1  0.53515800  0.91709400  0.62785200  1
  F  F27  1  0.03515800  0.08290600  0.87214800  1
  F  F28  1  0.22589500  0.03502500  0.22523700  1
  F  F29  1  0.97491300  0.14454300  0.37586400  1
  F  F30  1  0.47236200  0.44301500  0.65159200  1
  F  F31  1  0.90150000  0.40059900  0.59302500  1
  F  F32  1  0.02763800  0.44301500  0.15159200  1
  F  F33  1  0.72589500  0.96497500  0.27476300  1
  F  F34  1  0.52763800  0.55698500  0.34840800  1
  F  F35  1  0.28851600  0.20137300  0.97636800  1
  F  F36  1  0.21148400  0.20137300  0.47636800  1
  F  F37  1  0.71148400  0.79862700  0.02363200  1
  F  F38  1  0.59850000  0.40059900  0.09302500  1
  F  F39  1  0.77308000  0.49832000  0.26642900  1
