# generated using pymatgen
data_Te4Mo(WS)2
_symmetry_space_group_name_H-M   'P 1'
_cell_length_a   3.42576877
_cell_length_b   3.42576877
_cell_length_c   31.66750200
_cell_angle_alpha   90.00000000
_cell_angle_beta   90.00000000
_cell_angle_gamma   120.00001479
_symmetry_Int_Tables_number   1
_chemical_formula_structural   Te4Mo(WS)2
_chemical_formula_sum   'Te4 Mo1 W2 S2'
_cell_volume   321.85515133
_cell_formula_units_Z   1
loop_
 _symmetry_equiv_pos_site_id
 _symmetry_equiv_pos_as_xyz
  1  'x, y, z'
loop_
 _atom_site_type_symbol
 _atom_site_label
 _atom_site_symmetry_multiplicity
 _atom_site_fract_x
 _atom_site_fract_y
 _atom_site_fract_z
 _atom_site_occupancy
  Te  Te0  1  0.66666700  0.33333300  0.70969400  1
  Te  Te1  1  0.66666700  0.33333300  0.17228700  1
  Te  Te2  1  0.66666700  0.33333300  0.82771300  1
  Te  Te3  1  0.66666700  0.33333300  0.29030600  1
  Mo  Mo4  1  0.66666700  0.33333300  0.00000000  1
  W  W5  1  0.33333300  0.66666700  0.76866600  1
  W  W6  1  0.33333300  0.66666700  0.23133400  1
  S  S7  1  0.33333300  0.66666700  0.04728700  1
  S  S8  1  0.33333300  0.66666700  0.95271300  1
