# generated using pymatgen
data_CaTiP2O7
_symmetry_space_group_name_H-M   'P 1'
_cell_length_a   8.87145800
_cell_length_b   7.42697500
_cell_length_c   9.45122135
_cell_angle_alpha   63.15715221
_cell_angle_beta   90.00000000
_cell_angle_gamma   90.00000000
_symmetry_Int_Tables_number   1
_chemical_formula_structural   CaTiP2O7
_chemical_formula_sum   'Ca4 Ti4 P8 O28'
_cell_volume   555.62358038
_cell_formula_units_Z   4
loop_
 _symmetry_equiv_pos_site_id
 _symmetry_equiv_pos_as_xyz
  1  'x, y, z'
loop_
 _atom_site_type_symbol
 _atom_site_label
 _atom_site_symmetry_multiplicity
 _atom_site_fract_x
 _atom_site_fract_y
 _atom_site_fract_z
 _atom_site_occupancy
  Ca  Ca0  1  0.94611300  0.71587400  0.14209700  1
  Ca  Ca1  1  0.44611300  0.28412600  0.35790300  1
  Ca  Ca2  1  0.55388700  0.71587400  0.64209700  1
  Ca  Ca3  1  0.05388700  0.28412600  0.85790300  1
  Ti  Ti4  1  0.06946300  0.21397900  0.39737700  1
  Ti  Ti5  1  0.93053700  0.78602100  0.60262300  1
  Ti  Ti6  1  0.56946300  0.78602100  0.10262300  1
  Ti  Ti7  1  0.43053700  0.21397900  0.89737700  1
  P  P8  1  0.72956300  0.05739400  0.75302900  1
  P  P9  1  0.24176000  0.52862500  0.03698500  1
  P  P10  1  0.77043700  0.05739400  0.25302900  1
  P  P11  1  0.25824000  0.52862500  0.53698500  1
  P  P12  1  0.22956300  0.94260600  0.74697100  1
  P  P13  1  0.74176000  0.47137500  0.46301500  1
  P  P14  1  0.75824000  0.47137500  0.96301500  1
  P  P15  1  0.27043700  0.94260600  0.24697100  1
  O  O16  1  0.17636000  0.73933600  0.90128200  1
  O  O17  1  0.62772500  0.09089900  0.32547300  1
  O  O18  1  0.87227500  0.09089900  0.82547300  1
  O  O19  1  0.38845200  0.56672600  0.10494000  1
  O  O20  1  0.82364000  0.26066400  0.09871800  1
  O  O21  1  0.09084500  0.98569300  0.63720300  1
  O  O22  1  0.61154800  0.43327400  0.89506000  1
  O  O23  1  0.10939500  0.46497700  0.15561800  1
  O  O24  1  0.23942400  0.38770300  0.45961700  1
  O  O25  1  0.90915500  0.01430700  0.36279700  1
  O  O26  1  0.40915500  0.98569300  0.13720300  1
  O  O27  1  0.75732500  0.90204100  0.18813400  1
  O  O28  1  0.25732500  0.09795900  0.31186600  1
  O  O29  1  0.32364000  0.73933600  0.40128200  1
  O  O30  1  0.59084500  0.01430700  0.86279700  1
  O  O31  1  0.12772500  0.90910100  0.17452700  1
  O  O32  1  0.24267500  0.09795900  0.81186600  1
  O  O33  1  0.89060500  0.53502300  0.84438200  1
  O  O34  1  0.26057600  0.38770300  0.95961700  1
  O  O35  1  0.73942400  0.61229700  0.04038300  1
  O  O36  1  0.88845200  0.43327400  0.39506000  1
  O  O37  1  0.39060500  0.46497700  0.65561800  1
  O  O38  1  0.60939500  0.53502300  0.34438200  1
  O  O39  1  0.37227500  0.90910100  0.67452700  1
  O  O40  1  0.74267500  0.90204100  0.68813400  1
  O  O41  1  0.11154800  0.56672600  0.60494000  1
  O  O42  1  0.76057600  0.61229700  0.54038300  1
  O  O43  1  0.67636000  0.26066400  0.59871800  1
