# generated using pymatgen
data_CaTa2(CuO4)2
_symmetry_space_group_name_H-M   'P 1'
_cell_length_a   8.99509200
_cell_length_b   6.81652900
_cell_length_c   12.64608277
_cell_angle_alpha   88.01196345
_cell_angle_beta   90.00000000
_cell_angle_gamma   90.00000000
_symmetry_Int_Tables_number   1
_chemical_formula_structural   CaTa2(CuO4)2
_chemical_formula_sum   'Ca4 Ta8 Cu8 O32'
_cell_volume   774.93171011
_cell_formula_units_Z   4
loop_
 _symmetry_equiv_pos_site_id
 _symmetry_equiv_pos_as_xyz
  1  'x, y, z'
loop_
 _atom_site_type_symbol
 _atom_site_label
 _atom_site_symmetry_multiplicity
 _atom_site_fract_x
 _atom_site_fract_y
 _atom_site_fract_z
 _atom_site_occupancy
  Ca  Ca0  1  0.16065900  0.12823600  0.04034900  1
  Ca  Ca1  1  0.83934100  0.87176400  0.95965100  1
  Ca  Ca2  1  0.66065900  0.87176400  0.45965100  1
  Ca  Ca3  1  0.33934100  0.12823600  0.54034900  1
  Ta  Ta4  1  0.46017000  0.09383100  0.84360700  1
  Ta  Ta5  1  0.03983000  0.09383100  0.34360700  1
  Ta  Ta6  1  0.08726500  0.60536000  0.14396700  1
  Ta  Ta7  1  0.96017000  0.90616900  0.65639300  1
  Ta  Ta8  1  0.91273500  0.39464000  0.85603300  1
  Ta  Ta9  1  0.58726500  0.39464000  0.35603300  1
  Ta  Ta10  1  0.41273500  0.60536000  0.64396700  1
  Ta  Ta11  1  0.53983000  0.90616900  0.15639300  1
  Cu  Cu12  1  0.18114500  0.76814800  0.85640400  1
  Cu  Cu13  1  0.05366300  0.38462500  0.62430900  1
  Cu  Cu14  1  0.94633700  0.61537500  0.37569100  1
  Cu  Cu15  1  0.81885500  0.23185200  0.14359600  1
  Cu  Cu16  1  0.31885500  0.76814800  0.35640400  1
  Cu  Cu17  1  0.44633700  0.38462500  0.12430900  1
  Cu  Cu18  1  0.68114500  0.23185200  0.64359600  1
  Cu  Cu19  1  0.55366300  0.61537500  0.87569100  1
  O  O20  1  0.23626400  0.02454700  0.38266400  1
  O  O21  1  0.00417100  0.66245700  0.60360200  1
  O  O22  1  0.57839800  0.19324000  0.45906500  1
  O  O23  1  0.07839800  0.80676000  0.04093500  1
  O  O24  1  0.26373600  0.02454700  0.88266400  1
  O  O25  1  0.76373600  0.97545300  0.61733600  1
  O  O26  1  0.09642700  0.09867700  0.60455900  1
  O  O27  1  0.90187200  0.49082700  0.13585300  1
  O  O28  1  0.59812800  0.49082700  0.63585300  1
  O  O29  1  0.87831100  0.30799400  0.71394100  1
  O  O30  1  0.37831100  0.69200600  0.78605900  1
  O  O31  1  0.09812800  0.50917300  0.86414700  1
  O  O32  1  0.90357300  0.90132300  0.39544100  1
  O  O33  1  0.51896500  0.87795700  0.30295000  1
  O  O34  1  0.26582800  0.43231400  0.60253400  1
  O  O35  1  0.23417200  0.43231400  0.10253400  1
  O  O36  1  0.01896500  0.12204300  0.19705000  1
  O  O37  1  0.40187200  0.50917300  0.36414700  1
  O  O38  1  0.48103500  0.12204300  0.69705000  1
  O  O39  1  0.42160200  0.80676000  0.54093500  1
  O  O40  1  0.49582900  0.66245700  0.10360200  1
  O  O41  1  0.12168900  0.69200600  0.28605900  1
  O  O42  1  0.73626400  0.97545300  0.11733600  1
  O  O43  1  0.40357300  0.09867700  0.10455900  1
  O  O44  1  0.92160200  0.19324000  0.95906500  1
  O  O45  1  0.76582800  0.56768600  0.89746600  1
  O  O46  1  0.99582900  0.33754300  0.39639800  1
  O  O47  1  0.50417100  0.33754300  0.89639800  1
  O  O48  1  0.59642700  0.90132300  0.89544100  1
  O  O49  1  0.73417200  0.56768600  0.39746600  1
  O  O50  1  0.62168900  0.30799400  0.21394100  1
  O  O51  1  0.98103500  0.87795700  0.80295000  1
