# generated using pymatgen
data_WO2
_symmetry_space_group_name_H-M   'P 1'
_cell_length_a   6.48418313
_cell_length_b   6.48418313
_cell_length_c   15.03197334
_cell_angle_alpha   89.58287789
_cell_angle_beta   89.58287789
_cell_angle_gamma   60.59298945
_symmetry_Int_Tables_number   1
_chemical_formula_structural   WO2
_chemical_formula_sum   'W12 O24'
_cell_volume   550.56158837
_cell_formula_units_Z   12
loop_
 _symmetry_equiv_pos_site_id
 _symmetry_equiv_pos_as_xyz
  1  'x, y, z'
loop_
 _atom_site_type_symbol
 _atom_site_label
 _atom_site_symmetry_multiplicity
 _atom_site_fract_x
 _atom_site_fract_y
 _atom_site_fract_z
 _atom_site_occupancy
  W  W0  1  0.65901200  0.18163300  0.16941400  1
  W  W1  1  0.66036000  0.66036000  0.17049300  1
  W  W2  1  0.99364400  0.51493400  0.49072900  1
  W  W3  1  0.18163300  0.65901200  0.16941400  1
  W  W4  1  0.99084400  0.99084400  0.48947900  1
  W  W5  1  0.16612500  0.16612500  0.66185000  1
  W  W6  1  0.16565300  0.16565300  0.27447300  1
  W  W7  1  0.33417500  0.83748700  0.83549300  1
  W  W8  1  0.51493400  0.99364400  0.49072900  1
  W  W9  1  0.33025200  0.33025200  0.84350800  1
  W  W10  1  0.83748700  0.33417500  0.83549300  1
  W  W11  1  0.83390400  0.83390400  0.95779300  1
  O  O12  1  0.35512600  0.80197400  0.10690400  1
  O  O13  1  0.49844900  0.49844900  0.24260700  1
  O  O14  1  0.35048300  0.35048300  0.10573900  1
  O  O15  1  0.80197400  0.35512600  0.10690400  1
  O  O16  1  0.68145700  0.15018200  0.43316500  1
  O  O17  1  0.50736700  0.99751900  0.24099200  1
  O  O18  1  0.83881200  0.83881200  0.56331300  1
  O  O19  1  0.99372500  0.99372500  0.23938700  1
  O  O20  1  0.83482600  0.83482600  0.09442600  1
  O  O21  1  0.68464200  0.68464200  0.42989000  1
  O  O22  1  0.15018200  0.68145700  0.43316500  1
  O  O23  1  0.99751900  0.50736700  0.24099200  1
  O  O24  1  0.02760400  0.43968800  0.75653500  1
  O  O25  1  0.89566700  0.29649400  0.56338600  1
  O  O26  1  0.30134300  0.30134300  0.56803900  1
  O  O27  1  0.15085200  0.15085200  0.90545100  1
  O  O28  1  0.16239100  0.16239100  0.41084400  1
  O  O29  1  0.02718500  0.02718500  0.75366200  1
  O  O30  1  0.43968800  0.02760400  0.75653500  1
  O  O31  1  0.29649400  0.89566700  0.56338600  1
  O  O32  1  0.16015600  0.68155300  0.91053900  1
  O  O33  1  0.67363700  0.67363700  0.90467200  1
  O  O34  1  0.50515000  0.50515000  0.78191700  1
  O  O35  1  0.68155300  0.16015600  0.91053900  1
