# generated using pymatgen
data_CuBiO4
_symmetry_space_group_name_H-M   'P 1'
_cell_length_a   9.63518000
_cell_length_b   6.43493800
_cell_length_c   10.84426967
_cell_angle_alpha   86.79650983
_cell_angle_beta   90.00000000
_cell_angle_gamma   90.00000000
_symmetry_Int_Tables_number   1
_chemical_formula_structural   CuBiO4
_chemical_formula_sum   'Cu8 Bi8 O32'
_cell_volume   671.31342472
_cell_formula_units_Z   8
loop_
 _symmetry_equiv_pos_site_id
 _symmetry_equiv_pos_as_xyz
  1  'x, y, z'
loop_
 _atom_site_type_symbol
 _atom_site_label
 _atom_site_symmetry_multiplicity
 _atom_site_fract_x
 _atom_site_fract_y
 _atom_site_fract_z
 _atom_site_occupancy
  Cu  Cu0  1  0.10133100  0.80868700  0.87964700  1
  Cu  Cu1  1  0.01480300  0.36878700  0.62289800  1
  Cu  Cu2  1  0.98519700  0.63121300  0.37710200  1
  Cu  Cu3  1  0.89866900  0.19131300  0.12035300  1
  Cu  Cu4  1  0.39866900  0.80868700  0.37964700  1
  Cu  Cu5  1  0.48519700  0.36878700  0.12289800  1
  Cu  Cu6  1  0.60133100  0.19131300  0.62035300  1
  Cu  Cu7  1  0.51480300  0.63121300  0.87710200  1
  Bi  Bi8  1  0.36997100  0.14124700  0.89086300  1
  Bi  Bi9  1  0.13002900  0.14124700  0.39086300  1
  Bi  Bi10  1  0.13945400  0.51939400  0.11056900  1
  Bi  Bi11  1  0.86997100  0.85875300  0.60913700  1
  Bi  Bi12  1  0.86054600  0.48060600  0.88943100  1
  Bi  Bi13  1  0.63945400  0.48060600  0.38943100  1
  Bi  Bi14  1  0.36054600  0.51939400  0.61056900  1
  Bi  Bi15  1  0.63002900  0.85875300  0.10913700  1
  O  O16  1  0.33508200  0.06889700  0.33139500  1
  O  O17  1  0.04126700  0.64530700  0.59976400  1
  O  O18  1  0.69103300  0.18119400  0.47377200  1
  O  O19  1  0.19103300  0.81880600  0.02622800  1
  O  O20  1  0.16491800  0.06889700  0.83139500  1
  O  O21  1  0.66491800  0.93110300  0.66860500  1
  O  O22  1  0.02412100  0.08979600  0.60447200  1
  O  O23  1  0.91526200  0.47726100  0.09670400  1
  O  O24  1  0.58473800  0.47726100  0.59670400  1
  O  O25  1  0.84966400  0.37511700  0.70866900  1
  O  O26  1  0.34966400  0.62488300  0.79133100  1
  O  O27  1  0.08473800  0.52273900  0.90329600  1
  O  O28  1  0.97587900  0.91020400  0.39552800  1
  O  O29  1  0.58058100  0.80282900  0.31005300  1
  O  O30  1  0.19109500  0.34271300  0.54902700  1
  O  O31  1  0.30890500  0.34271300  0.04902700  1
  O  O32  1  0.08058100  0.19717100  0.18994700  1
  O  O33  1  0.41526200  0.52273900  0.40329600  1
  O  O34  1  0.41941900  0.19717100  0.68994700  1
  O  O35  1  0.30896700  0.81880600  0.52622800  1
  O  O36  1  0.45873300  0.64530700  0.09976400  1
  O  O37  1  0.15033600  0.62488300  0.29133100  1
  O  O38  1  0.83508200  0.93110300  0.16860500  1
  O  O39  1  0.47587900  0.08979600  0.10447200  1
  O  O40  1  0.80896700  0.18119400  0.97377200  1
  O  O41  1  0.69109500  0.65728700  0.95097300  1
  O  O42  1  0.95873300  0.35469300  0.40023600  1
  O  O43  1  0.54126700  0.35469300  0.90023600  1
  O  O44  1  0.52412100  0.91020400  0.89552800  1
  O  O45  1  0.80890500  0.65728700  0.45097300  1
  O  O46  1  0.65033600  0.37511700  0.20866900  1
  O  O47  1  0.91941900  0.80282900  0.81005300  1
