# generated using pymatgen
data_MgMn2P2O9
_symmetry_space_group_name_H-M   'P 1'
_cell_length_a   6.39264900
_cell_length_b   7.24599100
_cell_length_c   14.35715100
_cell_angle_alpha   90.00000000
_cell_angle_beta   90.00000000
_cell_angle_gamma   90.00000000
_symmetry_Int_Tables_number   1
_chemical_formula_structural   MgMn2P2O9
_chemical_formula_sum   'Mg4 Mn8 P8 O36'
_cell_volume   665.03869870
_cell_formula_units_Z   4
loop_
 _symmetry_equiv_pos_site_id
 _symmetry_equiv_pos_as_xyz
  1  'x, y, z'
loop_
 _atom_site_type_symbol
 _atom_site_label
 _atom_site_symmetry_multiplicity
 _atom_site_fract_x
 _atom_site_fract_y
 _atom_site_fract_z
 _atom_site_occupancy
  Mg  Mg0  1  0.25000000  0.90543400  0.77287400  1
  Mg  Mg1  1  0.25000000  0.59456600  0.27287400  1
  Mg  Mg2  1  0.75000000  0.40543400  0.72712600  1
  Mg  Mg3  1  0.75000000  0.09456600  0.22712600  1
  Mn  Mn4  1  0.25000000  0.35307600  0.88099800  1
  Mn  Mn5  1  0.75000000  0.64692400  0.11900200  1
  Mn  Mn6  1  0.75000000  0.85307600  0.61900200  1
  Mn  Mn7  1  0.25000000  0.14692400  0.38099800  1
  Mn  Mn8  1  0.00000000  0.00000000  0.00000000  1
  Mn  Mn9  1  0.00000000  0.50000000  0.50000000  1
  Mn  Mn10  1  0.50000000  0.50000000  0.50000000  1
  Mn  Mn11  1  0.50000000  0.00000000  0.00000000  1
  P  P12  1  0.75000000  0.36879700  0.92844200  1
  P  P13  1  0.25000000  0.63120300  0.07155800  1
  P  P14  1  0.25000000  0.86879700  0.57155800  1
  P  P15  1  0.75000000  0.13120300  0.42844200  1
  P  P16  1  0.25000000  0.38743900  0.69969900  1
  P  P17  1  0.25000000  0.11256100  0.19969900  1
  P  P18  1  0.75000000  0.88743900  0.80030100  1
  P  P19  1  0.75000000  0.61256100  0.30030100  1
  O  O20  1  0.54279700  0.60938600  0.35633400  1
  O  O21  1  0.04279700  0.39061400  0.64366600  1
  O  O22  1  0.45720300  0.10938600  0.14366600  1
  O  O23  1  0.95720300  0.89061400  0.85633400  1
  O  O24  1  0.45720300  0.39061400  0.64366600  1
  O  O25  1  0.95720300  0.60938600  0.35633400  1
  O  O26  1  0.54279700  0.89061400  0.85633400  1
  O  O27  1  0.04279700  0.10938600  0.14366600  1
  O  O28  1  0.75000000  0.32201800  0.47825600  1
  O  O29  1  0.25000000  0.67798200  0.52174400  1
  O  O30  1  0.25000000  0.82201800  0.02174400  1
  O  O31  1  0.75000000  0.17798200  0.97825600  1
  O  O32  1  0.25000000  0.12884100  0.95002500  1
  O  O33  1  0.75000000  0.87115900  0.04997500  1
  O  O34  1  0.75000000  0.62884100  0.54997500  1
  O  O35  1  0.25000000  0.37115900  0.45002500  1
  O  O36  1  0.25000000  0.20720800  0.76345600  1
  O  O37  1  0.75000000  0.79279200  0.23654400  1
  O  O38  1  0.75000000  0.70720800  0.73654400  1
  O  O39  1  0.25000000  0.29279200  0.26345600  1
  O  O40  1  0.93398000  0.12107100  0.35882400  1
  O  O41  1  0.43398000  0.87892900  0.64117600  1
  O  O42  1  0.06602000  0.62107100  0.14117600  1
  O  O43  1  0.56602000  0.37892900  0.85882400  1
  O  O44  1  0.06602000  0.87892900  0.64117600  1
  O  O45  1  0.56602000  0.12107100  0.35882400  1
  O  O46  1  0.93398000  0.37892900  0.85882400  1
  O  O47  1  0.43398000  0.62107100  0.14117600  1
  O  O48  1  0.25000000  0.48138300  0.99793300  1
  O  O49  1  0.75000000  0.04625700  0.72625000  1
  O  O50  1  0.75000000  0.45374300  0.22625000  1
  O  O51  1  0.25000000  0.54625700  0.77375000  1
  O  O52  1  0.25000000  0.01861700  0.49793300  1
  O  O53  1  0.75000000  0.98138300  0.50206700  1
  O  O54  1  0.75000000  0.51861700  0.00206700  1
  O  O55  1  0.25000000  0.95374300  0.27375000  1
