# generated using pymatgen
data_ZnCr2(CuO4)2
_symmetry_space_group_name_H-M   'P 1'
_cell_length_a   6.48331700
_cell_length_b   8.31957200
_cell_length_c   11.92922696
_cell_angle_alpha   90.00000000
_cell_angle_beta   90.60056294
_cell_angle_gamma   90.00000000
_symmetry_Int_Tables_number   1
_chemical_formula_structural   ZnCr2(CuO4)2
_chemical_formula_sum   'Zn4 Cr8 Cu8 O32'
_cell_volume   643.40833838
_cell_formula_units_Z   4
loop_
 _symmetry_equiv_pos_site_id
 _symmetry_equiv_pos_as_xyz
  1  'x, y, z'
loop_
 _atom_site_type_symbol
 _atom_site_label
 _atom_site_symmetry_multiplicity
 _atom_site_fract_x
 _atom_site_fract_y
 _atom_site_fract_z
 _atom_site_occupancy
  Zn  Zn0  1  0.11500700  0.15853500  0.04821100  1
  Zn  Zn1  1  0.88499300  0.84146500  0.95178900  1
  Zn  Zn2  1  0.88499300  0.65853500  0.45178900  1
  Zn  Zn3  1  0.11500700  0.34146500  0.54821100  1
  Cr  Cr4  1  0.10270900  0.46076300  0.84666200  1
  Cr  Cr5  1  0.10270900  0.03923700  0.34666200  1
  Cr  Cr6  1  0.61069900  0.08909000  0.13183500  1
  Cr  Cr7  1  0.89729100  0.96076300  0.65333800  1
  Cr  Cr8  1  0.38930100  0.91091000  0.86816500  1
  Cr  Cr9  1  0.38930100  0.58909000  0.36816500  1
  Cr  Cr10  1  0.61069900  0.41091000  0.63183500  1
  Cr  Cr11  1  0.89729100  0.53923700  0.15333800  1
  Cu  Cu12  1  0.75416400  0.18466900  0.87261100  1
  Cu  Cu13  1  0.38310700  0.05906500  0.63508100  1
  Cu  Cu14  1  0.61689300  0.94093500  0.36491900  1
  Cu  Cu15  1  0.24583600  0.81533100  0.12738900  1
  Cu  Cu16  1  0.75416400  0.31533100  0.37261100  1
  Cu  Cu17  1  0.38310700  0.44093500  0.13508100  1
  Cu  Cu18  1  0.24583600  0.68466900  0.62738900  1
  Cu  Cu19  1  0.61689300  0.55906500  0.86491900  1
  O  O20  1  0.03650600  0.22647400  0.39278900  1
  O  O21  1  0.67034200  0.01249500  0.59750400  1
  O  O22  1  0.18594700  0.58111900  0.47335700  1
  O  O23  1  0.81405300  0.08111900  0.02664300  1
  O  O24  1  0.03650600  0.27352600  0.89278900  1
  O  O25  1  0.96349400  0.77352600  0.60721100  1
  O  O26  1  0.07920700  0.09849300  0.61582600  1
  O  O27  1  0.51681000  0.89696700  0.13950800  1
  O  O28  1  0.51681000  0.60303300  0.63950800  1
  O  O29  1  0.31873200  0.86719700  0.72707200  1
  O  O30  1  0.68126800  0.36719700  0.77292800  1
  O  O31  1  0.48319000  0.10303300  0.86049200  1
  O  O32  1  0.92079300  0.90150700  0.38417400  1
  O  O33  1  0.87877300  0.53632500  0.29235300  1
  O  O34  1  0.40855800  0.27979000  0.58452500  1
  O  O35  1  0.40855800  0.22021000  0.08452500  1
  O  O36  1  0.12122700  0.03632500  0.20764700  1
  O  O37  1  0.48319000  0.39696700  0.36049200  1
  O  O38  1  0.12122700  0.46367500  0.70764700  1
  O  O39  1  0.81405300  0.41888100  0.52664300  1
  O  O40  1  0.67034200  0.48750500  0.09750400  1
  O  O41  1  0.68126800  0.13280300  0.27292800  1
  O  O42  1  0.96349400  0.72647400  0.10721100  1
  O  O43  1  0.07920700  0.40150700  0.11582600  1
  O  O44  1  0.18594700  0.91888100  0.97335700  1
  O  O45  1  0.59144200  0.77979000  0.91547500  1
  O  O46  1  0.32965800  0.98750500  0.40249600  1
  O  O47  1  0.32965800  0.51249500  0.90249600  1
  O  O48  1  0.92079300  0.59849300  0.88417400  1
  O  O49  1  0.59144200  0.72021000  0.41547500  1
  O  O50  1  0.31873200  0.63280300  0.22707200  1
  O  O51  1  0.87877300  0.96367500  0.79235300  1
