# generated using pymatgen
data_MgV2O4
_symmetry_space_group_name_H-M   'P 1'
_cell_length_a   6.06009679
_cell_length_b   6.06009679
_cell_length_c   14.84882200
_cell_angle_alpha   90.00000000
_cell_angle_beta   90.00000000
_cell_angle_gamma   120.00000865
_symmetry_Int_Tables_number   1
_chemical_formula_structural   MgV2O4
_chemical_formula_sum   'Mg6 V12 O24'
_cell_volume   472.26060225
_cell_formula_units_Z   6
loop_
 _symmetry_equiv_pos_site_id
 _symmetry_equiv_pos_as_xyz
  1  'x, y, z'
loop_
 _atom_site_type_symbol
 _atom_site_label
 _atom_site_symmetry_multiplicity
 _atom_site_fract_x
 _atom_site_fract_y
 _atom_site_fract_z
 _atom_site_occupancy
  Mg  Mg0  1  0.66666700  0.33333300  0.95464600  1
  Mg  Mg1  1  0.00000000  0.00000000  0.62052400  1
  Mg  Mg2  1  0.33333300  0.66666700  0.66500100  1
  Mg  Mg3  1  0.33333300  0.66666700  0.29246200  1
  Mg  Mg4  1  0.00000000  0.00000000  0.99787400  1
  Mg  Mg5  1  0.00000000  0.00000000  0.37688800  1
  V  V6  1  0.16420200  0.83579800  0.83354500  1
  V  V7  1  0.16420200  0.32840400  0.83354500  1
  V  V8  1  0.49836800  0.50163200  0.50047300  1
  V  V9  1  0.67159600  0.83579800  0.83354500  1
  V  V10  1  0.49836800  0.99673500  0.50047300  1
  V  V11  1  0.66666700  0.33333300  0.33553700  1
  V  V12  1  0.66666700  0.33333300  0.71076800  1
  V  V13  1  0.83246900  0.16753100  0.16697600  1
  V  V14  1  0.00326500  0.50163200  0.50047300  1
  V  V15  1  0.83246900  0.66493700  0.16697600  1
  V  V16  1  0.33506300  0.16753100  0.16697600  1
  V  V17  1  0.33333300  0.66666700  0.04331900  1
  O  O18  1  0.84513300  0.15486700  0.91175500  1
  O  O19  1  0.00000000  0.00000000  0.75861900  1
  O  O20  1  0.84513300  0.69026600  0.91175500  1
  O  O21  1  0.30973400  0.15486700  0.91175500  1
  O  O22  1  0.17860700  0.82139300  0.57611300  1
  O  O23  1  0.01989500  0.50994700  0.75525000  1
  O  O24  1  0.33333300  0.66666700  0.42518700  1
  O  O25  1  0.49005300  0.98010500  0.75525000  1
  O  O26  1  0.33333300  0.66666700  0.90892900  1
  O  O27  1  0.17860700  0.35721400  0.57611300  1
  O  O28  1  0.64278600  0.82139300  0.57611300  1
  O  O29  1  0.49005300  0.50994700  0.75525000  1
  O  O30  1  0.51319900  0.48680100  0.24670400  1
  O  O31  1  0.35882900  0.17941500  0.42043600  1
  O  O32  1  0.82058500  0.64117100  0.42043600  1
  O  O33  1  0.66666700  0.33333300  0.09324600  1
  O  O34  1  0.66666700  0.33333300  0.57844700  1
  O  O35  1  0.51319900  0.02639700  0.24670400  1
  O  O36  1  0.97360300  0.48680100  0.24670400  1
  O  O37  1  0.82058500  0.17941500  0.42043600  1
  O  O38  1  0.68346500  0.84173300  0.08835100  1
  O  O39  1  0.15826700  0.31653500  0.08835100  1
  O  O40  1  0.00000000  0.00000000  0.23936000  1
  O  O41  1  0.15826700  0.84173300  0.08835100  1
