# generated using pymatgen
data_CaCr2O4
_symmetry_space_group_name_H-M   'P 1'
_cell_length_a   6.20531934
_cell_length_b   6.20531934
_cell_length_c   15.58050900
_cell_angle_alpha   90.00000000
_cell_angle_beta   90.00000000
_cell_angle_gamma   119.99999300
_symmetry_Int_Tables_number   1
_chemical_formula_structural   CaCr2O4
_chemical_formula_sum   'Ca6 Cr12 O24'
_cell_volume   519.56582448
_cell_formula_units_Z   6
loop_
 _symmetry_equiv_pos_site_id
 _symmetry_equiv_pos_as_xyz
  1  'x, y, z'
loop_
 _atom_site_type_symbol
 _atom_site_label
 _atom_site_symmetry_multiplicity
 _atom_site_fract_x
 _atom_site_fract_y
 _atom_site_fract_z
 _atom_site_occupancy
  Ca  Ca0  1  0.33333300  0.66666700  0.95593600  1
  Ca  Ca1  1  0.00000000  0.00000000  0.62172900  1
  Ca  Ca2  1  0.66666700  0.33333300  0.66121700  1
  Ca  Ca3  1  0.66666700  0.33333300  0.28986200  1
  Ca  Ca4  1  0.00000000  0.00000000  0.00214700  1
  Ca  Ca5  1  0.00000000  0.00000000  0.37944500  1
  Cr  Cr6  1  0.32718900  0.16359400  0.83390300  1
  Cr  Cr7  1  0.83640600  0.16359400  0.83390300  1
  Cr  Cr8  1  0.99945800  0.49972900  0.49636400  1
  Cr  Cr9  1  0.83640600  0.67281100  0.83390300  1
  Cr  Cr10  1  0.50027100  0.49972900  0.49636400  1
  Cr  Cr11  1  0.33333300  0.66666700  0.33570600  1
  Cr  Cr12  1  0.33333300  0.66666700  0.71703600  1
  Cr  Cr13  1  0.65834700  0.82917400  0.17146600  1
  Cr  Cr14  1  0.50027100  0.00054200  0.49636400  1
  Cr  Cr15  1  0.17082600  0.82917400  0.17146600  1
  Cr  Cr16  1  0.17082600  0.34165300  0.17146600  1
  Cr  Cr17  1  0.66666700  0.33333300  0.05202000  1
  O  O18  1  0.70253800  0.85126900  0.90151300  1
  O  O19  1  0.00000000  0.00000000  0.76730000  1
  O  O20  1  0.14873100  0.85126900  0.90151300  1
  O  O21  1  0.14873100  0.29746200  0.90151300  1
  O  O22  1  0.36185000  0.18092500  0.56134200  1
  O  O23  1  0.50308000  0.00615900  0.76154200  1
  O  O24  1  0.66666700  0.33333300  0.42969500  1
  O  O25  1  0.50308000  0.49692000  0.76154200  1
  O  O26  1  0.66666700  0.33333300  0.90751700  1
  O  O27  1  0.81907500  0.18092500  0.56134200  1
  O  O28  1  0.81907500  0.63815000  0.56134200  1
  O  O29  1  0.99384100  0.49692000  0.76154200  1
  O  O30  1  0.05206400  0.52603200  0.24531700  1
  O  O31  1  0.19341200  0.38682300  0.41994400  1
  O  O32  1  0.19341200  0.80658800  0.41994400  1
  O  O33  1  0.33333300  0.66666700  0.10443300  1
  O  O34  1  0.33333300  0.66666700  0.57522000  1
  O  O35  1  0.47396800  0.52603200  0.24531700  1
  O  O36  1  0.47396800  0.94793600  0.24531700  1
  O  O37  1  0.61317700  0.80658800  0.41994400  1
  O  O38  1  0.83270000  0.66540000  0.09933400  1
  O  O39  1  0.83270000  0.16730000  0.09933400  1
  O  O40  1  0.00000000  0.00000000  0.23121700  1
  O  O41  1  0.33460000  0.16730000  0.09933400  1
