# generated using pymatgen
data_ZnMo2P2O9
_symmetry_space_group_name_H-M   'P 1'
_cell_length_a   6.65291700
_cell_length_b   7.53933500
_cell_length_c   14.80563600
_cell_angle_alpha   90.00000000
_cell_angle_beta   90.00000000
_cell_angle_gamma   90.00000000
_symmetry_Int_Tables_number   1
_chemical_formula_structural   ZnMo2P2O9
_chemical_formula_sum   'Zn4 Mo8 P8 O36'
_cell_volume   742.62952956
_cell_formula_units_Z   4
loop_
 _symmetry_equiv_pos_site_id
 _symmetry_equiv_pos_as_xyz
  1  'x, y, z'
loop_
 _atom_site_type_symbol
 _atom_site_label
 _atom_site_symmetry_multiplicity
 _atom_site_fract_x
 _atom_site_fract_y
 _atom_site_fract_z
 _atom_site_occupancy
  Zn  Zn0  1  0.25000000  0.45747900  0.26580300  1
  Zn  Zn1  1  0.25000000  0.04252100  0.76580300  1
  Zn  Zn2  1  0.75000000  0.95747900  0.23419700  1
  Zn  Zn3  1  0.75000000  0.54252100  0.73419700  1
  Mo  Mo4  1  0.25000000  0.86733700  0.37652700  1
  Mo  Mo5  1  0.75000000  0.13266300  0.62347300  1
  Mo  Mo6  1  0.75000000  0.36733700  0.12347300  1
  Mo  Mo7  1  0.25000000  0.63266300  0.87652700  1
  Mo  Mo8  1  0.00000000  0.50000000  0.50000000  1
  Mo  Mo9  1  0.00000000  0.00000000  0.00000000  1
  Mo  Mo10  1  0.50000000  0.00000000  0.00000000  1
  Mo  Mo11  1  0.50000000  0.50000000  0.50000000  1
  P  P12  1  0.75000000  0.87158600  0.42312200  1
  P  P13  1  0.25000000  0.12841400  0.57687800  1
  P  P14  1  0.25000000  0.37158600  0.07687800  1
  P  P15  1  0.75000000  0.62841400  0.92312200  1
  P  P16  1  0.25000000  0.89470800  0.19037800  1
  P  P17  1  0.25000000  0.60529200  0.69037800  1
  P  P18  1  0.75000000  0.39470800  0.30962200  1
  P  P19  1  0.75000000  0.10529200  0.80962200  1
  O  O20  1  0.55217300  0.10545800  0.86563600  1
  O  O21  1  0.05217300  0.89454200  0.13436400  1
  O  O22  1  0.44782700  0.60545800  0.63436400  1
  O  O23  1  0.94782700  0.39454200  0.36563600  1
  O  O24  1  0.44782700  0.89454200  0.13436400  1
  O  O25  1  0.94782700  0.10545800  0.86563600  1
  O  O26  1  0.55217300  0.39454200  0.36563600  1
  O  O27  1  0.05217300  0.60545800  0.63436400  1
  O  O28  1  0.75000000  0.81556900  0.97062300  1
  O  O29  1  0.25000000  0.18443100  0.02937700  1
  O  O30  1  0.25000000  0.31556900  0.52937700  1
  O  O31  1  0.75000000  0.68443100  0.47062300  1
  O  O32  1  0.25000000  0.61828200  0.43692500  1
  O  O33  1  0.75000000  0.38171800  0.56307500  1
  O  O34  1  0.75000000  0.11828200  0.06307500  1
  O  O35  1  0.25000000  0.88171800  0.93692500  1
  O  O36  1  0.25000000  0.72175600  0.25126400  1
  O  O37  1  0.75000000  0.27824400  0.74873600  1
  O  O38  1  0.75000000  0.22175600  0.24873600  1
  O  O39  1  0.25000000  0.77824400  0.75126400  1
  O  O40  1  0.92947000  0.61534900  0.85610600  1
  O  O41  1  0.42947000  0.38465100  0.14389400  1
  O  O42  1  0.07053000  0.11534900  0.64389400  1
  O  O43  1  0.57053000  0.88465100  0.35610600  1
  O  O44  1  0.07053000  0.38465100  0.14389400  1
  O  O45  1  0.57053000  0.61534900  0.85610600  1
  O  O46  1  0.92947000  0.88465100  0.35610600  1
  O  O47  1  0.42947000  0.11534900  0.64389400  1
  O  O48  1  0.25000000  0.98303100  0.50680300  1
  O  O49  1  0.75000000  0.54825300  0.24003400  1
  O  O50  1  0.75000000  0.95174700  0.74003400  1
  O  O51  1  0.25000000  0.04825300  0.25996600  1
  O  O52  1  0.25000000  0.51696900  0.00680300  1
  O  O53  1  0.75000000  0.48303100  0.99319700  1
  O  O54  1  0.75000000  0.01696900  0.49319700  1
  O  O55  1  0.25000000  0.45174700  0.75996600  1
