# generated using pymatgen
data_Mg(FeO2)2
_symmetry_space_group_name_H-M   'P 1'
_cell_length_a   6.04956837
_cell_length_b   6.04956837
_cell_length_c   14.80643700
_cell_angle_alpha   90.00000000
_cell_angle_beta   90.00000000
_cell_angle_gamma   120.00000407
_symmetry_Int_Tables_number   1
_chemical_formula_structural   Mg(FeO2)2
_chemical_formula_sum   'Mg6 Fe12 O24'
_cell_volume   469.27774200
_cell_formula_units_Z   6
loop_
 _symmetry_equiv_pos_site_id
 _symmetry_equiv_pos_as_xyz
  1  'x, y, z'
loop_
 _atom_site_type_symbol
 _atom_site_label
 _atom_site_symmetry_multiplicity
 _atom_site_fract_x
 _atom_site_fract_y
 _atom_site_fract_z
 _atom_site_occupancy
  Mg  Mg0  1  0.00000000  0.00000000  0.04518300  1
  Mg  Mg1  1  0.33333300  0.66666700  0.37932900  1
  Mg  Mg2  1  0.66666700  0.33333300  0.33558700  1
  Mg  Mg3  1  0.66666700  0.33333300  0.70860800  1
  Mg  Mg4  1  0.33333300  0.66666700  0.00206000  1
  Mg  Mg5  1  0.33333300  0.66666700  0.62260500  1
  Fe  Fe6  1  0.49639400  0.99278800  0.16588400  1
  Fe  Fe7  1  0.49639400  0.50360600  0.16588400  1
  Fe  Fe8  1  0.83078200  0.66156300  0.49867700  1
  Fe  Fe9  1  0.00721200  0.50360600  0.16588400  1
  Fe  Fe10  1  0.83078200  0.16921800  0.49867700  1
  Fe  Fe11  1  0.00000000  0.00000000  0.66347700  1
  Fe  Fe12  1  0.00000000  0.00000000  0.28747000  1
  Fe  Fe13  1  0.16493100  0.32986300  0.83229400  1
  Fe  Fe14  1  0.33843700  0.16921800  0.49867700  1
  Fe  Fe15  1  0.16493100  0.83506900  0.83229400  1
  Fe  Fe16  1  0.67013700  0.83506900  0.83229400  1
  Fe  Fe17  1  0.66666700  0.33333300  0.95648400  1
  O  O18  1  0.17888800  0.35777700  0.08965400  1
  O  O19  1  0.33333300  0.66666700  0.24224100  1
  O  O20  1  0.17888800  0.82111200  0.08965400  1
  O  O21  1  0.64222300  0.82111200  0.08965400  1
  O  O22  1  0.51163100  0.02326300  0.42376200  1
  O  O23  1  0.35175900  0.17587900  0.24545300  1
  O  O24  1  0.66666700  0.33333300  0.57499300  1
  O  O25  1  0.82412100  0.17587900  0.24545300  1
  O  O26  1  0.66666700  0.33333300  0.08898200  1
  O  O27  1  0.51163100  0.48836900  0.42376200  1
  O  O28  1  0.97673700  0.48836900  0.42376200  1
  O  O29  1  0.82412100  0.64824100  0.24545300  1
  O  O30  1  0.84707700  0.69415400  0.75354300  1
  O  O31  1  0.69569400  0.84784700  0.57975000  1
  O  O32  1  0.15215300  0.84784700  0.57975000  1
  O  O33  1  0.00000000  0.00000000  0.90756000  1
  O  O34  1  0.00000000  0.00000000  0.41964100  1
  O  O35  1  0.84707700  0.15292300  0.75354300  1
  O  O36  1  0.30584600  0.15292300  0.75354300  1
  O  O37  1  0.15215300  0.30430600  0.57975000  1
  O  O38  1  0.01510000  0.50755000  0.91249800  1
  O  O39  1  0.49245000  0.50755000  0.91249800  1
  O  O40  1  0.33333300  0.66666700  0.76131700  1
  O  O41  1  0.49245000  0.98490000  0.91249800  1
