# generated using pymatgen
data_HoZn(WO3)2
_symmetry_space_group_name_H-M   'P 1'
_cell_length_a   5.50747100
_cell_length_b   5.83733500
_cell_length_c   7.87867697
_cell_angle_alpha   87.89512390
_cell_angle_beta   90.00000000
_cell_angle_gamma   90.00000000
_symmetry_Int_Tables_number   1
_chemical_formula_structural   HoZn(WO3)2
_chemical_formula_sum   'Ho2 Zn2 W4 O12'
_cell_volume   253.12031455
_cell_formula_units_Z   2
loop_
 _symmetry_equiv_pos_site_id
 _symmetry_equiv_pos_as_xyz
  1  'x, y, z'
loop_
 _atom_site_type_symbol
 _atom_site_label
 _atom_site_symmetry_multiplicity
 _atom_site_fract_x
 _atom_site_fract_y
 _atom_site_fract_z
 _atom_site_occupancy
  Ho  Ho0  1  0.97252200  0.32178600  0.73898000  1
  Ho  Ho1  1  0.47252200  0.67821400  0.26102000  1
  Zn  Zn2  1  0.48368300  0.70004900  0.72878000  1
  Zn  Zn3  1  0.98368300  0.29995100  0.27122000  1
  W  W4  1  0.00311800  0.76747800  0.49601500  1
  W  W5  1  0.99516900  0.76492100  0.99957200  1
  W  W6  1  0.49516900  0.23507900  0.00042800  1
  W  W7  1  0.50311800  0.23252200  0.50398500  1
  O  O8  1  0.86215600  0.77079100  0.23955800  1
  O  O9  1  0.85310300  0.09045500  0.54564800  1
  O  O10  1  0.82152200  0.06492100  0.93062400  1
  O  O11  1  0.68793800  0.55518600  0.55942300  1
  O  O12  1  0.68925300  0.54879500  0.92397400  1
  O  O13  1  0.63152400  0.29419100  0.24064900  1
  O  O14  1  0.36215600  0.22920900  0.76044200  1
  O  O15  1  0.32152200  0.93507900  0.06937600  1
  O  O16  1  0.35310300  0.90954500  0.45435200  1
  O  O17  1  0.18793800  0.44481400  0.44057700  1
  O  O18  1  0.18925300  0.45120500  0.07602600  1
  O  O19  1  0.13152400  0.70580900  0.75935100  1
