# generated using pymatgen
data_Ca(FeO2)2
_symmetry_space_group_name_H-M   'P 1'
_cell_length_a   6.27632545
_cell_length_b   6.27632545
_cell_length_c   15.52954483
_cell_angle_alpha   89.46009110
_cell_angle_beta   89.46009110
_cell_angle_gamma   59.84009821
_symmetry_Int_Tables_number   1
_chemical_formula_structural   Ca(FeO2)2
_chemical_formula_sum   'Ca6 Fe12 O24'
_cell_volume   528.89879103
_cell_formula_units_Z   6
loop_
 _symmetry_equiv_pos_site_id
 _symmetry_equiv_pos_as_xyz
  1  'x, y, z'
loop_
 _atom_site_type_symbol
 _atom_site_label
 _atom_site_symmetry_multiplicity
 _atom_site_fract_x
 _atom_site_fract_y
 _atom_site_fract_z
 _atom_site_occupancy
  Ca  Ca0  1  0.83361900  0.83361900  0.04513300  1
  Ca  Ca1  1  0.50418900  0.50418900  0.38006300  1
  Ca  Ca2  1  0.16693000  0.16693000  0.33759300  1
  Ca  Ca3  1  0.16947400  0.16947400  0.71825000  1
  Ca  Ca4  1  0.50063900  0.50063900  0.99591000  1
  Ca  Ca5  1  0.50057000  0.50057000  0.62121300  1
  Fe  Fe6  1  0.33817200  0.82371800  0.16481800  1
  Fe  Fe7  1  0.33958200  0.33958200  0.16557000  1
  Fe  Fe8  1  0.99965500  0.50589500  0.50037400  1
  Fe  Fe9  1  0.82371800  0.33817200  0.16481800  1
  Fe  Fe10  1  0.01271600  0.01271600  0.51101300  1
  Fe  Fe11  1  0.83346000  0.83346000  0.66213200  1
  Fe  Fe12  1  0.83153100  0.83153100  0.28312800  1
  Fe  Fe13  1  0.67178400  0.16052800  0.82869900  1
  Fe  Fe14  1  0.50589500  0.99965500  0.50037400  1
  Fe  Fe15  1  0.67349900  0.67349900  0.82872300  1
  Fe  Fe16  1  0.16052800  0.67178400  0.82869900  1
  Fe  Fe17  1  0.16759500  0.16759500  0.95229000  1
  O  O18  1  0.64940100  0.20311600  0.09785500  1
  O  O19  1  0.49917800  0.49917800  0.23596900  1
  O  O20  1  0.64806800  0.64806800  0.09699100  1
  O  O21  1  0.20311600  0.64940100  0.09785500  1
  O  O22  1  0.31750100  0.86462700  0.44209200  1
  O  O23  1  0.49178000  0.00211700  0.23842100  1
  O  O24  1  0.17152500  0.17152500  0.57683400  1
  O  O25  1  0.00359200  0.00359200  0.24024500  1
  O  O26  1  0.16711600  0.16711600  0.08358600  1
  O  O27  1  0.32113300  0.32113300  0.43810500  1
  O  O28  1  0.86462700  0.31750100  0.44209200  1
  O  O29  1  0.00211700  0.49178000  0.23842100  1
  O  O30  1  0.97477700  0.55706900  0.75434700  1
  O  O31  1  0.11393300  0.69558600  0.57819000  1
  O  O32  1  0.69431300  0.69431300  0.57895900  1
  O  O33  1  0.83361300  0.83361300  0.89875000  1
  O  O34  1  0.82155100  0.82155100  0.41060200  1
  O  O35  1  0.97541600  0.97541600  0.75327700  1
  O  O36  1  0.55706900  0.97477700  0.75434700  1
  O  O37  1  0.69558600  0.11393300  0.57819000  1
  O  O38  1  0.83773900  0.33405500  0.90196800  1
  O  O39  1  0.33232600  0.33232600  0.90205300  1
  O  O40  1  0.50267100  0.50267100  0.77028400  1
  O  O41  1  0.33405500  0.83773900  0.90196800  1
