# generated using pymatgen
data_ZnSn4O9
_symmetry_space_group_name_H-M   'P 1'
_cell_length_a   8.17901100
_cell_length_b   8.17901100
_cell_length_c   5.07890200
_cell_angle_alpha   90.00000000
_cell_angle_beta   90.00000000
_cell_angle_gamma   90.00000000
_symmetry_Int_Tables_number   1
_chemical_formula_structural   ZnSn4O9
_chemical_formula_sum   'Zn2 Sn8 O18'
_cell_volume   339.75935032
_cell_formula_units_Z   2
loop_
 _symmetry_equiv_pos_site_id
 _symmetry_equiv_pos_as_xyz
  1  'x, y, z'
loop_
 _atom_site_type_symbol
 _atom_site_label
 _atom_site_symmetry_multiplicity
 _atom_site_fract_x
 _atom_site_fract_y
 _atom_site_fract_z
 _atom_site_occupancy
  Zn  Zn0  1  0.50000000  0.00000000  0.79634800  1
  Zn  Zn1  1  0.00000000  0.50000000  0.20365200  1
  Sn  Sn2  1  0.18682400  0.88286900  0.27388900  1
  Sn  Sn3  1  0.88286900  0.81317600  0.72611100  1
  Sn  Sn4  1  0.38286900  0.31317600  0.27388900  1
  Sn  Sn5  1  0.68682400  0.38286900  0.72611100  1
  Sn  Sn6  1  0.81317600  0.11713100  0.27388900  1
  Sn  Sn7  1  0.61713100  0.68682400  0.27388900  1
  Sn  Sn8  1  0.31317600  0.61713100  0.72611100  1
  Sn  Sn9  1  0.11713100  0.18682400  0.72611100  1
  O  O10  1  0.00000000  0.00000000  0.50000000  1
  O  O11  1  0.50000000  0.50000000  0.50000000  1
  O  O12  1  0.01436800  0.24567200  0.08371900  1
  O  O13  1  0.25432800  0.51436800  0.08371900  1
  O  O14  1  0.74567200  0.48563200  0.08371900  1
  O  O15  1  0.98563200  0.75432800  0.08371900  1
  O  O16  1  0.48563200  0.25432800  0.91628100  1
  O  O17  1  0.24567200  0.98563200  0.91628100  1
  O  O18  1  0.75432800  0.01436800  0.91628100  1
  O  O19  1  0.51436800  0.74567200  0.91628100  1
  O  O20  1  0.71115400  0.89667900  0.43372400  1
  O  O21  1  0.60332100  0.21115400  0.43372400  1
  O  O22  1  0.39667900  0.78884600  0.43372400  1
  O  O23  1  0.28884600  0.10332100  0.43372400  1
  O  O24  1  0.21115400  0.39667900  0.56627600  1
  O  O25  1  0.89667900  0.28884600  0.56627600  1
  O  O26  1  0.10332100  0.71115400  0.56627600  1
  O  O27  1  0.78884600  0.60332100  0.56627600  1
