# generated using pymatgen
data_NiTe
_symmetry_space_group_name_H-M   'P 1'
_cell_length_a   7.05811794
_cell_length_b   7.05811794
_cell_length_c   7.05811789
_cell_angle_alpha   31.71102413
_cell_angle_beta   31.71102413
_cell_angle_gamma   31.71102054
_symmetry_Int_Tables_number   1
_chemical_formula_structural   NiTe
_chemical_formula_sum   'Ni2 Te2'
_cell_volume   86.27669577
_cell_formula_units_Z   2
loop_
 _symmetry_equiv_pos_site_id
 _symmetry_equiv_pos_as_xyz
  1  'x, y, z'
loop_
 _atom_site_type_symbol
 _atom_site_label
 _atom_site_symmetry_multiplicity
 _atom_site_fract_x
 _atom_site_fract_y
 _atom_site_fract_z
 _atom_site_occupancy
  Ni  Ni0  1  0.13165400  0.13165400  0.13165400  1
  Ni  Ni1  1  0.86834600  0.86834600  0.86834600  1
  Te  Te2  1  0.25821200  0.25821200  0.25821200  1
  Te  Te3  1  0.74178800  0.74178800  0.74178800  1
