# generated using pymatgen
data_Sr2Y2Ti2O7
_symmetry_space_group_name_H-M   'P 1'
_cell_length_a   12.97934090
_cell_length_b   12.97934090
_cell_length_c   12.97934090
_cell_angle_alpha   155.39762353
_cell_angle_beta   155.15947385
_cell_angle_gamma   35.24425619
_symmetry_Int_Tables_number   1
_chemical_formula_structural   Sr2Y2Ti2O7
_chemical_formula_sum   'Sr4 Y4 Ti4 O14'
_cell_volume   381.96959453
_cell_formula_units_Z   2
loop_
 _symmetry_equiv_pos_site_id
 _symmetry_equiv_pos_as_xyz
  1  'x, y, z'
loop_
 _atom_site_type_symbol
 _atom_site_label
 _atom_site_symmetry_multiplicity
 _atom_site_fract_x
 _atom_site_fract_y
 _atom_site_fract_z
 _atom_site_occupancy
  Sr  Sr0  1  0.83386000  0.83747000  0.96149200  1
  Sr  Sr1  1  0.16614000  0.12763200  0.00361000  1
  Sr  Sr2  1  0.62402200  0.62763200  0.96149200  1
  Sr  Sr3  1  0.37597800  0.33747000  0.00361000  1
  Y  Y4  1  0.50000000  0.47163800  0.97163800  1
  Y  Y5  1  0.00000000  0.97163800  0.97163800  1
  Y  Y6  1  0.20401600  0.76556800  0.46958400  1
  Y  Y7  1  0.79598400  0.26556800  0.56155200  1
  Ti  Ti8  1  0.94296800  0.41436900  0.47294700  1
  Ti  Ti9  1  0.05703200  0.52998000  0.47140200  1
  Ti  Ti10  1  0.55857800  0.02998000  0.47294700  1
  Ti  Ti11  1  0.44142200  0.91436900  0.47140200  1
  O  O12  1  0.82275100  0.66579400  0.98854600  1
  O  O13  1  0.17724900  0.16579400  0.84304300  1
  O  O14  1  0.69225300  0.66378300  0.48231500  1
  O  O15  1  0.30774700  0.79006200  0.97153100  1
  O  O16  1  0.31853100  0.29006200  0.48231500  1
  O  O17  1  0.68146900  0.16378300  0.97153100  1
  O  O18  1  0.18156400  0.15333700  0.46373500  1
  O  O19  1  0.81843600  0.28217100  0.97177300  1
  O  O20  1  0.81039800  0.78217100  0.46373500  1
  O  O21  1  0.18960200  0.65333700  0.97177300  1
  O  O22  1  0.37463500  0.77221300  0.48061900  1
  O  O23  1  0.62536500  0.10598400  0.39757800  1
  O  O24  1  0.20840500  0.60598400  0.48061900  1
  O  O25  1  0.79159500  0.27221300  0.39757800  1
