# generated using pymatgen
data_ZnBi4O9
_symmetry_space_group_name_H-M   'P 1'
_cell_length_a   5.82360500
_cell_length_b   8.16306200
_cell_length_c   11.31273725
_cell_angle_alpha   50.92804252
_cell_angle_beta   90.00000000
_cell_angle_gamma   90.00000000
_symmetry_Int_Tables_number   1
_chemical_formula_structural   ZnBi4O9
_chemical_formula_sum   'Zn2 Bi8 O18'
_cell_volume   417.51593321
_cell_formula_units_Z   2
loop_
 _symmetry_equiv_pos_site_id
 _symmetry_equiv_pos_as_xyz
  1  'x, y, z'
loop_
 _atom_site_type_symbol
 _atom_site_label
 _atom_site_symmetry_multiplicity
 _atom_site_fract_x
 _atom_site_fract_y
 _atom_site_fract_z
 _atom_site_occupancy
  Zn  Zn0  1  0.19582200  0.00000000  0.25000000  1
  Zn  Zn1  1  0.80417800  0.00000000  0.75000000  1
  Bi  Bi2  1  0.68977000  0.80176300  0.55453100  1
  Bi  Bi3  1  0.24858300  0.60261700  0.86323300  1
  Bi  Bi4  1  0.75141700  0.60261700  0.36323300  1
  Bi  Bi5  1  0.31023000  0.80176300  0.05453100  1
  Bi  Bi6  1  0.68977000  0.19823700  0.94546900  1
  Bi  Bi7  1  0.75141700  0.39738300  0.13676700  1
  Bi  Bi8  1  0.31023000  0.19823700  0.44546900  1
  Bi  Bi9  1  0.24858300  0.39738300  0.63676700  1
  O  O10  1  0.55594200  0.50000000  0.75000000  1
  O  O11  1  0.44405800  0.50000000  0.25000000  1
  O  O12  1  0.89014300  0.18383800  0.79751100  1
  O  O13  1  0.04679900  0.27568800  0.53321700  1
  O  O14  1  0.04679900  0.72431200  0.96678300  1
  O  O15  1  0.89014300  0.81616200  0.70248900  1
  O  O16  1  0.10985700  0.81616200  0.20248900  1
  O  O17  1  0.95320100  0.72431200  0.46678300  1
  O  O18  1  0.95320100  0.27568800  0.03321700  1
  O  O19  1  0.10985700  0.18383800  0.29751100  1
  O  O20  1  0.47958300  0.26939500  0.06990000  1
  O  O21  1  0.63358600  0.87082900  0.12028500  1
  O  O22  1  0.63358600  0.12917100  0.37971500  1
  O  O23  1  0.47958300  0.73060500  0.43010000  1
  O  O24  1  0.52041700  0.26939500  0.56990000  1
  O  O25  1  0.36641400  0.12917100  0.87971500  1
  O  O26  1  0.36641400  0.87082900  0.62028500  1
  O  O27  1  0.52041700  0.73060500  0.93010000  1
