# generated using pymatgen
data_Ca(SbO2)4
_symmetry_space_group_name_H-M   'P 1'
_cell_length_a   8.29778359
_cell_length_b   8.29778359
_cell_length_c   9.60414657
_cell_angle_alpha   54.82699180
_cell_angle_beta   54.82699180
_cell_angle_gamma   22.53564898
_symmetry_Int_Tables_number   1
_chemical_formula_structural   Ca(SbO2)4
_chemical_formula_sum   'Ca1 Sb4 O8'
_cell_volume   205.11350745
_cell_formula_units_Z   1
loop_
 _symmetry_equiv_pos_site_id
 _symmetry_equiv_pos_as_xyz
  1  'x, y, z'
loop_
 _atom_site_type_symbol
 _atom_site_label
 _atom_site_symmetry_multiplicity
 _atom_site_fract_x
 _atom_site_fract_y
 _atom_site_fract_z
 _atom_site_occupancy
  Ca  Ca0  1  0.58468900  0.58468900  0.94109600  1
  Sb  Sb1  1  0.39987700  0.39987700  0.34393000  1
  Sb  Sb2  1  0.87859500  0.87859500  0.74086700  1
  Sb  Sb3  1  0.16046200  0.16046200  0.17354200  1
  Sb  Sb4  1  0.63926300  0.63926300  0.54996000  1
  O  O5  1  0.11797300  0.11797300  0.41499100  1
  O  O6  1  0.55683100  0.55683100  0.24173100  1
  O  O7  1  0.47746200  0.47746200  0.68104600  1
  O  O8  1  0.89057500  0.89057500  0.52208000  1
  O  O9  1  0.95827600  0.95827600  0.16073400  1
  O  O10  1  0.18931800  0.18931800  0.94422700  1
  O  O11  1  0.10013900  0.10013900  0.73427900  1
  O  O12  1  0.74957400  0.74957400  0.12087100  1
