# generated using pymatgen
data_MgMn3P3O13
_symmetry_space_group_name_H-M   'P 1'
_cell_length_a   6.18089800
_cell_length_b   7.70676600
_cell_length_c   10.30119444
_cell_angle_alpha   79.72347884
_cell_angle_beta   90.00000000
_cell_angle_gamma   90.00000000
_symmetry_Int_Tables_number   1
_chemical_formula_structural   MgMn3P3O13
_chemical_formula_sum   'Mg2 Mn6 P6 O26'
_cell_volume   482.82304955
_cell_formula_units_Z   2
loop_
 _symmetry_equiv_pos_site_id
 _symmetry_equiv_pos_as_xyz
  1  'x, y, z'
loop_
 _atom_site_type_symbol
 _atom_site_label
 _atom_site_symmetry_multiplicity
 _atom_site_fract_x
 _atom_site_fract_y
 _atom_site_fract_z
 _atom_site_occupancy
  Mg  Mg0  1  0.75000000  0.36726600  0.16747700  1
  Mg  Mg1  1  0.25000000  0.63273400  0.83252300  1
  Mn  Mn2  1  0.25000000  0.64906200  0.20821000  1
  Mn  Mn3  1  0.75000000  0.35093800  0.79179000  1
  Mn  Mn4  1  0.25000000  0.22872300  0.42980500  1
  Mn  Mn5  1  0.50000000  0.00000000  0.00000000  1
  Mn  Mn6  1  0.75000000  0.77127700  0.57019500  1
  Mn  Mn7  1  0.00000000  0.00000000  0.00000000  1
  P  P8  1  0.25000000  0.78723700  0.49307600  1
  P  P9  1  0.75000000  0.21276300  0.50692400  1
  P  P10  1  0.25000000  0.26567300  0.75976500  1
  P  P11  1  0.75000000  0.73432700  0.24023500  1
  P  P12  1  0.75000000  0.67761700  0.88859100  1
  P  P13  1  0.25000000  0.32238300  0.11140900  1
  O  O14  1  0.75000000  0.62320200  0.74863200  1
  O  O15  1  0.55785300  0.25063600  0.40596000  1
  O  O16  1  0.25000000  0.22031200  0.62340400  1
  O  O17  1  0.53650400  0.78209100  0.89731500  1
  O  O18  1  0.75000000  0.34934700  0.59874000  1
  O  O19  1  0.75000000  0.11701800  0.90729700  1
  O  O20  1  0.25000000  0.65065300  0.40126000  1
  O  O21  1  0.03650400  0.21790900  0.10268500  1
  O  O22  1  0.25000000  0.97378100  0.41373200  1
  O  O23  1  0.75000000  0.02621900  0.58626800  1
  O  O24  1  0.05947900  0.38590200  0.78966600  1
  O  O25  1  0.25000000  0.88298200  0.09270300  1
  O  O26  1  0.55947900  0.61409800  0.21033400  1
  O  O27  1  0.75000000  0.49715200  0.97969900  1
  O  O28  1  0.75000000  0.77968800  0.37659600  1
  O  O29  1  0.46349600  0.21790900  0.10268500  1
  O  O30  1  0.94214700  0.25063600  0.40596000  1
  O  O31  1  0.44214700  0.74936400  0.59404000  1
  O  O32  1  0.44052100  0.38590200  0.78966600  1
  O  O33  1  0.25000000  0.37679800  0.25136800  1
  O  O34  1  0.75000000  0.90528100  0.13378100  1
  O  O35  1  0.25000000  0.09471900  0.86621900  1
  O  O36  1  0.94052100  0.61409800  0.21033400  1
  O  O37  1  0.96349600  0.78209100  0.89731500  1
  O  O38  1  0.05785300  0.74936400  0.59404000  1
  O  O39  1  0.25000000  0.50284800  0.02030100  1
