# generated using pymatgen
data_BaCa(WO2)4
_symmetry_space_group_name_H-M   'P 1'
_cell_length_a   5.86905909
_cell_length_b   5.86905909
_cell_length_c   7.51963900
_cell_angle_alpha   90.00000000
_cell_angle_beta   90.00000000
_cell_angle_gamma   119.99998969
_symmetry_Int_Tables_number   1
_chemical_formula_structural   BaCa(WO2)4
_chemical_formula_sum   'Ba1 Ca1 W4 O8'
_cell_volume   224.31826221
_cell_formula_units_Z   1
loop_
 _symmetry_equiv_pos_site_id
 _symmetry_equiv_pos_as_xyz
  1  'x, y, z'
loop_
 _atom_site_type_symbol
 _atom_site_label
 _atom_site_symmetry_multiplicity
 _atom_site_fract_x
 _atom_site_fract_y
 _atom_site_fract_z
 _atom_site_occupancy
  Ba  Ba0  1  0.00000000  0.00000000  0.00000000  1
  Ca  Ca1  1  0.00000000  0.00000000  0.50000000  1
  W  W2  1  0.33333300  0.66666700  0.72643600  1
  W  W3  1  0.66666700  0.33333300  0.72643600  1
  W  W4  1  0.33333300  0.66666700  0.27356400  1
  W  W5  1  0.66666700  0.33333300  0.27356400  1
  O  O6  1  0.30322300  0.30322300  0.70535700  1
  O  O7  1  0.69677700  0.00000000  0.70535700  1
  O  O8  1  0.00000000  0.69677700  0.70535700  1
  O  O9  1  0.69677700  0.69677700  0.29464300  1
  O  O10  1  0.00000000  0.30322300  0.29464300  1
  O  O11  1  0.30322300  0.00000000  0.29464300  1
  O  O12  1  0.33333300  0.66666700  0.00000000  1
  O  O13  1  0.66666700  0.33333300  0.00000000  1
