# generated using pymatgen
data_Mn2Nb2ZnO9
_symmetry_space_group_name_H-M   'P 1'
_cell_length_a   5.25458517
_cell_length_b   5.25458517
_cell_length_c   14.08709400
_cell_angle_alpha   90.00000000
_cell_angle_beta   90.00000000
_cell_angle_gamma   119.99998951
_symmetry_Int_Tables_number   1
_chemical_formula_structural   Mn2Nb2ZnO9
_chemical_formula_sum   'Mn4 Nb4 Zn2 O18'
_cell_volume   336.84411265
_cell_formula_units_Z   2
loop_
 _symmetry_equiv_pos_site_id
 _symmetry_equiv_pos_as_xyz
  1  'x, y, z'
loop_
 _atom_site_type_symbol
 _atom_site_label
 _atom_site_symmetry_multiplicity
 _atom_site_fract_x
 _atom_site_fract_y
 _atom_site_fract_z
 _atom_site_occupancy
  Mn  Mn0  1  0.33333300  0.66666700  0.00616800  1
  Mn  Mn1  1  0.33333300  0.66666700  0.50616800  1
  Mn  Mn2  1  0.66666700  0.33333300  0.00469600  1
  Mn  Mn3  1  0.66666700  0.33333300  0.50469600  1
  Nb  Nb4  1  0.00000000  0.00000000  0.64921100  1
  Nb  Nb5  1  0.00000000  0.00000000  0.14921100  1
  Nb  Nb6  1  0.00000000  0.00000000  0.86102300  1
  Nb  Nb7  1  0.00000000  0.00000000  0.36102300  1
  Zn  Zn8  1  0.33333300  0.66666700  0.26886100  1
  Zn  Zn9  1  0.33333300  0.66666700  0.76886100  1
  O  O10  1  0.65370200  0.68726500  0.58236400  1
  O  O11  1  0.01238900  0.73174300  0.75586700  1
  O  O12  1  0.64783700  0.96307200  0.42676800  1
  O  O13  1  0.31523500  0.35216300  0.42676800  1
  O  O14  1  0.03356300  0.34629800  0.58236400  1
  O  O15  1  0.71935400  0.73174300  0.25586700  1
  O  O16  1  0.03692800  0.35216300  0.92676800  1
  O  O17  1  0.31273500  0.96643700  0.58236400  1
  O  O18  1  0.31273500  0.34629800  0.08236400  1
  O  O19  1  0.03692800  0.68476500  0.42676800  1
  O  O20  1  0.64783700  0.68476500  0.92676800  1
  O  O21  1  0.65370200  0.96643700  0.08236400  1
  O  O22  1  0.71935400  0.98761100  0.75586700  1
  O  O23  1  0.26825700  0.28064600  0.75586700  1
  O  O24  1  0.26825700  0.98761100  0.25586700  1
  O  O25  1  0.03356300  0.68726500  0.08236400  1
  O  O26  1  0.01238900  0.28064600  0.25586700  1
  O  O27  1  0.31523500  0.96307200  0.92676800  1
