# generated using pymatgen
data_CaCu2(MoO4)2
_symmetry_space_group_name_H-M   'P 1'
_cell_length_a   9.00875600
_cell_length_b   6.75879800
_cell_length_c   13.19799755
_cell_angle_alpha   88.83812428
_cell_angle_beta   90.00000000
_cell_angle_gamma   90.00000000
_symmetry_Int_Tables_number   1
_chemical_formula_structural   CaCu2(MoO4)2
_chemical_formula_sum   'Ca4 Cu8 Mo8 O32'
_cell_volume   803.43922935
_cell_formula_units_Z   4
loop_
 _symmetry_equiv_pos_site_id
 _symmetry_equiv_pos_as_xyz
  1  'x, y, z'
loop_
 _atom_site_type_symbol
 _atom_site_label
 _atom_site_symmetry_multiplicity
 _atom_site_fract_x
 _atom_site_fract_y
 _atom_site_fract_z
 _atom_site_occupancy
  Ca  Ca0  1  0.16510200  0.12313100  0.04648100  1
  Ca  Ca1  1  0.83489800  0.87686900  0.95351900  1
  Ca  Ca2  1  0.66510200  0.87686900  0.45351900  1
  Ca  Ca3  1  0.33489800  0.12313100  0.54648100  1
  Cu  Cu4  1  0.18753100  0.76694700  0.85744500  1
  Cu  Cu5  1  0.04978400  0.38880200  0.62347600  1
  Cu  Cu6  1  0.95021600  0.61119800  0.37652400  1
  Cu  Cu7  1  0.81246900  0.23305300  0.14255500  1
  Cu  Cu8  1  0.31246900  0.76694700  0.35744500  1
  Cu  Cu9  1  0.45021600  0.38880200  0.12347600  1
  Cu  Cu10  1  0.68753100  0.23305300  0.64255500  1
  Cu  Cu11  1  0.54978400  0.61119800  0.87652400  1
  Mo  Mo12  1  0.45822900  0.09448700  0.84474300  1
  Mo  Mo13  1  0.04177100  0.09448700  0.34474300  1
  Mo  Mo14  1  0.07868000  0.60590400  0.13721600  1
  Mo  Mo15  1  0.95822900  0.90551300  0.65525700  1
  Mo  Mo16  1  0.92132000  0.39409600  0.86278400  1
  Mo  Mo17  1  0.57868000  0.39409600  0.36278400  1
  Mo  Mo18  1  0.42132000  0.60590400  0.63721600  1
  Mo  Mo19  1  0.54177100  0.90551300  0.15525700  1
  O  O20  1  0.22774100  0.02207000  0.38894900  1
  O  O21  1  0.00163000  0.66956100  0.60371300  1
  O  O22  1  0.56823600  0.18928100  0.45528400  1
  O  O23  1  0.06823600  0.81071900  0.04471600  1
  O  O24  1  0.27225900  0.02207000  0.88894900  1
  O  O25  1  0.77225900  0.97793000  0.61105100  1
  O  O26  1  0.09317100  0.09091000  0.61038600  1
  O  O27  1  0.90167500  0.48725700  0.13311400  1
  O  O28  1  0.59832500  0.48725700  0.63311400  1
  O  O29  1  0.88349900  0.31230300  0.73557400  1
  O  O30  1  0.38349900  0.68769700  0.76442600  1
  O  O31  1  0.09832500  0.51274300  0.86688600  1
  O  O32  1  0.90682900  0.90909000  0.38961400  1
  O  O33  1  0.53274200  0.87721400  0.29102400  1
  O  O34  1  0.27823600  0.43471800  0.59974100  1
  O  O35  1  0.22176400  0.43471800  0.09974100  1
  O  O36  1  0.03274200  0.12278600  0.20897600  1
  O  O37  1  0.40167500  0.51274300  0.36688600  1
  O  O38  1  0.46725800  0.12278600  0.70897600  1
  O  O39  1  0.43176400  0.81071900  0.54471600  1
  O  O40  1  0.49837000  0.66956100  0.10371300  1
  O  O41  1  0.11650100  0.68769700  0.26442600  1
  O  O42  1  0.72774100  0.97793000  0.11105100  1
  O  O43  1  0.40682900  0.09091000  0.11038600  1
  O  O44  1  0.93176400  0.18928100  0.95528400  1
  O  O45  1  0.77823600  0.56528200  0.90025900  1
  O  O46  1  0.99837000  0.33043900  0.39628700  1
  O  O47  1  0.50163000  0.33043900  0.89628700  1
  O  O48  1  0.59317100  0.90909000  0.88961400  1
  O  O49  1  0.72176400  0.56528200  0.40025900  1
  O  O50  1  0.61650100  0.31230300  0.23557400  1
  O  O51  1  0.96725800  0.87721400  0.79102400  1
