# generated using pymatgen
data_ZnMo3P3O13
_symmetry_space_group_name_H-M   'P 1'
_cell_length_a   6.66190600
_cell_length_b   7.74445300
_cell_length_c   10.80212925
_cell_angle_alpha   80.53914099
_cell_angle_beta   90.00000000
_cell_angle_gamma   90.00000000
_symmetry_Int_Tables_number   1
_chemical_formula_structural   ZnMo3P3O13
_chemical_formula_sum   'Zn2 Mo6 P6 O26'
_cell_volume   549.73179337
_cell_formula_units_Z   2
loop_
 _symmetry_equiv_pos_site_id
 _symmetry_equiv_pos_as_xyz
  1  'x, y, z'
loop_
 _atom_site_type_symbol
 _atom_site_label
 _atom_site_symmetry_multiplicity
 _atom_site_fract_x
 _atom_site_fract_y
 _atom_site_fract_z
 _atom_site_occupancy
  Zn  Zn0  1  0.75000000  0.41259200  0.14946300  1
  Zn  Zn1  1  0.25000000  0.58740800  0.85053700  1
  Mo  Mo2  1  0.25000000  0.64170400  0.20935000  1
  Mo  Mo3  1  0.75000000  0.35829600  0.79065000  1
  Mo  Mo4  1  0.25000000  0.23051300  0.44203700  1
  Mo  Mo5  1  0.50000000  0.00000000  0.00000000  1
  Mo  Mo6  1  0.75000000  0.76948700  0.55796300  1
  Mo  Mo7  1  0.00000000  0.00000000  0.00000000  1
  P  P8  1  0.25000000  0.78221200  0.49635800  1
  P  P9  1  0.75000000  0.21778800  0.50364200  1
  P  P10  1  0.25000000  0.26526900  0.76671500  1
  P  P11  1  0.75000000  0.73473100  0.23328500  1
  P  P12  1  0.75000000  0.68306800  0.88680700  1
  P  P13  1  0.25000000  0.31693200  0.11319300  1
  O  O14  1  0.75000000  0.64541200  0.74966700  1
  O  O15  1  0.56510300  0.25317600  0.41630200  1
  O  O16  1  0.25000000  0.20493100  0.64145200  1
  O  O17  1  0.55026300  0.77426400  0.90886800  1
  O  O18  1  0.75000000  0.35072800  0.59807400  1
  O  O19  1  0.75000000  0.11466500  0.89889000  1
  O  O20  1  0.25000000  0.64927200  0.40192600  1
  O  O21  1  0.05026300  0.22573600  0.09113200  1
  O  O22  1  0.25000000  0.96943900  0.41885800  1
  O  O23  1  0.75000000  0.03056100  0.58114200  1
  O  O24  1  0.07181000  0.38789300  0.79063100  1
  O  O25  1  0.25000000  0.88533500  0.10111000  1
  O  O26  1  0.57181000  0.61210700  0.20936900  1
  O  O27  1  0.75000000  0.49094300  0.96435800  1
  O  O28  1  0.75000000  0.79506900  0.35854800  1
  O  O29  1  0.44973700  0.22573600  0.09113200  1
  O  O30  1  0.93489700  0.25317600  0.41630200  1
  O  O31  1  0.43489700  0.74682400  0.58369800  1
  O  O32  1  0.42819000  0.38789300  0.79063100  1
  O  O33  1  0.25000000  0.35458800  0.25033300  1
  O  O34  1  0.75000000  0.89960500  0.12623300  1
  O  O35  1  0.25000000  0.10039500  0.87376700  1
  O  O36  1  0.92819000  0.61210700  0.20936900  1
  O  O37  1  0.94973700  0.77426400  0.90886800  1
  O  O38  1  0.06510300  0.74682400  0.58369800  1
  O  O39  1  0.25000000  0.50905700  0.03564200  1
