# generated using pymatgen
data_CaCo3P3O13
_symmetry_space_group_name_H-M   'P 1'
_cell_length_a   6.36167300
_cell_length_b   7.52329400
_cell_length_c   10.22107236
_cell_angle_alpha   79.94076565
_cell_angle_beta   90.00000000
_cell_angle_gamma   90.00000000
_symmetry_Int_Tables_number   1
_chemical_formula_structural   CaCo3P3O13
_chemical_formula_sum   'Ca2 Co6 P6 O26'
_cell_volume   481.66810506
_cell_formula_units_Z   2
loop_
 _symmetry_equiv_pos_site_id
 _symmetry_equiv_pos_as_xyz
  1  'x, y, z'
loop_
 _atom_site_type_symbol
 _atom_site_label
 _atom_site_symmetry_multiplicity
 _atom_site_fract_x
 _atom_site_fract_y
 _atom_site_fract_z
 _atom_site_occupancy
  Ca  Ca0  1  0.75000000  0.33797400  0.19531300  1
  Ca  Ca1  1  0.25000000  0.66202600  0.80468700  1
  Co  Co2  1  0.25000000  0.65108300  0.19829900  1
  Co  Co3  1  0.75000000  0.34891700  0.80170100  1
  Co  Co4  1  0.25000000  0.20935800  0.43863700  1
  Co  Co5  1  0.50000000  0.00000000  0.00000000  1
  Co  Co6  1  0.75000000  0.79064200  0.56136300  1
  Co  Co7  1  0.00000000  0.00000000  0.00000000  1
  P  P8  1  0.25000000  0.78424000  0.48550300  1
  P  P9  1  0.75000000  0.21576000  0.51449700  1
  P  P10  1  0.25000000  0.25931800  0.76370400  1
  P  P11  1  0.75000000  0.74068200  0.23629600  1
  P  P12  1  0.75000000  0.68583600  0.88533400  1
  P  P13  1  0.25000000  0.31416400  0.11466600  1
  O  O14  1  0.75000000  0.64082800  0.74202300  1
  O  O15  1  0.55980400  0.24731400  0.41847800  1
  O  O16  1  0.25000000  0.21320000  0.62364400  1
  O  O17  1  0.54762500  0.79372100  0.90438000  1
  O  O18  1  0.75000000  0.34512600  0.61435400  1
  O  O19  1  0.75000000  0.12326000  0.91125600  1
  O  O20  1  0.25000000  0.65487400  0.38564600  1
  O  O21  1  0.04762500  0.20627900  0.09562000  1
  O  O22  1  0.25000000  0.98050000  0.40376300  1
  O  O23  1  0.75000000  0.01950000  0.59623700  1
  O  O24  1  0.06070100  0.37782100  0.79033400  1
  O  O25  1  0.25000000  0.87674000  0.08874400  1
  O  O26  1  0.56070100  0.62217900  0.20966600  1
  O  O27  1  0.75000000  0.49226700  0.96755000  1
  O  O28  1  0.75000000  0.78680000  0.37635600  1
  O  O29  1  0.45237500  0.20627900  0.09562000  1
  O  O30  1  0.94019600  0.24731400  0.41847800  1
  O  O31  1  0.44019600  0.75268600  0.58152200  1
  O  O32  1  0.43929900  0.37782100  0.79033400  1
  O  O33  1  0.25000000  0.35917200  0.25797700  1
  O  O34  1  0.75000000  0.92116700  0.13364200  1
  O  O35  1  0.25000000  0.07883300  0.86635800  1
  O  O36  1  0.93929900  0.62217900  0.20966600  1
  O  O37  1  0.95237500  0.79372100  0.90438000  1
  O  O38  1  0.05980400  0.75268600  0.58152200  1
  O  O39  1  0.25000000  0.50773300  0.03245000  1
