# generated using pymatgen
data_MgMo3P3O13
_symmetry_space_group_name_H-M   'P 1'
_cell_length_a   6.65624500
_cell_length_b   7.82198200
_cell_length_c   10.55234566
_cell_angle_alpha   80.30162042
_cell_angle_beta   90.00000000
_cell_angle_gamma   90.00000000
_symmetry_Int_Tables_number   1
_chemical_formula_structural   MgMo3P3O13
_chemical_formula_sum   'Mg2 Mo6 P6 O26'
_cell_volume   541.55616496
_cell_formula_units_Z   2
loop_
 _symmetry_equiv_pos_site_id
 _symmetry_equiv_pos_as_xyz
  1  'x, y, z'
loop_
 _atom_site_type_symbol
 _atom_site_label
 _atom_site_symmetry_multiplicity
 _atom_site_fract_x
 _atom_site_fract_y
 _atom_site_fract_z
 _atom_site_occupancy
  Mg  Mg0  1  0.75000000  0.39405100  0.17458000  1
  Mg  Mg1  1  0.25000000  0.60594900  0.82542000  1
  Mo  Mo2  1  0.25000000  0.64002300  0.20595000  1
  Mo  Mo3  1  0.75000000  0.35997700  0.79405000  1
  Mo  Mo4  1  0.25000000  0.23080200  0.43789400  1
  Mo  Mo5  1  0.50000000  0.00000000  0.00000000  1
  Mo  Mo6  1  0.75000000  0.76919800  0.56210600  1
  Mo  Mo7  1  0.00000000  0.00000000  0.00000000  1
  P  P8  1  0.25000000  0.78342300  0.50104600  1
  P  P9  1  0.75000000  0.21657700  0.49895400  1
  P  P10  1  0.25000000  0.26946100  0.76618100  1
  P  P11  1  0.75000000  0.73053900  0.23381900  1
  P  P12  1  0.75000000  0.67933000  0.89383400  1
  P  P13  1  0.25000000  0.32067000  0.10616600  1
  O  O14  1  0.75000000  0.64061900  0.75304600  1
  O  O15  1  0.56773300  0.25382300  0.40565300  1
  O  O16  1  0.25000000  0.20506500  0.63947100  1
  O  O17  1  0.54966800  0.77442900  0.90844200  1
  O  O18  1  0.75000000  0.34607200  0.59560400  1
  O  O19  1  0.75000000  0.11422800  0.89690000  1
  O  O20  1  0.25000000  0.65392800  0.40439600  1
  O  O21  1  0.04966800  0.22557100  0.09155800  1
  O  O22  1  0.25000000  0.96931600  0.42318200  1
  O  O23  1  0.75000000  0.03068400  0.57681800  1
  O  O24  1  0.07227300  0.39113400  0.78769200  1
  O  O25  1  0.25000000  0.88577200  0.10310000  1
  O  O26  1  0.57227300  0.60886600  0.21230800  1
  O  O27  1  0.75000000  0.49252100  0.97537400  1
  O  O28  1  0.75000000  0.79493500  0.36052900  1
  O  O29  1  0.45033200  0.22557100  0.09155800  1
  O  O30  1  0.93226700  0.25382300  0.40565300  1
  O  O31  1  0.43226700  0.74617700  0.59434700  1
  O  O32  1  0.42772700  0.39113400  0.78769200  1
  O  O33  1  0.25000000  0.35938100  0.24695400  1
  O  O34  1  0.75000000  0.89529000  0.12538100  1
  O  O35  1  0.25000000  0.10471000  0.87461900  1
  O  O36  1  0.92772700  0.60886600  0.21230800  1
  O  O37  1  0.95033200  0.77442900  0.90844200  1
  O  O38  1  0.06773300  0.74617700  0.59434700  1
  O  O39  1  0.25000000  0.50747900  0.02462600  1
