# generated using pymatgen
data_MgTi2Be3(SiO4)3
_symmetry_space_group_name_H-M   'P 1'
_cell_length_a   7.52412400
_cell_length_b   8.20600300
_cell_length_c   16.38507733
_cell_angle_alpha   59.94494832
_cell_angle_beta   90.00000000
_cell_angle_gamma   90.00000000
_symmetry_Int_Tables_number   1
_chemical_formula_structural   MgTi2Be3(SiO4)3
_chemical_formula_sum   'Mg4 Ti8 Be12 Si12 O48'
_cell_volume   875.63992688
_cell_formula_units_Z   4
loop_
 _symmetry_equiv_pos_site_id
 _symmetry_equiv_pos_as_xyz
  1  'x, y, z'
loop_
 _atom_site_type_symbol
 _atom_site_label
 _atom_site_symmetry_multiplicity
 _atom_site_fract_x
 _atom_site_fract_y
 _atom_site_fract_z
 _atom_site_occupancy
  Mg  Mg0  1  0.07682400  0.50000000  0.75115100  1
  Mg  Mg1  1  0.57682400  0.50000000  0.74884900  1
  Mg  Mg2  1  0.92317600  0.50000000  0.24884900  1
  Mg  Mg3  1  0.42317600  0.50000000  0.25115100  1
  Ti  Ti4  1  0.06013600  0.15990400  0.58864400  1
  Ti  Ti5  1  0.43986400  0.15990400  0.08864400  1
  Ti  Ti6  1  0.93986400  0.84009600  0.41135600  1
  Ti  Ti7  1  0.56013600  0.84009600  0.91135600  1
  Ti  Ti8  1  0.93013900  0.82772500  0.92217600  1
  Ti  Ti9  1  0.43013900  0.17227500  0.57782400  1
  Ti  Ti10  1  0.06986100  0.17227500  0.07782400  1
  Ti  Ti11  1  0.56986100  0.82772500  0.42217600  1
  Be  Be12  1  0.65473900  0.16263700  0.26221000  1
  Be  Be13  1  0.84115100  0.52326100  0.90633400  1
  Be  Be14  1  0.34115100  0.47673900  0.59366600  1
  Be  Be15  1  0.15884900  0.47673900  0.09366600  1
  Be  Be16  1  0.65884900  0.52326100  0.40633400  1
  Be  Be17  1  0.34365200  0.18787400  0.91869200  1
  Be  Be18  1  0.84365200  0.81212600  0.58130800  1
  Be  Be19  1  0.65634800  0.81212600  0.08130800  1
  Be  Be20  1  0.15634800  0.18787400  0.41869200  1
  Be  Be21  1  0.84526100  0.16263700  0.76221000  1
  Be  Be22  1  0.34526100  0.83736300  0.73779000  1
  Be  Be23  1  0.15473900  0.83736300  0.23779000  1
  Si  Si24  1  0.26884900  0.15055000  0.26997500  1
  Si  Si25  1  0.76884900  0.84945000  0.23002500  1
  Si  Si26  1  0.73115100  0.84945000  0.73002500  1
  Si  Si27  1  0.23115100  0.15055000  0.76997500  1
  Si  Si28  1  0.76933200  0.18864200  0.42522900  1
  Si  Si29  1  0.26933200  0.81135800  0.07477100  1
  Si  Si30  1  0.23066800  0.81135800  0.57477100  1
  Si  Si31  1  0.73066800  0.18864200  0.92522900  1
  Si  Si32  1  0.26667700  0.53857500  0.40679600  1
  Si  Si33  1  0.76667700  0.46142500  0.09320400  1
  Si  Si34  1  0.73332300  0.46142500  0.59320400  1
  Si  Si35  1  0.23332300  0.53857500  0.90679600  1
  O  O36  1  0.37586500  0.70387000  0.54373000  1
  O  O37  1  0.46570800  0.10371400  0.31950100  1
  O  O38  1  0.96570800  0.89628600  0.18049900  1
  O  O39  1  0.53429200  0.89628600  0.68049900  1
  O  O40  1  0.03429200  0.10371400  0.81950100  1
  O  O41  1  0.96684100  0.23871700  0.44865700  1
  O  O42  1  0.46684100  0.76128300  0.05134300  1
  O  O43  1  0.03315900  0.76128300  0.55134300  1
  O  O44  1  0.53315900  0.23871700  0.94865700  1
  O  O45  1  0.46674400  0.63230900  0.38313800  1
  O  O46  1  0.96674400  0.36769100  0.11686200  1
  O  O47  1  0.53325600  0.36769100  0.61686200  1
  O  O48  1  0.37591600  0.71201800  0.85150200  1
  O  O49  1  0.87591600  0.28798200  0.64849800  1
  O  O50  1  0.62408400  0.28798200  0.14849800  1
  O  O51  1  0.12408400  0.71201800  0.35150200  1
  O  O52  1  0.87586500  0.29613000  0.95627000  1
  O  O53  1  0.03325600  0.63230900  0.88313800  1
  O  O54  1  0.12413500  0.70387000  0.04373000  1
  O  O55  1  0.62413500  0.29613000  0.45627000  1
  O  O56  1  0.73823100  0.58459000  0.97802300  1
  O  O57  1  0.87739900  0.91197200  0.64550700  1
  O  O58  1  0.62260100  0.91197200  0.14550700  1
  O  O59  1  0.12260100  0.08802800  0.35449300  1
  O  O60  1  0.76197600  0.61854400  0.30408300  1
  O  O61  1  0.26197600  0.38145600  0.19591700  1
  O  O62  1  0.23802400  0.38145600  0.69591700  1
  O  O63  1  0.73802400  0.61854400  0.80408300  1
  O  O64  1  0.76309400  0.27031700  0.30976100  1
  O  O65  1  0.26309400  0.72968300  0.19023900  1
  O  O66  1  0.23690600  0.72968300  0.69023900  1
  O  O67  1  0.73690600  0.27031700  0.80976100  1
  O  O68  1  0.26144900  0.39172100  0.36480300  1
  O  O69  1  0.76144900  0.60827900  0.13519700  1
  O  O70  1  0.73855100  0.60827900  0.63519700  1
  O  O71  1  0.23855100  0.39172100  0.86480300  1
  O  O72  1  0.74316500  0.95367500  0.29334500  1
  O  O73  1  0.24316500  0.04632500  0.20665500  1
  O  O74  1  0.25683500  0.04632500  0.70665500  1
  O  O75  1  0.75683500  0.95367500  0.79334500  1
  O  O76  1  0.74499700  0.95766000  0.47929200  1
  O  O77  1  0.24499700  0.04234000  0.02070800  1
  O  O78  1  0.25500300  0.04234000  0.52070800  1
  O  O79  1  0.75500300  0.95766000  0.97929200  1
  O  O80  1  0.76176900  0.58459000  0.47802300  1
  O  O81  1  0.26176900  0.41541000  0.02197700  1
  O  O82  1  0.23823100  0.41541000  0.52197700  1
  O  O83  1  0.37739900  0.08802800  0.85449300  1
