# generated using pymatgen
data_CuWO4
_symmetry_space_group_name_H-M   'P 1'
_cell_length_a   9.03414100
_cell_length_b   6.81977600
_cell_length_c   12.12812872
_cell_angle_alpha   89.50658364
_cell_angle_beta   90.00000000
_cell_angle_gamma   90.00000000
_symmetry_Int_Tables_number   1
_chemical_formula_structural   CuWO4
_chemical_formula_sum   'Cu8 W8 O32'
_cell_volume   747.19622330
_cell_formula_units_Z   8
loop_
 _symmetry_equiv_pos_site_id
 _symmetry_equiv_pos_as_xyz
  1  'x, y, z'
loop_
 _atom_site_type_symbol
 _atom_site_label
 _atom_site_symmetry_multiplicity
 _atom_site_fract_x
 _atom_site_fract_y
 _atom_site_fract_z
 _atom_site_occupancy
  Cu  Cu0  1  0.11411400  0.82068100  0.89194800  1
  Cu  Cu1  1  0.04080600  0.37398300  0.60941600  1
  Cu  Cu2  1  0.95919400  0.62601700  0.39058400  1
  Cu  Cu3  1  0.88588600  0.17931900  0.10805200  1
  Cu  Cu4  1  0.38588600  0.82068100  0.39194800  1
  Cu  Cu5  1  0.45919400  0.37398300  0.10941600  1
  Cu  Cu6  1  0.61411400  0.17931900  0.60805200  1
  Cu  Cu7  1  0.54080600  0.62601700  0.89058400  1
  W  W8  1  0.44170400  0.10476700  0.87749100  1
  W  W9  1  0.05829600  0.10476700  0.37749100  1
  W  W10  1  0.10156600  0.59196400  0.13839300  1
  W  W11  1  0.94170400  0.89523300  0.62250900  1
  W  W12  1  0.89843400  0.40803600  0.86160700  1
  W  W13  1  0.60156600  0.40803600  0.36160700  1
  W  W14  1  0.39843400  0.59196400  0.63839300  1
  W  W15  1  0.55829600  0.89523300  0.12250900  1
  O  O16  1  0.25409300  0.04959100  0.37624500  1
  O  O17  1  0.98957800  0.64259800  0.58210700  1
  O  O18  1  0.63391100  0.19599700  0.45142300  1
  O  O19  1  0.13391100  0.80400300  0.04857700  1
  O  O20  1  0.24590700  0.04959100  0.87624500  1
  O  O21  1  0.74590700  0.95040900  0.62375500  1
  O  O22  1  0.06613500  0.09875900  0.57022600  1
  O  O23  1  0.92685200  0.46354800  0.11309100  1
  O  O24  1  0.57314800  0.46354800  0.61309100  1
  O  O25  1  0.88961500  0.31768900  0.71992700  1
  O  O26  1  0.38961500  0.68231100  0.78007300  1
  O  O27  1  0.07314800  0.53645200  0.88690900  1
  O  O28  1  0.93386500  0.90124100  0.42977400  1
  O  O29  1  0.50551500  0.88244000  0.26593200  1
  O  O30  1  0.25379200  0.41632500  0.61951700  1
  O  O31  1  0.24620800  0.41632500  0.11951700  1
  O  O32  1  0.00551500  0.11756000  0.23406800  1
  O  O33  1  0.42685200  0.53645200  0.38690900  1
  O  O34  1  0.49448500  0.11756000  0.73406800  1
  O  O35  1  0.36608900  0.80400300  0.54857700  1
  O  O36  1  0.51042200  0.64259800  0.08210700  1
  O  O37  1  0.11038500  0.68231100  0.28007300  1
  O  O38  1  0.75409300  0.95040900  0.12375500  1
  O  O39  1  0.43386500  0.09875900  0.07022600  1
  O  O40  1  0.86608900  0.19599700  0.95142300  1
  O  O41  1  0.75379200  0.58367500  0.88048300  1
  O  O42  1  0.01042200  0.35740200  0.41789300  1
  O  O43  1  0.48957800  0.35740200  0.91789300  1
  O  O44  1  0.56613500  0.90124100  0.92977400  1
  O  O45  1  0.74620800  0.58367500  0.38048300  1
  O  O46  1  0.61038500  0.31768900  0.21992700  1
  O  O47  1  0.99448500  0.88244000  0.76593200  1
