# generated using pymatgen
data_Sr2YTi2O7
_symmetry_space_group_name_H-M   'P 1'
_cell_length_a   13.36254025
_cell_length_b   13.36254025
_cell_length_c   13.36254025
_cell_angle_alpha   157.23087292
_cell_angle_beta   156.22749811
_cell_angle_gamma   33.15175734
_symmetry_Int_Tables_number   1
_chemical_formula_structural   Sr2YTi2O7
_chemical_formula_sum   'Sr4 Y2 Ti4 O14'
_cell_volume   371.90168909
_cell_formula_units_Z   2
loop_
 _symmetry_equiv_pos_site_id
 _symmetry_equiv_pos_as_xyz
  1  'x, y, z'
loop_
 _atom_site_type_symbol
 _atom_site_label
 _atom_site_symmetry_multiplicity
 _atom_site_fract_x
 _atom_site_fract_y
 _atom_site_fract_z
 _atom_site_occupancy
  Sr  Sr0  1  0.82122600  0.74729300  0.93670900  1
  Sr  Sr1  1  0.18941600  0.25270700  0.07393300  1
  Sr  Sr2  1  0.68941600  0.61548300  0.93670900  1
  Sr  Sr3  1  0.32122600  0.38451700  0.07393300  1
  Y  Y4  1  0.51627400  0.50000000  0.01627400  1
  Y  Y5  1  0.01627400  0.00000000  0.01627400  1
  Ti  Ti6  1  0.43859800  0.92794600  0.52257500  1
  Ti  Ti7  1  0.59462900  0.07205400  0.51065300  1
  Ti  Ti8  1  0.09462900  0.58397600  0.52257500  1
  Ti  Ti9  1  0.93859800  0.41602400  0.51065300  1
  O  O10  1  0.00981500  0.51533800  0.02515400  1
  O  O11  1  0.50981500  0.48466200  0.49447700  1
  O  O12  1  0.21199800  0.19528400  0.51599600  1
  O  O13  1  0.32071200  0.80471600  0.01671400  1
  O  O14  1  0.82071200  0.80399900  0.51599600  1
  O  O15  1  0.71199800  0.19600100  0.01671400  1
  O  O16  1  0.70725400  0.69056100  0.51723300  1
  O  O17  1  0.82667200  0.30943900  0.01669300  1
  O  O18  1  0.32667200  0.30997900  0.51723300  1
  O  O19  1  0.20725400  0.69002100  0.01669300  1
  O  O20  1  0.87137400  0.33313800  0.49993600  1
  O  O21  1  0.16679800  0.66686200  0.53823600  1
  O  O22  1  0.66679800  0.12856200  0.49993600  1
  O  O23  1  0.37137400  0.87143800  0.53823600  1
