# generated using pymatgen
data_BaCaMnF7
_symmetry_space_group_name_H-M   'P 1'
_cell_length_a   10.53821600
_cell_length_b   5.89036600
_cell_length_c   9.89806735
_cell_angle_alpha   87.22183905
_cell_angle_beta   90.00000000
_cell_angle_gamma   90.00000000
_symmetry_Int_Tables_number   1
_chemical_formula_structural   BaCaMnF7
_chemical_formula_sum   'Ba4 Ca4 Mn4 F28'
_cell_volume   613.69000215
_cell_formula_units_Z   4
loop_
 _symmetry_equiv_pos_site_id
 _symmetry_equiv_pos_as_xyz
  1  'x, y, z'
loop_
 _atom_site_type_symbol
 _atom_site_label
 _atom_site_symmetry_multiplicity
 _atom_site_fract_x
 _atom_site_fract_y
 _atom_site_fract_z
 _atom_site_occupancy
  Ba  Ba0  1  0.32662600  0.72059400  0.50694500  1
  Ba  Ba1  1  0.82662600  0.27940600  0.99305500  1
  Ba  Ba2  1  0.67337400  0.27940600  0.49305500  1
  Ba  Ba3  1  0.17337400  0.72059400  0.00694500  1
  Ca  Ca4  1  0.41364400  0.29415100  0.82392000  1
  Ca  Ca5  1  0.91364400  0.70584900  0.67608000  1
  Ca  Ca6  1  0.08635600  0.29415100  0.32392000  1
  Ca  Ca7  1  0.58635600  0.70584900  0.17608000  1
  Mn  Mn8  1  0.62123300  0.80884100  0.80356900  1
  Mn  Mn9  1  0.37876700  0.19115900  0.19643100  1
  Mn  Mn10  1  0.87876700  0.80884100  0.30356900  1
  Mn  Mn11  1  0.12123300  0.19115900  0.69643100  1
  F  F12  1  0.41165600  0.88200900  0.10293100  1
  F  F13  1  0.03005000  0.66013200  0.36338500  1
  F  F14  1  0.71914000  0.51910800  0.72864800  1
  F  F15  1  0.28086000  0.48089200  0.27135200  1
  F  F16  1  0.46173600  0.08865300  0.35560700  1
  F  F17  1  0.80233300  0.71313400  0.47179700  1
  F  F18  1  0.77092200  0.97513700  0.74008800  1
  F  F19  1  0.96173600  0.91134700  0.14439300  1
  F  F20  1  0.46995000  0.66013200  0.86338500  1
  F  F21  1  0.21914000  0.48089200  0.77135200  1
  F  F22  1  0.08834400  0.88200900  0.60293100  1
  F  F23  1  0.58834400  0.11799100  0.89706900  1
  F  F24  1  0.27092200  0.02486300  0.75991200  1
  F  F25  1  0.96079300  0.61280100  0.88436900  1
  F  F26  1  0.53826400  0.91134700  0.64439300  1
  F  F27  1  0.03826400  0.08865300  0.85560700  1
  F  F28  1  0.22907800  0.02486300  0.25991200  1
  F  F29  1  0.91165600  0.11799100  0.39706900  1
  F  F30  1  0.46079300  0.38719900  0.61563100  1
  F  F31  1  0.96995000  0.33986800  0.63661500  1
  F  F32  1  0.03920700  0.38719900  0.11563100  1
  F  F33  1  0.72907800  0.97513700  0.24008800  1
  F  F34  1  0.53920700  0.61280100  0.38436900  1
  F  F35  1  0.30233300  0.28686600  0.02820300  1
  F  F36  1  0.19766700  0.28686600  0.52820300  1
  F  F37  1  0.69766700  0.71313400  0.97179700  1
  F  F38  1  0.53005000  0.33986800  0.13661500  1
  F  F39  1  0.78086000  0.51910800  0.22864800  1
