# generated using pymatgen
data_ZnFe3P3O13
_symmetry_space_group_name_H-M   'P 1'
_cell_length_a   6.35440800
_cell_length_b   7.67329100
_cell_length_c   10.09070952
_cell_angle_alpha   79.43508908
_cell_angle_beta   90.00000000
_cell_angle_gamma   90.00000000
_symmetry_Int_Tables_number   1
_chemical_formula_structural   ZnFe3P3O13
_chemical_formula_sum   'Zn2 Fe6 P6 O26'
_cell_volume   483.67441370
_cell_formula_units_Z   2
loop_
 _symmetry_equiv_pos_site_id
 _symmetry_equiv_pos_as_xyz
  1  'x, y, z'
loop_
 _atom_site_type_symbol
 _atom_site_label
 _atom_site_symmetry_multiplicity
 _atom_site_fract_x
 _atom_site_fract_y
 _atom_site_fract_z
 _atom_site_occupancy
  Zn  Zn0  1  0.75000000  0.37482300  0.17884200  1
  Zn  Zn1  1  0.25000000  0.62517700  0.82115800  1
  Fe  Fe2  1  0.25000000  0.64558100  0.20605600  1
  Fe  Fe3  1  0.75000000  0.35441900  0.79394400  1
  Fe  Fe4  1  0.25000000  0.21499300  0.43286700  1
  Fe  Fe5  1  0.50000000  0.00000000  0.00000000  1
  Fe  Fe6  1  0.75000000  0.78500700  0.56713300  1
  Fe  Fe7  1  0.00000000  0.00000000  0.00000000  1
  P  P8  1  0.25000000  0.78151000  0.49878700  1
  P  P9  1  0.75000000  0.21849000  0.50121300  1
  P  P10  1  0.25000000  0.27177500  0.76055300  1
  P  P11  1  0.75000000  0.72822500  0.23944700  1
  P  P12  1  0.75000000  0.67906700  0.88969100  1
  P  P13  1  0.25000000  0.32093300  0.11030900  1
  O  O14  1  0.75000000  0.62911500  0.74715500  1
  O  O15  1  0.56003300  0.25392500  0.40263600  1
  O  O16  1  0.25000000  0.22184400  0.62219000  1
  O  O17  1  0.54395000  0.78405500  0.90267400  1
  O  O18  1  0.75000000  0.34623400  0.60181500  1
  O  O19  1  0.75000000  0.12080200  0.90271000  1
  O  O20  1  0.25000000  0.65376600  0.39818500  1
  O  O21  1  0.04395000  0.21594500  0.09732600  1
  O  O22  1  0.25000000  0.97303900  0.41730400  1
  O  O23  1  0.75000000  0.02696100  0.58269600  1
  O  O24  1  0.06281900  0.39001300  0.78745900  1
  O  O25  1  0.25000000  0.87919800  0.09729000  1
  O  O26  1  0.56281900  0.60998700  0.21254100  1
  O  O27  1  0.75000000  0.48928300  0.97697400  1
  O  O28  1  0.75000000  0.77815600  0.37781000  1
  O  O29  1  0.45605000  0.21594500  0.09732600  1
  O  O30  1  0.93996700  0.25392500  0.40263600  1
  O  O31  1  0.43996700  0.74607500  0.59736400  1
  O  O32  1  0.43718100  0.39001300  0.78745900  1
  O  O33  1  0.25000000  0.37088500  0.25284500  1
  O  O34  1  0.75000000  0.90401900  0.13074400  1
  O  O35  1  0.25000000  0.09598100  0.86925600  1
  O  O36  1  0.93718100  0.60998700  0.21254100  1
  O  O37  1  0.95605000  0.78405500  0.90267400  1
  O  O38  1  0.06003300  0.74607500  0.59736400  1
  O  O39  1  0.25000000  0.51071700  0.02302600  1
