# generated using pymatgen
data_ZnSnP2O7
_symmetry_space_group_name_H-M   'P 1'
_cell_length_a   9.28987100
_cell_length_b   7.23991500
_cell_length_c   9.33969385
_cell_angle_alpha   69.86251411
_cell_angle_beta   90.00000000
_cell_angle_gamma   90.00000000
_symmetry_Int_Tables_number   1
_chemical_formula_structural   ZnSnP2O7
_chemical_formula_sum   'Zn4 Sn4 P8 O28'
_cell_volume   589.76757095
_cell_formula_units_Z   4
loop_
 _symmetry_equiv_pos_site_id
 _symmetry_equiv_pos_as_xyz
  1  'x, y, z'
loop_
 _atom_site_type_symbol
 _atom_site_label
 _atom_site_symmetry_multiplicity
 _atom_site_fract_x
 _atom_site_fract_y
 _atom_site_fract_z
 _atom_site_occupancy
  Zn  Zn0  1  0.94485400  0.30176700  0.80364600  1
  Zn  Zn1  1  0.44485400  0.69823300  0.69635400  1
  Zn  Zn2  1  0.55514600  0.30176700  0.30364600  1
  Zn  Zn3  1  0.05514600  0.69823300  0.19635400  1
  Sn  Sn4  1  0.08697300  0.76983100  0.58192400  1
  Sn  Sn5  1  0.91302700  0.23016900  0.41807600  1
  Sn  Sn6  1  0.58697300  0.23016900  0.91807600  1
  Sn  Sn7  1  0.41302700  0.76983100  0.08192400  1
  P  P8  1  0.75235100  0.90753100  0.26968800  1
  P  P9  1  0.21082900  0.48451700  0.96130900  1
  P  P10  1  0.74764900  0.90753100  0.76968800  1
  P  P11  1  0.28917100  0.48451700  0.46130900  1
  P  P12  1  0.25235100  0.09246900  0.23031200  1
  P  P13  1  0.71082900  0.51548300  0.53869100  1
  P  P14  1  0.78917100  0.51548300  0.03869100  1
  P  P15  1  0.24764900  0.09246900  0.73031200  1
  O  O16  1  0.19083000  0.26721200  0.08099300  1
  O  O17  1  0.59005900  0.86418700  0.74712200  1
  O  O18  1  0.90994100  0.86418700  0.24712200  1
  O  O19  1  0.36483600  0.51262500  0.89779100  1
  O  O20  1  0.80917000  0.73278800  0.91900700  1
  O  O21  1  0.15053500  0.07956600  0.36009300  1
  O  O22  1  0.63516400  0.48737500  0.10220900  1
  O  O23  1  0.09545700  0.50160900  0.83955600  1
  O  O24  1  0.31121400  0.63232100  0.54685500  1
  O  O25  1  0.84946500  0.92043400  0.63990700  1
  O  O26  1  0.34946500  0.07956600  0.86009300  1
  O  O27  1  0.76084700  0.09480800  0.81457000  1
  O  O28  1  0.26084700  0.90519200  0.68543000  1
  O  O29  1  0.30917000  0.26721200  0.58099300  1
  O  O30  1  0.65053500  0.92043400  0.13990700  1
  O  O31  1  0.09005900  0.13581300  0.75287800  1
  O  O32  1  0.23915300  0.90519200  0.18543000  1
  O  O33  1  0.90454300  0.49839100  0.16044400  1
  O  O34  1  0.18878600  0.63232100  0.04685500  1
  O  O35  1  0.81121400  0.36767900  0.95314500  1
  O  O36  1  0.86483600  0.48737500  0.60220900  1
  O  O37  1  0.40454300  0.50160900  0.33955600  1
  O  O38  1  0.59545700  0.49839100  0.66044400  1
  O  O39  1  0.40994100  0.13581300  0.25287800  1
  O  O40  1  0.73915300  0.09480800  0.31457000  1
  O  O41  1  0.13516400  0.51262500  0.39779100  1
  O  O42  1  0.68878600  0.36767900  0.45314500  1
  O  O43  1  0.69083000  0.73278800  0.41900700  1
