# generated using pymatgen
data_Ca(VS2)4
_symmetry_space_group_name_H-M   'P 1'
_cell_length_a   7.08584470
_cell_length_b   7.08584470
_cell_length_c   7.08584484
_cell_angle_alpha   60.35230107
_cell_angle_beta   60.35230107
_cell_angle_gamma   60.35230591
_symmetry_Int_Tables_number   1
_chemical_formula_structural   Ca(VS2)4
_chemical_formula_sum   'Ca1 V4 S8'
_cell_volume   253.57553717
_cell_formula_units_Z   1
loop_
 _symmetry_equiv_pos_site_id
 _symmetry_equiv_pos_as_xyz
  1  'x, y, z'
loop_
 _atom_site_type_symbol
 _atom_site_label
 _atom_site_symmetry_multiplicity
 _atom_site_fract_x
 _atom_site_fract_y
 _atom_site_fract_z
 _atom_site_occupancy
  Ca  Ca0  1  0.00000000  0.00000000  0.00000000  1
  V  V1  1  0.50000000  0.50000000  0.50000000  1
  V  V2  1  0.50000000  0.50000000  0.00000000  1
  V  V3  1  0.50000000  0.00000000  0.50000000  1
  V  V4  1  0.00000000  0.50000000  0.50000000  1
  S  S5  1  0.73601200  0.27679300  0.73601200  1
  S  S6  1  0.73601200  0.73601200  0.27679300  1
  S  S7  1  0.27679300  0.73601200  0.73601200  1
  S  S8  1  0.74129200  0.74129200  0.74129200  1
  S  S9  1  0.25870800  0.25870800  0.25870800  1
  S  S10  1  0.26398800  0.26398800  0.72320700  1
  S  S11  1  0.72320700  0.26398800  0.26398800  1
  S  S12  1  0.26398800  0.72320700  0.26398800  1
