# generated using pymatgen
data_Ba2Sb3O7
_symmetry_space_group_name_H-M   'P 1'
_cell_length_a   4.15561600
_cell_length_b   4.16767600
_cell_length_c   11.71227800
_cell_angle_alpha   90.00000000
_cell_angle_beta   90.00000000
_cell_angle_gamma   90.00000000
_symmetry_Int_Tables_number   1
_chemical_formula_structural   Ba2Sb3O7
_chemical_formula_sum   'Ba2 Sb3 O7'
_cell_volume   202.84800039
_cell_formula_units_Z   1
loop_
 _symmetry_equiv_pos_site_id
 _symmetry_equiv_pos_as_xyz
  1  'x, y, z'
loop_
 _atom_site_type_symbol
 _atom_site_label
 _atom_site_symmetry_multiplicity
 _atom_site_fract_x
 _atom_site_fract_y
 _atom_site_fract_z
 _atom_site_occupancy
  Ba  Ba0  1  0.50999000  0.50000000  0.30356100  1
  Ba  Ba1  1  0.50999000  0.50000000  0.69643900  1
  Sb  Sb2  1  0.99972400  0.00000000  0.12955400  1
  Sb  Sb3  1  0.99972400  0.00000000  0.87044600  1
  Sb  Sb4  1  0.06219100  0.00000000  0.50000000  1
  O  O5  1  0.92230100  0.50000000  0.50000000  1
  O  O6  1  0.49789600  0.00000000  0.15304200  1
  O  O7  1  0.49789600  0.00000000  0.84695800  1
  O  O8  1  0.99985400  0.50000000  0.15159700  1
  O  O9  1  0.99985400  0.50000000  0.84840300  1
  O  O10  1  0.99137400  0.00000000  0.31645600  1
  O  O11  1  0.99137400  0.00000000  0.68354400  1
