# generated using pymatgen
data_MgV2O4
_symmetry_space_group_name_H-M   'P 1'
_cell_length_a   5.17611500
_cell_length_b   5.92979200
_cell_length_c   10.31467000
_cell_angle_alpha   90.00000000
_cell_angle_beta   90.00000000
_cell_angle_gamma   90.00000000
_symmetry_Int_Tables_number   1
_chemical_formula_structural   MgV2O4
_chemical_formula_sum   'Mg4 V8 O16'
_cell_volume   316.59110927
_cell_formula_units_Z   4
loop_
 _symmetry_equiv_pos_site_id
 _symmetry_equiv_pos_as_xyz
  1  'x, y, z'
loop_
 _atom_site_type_symbol
 _atom_site_label
 _atom_site_symmetry_multiplicity
 _atom_site_fract_x
 _atom_site_fract_y
 _atom_site_fract_z
 _atom_site_occupancy
  Mg  Mg0  1  0.83942800  0.00000000  0.50000000  1
  Mg  Mg1  1  0.16057200  0.50000000  0.00000000  1
  Mg  Mg2  1  0.50931300  0.00000000  0.00000000  1
  Mg  Mg3  1  0.49068700  0.50000000  0.50000000  1
  V  V4  1  0.51235400  0.50000000  0.23553600  1
  V  V5  1  0.51235400  0.50000000  0.76446400  1
  V  V6  1  0.48764600  0.00000000  0.26446400  1
  V  V7  1  0.48764600  0.00000000  0.73553600  1
  V  V8  1  0.00000000  0.25000000  0.25000000  1
  V  V9  1  0.00000000  0.75000000  0.75000000  1
  V  V10  1  0.00000000  0.75000000  0.25000000  1
  V  V11  1  0.00000000  0.25000000  0.75000000  1
  O  O12  1  0.85580600  0.50000000  0.14015500  1
  O  O13  1  0.85580600  0.50000000  0.85984500  1
  O  O14  1  0.14419400  0.00000000  0.35984500  1
  O  O15  1  0.14419400  0.00000000  0.64015500  1
  O  O16  1  0.19201800  0.50000000  0.34604100  1
  O  O17  1  0.19201800  0.50000000  0.65395900  1
  O  O18  1  0.80798200  0.00000000  0.15395900  1
  O  O19  1  0.80798200  0.00000000  0.84604100  1
  O  O20  1  0.65871000  0.25401300  0.36485600  1
  O  O21  1  0.65871000  0.74598700  0.63514400  1
  O  O22  1  0.34129000  0.75401300  0.13514400  1
  O  O23  1  0.34129000  0.24598700  0.86485600  1
  O  O24  1  0.34129000  0.24598700  0.13514400  1
  O  O25  1  0.34129000  0.75401300  0.86485600  1
  O  O26  1  0.65871000  0.74598700  0.36485600  1
  O  O27  1  0.65871000  0.25401300  0.63514400  1
