# generated using pymatgen
data_Co(SiO3)2
_symmetry_space_group_name_H-M   'P 1'
_cell_length_a   6.25942339
_cell_length_b   6.25942339
_cell_length_c   5.28560592
_cell_angle_alpha   75.67493386
_cell_angle_beta   75.67493386
_cell_angle_gamma   83.69794983
_symmetry_Int_Tables_number   1
_chemical_formula_structural   Co(SiO3)2
_chemical_formula_sum   'Co2 Si4 O12'
_cell_volume   194.15409506
_cell_formula_units_Z   2
loop_
 _symmetry_equiv_pos_site_id
 _symmetry_equiv_pos_as_xyz
  1  'x, y, z'
loop_
 _atom_site_type_symbol
 _atom_site_label
 _atom_site_symmetry_multiplicity
 _atom_site_fract_x
 _atom_site_fract_y
 _atom_site_fract_z
 _atom_site_occupancy
  Co  Co0  1  0.91138000  0.08862000  0.75000000  1
  Co  Co1  1  0.08862000  0.91138000  0.25000000  1
  Si  Si2  1  0.39071900  0.20833500  0.76259100  1
  Si  Si3  1  0.79166500  0.60928100  0.73740900  1
  Si  Si4  1  0.20833500  0.39071900  0.26259100  1
  Si  Si5  1  0.60928100  0.79166500  0.23740900  1
  O  O6  1  0.36983900  0.34687400  0.98813400  1
  O  O7  1  0.65312600  0.63016100  0.51186600  1
  O  O8  1  0.63016100  0.65312600  0.01186600  1
  O  O9  1  0.34687400  0.36983900  0.48813400  1
  O  O10  1  0.63581100  0.08885800  0.69354700  1
  O  O11  1  0.91114200  0.36418900  0.80645300  1
  O  O12  1  0.36418900  0.91114200  0.30645300  1
  O  O13  1  0.08885800  0.63581100  0.19354700  1
  O  O14  1  0.02338800  0.19415700  0.36677300  1
  O  O15  1  0.80584300  0.97661200  0.13322700  1
  O  O16  1  0.19415700  0.02338800  0.86677300  1
  O  O17  1  0.97661200  0.80584300  0.63322700  1
