# generated using pymatgen
data_Ba2Cr3O8
_symmetry_space_group_name_H-M   'P 1'
_cell_length_a   3.86816500
_cell_length_b   3.86816500
_cell_length_c   12.14680200
_cell_angle_alpha   90.00000000
_cell_angle_beta   90.00000000
_cell_angle_gamma   90.00000000
_symmetry_Int_Tables_number   1
_chemical_formula_structural   Ba2Cr3O8
_chemical_formula_sum   'Ba2 Cr3 O8'
_cell_volume   181.74895996
_cell_formula_units_Z   1
loop_
 _symmetry_equiv_pos_site_id
 _symmetry_equiv_pos_as_xyz
  1  'x, y, z'
loop_
 _atom_site_type_symbol
 _atom_site_label
 _atom_site_symmetry_multiplicity
 _atom_site_fract_x
 _atom_site_fract_y
 _atom_site_fract_z
 _atom_site_occupancy
  Ba  Ba0  1  0.50000000  0.50000000  0.17212400  1
  Ba  Ba1  1  0.50000000  0.50000000  0.82787600  1
  Cr  Cr2  1  0.00000000  0.00000000  0.33200000  1
  Cr  Cr3  1  0.00000000  0.00000000  0.00000000  1
  Cr  Cr4  1  0.00000000  0.00000000  0.66800000  1
  O  O5  1  0.00000000  0.50000000  0.34767100  1
  O  O6  1  0.50000000  0.00000000  0.34767100  1
  O  O7  1  0.50000000  0.00000000  0.00000000  1
  O  O8  1  0.00000000  0.00000000  0.17373200  1
  O  O9  1  0.00000000  0.50000000  0.65232900  1
  O  O10  1  0.50000000  0.00000000  0.65232900  1
  O  O11  1  0.00000000  0.00000000  0.82626800  1
  O  O12  1  0.00000000  0.50000000  0.00000000  1
