# generated using pymatgen
data_Fe2O3
_symmetry_space_group_name_H-M   'P 1'
_cell_length_a   5.17954950
_cell_length_b   5.17954950
_cell_length_c   15.91706500
_cell_angle_alpha   90.00000000
_cell_angle_beta   90.00000000
_cell_angle_gamma   146.10755453
_symmetry_Int_Tables_number   1
_chemical_formula_structural   Fe2O3
_chemical_formula_sum   'Fe8 O12'
_cell_volume   238.12089666
_cell_formula_units_Z   4
loop_
 _symmetry_equiv_pos_site_id
 _symmetry_equiv_pos_as_xyz
  1  'x, y, z'
loop_
 _atom_site_type_symbol
 _atom_site_label
 _atom_site_symmetry_multiplicity
 _atom_site_fract_x
 _atom_site_fract_y
 _atom_site_fract_z
 _atom_site_occupancy
  Fe  Fe0  1  0.63469700  0.36530300  0.04739400  1
  Fe  Fe1  1  0.36530300  0.63469700  0.95260600  1
  Fe  Fe2  1  0.63469700  0.36530300  0.45260600  1
  Fe  Fe3  1  0.36530300  0.63469700  0.54739400  1
  Fe  Fe4  1  0.09620700  0.90379300  0.64729900  1
  Fe  Fe5  1  0.90379300  0.09620700  0.35270100  1
  Fe  Fe6  1  0.90379300  0.09620700  0.14729900  1
  Fe  Fe7  1  0.09620700  0.90379300  0.85270100  1
  O  O8  1  0.00000000  0.00000000  0.50000000  1
  O  O9  1  0.00000000  0.00000000  0.00000000  1
  O  O10  1  0.47129400  0.52870600  0.85251900  1
  O  O11  1  0.52870600  0.47129400  0.14748100  1
  O  O12  1  0.52870600  0.47129400  0.35251900  1
  O  O13  1  0.47129400  0.52870600  0.64748100  1
  O  O14  1  0.72811300  0.27188700  0.92749400  1
  O  O15  1  0.27188700  0.72811300  0.07250600  1
  O  O16  1  0.27188700  0.72811300  0.42749400  1
  O  O17  1  0.72811300  0.27188700  0.57250600  1
  O  O18  1  0.17944300  0.82055700  0.75000000  1
  O  O19  1  0.82055700  0.17944300  0.25000000  1
