# generated using pymatgen
data_Ba2YW3O8
_symmetry_space_group_name_H-M   'P 1'
_cell_length_a   4.11977400
_cell_length_b   4.11977400
_cell_length_c   11.99809100
_cell_angle_alpha   90.00000000
_cell_angle_beta   90.00000000
_cell_angle_gamma   90.00000000
_symmetry_Int_Tables_number   1
_chemical_formula_structural   Ba2YW3O8
_chemical_formula_sum   'Ba2 Y1 W3 O8'
_cell_volume   203.63805316
_cell_formula_units_Z   1
loop_
 _symmetry_equiv_pos_site_id
 _symmetry_equiv_pos_as_xyz
  1  'x, y, z'
loop_
 _atom_site_type_symbol
 _atom_site_label
 _atom_site_symmetry_multiplicity
 _atom_site_fract_x
 _atom_site_fract_y
 _atom_site_fract_z
 _atom_site_occupancy
  Ba  Ba0  1  0.50000000  0.50000000  0.18439000  1
  Ba  Ba1  1  0.50000000  0.50000000  0.81561000  1
  Y  Y2  1  0.50000000  0.50000000  0.50000000  1
  W  W3  1  0.00000000  0.00000000  0.39674800  1
  W  W4  1  0.00000000  0.00000000  0.00000000  1
  W  W5  1  0.00000000  0.00000000  0.60325200  1
  O  O6  1  0.00000000  0.50000000  0.36087600  1
  O  O7  1  0.50000000  0.00000000  0.36087600  1
  O  O8  1  0.50000000  0.00000000  0.00000000  1
  O  O9  1  0.00000000  0.00000000  0.16114000  1
  O  O10  1  0.00000000  0.50000000  0.63912400  1
  O  O11  1  0.50000000  0.00000000  0.63912400  1
  O  O12  1  0.00000000  0.00000000  0.83886000  1
  O  O13  1  0.00000000  0.50000000  0.00000000  1
