# generated using pymatgen
data_Mn4ZnO8
_symmetry_space_group_name_H-M   'P 1'
_cell_length_a   6.07330506
_cell_length_b   6.07330506
_cell_length_c   6.07330529
_cell_angle_alpha   59.18445981
_cell_angle_beta   59.18445981
_cell_angle_gamma   59.18444951
_symmetry_Int_Tables_number   1
_chemical_formula_structural   Mn4ZnO8
_chemical_formula_sum   'Mn4 Zn1 O8'
_cell_volume   155.45832609
_cell_formula_units_Z   1
loop_
 _symmetry_equiv_pos_site_id
 _symmetry_equiv_pos_as_xyz
  1  'x, y, z'
loop_
 _atom_site_type_symbol
 _atom_site_label
 _atom_site_symmetry_multiplicity
 _atom_site_fract_x
 _atom_site_fract_y
 _atom_site_fract_z
 _atom_site_occupancy
  Mn  Mn0  1  0.00000000  0.50000000  0.50000000  1
  Mn  Mn1  1  0.50000000  0.00000000  0.50000000  1
  Mn  Mn2  1  0.50000000  0.50000000  0.00000000  1
  Mn  Mn3  1  0.00000000  0.00000000  0.00000000  1
  Zn  Zn4  1  0.50000000  0.50000000  0.50000000  1
  O  O5  1  0.29582400  0.74931000  0.74931000  1
  O  O6  1  0.25069000  0.25069000  0.70417600  1
  O  O7  1  0.70417600  0.25069000  0.25069000  1
  O  O8  1  0.25069000  0.70417600  0.25069000  1
  O  O9  1  0.26887600  0.26887600  0.26887600  1
  O  O10  1  0.73112400  0.73112400  0.73112400  1
  O  O11  1  0.74931000  0.29582400  0.74931000  1
  O  O12  1  0.74931000  0.74931000  0.29582400  1
