# generated using pymatgen
data_Zn(NiS2)4
_symmetry_space_group_name_H-M   'P 1'
_cell_length_a   6.80396767
_cell_length_b   6.80396767
_cell_length_c   6.80396797
_cell_angle_alpha   60.03417237
_cell_angle_beta   60.03417237
_cell_angle_gamma   60.03417509
_symmetry_Int_Tables_number   1
_chemical_formula_structural   Zn(NiS2)4
_chemical_formula_sum   'Zn1 Ni4 S8'
_cell_volume   222.89895438
_cell_formula_units_Z   1
loop_
 _symmetry_equiv_pos_site_id
 _symmetry_equiv_pos_as_xyz
  1  'x, y, z'
loop_
 _atom_site_type_symbol
 _atom_site_label
 _atom_site_symmetry_multiplicity
 _atom_site_fract_x
 _atom_site_fract_y
 _atom_site_fract_z
 _atom_site_occupancy
  Zn  Zn0  1  0.00000000  0.00000000  0.00000000  1
  Ni  Ni1  1  0.50000000  0.50000000  0.50000000  1
  Ni  Ni2  1  0.50000000  0.50000000  0.00000000  1
  Ni  Ni3  1  0.50000000  0.00000000  0.50000000  1
  Ni  Ni4  1  0.00000000  0.50000000  0.50000000  1
  S  S5  1  0.74200800  0.28784100  0.74200800  1
  S  S6  1  0.74200800  0.74200800  0.28784100  1
  S  S7  1  0.28784100  0.74200800  0.74200800  1
  S  S8  1  0.73736400  0.73736400  0.73736400  1
  S  S9  1  0.26263600  0.26263600  0.26263600  1
  S  S10  1  0.25799200  0.25799200  0.71215900  1
  S  S11  1  0.71215900  0.25799200  0.25799200  1
  S  S12  1  0.25799200  0.71215900  0.25799200  1
