# generated using pymatgen
data_BaSb4O7
_symmetry_space_group_name_H-M   'P 1'
_cell_length_a   7.54250394
_cell_length_b   7.54250394
_cell_length_c   13.47080000
_cell_angle_alpha   90.00000000
_cell_angle_beta   90.00000000
_cell_angle_gamma   119.99999945
_symmetry_Int_Tables_number   1
_chemical_formula_structural   BaSb4O7
_chemical_formula_sum   'Ba2 Sb8 O14'
_cell_volume   663.67447275
_cell_formula_units_Z   2
loop_
 _symmetry_equiv_pos_site_id
 _symmetry_equiv_pos_as_xyz
  1  'x, y, z'
loop_
 _atom_site_type_symbol
 _atom_site_label
 _atom_site_symmetry_multiplicity
 _atom_site_fract_x
 _atom_site_fract_y
 _atom_site_fract_z
 _atom_site_occupancy
  Ba  Ba0  1  0.66666700  0.33333300  0.40322500  1
  Ba  Ba1  1  0.33333300  0.66666700  0.90322500  1
  Sb  Sb2  1  0.83355900  0.16644100  0.19235100  1
  Sb  Sb3  1  0.66711800  0.83355900  0.69235100  1
  Sb  Sb4  1  0.16644100  0.33288200  0.69235100  1
  Sb  Sb5  1  0.83355900  0.66711800  0.19235100  1
  Sb  Sb6  1  0.33288200  0.16644100  0.19235100  1
  Sb  Sb7  1  0.16644100  0.83355900  0.69235100  1
  Sb  Sb8  1  0.00000000  0.00000000  0.47022300  1
  Sb  Sb9  1  0.00000000  0.00000000  0.97022300  1
  O  O10  1  0.86155300  0.13844700  0.03670000  1
  O  O11  1  0.72310600  0.86155300  0.53670000  1
  O  O12  1  0.13844700  0.27689400  0.53670000  1
  O  O13  1  0.86155300  0.72310600  0.03670000  1
  O  O14  1  0.27689400  0.13844700  0.03670000  1
  O  O15  1  0.13844700  0.86155300  0.53670000  1
  O  O16  1  0.00000000  0.00000000  0.73690300  1
  O  O17  1  0.00000000  0.00000000  0.23690300  1
  O  O18  1  0.53371500  0.46628500  0.25218300  1
  O  O19  1  0.06743000  0.53371500  0.75218300  1
  O  O20  1  0.46628500  0.93257000  0.75218300  1
  O  O21  1  0.53371500  0.06743000  0.25218300  1
  O  O22  1  0.46628500  0.53371500  0.75218300  1
  O  O23  1  0.93257000  0.46628500  0.25218300  1
