# generated using pymatgen
data_Ba2AlCr3O8
_symmetry_space_group_name_H-M   'P 1'
_cell_length_a   3.89707300
_cell_length_b   3.89707300
_cell_length_c   11.64664000
_cell_angle_alpha   90.00000000
_cell_angle_beta   90.00000000
_cell_angle_gamma   90.00000000
_symmetry_Int_Tables_number   1
_chemical_formula_structural   Ba2AlCr3O8
_chemical_formula_sum   'Ba2 Al1 Cr3 O8'
_cell_volume   176.87959440
_cell_formula_units_Z   1
loop_
 _symmetry_equiv_pos_site_id
 _symmetry_equiv_pos_as_xyz
  1  'x, y, z'
loop_
 _atom_site_type_symbol
 _atom_site_label
 _atom_site_symmetry_multiplicity
 _atom_site_fract_x
 _atom_site_fract_y
 _atom_site_fract_z
 _atom_site_occupancy
  Ba  Ba0  1  0.50000000  0.50000000  0.16673400  1
  Ba  Ba1  1  0.50000000  0.50000000  0.83326600  1
  Al  Al2  1  0.50000000  0.50000000  0.50000000  1
  Cr  Cr3  1  0.00000000  0.00000000  0.35285800  1
  Cr  Cr4  1  0.00000000  0.00000000  0.00000000  1
  Cr  Cr5  1  0.00000000  0.00000000  0.64714200  1
  O  O6  1  0.00000000  0.50000000  0.39230700  1
  O  O7  1  0.50000000  0.00000000  0.39230700  1
  O  O8  1  0.50000000  0.00000000  0.00000000  1
  O  O9  1  0.00000000  0.00000000  0.18850600  1
  O  O10  1  0.00000000  0.50000000  0.60769300  1
  O  O11  1  0.50000000  0.00000000  0.60769300  1
  O  O12  1  0.00000000  0.00000000  0.81149400  1
  O  O13  1  0.00000000  0.50000000  0.00000000  1
