# generated using pymatgen
data_Mn2ZnO4
_symmetry_space_group_name_H-M   'P 1'
_cell_length_a   6.12293800
_cell_length_b   5.17293300
_cell_length_c   10.36088846
_cell_angle_alpha   88.63260377
_cell_angle_beta   90.00000000
_cell_angle_gamma   90.00000000
_symmetry_Int_Tables_number   1
_chemical_formula_structural   Mn2ZnO4
_chemical_formula_sum   'Mn8 Zn4 O16'
_cell_volume   328.07264681
_cell_formula_units_Z   4
loop_
 _symmetry_equiv_pos_site_id
 _symmetry_equiv_pos_as_xyz
  1  'x, y, z'
loop_
 _atom_site_type_symbol
 _atom_site_label
 _atom_site_symmetry_multiplicity
 _atom_site_fract_x
 _atom_site_fract_y
 _atom_site_fract_z
 _atom_site_occupancy
  Mn  Mn0  1  0.75288200  0.50569100  0.98014200  1
  Mn  Mn1  1  0.74714500  0.50688000  0.51467500  1
  Mn  Mn2  1  0.25288200  0.49430900  0.01985800  1
  Mn  Mn3  1  0.24714500  0.49312000  0.48532500  1
  Mn  Mn4  1  0.49657800  0.00357700  0.01124600  1
  Mn  Mn5  1  0.00260200  0.00367700  0.48746300  1
  Mn  Mn6  1  0.99657800  0.99642300  0.98875400  1
  Mn  Mn7  1  0.50260200  0.99632300  0.51253700  1
  Zn  Zn8  1  0.25543100  0.86849700  0.25296600  1
  Zn  Zn9  1  0.75543100  0.13150300  0.74703400  1
  Zn  Zn10  1  0.24880700  0.50637700  0.75385300  1
  Zn  Zn11  1  0.74880700  0.49362300  0.24614700  1
  O  O12  1  0.73471300  0.86061700  0.90150200  1
  O  O13  1  0.76603000  0.85361100  0.59685100  1
  O  O14  1  0.23471300  0.13938300  0.09849800  1
  O  O15  1  0.26603000  0.14638900  0.40314900  1
  O  O16  1  0.75599900  0.22793800  0.10148400  1
  O  O17  1  0.74341900  0.23586800  0.39428900  1
  O  O18  1  0.25599900  0.77206200  0.89851600  1
  O  O19  1  0.24341900  0.76413200  0.60571100  1
  O  O20  1  0.48958100  0.70603800  0.13564900  1
  O  O21  1  0.01326700  0.71244100  0.36617700  1
  O  O22  1  0.98958100  0.29396200  0.86435100  1
  O  O23  1  0.51326700  0.28755900  0.63382300  1
  O  O24  1  0.48730200  0.33727400  0.90901600  1
  O  O25  1  0.00560000  0.32803600  0.59041000  1
  O  O26  1  0.98730200  0.66272600  0.09098400  1
  O  O27  1  0.50560000  0.67196400  0.40959000  1
