# generated using pymatgen
data_CaTi2Fe2(PO4)6
_symmetry_space_group_name_H-M   'P 1'
_cell_length_a   8.83943627
_cell_length_b   8.83943627
_cell_length_c   8.83943593
_cell_angle_alpha   58.76724122
_cell_angle_beta   58.76724122
_cell_angle_gamma   58.76724509
_symmetry_Int_Tables_number   1
_chemical_formula_structural   CaTi2Fe2(PO4)6
_chemical_formula_sum   'Ca1 Ti2 Fe2 P6 O24'
_cell_volume   474.62925610
_cell_formula_units_Z   1
loop_
 _symmetry_equiv_pos_site_id
 _symmetry_equiv_pos_as_xyz
  1  'x, y, z'
loop_
 _atom_site_type_symbol
 _atom_site_label
 _atom_site_symmetry_multiplicity
 _atom_site_fract_x
 _atom_site_fract_y
 _atom_site_fract_z
 _atom_site_occupancy
  Ca  Ca0  1  0.00111900  0.00111900  0.00111900  1
  Ti  Ti1  1  0.85156600  0.85156600  0.85156600  1
  Ti  Ti2  1  0.36260200  0.36260200  0.36260200  1
  Fe  Fe3  1  0.64198200  0.64198200  0.64198200  1
  Fe  Fe4  1  0.14757900  0.14757900  0.14757900  1
  P  P5  1  0.25043500  0.96429600  0.53878600  1
  P  P6  1  0.96429600  0.53878600  0.25043500  1
  P  P7  1  0.53878600  0.25043500  0.96429600  1
  P  P8  1  0.45880700  0.75232400  0.03374000  1
  P  P9  1  0.03374000  0.45880700  0.75232400  1
  P  P10  1  0.75232400  0.03374000  0.45880700  1
  O  O11  1  0.71693600  0.86822800  0.48722300  1
  O  O12  1  0.48722300  0.71693600  0.86822800  1
  O  O13  1  0.07995200  0.94051600  0.72734200  1
  O  O14  1  0.86822800  0.48722300  0.71693600  1
  O  O15  1  0.21048700  0.99231500  0.37534900  1
  O  O16  1  0.41844100  0.78065200  0.56099200  1
  O  O17  1  0.94051600  0.72734200  0.07995200  1
  O  O18  1  0.78065200  0.56099200  0.41844100  1
  O  O19  1  0.62691800  0.79668500  0.99660400  1
  O  O20  1  0.56099200  0.41844100  0.78065200  1
  O  O21  1  0.27388200  0.92040300  0.06135400  1
  O  O22  1  0.99660400  0.62691800  0.79668500  1
  O  O23  1  0.99231500  0.37534900  0.21048700  1
  O  O24  1  0.72734200  0.07995200  0.94051600  1
  O  O25  1  0.44265300  0.57825500  0.21468100  1
  O  O26  1  0.37534900  0.21048700  0.99231500  1
  O  O27  1  0.21468100  0.44265300  0.57825500  1
  O  O28  1  0.06135400  0.27388200  0.92040300  1
  O  O29  1  0.57825500  0.21468100  0.44265300  1
  O  O30  1  0.79668500  0.99660400  0.62691800  1
  O  O31  1  0.13342600  0.50257000  0.28915700  1
  O  O32  1  0.92040300  0.06135400  0.27388200  1
  O  O33  1  0.50257000  0.28915700  0.13342600  1
  O  O34  1  0.28915700  0.13342600  0.50257000  1
