# generated using pymatgen
data_CaV2O4
_symmetry_space_group_name_H-M   'P 1'
_cell_length_a   5.24470569
_cell_length_b   6.04632736
_cell_length_c   11.18374173
_cell_angle_alpha   90.54287190
_cell_angle_beta   90.13433939
_cell_angle_gamma   90.75898734
_symmetry_Int_Tables_number   1
_chemical_formula_structural   CaV2O4
_chemical_formula_sum   'Ca4 V8 O16'
_cell_volume   354.60183928
_cell_formula_units_Z   4
loop_
 _symmetry_equiv_pos_site_id
 _symmetry_equiv_pos_as_xyz
  1  'x, y, z'
loop_
 _atom_site_type_symbol
 _atom_site_label
 _atom_site_symmetry_multiplicity
 _atom_site_fract_x
 _atom_site_fract_y
 _atom_site_fract_z
 _atom_site_occupancy
  Ca  Ca0  1  0.84611900  0.25298500  0.74968000  1
  Ca  Ca1  1  0.15190900  0.75076200  0.24992100  1
  Ca  Ca2  1  0.53119600  0.25238700  0.25061400  1
  Ca  Ca3  1  0.46934800  0.74222100  0.75033000  1
  V  V4  1  0.50374200  0.74952700  0.48921300  1
  V  V5  1  0.51103900  0.74764100  0.01081200  1
  V  V6  1  0.48682300  0.24921200  0.51133800  1
  V  V7  1  0.49458600  0.25087400  0.98978300  1
  V  V8  1  0.99546700  0.49921200  0.49937400  1
  V  V9  1  0.00676300  0.00304600  0.00031800  1
  V  V10  1  0.99539500  0.99859900  0.50052300  1
  V  V11  1  0.00624100  0.50044600  0.99890600  1
  O  O12  1  0.83905100  0.74422600  0.40099900  1
  O  O13  1  0.84952300  0.74987500  0.09733200  1
  O  O14  1  0.15140500  0.25484500  0.59793200  1
  O  O15  1  0.16095900  0.25130000  0.89954200  1
  O  O16  1  0.17671900  0.75131600  0.58860500  1
  O  O17  1  0.19037300  0.74715400  0.91051200  1
  O  O18  1  0.81484400  0.24535900  0.41166800  1
  O  O19  1  0.81936000  0.25970900  0.08943700  1
  O  O20  1  0.65651300  0.49769000  0.60436100  1
  O  O21  1  0.66964500  0.99746800  0.90062500  1
  O  O22  1  0.33071000  0.00798700  0.39730600  1
  O  O23  1  0.34826600  0.49638700  0.10358900  1
  O  O24  1  0.33582400  0.50076900  0.39517100  1
  O  O25  1  0.32948700  0.00439100  0.10413100  1
  O  O26  1  0.65966300  0.99071400  0.60344500  1
  O  O27  1  0.66902900  0.50389900  0.89453100  1
