# generated using pymatgen
data_Ca(CrS2)2
_symmetry_space_group_name_H-M   'P 1'
_cell_length_a   7.53728721
_cell_length_b   7.53728721
_cell_length_c   7.53728721
_cell_angle_alpha   121.71796964
_cell_angle_beta   121.71796964
_cell_angle_gamma   87.04928507
_symmetry_Int_Tables_number   1
_chemical_formula_structural   Ca(CrS2)2
_chemical_formula_sum   'Ca2 Cr4 S8'
_cell_volume   294.49502911
_cell_formula_units_Z   2
loop_
 _symmetry_equiv_pos_site_id
 _symmetry_equiv_pos_as_xyz
  1  'x, y, z'
loop_
 _atom_site_type_symbol
 _atom_site_label
 _atom_site_symmetry_multiplicity
 _atom_site_fract_x
 _atom_site_fract_y
 _atom_site_fract_z
 _atom_site_occupancy
  Ca  Ca0  1  0.50000000  0.50000000  0.00000000  1
  Ca  Ca1  1  0.25000000  0.75000000  0.50000000  1
  Cr  Cr2  1  0.87500000  0.12500000  0.25000000  1
  Cr  Cr3  1  0.37500000  0.12500000  0.25000000  1
  Cr  Cr4  1  0.87500000  0.62500000  0.75000000  1
  Cr  Cr5  1  0.87500000  0.12500000  0.75000000  1
  S  S6  1  0.68260000  0.90109500  0.78150500  1
  S  S7  1  0.09890500  0.88040900  0.78150500  1
  S  S8  1  0.09890500  0.31740000  0.21849500  1
  S  S9  1  0.06740000  0.34890500  0.71849500  1
  S  S10  1  0.63040900  0.34890500  0.28150500  1
  S  S11  1  0.65109500  0.36959100  0.71849500  1
  S  S12  1  0.11959100  0.90109500  0.21849500  1
  S  S13  1  0.65109500  0.93260000  0.28150500  1
