# generated using pymatgen
data_CaFeO2
_symmetry_space_group_name_H-M   'P 1'
_cell_length_a   3.25646300
_cell_length_b   7.91428160
_cell_length_c   8.01997475
_cell_angle_alpha   107.96776478
_cell_angle_beta   90.09861054
_cell_angle_gamma   90.70115997
_symmetry_Int_Tables_number   1
_chemical_formula_structural   CaFeO2
_chemical_formula_sum   'Ca4 Fe4 O8'
_cell_volume   196.59683300
_cell_formula_units_Z   4
loop_
 _symmetry_equiv_pos_site_id
 _symmetry_equiv_pos_as_xyz
  1  'x, y, z'
loop_
 _atom_site_type_symbol
 _atom_site_label
 _atom_site_symmetry_multiplicity
 _atom_site_fract_x
 _atom_site_fract_y
 _atom_site_fract_z
 _atom_site_occupancy
  Ca  Ca0  1  0.74831800  0.20268000  0.56921000  1
  Ca  Ca1  1  0.25168200  0.79732000  0.43079000  1
  Ca  Ca2  1  0.26124000  0.06481100  0.18654500  1
  Ca  Ca3  1  0.73876000  0.93518900  0.81345500  1
  Fe  Fe4  1  0.24254800  0.56642000  0.69498700  1
  Fe  Fe5  1  0.24911800  0.31920000  0.94087300  1
  Fe  Fe6  1  0.75088200  0.68080000  0.05912700  1
  Fe  Fe7  1  0.75745200  0.43358000  0.30501300  1
  O  O8  1  0.30386100  0.55265500  0.17928200  1
  O  O9  1  0.22325500  0.79732500  0.94606100  1
  O  O10  1  0.77674500  0.20267500  0.05393900  1
  O  O11  1  0.69613900  0.44734500  0.82071800  1
  O  O12  1  0.76230400  0.66925200  0.57290900  1
  O  O13  1  0.24272200  0.06553700  0.68795300  1
  O  O14  1  0.23769600  0.33074800  0.42709100  1
  O  O15  1  0.75727800  0.93446300  0.31204700  1
