# generated using pymatgen
data_Mg(CoO2)4
_symmetry_space_group_name_H-M   'P 1'
_cell_length_a   2.85141399
_cell_length_b   6.79286147
_cell_length_c   6.98127302
_cell_angle_alpha   81.35869339
_cell_angle_beta   78.22065900
_cell_angle_gamma   77.89351590
_symmetry_Int_Tables_number   1
_chemical_formula_structural   Mg(CoO2)4
_chemical_formula_sum   'Mg1 Co4 O8'
_cell_volume   128.61252151
_cell_formula_units_Z   1
loop_
 _symmetry_equiv_pos_site_id
 _symmetry_equiv_pos_as_xyz
  1  'x, y, z'
loop_
 _atom_site_type_symbol
 _atom_site_label
 _atom_site_symmetry_multiplicity
 _atom_site_fract_x
 _atom_site_fract_y
 _atom_site_fract_z
 _atom_site_occupancy
  Mg  Mg0  1  0.35222600  0.12233100  0.18490600  1
  Co  Co1  1  0.63906200  0.16943800  0.56427200  1
  Co  Co2  1  0.15282000  0.50639400  0.20025900  1
  Co  Co3  1  0.84410100  0.48892500  0.83498100  1
  Co  Co4  1  0.35880000  0.80159800  0.49266900  1
  O  O5  1  0.86863400  0.66079500  0.61381000  1
  O  O6  1  0.46091800  0.32464200  0.76543400  1
  O  O7  1  0.53972200  0.66467900  0.26824900  1
  O  O8  1  0.14331900  0.30371800  0.42169500  1
  O  O9  1  0.16709500  0.00794800  0.66956300  1
  O  O10  1  0.79325900  0.33389000  0.09149700  1
  O  O11  1  0.83708400  0.97635900  0.36124900  1
  O  O12  1  0.22112400  0.62992000  0.94020700  1
