# generated using pymatgen
data_ZnFeP2O7
_symmetry_space_group_name_H-M   'P 1'
_cell_length_a   8.50491600
_cell_length_b   7.08608300
_cell_length_c   9.20259391
_cell_angle_alpha   67.46772455
_cell_angle_beta   90.00000000
_cell_angle_gamma   90.00000000
_symmetry_Int_Tables_number   1
_chemical_formula_structural   ZnFeP2O7
_chemical_formula_sum   'Zn4 Fe4 P8 O28'
_cell_volume   512.27180327
_cell_formula_units_Z   4
loop_
 _symmetry_equiv_pos_site_id
 _symmetry_equiv_pos_as_xyz
  1  'x, y, z'
loop_
 _atom_site_type_symbol
 _atom_site_label
 _atom_site_symmetry_multiplicity
 _atom_site_fract_x
 _atom_site_fract_y
 _atom_site_fract_z
 _atom_site_occupancy
  Zn  Zn0  1  0.94198600  0.30392300  0.81734000  1
  Zn  Zn1  1  0.44198600  0.69607700  0.68266000  1
  Zn  Zn2  1  0.55801400  0.30392300  0.31734000  1
  Zn  Zn3  1  0.05801400  0.69607700  0.18266000  1
  Fe  Fe4  1  0.06897600  0.76764400  0.60693100  1
  Fe  Fe5  1  0.93102400  0.23235600  0.39306900  1
  Fe  Fe6  1  0.56897600  0.23235600  0.89306900  1
  Fe  Fe7  1  0.43102400  0.76764400  0.10693100  1
  P  P8  1  0.73384000  0.93844500  0.24238400  1
  P  P9  1  0.22556600  0.46627500  0.96957300  1
  P  P10  1  0.76616000  0.93844500  0.74238400  1
  P  P11  1  0.27443400  0.46627500  0.46957300  1
  P  P12  1  0.23384000  0.06155500  0.25761600  1
  P  P13  1  0.72556600  0.53372500  0.53042700  1
  P  P14  1  0.77443400  0.53372500  0.03042700  1
  P  P15  1  0.26616000  0.06155500  0.75761600  1
  O  O16  1  0.17654100  0.25130300  0.10142100  1
  O  O17  1  0.60971500  0.88988600  0.68661700  1
  O  O18  1  0.89028500  0.88988600  0.18661700  1
  O  O19  1  0.38711400  0.44763300  0.89880600  1
  O  O20  1  0.82345900  0.74869700  0.89857900  1
  O  O21  1  0.09989300  0.02877600  0.37757100  1
  O  O22  1  0.61288600  0.55236700  0.10119400  1
  O  O23  1  0.09179200  0.51216100  0.84872400  1
  O  O24  1  0.26662200  0.62312100  0.54823300  1
  O  O25  1  0.90010700  0.97122400  0.62242900  1
  O  O26  1  0.40010700  0.02877600  0.87757100  1
  O  O27  1  0.75954800  0.11863300  0.79726100  1
  O  O28  1  0.25954800  0.88136700  0.70273900  1
  O  O29  1  0.32345900  0.25130300  0.60142100  1
  O  O30  1  0.59989300  0.97122400  0.12242900  1
  O  O31  1  0.10971500  0.11011400  0.81338300  1
  O  O32  1  0.24045200  0.88136700  0.20273900  1
  O  O33  1  0.90820800  0.48783900  0.15127600  1
  O  O34  1  0.23337800  0.62312100  0.04823300  1
  O  O35  1  0.76662200  0.37687900  0.95176700  1
  O  O36  1  0.88711400  0.55236700  0.60119400  1
  O  O37  1  0.40820800  0.51216100  0.34872400  1
  O  O38  1  0.59179200  0.48783900  0.65127600  1
  O  O39  1  0.39028500  0.11011400  0.31338300  1
  O  O40  1  0.74045200  0.11863300  0.29726100  1
  O  O41  1  0.11288600  0.44763300  0.39880600  1
  O  O42  1  0.73337800  0.37687900  0.45176700  1
  O  O43  1  0.67654100  0.74869700  0.39857900  1
