data_image0
_chemical_formula_structural       B2C2Y2
_chemical_formula_sum              "B2 C2 Y2"
_cell_length_a       3.38937
_cell_length_b       3.5176
_cell_length_c       8.61247
_cell_angle_alpha    90
_cell_angle_beta     78.6518
_cell_angle_gamma    90

_space_group_name_H-M_alt    "P 1"
_space_group_IT_number       1

loop_
  _space_group_symop_operation_xyz
  'x, y, z'

loop_
  _atom_site_type_symbol
  _atom_site_label
  _atom_site_symmetry_multiplicity
  _atom_site_fract_x
  _atom_site_fract_y
  _atom_site_fract_z
  _atom_site_occupancy
  B   B1        1.0  0.28000  0.50000  0.44000  1.0000
  B   B2        1.0  0.72000  0.50000  0.56000  1.0000
  C   C1        1.0  0.36800  0.50000  0.26300  1.0000
  C   C2        1.0  0.63200  0.50000  0.73700  1.0000
  Y   Y1        1.0  0.85700  0.00000  0.28600  1.0000
  Y   Y2        1.0  0.14300  0.00000  0.71400  1.0000
