# generated using pymatgen
data_ZnNiO2
_symmetry_space_group_name_H-M   'P 1'
_cell_length_a   3.00458000
_cell_length_b   8.00740015
_cell_length_c   8.02688028
_cell_angle_alpha   99.52145615
_cell_angle_beta   100.52668184
_cell_angle_gamma   100.46119471
_symmetry_Int_Tables_number   1
_chemical_formula_structural   ZnNiO2
_chemical_formula_sum   'Zn4 Ni4 O8'
_cell_volume   182.73043568
_cell_formula_units_Z   4
loop_
 _symmetry_equiv_pos_site_id
 _symmetry_equiv_pos_as_xyz
  1  'x, y, z'
loop_
 _atom_site_type_symbol
 _atom_site_label
 _atom_site_symmetry_multiplicity
 _atom_site_fract_x
 _atom_site_fract_y
 _atom_site_fract_z
 _atom_site_occupancy
  Zn  Zn0  1  0.54143500  0.24316400  0.86653500  1
  Zn  Zn1  1  0.45856500  0.75683600  0.13346500  1
  Zn  Zn2  1  0.15401000  0.10538700  0.20426800  1
  Zn  Zn3  1  0.84599000  0.89461300  0.79573200  1
  Ni  Ni4  1  0.13506800  0.56495200  0.76079000  1
  Ni  Ni5  1  0.33889700  0.18061000  0.52908600  1
  Ni  Ni6  1  0.66110300  0.81939000  0.47091400  1
  Ni  Ni7  1  0.86493200  0.43504800  0.23921000  1
  O  O8  1  0.44254100  0.59265100  0.28989100  1
  O  O9  1  0.19133100  0.76049000  0.63925900  1
  O  O10  1  0.80866900  0.23951000  0.36074100  1
  O  O11  1  0.55745900  0.40734900  0.71010900  1
  O  O12  1  0.86697100  0.74209500  0.95866900  1
  O  O13  1  0.86468400  0.08668500  0.67644600  1
  O  O14  1  0.13302900  0.25790500  0.04133100  1
  O  O15  1  0.13531600  0.91331500  0.32355400  1
