# generated using pymatgen
data_ZnCr2F12
_symmetry_space_group_name_H-M   'P 1'
_cell_length_a   5.38522355
_cell_length_b   10.74729272
_cell_length_c   5.39157949
_cell_angle_alpha   56.85624231
_cell_angle_beta   56.91035973
_cell_angle_gamma   56.92124906
_symmetry_Int_Tables_number   1
_chemical_formula_structural   ZnCr2F12
_chemical_formula_sum   'Zn1 Cr2 F12'
_cell_volume   204.84927032
_cell_formula_units_Z   1
loop_
 _symmetry_equiv_pos_site_id
 _symmetry_equiv_pos_as_xyz
  1  'x, y, z'
loop_
 _atom_site_type_symbol
 _atom_site_label
 _atom_site_symmetry_multiplicity
 _atom_site_fract_x
 _atom_site_fract_y
 _atom_site_fract_z
 _atom_site_occupancy
  Zn  Zn0  1  0.00000000  0.50000000  0.00000000  1
  Cr  Cr1  1  0.50104700  0.23989200  0.51196600  1
  Cr  Cr2  1  0.49895300  0.76010800  0.48803400  1
  F  F3  1  0.16079100  0.19062000  0.72821900  1
  F  F4  1  0.15846500  0.68726500  0.73277300  1
  F  F5  1  0.37229700  0.36675000  0.15936400  1
  F  F6  1  0.37708000  0.86310400  0.16396200  1
  F  F7  1  0.73242000  0.08302300  0.37151300  1
  F  F8  1  0.73238400  0.57903500  0.37447200  1
  F  F9  1  0.26761600  0.42096500  0.62552800  1
  F  F10  1  0.26758000  0.91697700  0.62848700  1
  F  F11  1  0.62292000  0.13689600  0.83603800  1
  F  F12  1  0.62770300  0.63325000  0.84063600  1
  F  F13  1  0.84153500  0.31273500  0.26722700  1
  F  F14  1  0.83920900  0.80938000  0.27178100  1
