# generated using pymatgen
data_Ca2MnWO6
_symmetry_space_group_name_H-M   'P 1'
_cell_length_a   5.62731400
_cell_length_b   5.63497870
_cell_length_c   5.70403964
_cell_angle_alpha   60.62993379
_cell_angle_beta   60.56437263
_cell_angle_gamma   60.04563031
_symmetry_Int_Tables_number   1
_chemical_formula_structural   Ca2MnWO6
_chemical_formula_sum   'Ca2 Mn1 W1 O6'
_cell_volume   129.08458555
_cell_formula_units_Z   1
loop_
 _symmetry_equiv_pos_site_id
 _symmetry_equiv_pos_as_xyz
  1  'x, y, z'
loop_
 _atom_site_type_symbol
 _atom_site_label
 _atom_site_symmetry_multiplicity
 _atom_site_fract_x
 _atom_site_fract_y
 _atom_site_fract_z
 _atom_site_occupancy
  Ca  Ca0  1  0.72482500  0.74408800  0.81106600  1
  Ca  Ca1  1  0.22504500  0.24086100  0.30408400  1
  Mn  Mn2  1  0.49486400  0.51269900  0.50013500  1
  W  W3  1  0.00291100  0.01837800  0.97945200  1
  O  O4  1  0.67492800  0.26148100  0.19973500  1
  O  O5  1  0.33973200  0.81373600  0.71072700  1
  O  O6  1  0.86379700  0.69333300  0.18816800  1
  O  O7  1  0.25037000  0.86970400  0.19958300  1
  O  O8  1  0.79335700  0.16121700  0.71280900  1
  O  O9  1  0.14109300  0.35336900  0.73042200  1
