# generated using pymatgen
data_Ca(NiO2)2
_symmetry_space_group_name_H-M   'P 1'
_cell_length_a   3.02828800
_cell_length_b   8.99111700
_cell_length_c   10.56571500
_cell_angle_alpha   90.00000000
_cell_angle_beta   90.00000000
_cell_angle_gamma   90.00000000
_symmetry_Int_Tables_number   1
_chemical_formula_structural   Ca(NiO2)2
_chemical_formula_sum   'Ca4 Ni8 O16'
_cell_volume   287.68003080
_cell_formula_units_Z   4
loop_
 _symmetry_equiv_pos_site_id
 _symmetry_equiv_pos_as_xyz
  1  'x, y, z'
loop_
 _atom_site_type_symbol
 _atom_site_label
 _atom_site_symmetry_multiplicity
 _atom_site_fract_x
 _atom_site_fract_y
 _atom_site_fract_z
 _atom_site_occupancy
  Ca  Ca0  1  0.25000000  0.24261800  0.33996300  1
  Ca  Ca1  1  0.75000000  0.75738200  0.66003700  1
  Ca  Ca2  1  0.25000000  0.74261800  0.16003700  1
  Ca  Ca3  1  0.75000000  0.25738200  0.83996300  1
  Ni  Ni4  1  0.75000000  0.41641400  0.09997600  1
  Ni  Ni5  1  0.25000000  0.08358600  0.59997600  1
  Ni  Ni6  1  0.75000000  0.91641400  0.40002400  1
  Ni  Ni7  1  0.25000000  0.58358600  0.90002400  1
  Ni  Ni8  1  0.25000000  0.56134600  0.38777200  1
  Ni  Ni9  1  0.75000000  0.43865400  0.61222800  1
  Ni  Ni10  1  0.25000000  0.06134600  0.11222800  1
  Ni  Ni11  1  0.75000000  0.93865400  0.88777200  1
  O  O12  1  0.75000000  0.91879700  0.07491900  1
  O  O13  1  0.25000000  0.08120300  0.92508100  1
  O  O14  1  0.75000000  0.41879700  0.42508100  1
  O  O15  1  0.25000000  0.58120300  0.57491900  1
  O  O16  1  0.75000000  0.02656200  0.71321000  1
  O  O17  1  0.25000000  0.97343800  0.28679000  1
  O  O18  1  0.75000000  0.52656200  0.78679000  1
  O  O19  1  0.25000000  0.47343800  0.21321000  1
  O  O20  1  0.75000000  0.61623100  0.02301700  1
  O  O21  1  0.25000000  0.38376900  0.97698300  1
  O  O22  1  0.75000000  0.11623100  0.47698300  1
  O  O23  1  0.25000000  0.88376900  0.52301700  1
  O  O24  1  0.25000000  0.79323900  0.84006200  1
  O  O25  1  0.75000000  0.20676100  0.15993800  1
  O  O26  1  0.75000000  0.70676100  0.34006200  1
  O  O27  1  0.25000000  0.29323900  0.65993800  1
