# generated using pymatgen
data_CaV4(CuO7)2
_symmetry_space_group_name_H-M   'P 1'
_cell_length_a   8.86949300
_cell_length_b   10.22716300
_cell_length_c   10.64350483
_cell_angle_alpha   88.33720732
_cell_angle_beta   90.00000000
_cell_angle_gamma   90.00000000
_symmetry_Int_Tables_number   1
_chemical_formula_structural   CaV4(CuO7)2
_chemical_formula_sum   'Ca3 V12 Cu6 O42'
_cell_volume   965.06312337
_cell_formula_units_Z   3
loop_
 _symmetry_equiv_pos_site_id
 _symmetry_equiv_pos_as_xyz
  1  'x, y, z'
loop_
 _atom_site_type_symbol
 _atom_site_label
 _atom_site_symmetry_multiplicity
 _atom_site_fract_x
 _atom_site_fract_y
 _atom_site_fract_z
 _atom_site_occupancy
  Ca  Ca0  1  0.06084300  0.00000000  0.50000000  1
  Ca  Ca1  1  0.45172000  0.68373700  0.16759600  1
  Ca  Ca2  1  0.45172000  0.31626300  0.83240400  1
  V  V3  1  0.79852700  0.54147500  0.83890200  1
  V  V4  1  0.24957200  0.63354900  0.83372000  1
  V  V5  1  0.75428800  0.13015500  0.83170200  1
  V  V6  1  0.19664200  0.03896500  0.83795900  1
  V  V7  1  0.70190500  0.21176400  0.53111400  1
  V  V8  1  0.24957200  0.36645100  0.16628000  1
  V  V9  1  0.30085000  0.70634900  0.52991400  1
  V  V10  1  0.75428800  0.86984500  0.16829800  1
  V  V11  1  0.70190500  0.78823600  0.46888600  1
  V  V12  1  0.30085000  0.29365100  0.47008600  1
  V  V13  1  0.19664200  0.96103500  0.16204100  1
  V  V14  1  0.79852700  0.45852500  0.16109800  1
  Cu  Cu15  1  0.06786300  0.65932600  0.19711500  1
  Cu  Cu16  1  0.93283900  0.83909000  0.80257300  1
  Cu  Cu17  1  0.56376200  0.50000000  0.50000000  1
  Cu  Cu18  1  0.06786300  0.34067400  0.80288500  1
  Cu  Cu19  1  0.43587200  0.00000000  0.50000000  1
  Cu  Cu20  1  0.93283900  0.16091000  0.19742700  1
  O  O21  1  0.21585600  0.21159800  0.80692500  1
  O  O22  1  0.22392200  0.53977200  0.17487800  1
  O  O23  1  0.14942300  0.00000000  0.00000000  1
  O  O24  1  0.12928100  0.34456100  0.49544800  1
  O  O25  1  0.62995000  0.82996800  0.05914100  1
  O  O26  1  0.06604600  0.96245300  0.73311700  1
  O  O27  1  0.64710800  0.19229600  0.69445000  1
  O  O28  1  0.87502600  0.84815500  0.49214600  1
  O  O29  1  0.28390800  0.12271900  0.51485000  1
  O  O30  1  0.62995000  0.17003200  0.94085900  1
  O  O31  1  0.28390800  0.87728100  0.48515000  1
  O  O32  1  0.57011800  0.12454700  0.44291000  1
  O  O33  1  0.08321200  0.27815400  0.15144700  1
  O  O34  1  0.93601400  0.46495000  0.74648600  1
  O  O35  1  0.34964600  0.31559500  0.30701200  1
  O  O36  1  0.64710800  0.80770400  0.30555000  1
  O  O37  1  0.06604600  0.03754700  0.26688300  1
  O  O38  1  0.36262700  0.66000000  0.95535700  1
  O  O39  1  0.78681100  0.71088600  0.81085600  1
  O  O40  1  0.42615700  0.38006000  0.57050200  1
  O  O41  1  0.62664300  0.51823300  0.19240800  1
  O  O42  1  0.71263900  0.37693300  0.48578400  1
  O  O43  1  0.91928600  0.77776600  0.15471600  1
  O  O44  1  0.71263900  0.62306700  0.51421600  1
  O  O45  1  0.12928100  0.65543900  0.50455200  1
  O  O46  1  0.42615700  0.61994000  0.42949800  1
  O  O47  1  0.87502600  0.15184500  0.50785400  1
  O  O48  1  0.36683800  0.01121000  0.19391500  1
  O  O49  1  0.36683800  0.98879000  0.80608500  1
  O  O50  1  0.91928600  0.22223400  0.84528400  1
  O  O51  1  0.93601400  0.53505000  0.25351400  1
  O  O52  1  0.21585600  0.78840200  0.19307500  1
  O  O53  1  0.84646200  0.50000000  0.00000000  1
  O  O54  1  0.78318900  0.03978900  0.16976000  1
  O  O55  1  0.36262700  0.34000000  0.04464300  1
  O  O56  1  0.08321200  0.72184600  0.84855300  1
  O  O57  1  0.78681100  0.28911400  0.18914400  1
  O  O58  1  0.22392200  0.46022800  0.82512200  1
  O  O59  1  0.57011800  0.87545300  0.55709000  1
  O  O60  1  0.34964600  0.68440500  0.69298800  1
  O  O61  1  0.78318900  0.96021100  0.83024000  1
  O  O62  1  0.62664300  0.48176700  0.80759200  1
