# generated using pymatgen
data_Mg(NiO2)2
_symmetry_space_group_name_H-M   'P 1'
_cell_length_a   5.93158819
_cell_length_b   5.93158819
_cell_length_c   5.89263312
_cell_angle_alpha   60.23833739
_cell_angle_beta   60.23833739
_cell_angle_gamma   59.52910837
_symmetry_Int_Tables_number   1
_chemical_formula_structural   Mg(NiO2)2
_chemical_formula_sum   'Mg2 Ni4 O8'
_cell_volume   146.59231925
_cell_formula_units_Z   2
loop_
 _symmetry_equiv_pos_site_id
 _symmetry_equiv_pos_as_xyz
  1  'x, y, z'
loop_
 _atom_site_type_symbol
 _atom_site_label
 _atom_site_symmetry_multiplicity
 _atom_site_fract_x
 _atom_site_fract_y
 _atom_site_fract_z
 _atom_site_occupancy
  Mg  Mg0  1  0.87576500  0.87576500  0.37512300  1
  Mg  Mg1  1  0.12423500  0.12423500  0.62487700  1
  Ni  Ni2  1  0.50000000  0.50000000  0.50000000  1
  Ni  Ni3  1  0.00000000  0.50000000  0.00000000  1
  Ni  Ni4  1  0.50000000  0.00000000  0.00000000  1
  Ni  Ni5  1  0.50000000  0.50000000  0.00000000  1
  O  O6  1  0.71246200  0.25957900  0.75557000  1
  O  O7  1  0.25957900  0.71246200  0.75557000  1
  O  O8  1  0.25489100  0.25489100  0.77764600  1
  O  O9  1  0.73124500  0.73124500  0.78560000  1
  O  O10  1  0.74510900  0.74510900  0.22235400  1
  O  O11  1  0.74042100  0.28753800  0.24443000  1
  O  O12  1  0.26875500  0.26875500  0.21440000  1
  O  O13  1  0.28753800  0.74042100  0.24443000  1
