# generated using pymatgen
data_TiO2
_symmetry_space_group_name_H-M   'P 1'
_cell_length_a   7.44756092
_cell_length_b   7.44756092
_cell_length_c   7.44756092
_cell_angle_alpha   92.29990129
_cell_angle_beta   92.29990129
_cell_angle_gamma   156.88808051
_symmetry_Int_Tables_number   1
_chemical_formula_structural   TiO2
_chemical_formula_sum   'Ti4 O8'
_cell_volume   158.86182239
_cell_formula_units_Z   4
loop_
 _symmetry_equiv_pos_site_id
 _symmetry_equiv_pos_as_xyz
  1  'x, y, z'
loop_
 _atom_site_type_symbol
 _atom_site_label
 _atom_site_symmetry_multiplicity
 _atom_site_fract_x
 _atom_site_fract_y
 _atom_site_fract_z
 _atom_site_occupancy
  Ti  Ti0  1  0.64391400  0.17256200  0.81647500  1
  Ti  Ti1  1  0.17256200  0.35608600  0.52864800  1
  Ti  Ti2  1  0.82743800  0.64391400  0.47135200  1
  Ti  Ti3  1  0.35608600  0.82743800  0.18352500  1
  O  O4  1  0.83574100  0.46032500  0.29606600  1
  O  O5  1  0.46032500  0.16425900  0.62458400  1
  O  O6  1  0.53967500  0.83574100  0.37541600  1
  O  O7  1  0.16425900  0.53967500  0.70393400  1
  O  O8  1  0.15642300  0.78883100  0.94525400  1
  O  O9  1  0.78883100  0.84357700  0.63240800  1
  O  O10  1  0.84357700  0.21116900  0.05474600  1
  O  O11  1  0.21116900  0.15642300  0.36759200  1
