# generated using pymatgen
data_Ca8Cr(PO4)7
_symmetry_space_group_name_H-M   'P 1'
_cell_length_a   10.48030897
_cell_length_b   10.48030897
_cell_length_c   13.82482170
_cell_angle_alpha   67.75665895
_cell_angle_beta   67.75665895
_cell_angle_gamma   60.15040775
_symmetry_Int_Tables_number   1
_chemical_formula_structural   Ca8Cr(PO4)7
_chemical_formula_sum   'Ca16 Cr2 P14 O56'
_cell_volume   1184.33729106
_cell_formula_units_Z   2
loop_
 _symmetry_equiv_pos_site_id
 _symmetry_equiv_pos_as_xyz
  1  'x, y, z'
loop_
 _atom_site_type_symbol
 _atom_site_label
 _atom_site_symmetry_multiplicity
 _atom_site_fract_x
 _atom_site_fract_y
 _atom_site_fract_z
 _atom_site_occupancy
  Ca  Ca0  1  0.64350400  0.56958200  0.19675500  1
  Ca  Ca1  1  0.84371200  0.91393300  0.30510300  1
  Ca  Ca2  1  0.93554000  0.42474700  0.79636500  1
  Ca  Ca3  1  0.58861800  0.06236800  0.70579200  1
  Ca  Ca4  1  0.01968300  0.95145800  0.48487900  1
  Ca  Ca5  1  0.95145800  0.01968300  0.98487900  1
  Ca  Ca6  1  0.42977200  0.34553600  0.30475800  1
  Ca  Ca7  1  0.14670800  0.09241900  0.69948500  1
  Ca  Ca8  1  0.09241900  0.14670800  0.19948500  1
  Ca  Ca9  1  0.34553600  0.42977200  0.80475800  1
  Ca  Ca10  1  0.91393300  0.84371200  0.80510300  1
  Ca  Ca11  1  0.56958200  0.64350400  0.69675500  1
  Ca  Ca12  1  0.06236800  0.58861800  0.20579200  1
  Ca  Ca13  1  0.44868600  0.54065200  0.48263500  1
  Ca  Ca14  1  0.42474700  0.93554000  0.29636500  1
  Ca  Ca15  1  0.54065200  0.44868600  0.98263500  1
  Cr  Cr16  1  0.49864000  0.99798700  0.50634600  1
  Cr  Cr17  1  0.99798700  0.49864000  0.00634600  1
  P  P18  1  0.27949200  0.81315400  0.59733400  1
  P  P19  1  0.77794400  0.81184400  0.09530700  1
  P  P20  1  0.81184400  0.77794400  0.59530700  1
  P  P21  1  0.31036300  0.31310200  0.09714500  1
  P  P22  1  0.68550100  0.68104600  0.41020800  1
  P  P23  1  0.18697900  0.72035000  0.91314000  1
  P  P24  1  0.68104600  0.68550100  0.91020800  1
  P  P25  1  0.21776100  0.18055300  0.91321900  1
  P  P26  1  0.18055300  0.21776100  0.41321900  1
  P  P27  1  0.31310200  0.31036300  0.59714500  1
  P  P28  1  0.23226200  0.73118000  0.30685300  1
  P  P29  1  0.81315400  0.27949200  0.09733400  1
  P  P30  1  0.72035000  0.18697900  0.41314000  1
  P  P31  1  0.73118000  0.23226200  0.80685300  1
  O  O32  1  0.36782600  0.88556100  0.61500700  1
  O  O33  1  0.60591400  0.38845900  0.77157700  1
  O  O34  1  0.09623500  0.21954100  0.53017700  1
  O  O35  1  0.88556100  0.36782600  0.11500700  1
  O  O36  1  0.63900700  0.85314000  0.85694900  1
  O  O37  1  0.88211200  0.11102300  0.34357600  1
  O  O38  1  0.62317800  0.11598700  0.40122800  1
  O  O39  1  0.35925300  0.64220600  0.86874900  1
  O  O40  1  0.60181400  0.66591900  0.34495000  1
  O  O41  1  0.15067700  0.34841400  0.66424100  1
  O  O42  1  0.61282400  0.85981500  0.40221000  1
  O  O43  1  0.90552200  0.10804800  0.13730600  1
  O  O44  1  0.64220600  0.35925300  0.36874900  1
  O  O45  1  0.12136800  0.36028000  0.90226100  1
  O  O46  1  0.33714300  0.64509500  0.65782600  1
  O  O47  1  0.19352200  0.69961100  0.43311200  1
  O  O48  1  0.88617300  0.81897500  0.47598300  1
  O  O49  1  0.13152100  0.38861600  0.11233500  1
  O  O50  1  0.13124000  0.13780700  0.36907900  1
  O  O51  1  0.69961100  0.19352200  0.93311200  1
  O  O52  1  0.32958700  0.38982800  0.47746800  1
  O  O53  1  0.13780700  0.13124000  0.86907900  1
  O  O54  1  0.10804800  0.90552200  0.63730600  1
  O  O55  1  0.83547000  0.86241900  0.15673000  1
  O  O56  1  0.64509500  0.33714300  0.15782600  1
  O  O57  1  0.86241900  0.83547000  0.65673000  1
  O  O58  1  0.34682300  0.40678600  0.13964300  1
  O  O59  1  0.21954100  0.09623500  0.03017700  1
  O  O60  1  0.38861600  0.13152100  0.61233500  1
  O  O61  1  0.73304300  0.14189700  0.52941700  1
  O  O62  1  0.40678600  0.34682300  0.63964300  1
  O  O63  1  0.16634300  0.37600000  0.34230400  1
  O  O64  1  0.14189700  0.73304300  0.02941700  1
  O  O65  1  0.85314000  0.63900700  0.35694900  1
  O  O66  1  0.10781700  0.74013200  0.26869200  1
  O  O67  1  0.88875700  0.23716000  0.77134900  1
  O  O68  1  0.38982800  0.32958700  0.97746800  1
  O  O69  1  0.59390900  0.64487600  0.02596800  1
  O  O70  1  0.11102300  0.88211200  0.84357600  1
  O  O71  1  0.66591900  0.60181400  0.84495000  1
  O  O72  1  0.85981500  0.61282400  0.90221000  1
  O  O73  1  0.82393200  0.31353800  0.97631400  1
  O  O74  1  0.11598700  0.62317800  0.90122800  1
  O  O75  1  0.36028000  0.12136800  0.40226100  1
  O  O76  1  0.37600000  0.16634300  0.84230400  1
  O  O77  1  0.34841400  0.15067700  0.16424100  1
  O  O78  1  0.83895800  0.61120300  0.64214300  1
  O  O79  1  0.86985900  0.63206700  0.11296200  1
  O  O80  1  0.38845900  0.60591400  0.27157700  1
  O  O81  1  0.74013200  0.10781700  0.76869200  1
  O  O82  1  0.64487600  0.59390900  0.52596800  1
  O  O83  1  0.61120300  0.83895800  0.14214300  1
  O  O84  1  0.81897500  0.88617300  0.97598300  1
  O  O85  1  0.23716000  0.88875700  0.27134900  1
  O  O86  1  0.63206700  0.86985900  0.61296200  1
  O  O87  1  0.31353800  0.82393200  0.47631400  1
