# generated using pymatgen
data_HfNp3
_symmetry_space_group_name_H-M   'P 1'
_cell_length_a   5.50942457
_cell_length_b   5.50942457
_cell_length_c   5.50942457
_cell_angle_alpha   133.27879583
_cell_angle_beta   133.27879583
_cell_angle_gamma   68.21665398
_symmetry_Int_Tables_number   1
_chemical_formula_structural   HfNp3
_chemical_formula_sum   'Hf1 Np3'
_cell_volume   87.08051388
_cell_formula_units_Z   1
loop_
 _symmetry_equiv_pos_site_id
 _symmetry_equiv_pos_as_xyz
  1  'x, y, z'
loop_
 _atom_site_type_symbol
 _atom_site_label
 _atom_site_symmetry_multiplicity
 _atom_site_fract_x
 _atom_site_fract_y
 _atom_site_fract_z
 _atom_site_occupancy
  Hf  Hf0  1  0.00000000  0.00000000  0.00000000  1
  Np  Np1  1  0.75000000  0.25000000  0.50000000  1
  Np  Np2  1  0.25000000  0.75000000  0.50000000  1
  Np  Np3  1  0.50000000  0.50000000  0.00000000  1
