# generated using pymatgen
data_V6Zn(FeO6)4
_symmetry_space_group_name_H-M   'P 1'
_cell_length_a   6.74799694
_cell_length_b   8.32041916
_cell_length_c   10.00335052
_cell_angle_alpha   107.20343775
_cell_angle_beta   105.22841615
_cell_angle_gamma   103.66113501
_symmetry_Int_Tables_number   1
_chemical_formula_structural   V6Zn(FeO6)4
_chemical_formula_sum   'V6 Zn1 Fe4 O24'
_cell_volume   486.74376035
_cell_formula_units_Z   1
loop_
 _symmetry_equiv_pos_site_id
 _symmetry_equiv_pos_as_xyz
  1  'x, y, z'
loop_
 _atom_site_type_symbol
 _atom_site_label
 _atom_site_symmetry_multiplicity
 _atom_site_fract_x
 _atom_site_fract_y
 _atom_site_fract_z
 _atom_site_occupancy
  V  V0  1  0.88750500  0.89138200  0.66090800  1
  V  V1  1  0.11249500  0.10861800  0.33909200  1
  V  V2  1  0.20597800  0.66214700  0.26691100  1
  V  V3  1  0.79402200  0.33785300  0.73308900  1
  V  V4  1  0.60918300  0.25838100  0.13747800  1
  V  V5  1  0.39081700  0.74161900  0.86252200  1
  Zn  Zn6  1  0.00000000  0.50000000  0.50000000  1
  Fe  Fe7  1  0.37514000  0.96093300  0.60602000  1
  Fe  Fe8  1  0.62486000  0.03906700  0.39398000  1
  Fe  Fe9  1  0.05013000  0.20571300  0.01203100  1
  Fe  Fe10  1  0.94987000  0.79428700  0.98796900  1
  O  O11  1  0.06925300  0.05788900  0.14385500  1
  O  O12  1  0.93074700  0.94211100  0.85614500  1
  O  O13  1  0.55430800  0.10873200  0.22446000  1
  O  O14  1  0.44569200  0.89126800  0.77554000  1
  O  O15  1  0.16792300  0.44126100  0.17811500  1
  O  O16  1  0.83207700  0.55873900  0.82188500  1
  O  O17  1  0.99041900  0.27797200  0.84086000  1
  O  O18  1  0.00958100  0.72202800  0.15914000  1
  O  O19  1  0.24232900  0.80379900  0.97855100  1
  O  O20  1  0.75767100  0.19620100  0.02144900  1
  O  O21  1  0.88201700  0.99500600  0.35807100  1
  O  O22  1  0.11798300  0.00499400  0.64192900  1
  O  O23  1  0.54276000  0.21879800  0.72930700  1
  O  O24  1  0.45724000  0.78120200  0.27069300  1
  O  O25  1  0.35743400  0.25324400  0.02719600  1
  O  O26  1  0.64256600  0.74675600  0.97280400  1
  O  O27  1  0.34047100  0.04861400  0.43067800  1
  O  O28  1  0.65952900  0.95138600  0.56932200  1
  O  O29  1  0.21103700  0.71155800  0.45690600  1
  O  O30  1  0.78896300  0.28844200  0.54309400  1
  O  O31  1  0.77332000  0.45653300  0.28316300  1
  O  O32  1  0.22668000  0.54346700  0.71683700  1
  O  O33  1  0.14699200  0.32705300  0.41683400  1
  O  O34  1  0.85300800  0.67294700  0.58316600  1
