# generated using pymatgen
data_MgCoP2O7
_symmetry_space_group_name_H-M   'P 1'
_cell_length_a   8.40766200
_cell_length_b   7.04067800
_cell_length_c   9.17022699
_cell_angle_alpha   66.83778135
_cell_angle_beta   90.00000000
_cell_angle_gamma   90.00000000
_symmetry_Int_Tables_number   1
_chemical_formula_structural   MgCoP2O7
_chemical_formula_sum   'Mg4 Co4 P8 O28'
_cell_volume   499.08199995
_cell_formula_units_Z   4
loop_
 _symmetry_equiv_pos_site_id
 _symmetry_equiv_pos_as_xyz
  1  'x, y, z'
loop_
 _atom_site_type_symbol
 _atom_site_label
 _atom_site_symmetry_multiplicity
 _atom_site_fract_x
 _atom_site_fract_y
 _atom_site_fract_z
 _atom_site_occupancy
  Mg  Mg0  1  0.94006700  0.69501800  0.18126200  1
  Mg  Mg1  1  0.44006700  0.30498200  0.31873800  1
  Mg  Mg2  1  0.55993300  0.69501800  0.68126200  1
  Mg  Mg3  1  0.05993300  0.30498200  0.81873800  1
  Co  Co4  1  0.07263800  0.23233400  0.39203700  1
  Co  Co5  1  0.92736200  0.76766600  0.60796300  1
  Co  Co6  1  0.57263800  0.76766600  0.10796300  1
  Co  Co7  1  0.42736200  0.23233400  0.89203700  1
  P  P8  1  0.73367700  0.05991100  0.75902500  1
  P  P9  1  0.22660100  0.53189900  0.03169900  1
  P  P10  1  0.76632300  0.05991100  0.25902500  1
  P  P11  1  0.27339900  0.53189900  0.53169900  1
  P  P12  1  0.23367700  0.94008900  0.74097500  1
  P  P13  1  0.72660100  0.46810100  0.46830100  1
  P  P14  1  0.77339900  0.46810100  0.96830100  1
  P  P15  1  0.26632300  0.94008900  0.24097500  1
  O  O16  1  0.17510500  0.74956300  0.89893000  1
  O  O17  1  0.60978700  0.11352500  0.31335500  1
  O  O18  1  0.89021300  0.11352500  0.81335500  1
  O  O19  1  0.38918900  0.54983700  0.10335200  1
  O  O20  1  0.82489500  0.25043700  0.10107000  1
  O  O21  1  0.09680300  0.97456300  0.62112800  1
  O  O22  1  0.61081100  0.45016300  0.89664800  1
  O  O23  1  0.09155900  0.48804700  0.15305200  1
  O  O24  1  0.26675000  0.37733800  0.45098500  1
  O  O25  1  0.90319700  0.02543700  0.37887200  1
  O  O26  1  0.40319700  0.97456300  0.12112800  1
  O  O27  1  0.75901000  0.87976700  0.20365600  1
  O  O28  1  0.25901000  0.12023300  0.29634400  1
  O  O29  1  0.32489500  0.74956300  0.39893000  1
  O  O30  1  0.59680300  0.02543700  0.87887200  1
  O  O31  1  0.10978700  0.88647500  0.18664500  1
  O  O32  1  0.24099000  0.12023300  0.79634400  1
  O  O33  1  0.90844100  0.51195300  0.84694800  1
  O  O34  1  0.23325000  0.37733800  0.95098500  1
  O  O35  1  0.76675000  0.62266200  0.04901500  1
  O  O36  1  0.88918900  0.45016300  0.39664800  1
  O  O37  1  0.40844100  0.48804700  0.65305200  1
  O  O38  1  0.59155900  0.51195300  0.34694800  1
  O  O39  1  0.39021300  0.88647500  0.68664500  1
  O  O40  1  0.74099000  0.87976700  0.70365600  1
  O  O41  1  0.11081100  0.54983700  0.60335200  1
  O  O42  1  0.73325000  0.62266200  0.54901500  1
  O  O43  1  0.67510500  0.25043700  0.60107000  1
