# generated using pymatgen
data_Y4(Mo2O7)3
_symmetry_space_group_name_H-M   'P 1'
_cell_length_a   7.37747506
_cell_length_b   7.37747506
_cell_length_c   18.16397809
_cell_angle_alpha   89.91590310
_cell_angle_beta   89.91590310
_cell_angle_gamma   60.02651887
_symmetry_Int_Tables_number   1
_chemical_formula_structural   Y4(Mo2O7)3
_chemical_formula_sum   'Y8 Mo12 O42'
_cell_volume   856.39173793
_cell_formula_units_Z   2
loop_
 _symmetry_equiv_pos_site_id
 _symmetry_equiv_pos_as_xyz
  1  'x, y, z'
loop_
 _atom_site_type_symbol
 _atom_site_label
 _atom_site_symmetry_multiplicity
 _atom_site_fract_x
 _atom_site_fract_y
 _atom_site_fract_z
 _atom_site_occupancy
  Y  Y0  1  0.00000000  0.50000000  0.50000000  1
  Y  Y1  1  0.66176600  0.16711900  0.17627500  1
  Y  Y2  1  0.33823400  0.83288100  0.82372500  1
  Y  Y3  1  0.00000000  0.00000000  0.50000000  1
  Y  Y4  1  0.50000000  0.00000000  0.50000000  1
  Y  Y5  1  0.16711900  0.66176600  0.17627500  1
  Y  Y6  1  0.83288100  0.33823400  0.82372500  1
  Y  Y7  1  0.50000000  0.50000000  0.00000000  1
  Mo  Mo8  1  0.66665600  0.16415600  0.66650600  1
  Mo  Mo9  1  0.33334400  0.83584400  0.33349400  1
  Mo  Mo10  1  0.00000000  0.50000000  0.00000000  1
  Mo  Mo11  1  0.66745600  0.66745600  0.66497700  1
  Mo  Mo12  1  0.33254400  0.33254400  0.33502300  1
  Mo  Mo13  1  0.00000000  0.00000000  0.00000000  1
  Mo  Mo14  1  0.16415700  0.66665600  0.66650600  1
  Mo  Mo15  1  0.83584300  0.33334400  0.33349400  1
  Mo  Mo16  1  0.50000000  0.00000000  0.00000000  1
  Mo  Mo17  1  0.50000000  0.50000000  0.50000000  1
  Mo  Mo18  1  0.16744000  0.16744000  0.16545300  1
  Mo  Mo19  1  0.83256000  0.83256000  0.83454700  1
  O  O20  1  0.83342700  0.83342700  0.47271300  1
  O  O21  1  0.47595300  0.47595300  0.11912300  1
  O  O22  1  0.15010700  0.15010700  0.80770300  1
  O  O23  1  0.16657300  0.16657300  0.52728700  1
  O  O24  1  0.84989300  0.84989300  0.19229700  1
  O  O25  1  0.52404700  0.52404700  0.88087700  1
  O  O26  1  0.04339300  0.04339300  0.36364300  1
  O  O27  1  0.70072800  0.70072800  0.02054500  1
  O  O28  1  0.38071000  0.38071000  0.67774500  1
  O  O29  1  0.36539300  0.36539300  0.44434700  1
  O  O30  1  0.03719500  0.03719500  0.10316300  1
  O  O31  1  0.70126700  0.70126700  0.77262100  1
  O  O32  1  0.63658400  0.22869800  0.55433900  1
  O  O33  1  0.27397200  0.91200100  0.22894500  1
  O  O34  1  0.94894200  0.57959700  0.89372500  1
  O  O35  1  0.42223100  0.04173100  0.36410400  1
  O  O36  1  0.10532800  0.69619300  0.02378500  1
  O  O37  1  0.75269200  0.37556300  0.69335300  1
  O  O38  1  0.22869800  0.63658400  0.55433900  1
  O  O39  1  0.91200100  0.27397200  0.22894500  1
  O  O40  1  0.57959700  0.94894200  0.89372500  1
  O  O41  1  0.04173100  0.42223100  0.36410400  1
  O  O42  1  0.69619300  0.10532800  0.02378500  1
  O  O43  1  0.37556300  0.75269200  0.69335300  1
  O  O44  1  0.63460700  0.63460700  0.55565300  1
  O  O45  1  0.29873300  0.29873300  0.22737900  1
  O  O46  1  0.96280500  0.96280500  0.89683700  1
  O  O47  1  0.77130200  0.36341600  0.44566100  1
  O  O48  1  0.42040300  0.05105800  0.10627500  1
  O  O49  1  0.08799900  0.72602800  0.77105500  1
  O  O50  1  0.57776900  0.95826900  0.63589600  1
  O  O51  1  0.24730800  0.62443700  0.30664700  1
  O  O52  1  0.89467200  0.30380700  0.97621500  1
  O  O53  1  0.36341600  0.77130200  0.44566100  1
  O  O54  1  0.05105800  0.42040300  0.10627500  1
  O  O55  1  0.72602800  0.08799900  0.77105500  1
  O  O56  1  0.95826900  0.57776900  0.63589600  1
  O  O57  1  0.62443700  0.24730800  0.30664700  1
  O  O58  1  0.30380700  0.89467200  0.97621500  1
  O  O59  1  0.95660700  0.95660700  0.63635700  1
  O  O60  1  0.61929000  0.61929000  0.32225500  1
  O  O61  1  0.29927200  0.29927200  0.97945500  1
