# generated using pymatgen
data_V2P2O9
_symmetry_space_group_name_H-M   'P 1'
_cell_length_a   6.37296500
_cell_length_b   7.70297200
_cell_length_c   13.81525200
_cell_angle_alpha   90.00000000
_cell_angle_beta   90.00000000
_cell_angle_gamma   90.00000000
_symmetry_Int_Tables_number   1
_chemical_formula_structural   V2P2O9
_chemical_formula_sum   'V8 P8 O36'
_cell_volume   678.20137158
_cell_formula_units_Z   4
loop_
 _symmetry_equiv_pos_site_id
 _symmetry_equiv_pos_as_xyz
  1  'x, y, z'
loop_
 _atom_site_type_symbol
 _atom_site_label
 _atom_site_symmetry_multiplicity
 _atom_site_fract_x
 _atom_site_fract_y
 _atom_site_fract_z
 _atom_site_occupancy
  V  V0  1  0.25000000  0.84979200  0.37824900  1
  V  V1  1  0.75000000  0.15020800  0.62175100  1
  V  V2  1  0.75000000  0.34979200  0.12175100  1
  V  V3  1  0.25000000  0.65020800  0.87824900  1
  V  V4  1  0.00000000  0.50000000  0.50000000  1
  V  V5  1  0.00000000  0.00000000  0.00000000  1
  V  V6  1  0.50000000  0.00000000  0.00000000  1
  V  V7  1  0.50000000  0.50000000  0.50000000  1
  P  P8  1  0.75000000  0.85356000  0.43627700  1
  P  P9  1  0.25000000  0.14644000  0.56372300  1
  P  P10  1  0.25000000  0.35356000  0.06372300  1
  P  P11  1  0.75000000  0.64644000  0.93627700  1
  P  P12  1  0.25000000  0.89442300  0.19142100  1
  P  P13  1  0.25000000  0.60557700  0.69142100  1
  P  P14  1  0.75000000  0.39442300  0.30857900  1
  P  P15  1  0.75000000  0.10557700  0.80857900  1
  O  O16  1  0.55472800  0.09403800  0.87731800  1
  O  O17  1  0.05472800  0.90596200  0.12268200  1
  O  O18  1  0.44527200  0.59403800  0.62268200  1
  O  O19  1  0.94527200  0.40596200  0.37731800  1
  O  O20  1  0.44527200  0.90596200  0.12268200  1
  O  O21  1  0.94527200  0.09403800  0.87731800  1
  O  O22  1  0.55472800  0.40596200  0.37731800  1
  O  O23  1  0.05472800  0.59403800  0.62268200  1
  O  O24  1  0.75000000  0.83597300  0.98420600  1
  O  O25  1  0.25000000  0.16402700  0.01579400  1
  O  O26  1  0.25000000  0.33597300  0.51579400  1
  O  O27  1  0.75000000  0.66402700  0.48420600  1
  O  O28  1  0.25000000  0.63631200  0.45000300  1
  O  O29  1  0.75000000  0.36368800  0.54999700  1
  O  O30  1  0.75000000  0.13631200  0.04999700  1
  O  O31  1  0.25000000  0.86368800  0.95000300  1
  O  O32  1  0.25000000  0.72480900  0.25234300  1
  O  O33  1  0.75000000  0.27519100  0.74765700  1
  O  O34  1  0.75000000  0.22480900  0.24765700  1
  O  O35  1  0.25000000  0.77519100  0.75234300  1
  O  O36  1  0.94571500  0.63458800  0.87414500  1
  O  O37  1  0.44571500  0.36541200  0.12585500  1
  O  O38  1  0.05428500  0.13458800  0.62585500  1
  O  O39  1  0.55428500  0.86541200  0.37414500  1
  O  O40  1  0.05428500  0.36541200  0.12585500  1
  O  O41  1  0.55428500  0.63458800  0.87414500  1
  O  O42  1  0.94571500  0.86541200  0.37414500  1
  O  O43  1  0.44571500  0.13458800  0.62585500  1
  O  O44  1  0.25000000  0.01227100  0.48164900  1
  O  O45  1  0.75000000  0.53483400  0.23042300  1
  O  O46  1  0.75000000  0.96516600  0.73042300  1
  O  O47  1  0.25000000  0.03483400  0.26957700  1
  O  O48  1  0.25000000  0.48772900  0.98164900  1
  O  O49  1  0.75000000  0.51227100  0.01835100  1
  O  O50  1  0.75000000  0.98772900  0.51835100  1
  O  O51  1  0.25000000  0.46516600  0.76957700  1
