# generated using pymatgen
data_Ba2YCo3O7
_symmetry_space_group_name_H-M   'P 1'
_cell_length_a   3.89980400
_cell_length_b   3.99051400
_cell_length_c   11.59648000
_cell_angle_alpha   90.00000000
_cell_angle_beta   90.00000000
_cell_angle_gamma   90.00000000
_symmetry_Int_Tables_number   1
_chemical_formula_structural   Ba2YCo3O7
_chemical_formula_sum   'Ba2 Y1 Co3 O7'
_cell_volume   180.46700150
_cell_formula_units_Z   1
loop_
 _symmetry_equiv_pos_site_id
 _symmetry_equiv_pos_as_xyz
  1  'x, y, z'
loop_
 _atom_site_type_symbol
 _atom_site_label
 _atom_site_symmetry_multiplicity
 _atom_site_fract_x
 _atom_site_fract_y
 _atom_site_fract_z
 _atom_site_occupancy
  Ba  Ba0  1  0.50000000  0.50000000  0.82098200  1
  Ba  Ba1  1  0.50000000  0.50000000  0.17901800  1
  Y  Y2  1  0.50000000  0.50000000  0.50000000  1
  Co  Co3  1  0.00000000  0.00000000  0.65354100  1
  Co  Co4  1  0.00000000  0.00000000  0.34645900  1
  Co  Co5  1  0.00000000  0.00000000  0.00000000  1
  O  O6  1  0.00000000  0.50000000  0.00000000  1
  O  O7  1  0.50000000  0.00000000  0.62338100  1
  O  O8  1  0.50000000  0.00000000  0.37661900  1
  O  O9  1  0.00000000  0.50000000  0.62357900  1
  O  O10  1  0.00000000  0.50000000  0.37642100  1
  O  O11  1  0.00000000  0.00000000  0.84171100  1
  O  O12  1  0.00000000  0.00000000  0.15828900  1
