# generated using pymatgen
data_Ca11(MnN5)2
_symmetry_space_group_name_H-M   'P 1'
_cell_length_a   6.21526986
_cell_length_b   6.21526986
_cell_length_c   12.29481510
_cell_angle_alpha   89.73472820
_cell_angle_beta   89.73472820
_cell_angle_gamma   117.60346290
_symmetry_Int_Tables_number   1
_chemical_formula_structural   Ca11(MnN5)2
_chemical_formula_sum   'Ca11 Mn2 N10'
_cell_volume   420.86655062
_cell_formula_units_Z   1
loop_
 _symmetry_equiv_pos_site_id
 _symmetry_equiv_pos_as_xyz
  1  'x, y, z'
loop_
 _atom_site_type_symbol
 _atom_site_label
 _atom_site_symmetry_multiplicity
 _atom_site_fract_x
 _atom_site_fract_y
 _atom_site_fract_z
 _atom_site_occupancy
  Ca  Ca0  1  0.44416100  0.00275300  0.88327400  1
  Ca  Ca1  1  0.97832400  0.59121100  0.12413200  1
  Ca  Ca2  1  0.99749400  0.38547100  0.61552800  1
  Ca  Ca3  1  0.41520200  0.41520200  0.37740300  1
  Ca  Ca4  1  0.00097500  0.61102100  0.38608100  1
  Ca  Ca5  1  0.39046500  0.39046500  0.08296200  1
  Ca  Ca6  1  0.59121100  0.97832400  0.12413200  1
  Ca  Ca7  1  0.38547100  0.99749400  0.61552800  1
  Ca  Ca8  1  0.58626400  0.58626400  0.63464400  1
  Ca  Ca9  1  0.00275300  0.44416100  0.88327400  1
  Ca  Ca10  1  0.61102100  0.00097500  0.38608100  1
  Mn  Mn11  1  0.98220500  0.98220500  0.75262300  1
  Mn  Mn12  1  0.01925000  0.01925000  0.25543000  1
  N  N13  1  0.00944200  0.72335700  0.73466100  1
  N  N14  1  0.24512500  0.24512500  0.72628200  1
  N  N15  1  0.00157300  0.28793100  0.26270000  1
  N  N16  1  0.33377600  0.66632200  0.50183800  1
  N  N17  1  0.67998300  0.30249800  0.00836100  1
  N  N18  1  0.66632200  0.33377600  0.50183800  1
  N  N19  1  0.30249800  0.67998200  0.00836100  1
  N  N20  1  0.73964500  0.73964500  0.25582100  1
  N  N21  1  0.28793100  0.00157300  0.26270000  1
  N  N22  1  0.72335700  0.00944200  0.73466100  1
