data_image0
_chemical_formula_structural       Bi2Ce4
_chemical_formula_sum              "Bi2 Ce4"
_cell_length_a       4.69999
_cell_length_b       4.69999
_cell_length_c       9.80489
_cell_angle_alpha    103.867
_cell_angle_beta     103.867
_cell_angle_gamma    90

_space_group_name_H-M_alt    "P 1"
_space_group_IT_number       1

loop_
  _space_group_symop_operation_xyz
  'x, y, z'

loop_
  _atom_site_type_symbol
  _atom_site_label
  _atom_site_symmetry_multiplicity
  _atom_site_fract_x
  _atom_site_fract_y
  _atom_site_fract_z
  _atom_site_occupancy
  Bi  Bi1       1.0  0.13900  0.13900  0.27800  1.0000
  Bi  Bi2       1.0  0.86100  0.86100  0.72200  1.0000
  Ce  Ce1       1.0  0.50000  0.00000  0.00000  1.0000
  Ce  Ce2       1.0  0.00000  0.50000  0.00000  1.0000
  Ce  Ce3       1.0  0.67900  0.67900  0.35900  1.0000
  Ce  Ce4       1.0  0.32100  0.32100  0.64100  1.0000
