# generated using pymatgen
data_CaLa2FeO6
_symmetry_space_group_name_H-M   'P 1'
_cell_length_a   5.61658890
_cell_length_b   5.61658890
_cell_length_c   5.61658906
_cell_angle_alpha   62.66468637
_cell_angle_beta   62.66468637
_cell_angle_gamma   62.66468868
_symmetry_Int_Tables_number   1
_chemical_formula_structural   CaLa2FeO6
_chemical_formula_sum   'Ca1 La2 Fe1 O6'
_cell_volume   132.71677997
_cell_formula_units_Z   1
loop_
 _symmetry_equiv_pos_site_id
 _symmetry_equiv_pos_as_xyz
  1  'x, y, z'
loop_
 _atom_site_type_symbol
 _atom_site_label
 _atom_site_symmetry_multiplicity
 _atom_site_fract_x
 _atom_site_fract_y
 _atom_site_fract_z
 _atom_site_occupancy
  Ca  Ca0  1  0.50000000  0.50000000  0.50000000  1
  La  La1  1  0.76044000  0.76044000  0.76044000  1
  La  La2  1  0.23956000  0.23956000  0.23956000  1
  Fe  Fe3  1  0.00000000  0.00000000  0.00000000  1
  O  O4  1  0.78665900  0.31968500  0.13806800  1
  O  O5  1  0.13806800  0.78665900  0.31968500  1
  O  O6  1  0.31968500  0.13806800  0.78665900  1
  O  O7  1  0.21334100  0.68031500  0.86193200  1
  O  O8  1  0.68031500  0.86193200  0.21334100  1
  O  O9  1  0.86193200  0.21334100  0.68031500  1
