# generated using pymatgen
data_La2ZnCrO6
_symmetry_space_group_name_H-M   'P 1'
_cell_length_a   5.53358784
_cell_length_b   5.53358784
_cell_length_c   5.53358861
_cell_angle_alpha   61.23659191
_cell_angle_beta   61.23659191
_cell_angle_gamma   61.23658744
_symmetry_Int_Tables_number   1
_chemical_formula_structural   La2ZnCrO6
_chemical_formula_sum   'La2 Zn1 Cr1 O6'
_cell_volume   123.14533054
_cell_formula_units_Z   1
loop_
 _symmetry_equiv_pos_site_id
 _symmetry_equiv_pos_as_xyz
  1  'x, y, z'
loop_
 _atom_site_type_symbol
 _atom_site_label
 _atom_site_symmetry_multiplicity
 _atom_site_fract_x
 _atom_site_fract_y
 _atom_site_fract_z
 _atom_site_occupancy
  La  La0  1  0.75102700  0.75102700  0.75102700  1
  La  La1  1  0.24897300  0.24897300  0.24897300  1
  Zn  Zn2  1  0.50000000  0.50000000  0.50000000  1
  Cr  Cr3  1  0.00000000  0.00000000  0.00000000  1
  O  O4  1  0.76362400  0.31672900  0.16501400  1
  O  O5  1  0.16501400  0.76362400  0.31672900  1
  O  O6  1  0.31672900  0.16501400  0.76362400  1
  O  O7  1  0.23637600  0.68327100  0.83498600  1
  O  O8  1  0.68327100  0.83498600  0.23637600  1
  O  O9  1  0.83498600  0.23637600  0.68327100  1
