# generated using pymatgen
data_Mg(MnN)2
_symmetry_space_group_name_H-M   'P 1'
_cell_length_a   3.61611200
_cell_length_b   3.61611200
_cell_length_c   5.09683400
_cell_angle_alpha   90.00000000
_cell_angle_beta   90.00000000
_cell_angle_gamma   90.00000000
_symmetry_Int_Tables_number   1
_chemical_formula_structural   Mg(MnN)2
_chemical_formula_sum   'Mg1 Mn2 N2'
_cell_volume   66.64755712
_cell_formula_units_Z   1
loop_
 _symmetry_equiv_pos_site_id
 _symmetry_equiv_pos_as_xyz
  1  'x, y, z'
loop_
 _atom_site_type_symbol
 _atom_site_label
 _atom_site_symmetry_multiplicity
 _atom_site_fract_x
 _atom_site_fract_y
 _atom_site_fract_z
 _atom_site_occupancy
  Mg  Mg0  1  0.00000000  0.00000000  0.00000000  1
  Mn  Mn1  1  0.50000000  0.50000000  0.74611600  1
  Mn  Mn2  1  0.50000000  0.50000000  0.25388400  1
  N  N3  1  0.50000000  0.00000000  0.25239800  1
  N  N4  1  0.00000000  0.50000000  0.74760200  1
