# generated using pymatgen
data_FeF4
_symmetry_space_group_name_H-M   'P 1'
_cell_length_a   6.35514153
_cell_length_b   6.35514153
_cell_length_c   6.35514153
_cell_angle_alpha   129.20677618
_cell_angle_beta   129.20677618
_cell_angle_gamma   74.67808895
_symmetry_Int_Tables_number   1
_chemical_formula_structural   FeF4
_chemical_formula_sum   'Fe2 F8'
_cell_volume   150.14498306
_cell_formula_units_Z   2
loop_
 _symmetry_equiv_pos_site_id
 _symmetry_equiv_pos_as_xyz
  1  'x, y, z'
loop_
 _atom_site_type_symbol
 _atom_site_label
 _atom_site_symmetry_multiplicity
 _atom_site_fract_x
 _atom_site_fract_y
 _atom_site_fract_z
 _atom_site_occupancy
  Fe  Fe0  1  0.00000000  0.50000000  0.50000000  1
  Fe  Fe1  1  0.50000000  0.00000000  0.50000000  1
  F  F2  1  0.95363200  0.45363200  0.16682100  1
  F  F3  1  0.71318900  0.21318900  0.16682100  1
  F  F4  1  0.04636800  0.54636800  0.83317900  1
  F  F5  1  0.54636800  0.71318900  0.50000000  1
  F  F6  1  0.28681100  0.78681100  0.83317900  1
  F  F7  1  0.78681100  0.95363200  0.50000000  1
  F  F8  1  0.45363200  0.28681100  0.50000000  1
  F  F9  1  0.21318900  0.04636800  0.50000000  1
