# generated using pymatgen
data_YCr3Se2ClO8
_symmetry_space_group_name_H-M   'P 1'
_cell_length_a   6.57610700
_cell_length_b   7.18940300
_cell_length_c   9.81227700
_cell_angle_alpha   90.00000000
_cell_angle_beta   90.00000000
_cell_angle_gamma   90.00000000
_symmetry_Int_Tables_number   1
_chemical_formula_structural   YCr3Se2ClO8
_chemical_formula_sum   'Y2 Cr6 Se4 Cl2 O16'
_cell_volume   463.90761275
_cell_formula_units_Z   2
loop_
 _symmetry_equiv_pos_site_id
 _symmetry_equiv_pos_as_xyz
  1  'x, y, z'
loop_
 _atom_site_type_symbol
 _atom_site_label
 _atom_site_symmetry_multiplicity
 _atom_site_fract_x
 _atom_site_fract_y
 _atom_site_fract_z
 _atom_site_occupancy
  Y  Y0  1  0.00000000  0.73855900  0.00000000  1
  Y  Y1  1  0.50000000  0.26144100  0.50000000  1
  Cr  Cr2  1  0.25000000  0.00000000  0.75000000  1
  Cr  Cr3  1  0.25000000  0.00000000  0.25000000  1
  Cr  Cr4  1  0.75000000  0.00000000  0.75000000  1
  Cr  Cr5  1  0.50000000  0.79425600  0.50000000  1
  Cr  Cr6  1  0.00000000  0.20574400  0.00000000  1
  Cr  Cr7  1  0.75000000  0.00000000  0.25000000  1
  Se  Se8  1  0.50000000  0.59067400  0.81141900  1
  Se  Se9  1  0.00000000  0.40932600  0.68858100  1
  Se  Se10  1  0.50000000  0.59067400  0.18858100  1
  Se  Se11  1  0.00000000  0.40932600  0.31141900  1
  Cl  Cl12  1  0.00000000  0.85160700  0.50000000  1
  Cl  Cl13  1  0.50000000  0.14839300  0.00000000  1
  O  O14  1  0.00000000  0.99420300  0.86598800  1
  O  O15  1  0.00000000  0.42827000  0.86539200  1
  O  O16  1  0.50000000  0.57173000  0.36539200  1
  O  O17  1  0.29313500  0.73747500  0.83904000  1
  O  O18  1  0.20686500  0.26252500  0.33904000  1
  O  O19  1  0.79313500  0.26252500  0.33904000  1
  O  O20  1  0.50000000  0.00579700  0.63401200  1
  O  O21  1  0.70686500  0.73747500  0.83904000  1
  O  O22  1  0.70686500  0.73747500  0.16096000  1
  O  O23  1  0.79313500  0.26252500  0.66096000  1
  O  O24  1  0.00000000  0.99420300  0.13401200  1
  O  O25  1  0.50000000  0.00579700  0.36598800  1
  O  O26  1  0.20686500  0.26252500  0.66096000  1
  O  O27  1  0.29313500  0.73747500  0.16096000  1
  O  O28  1  0.50000000  0.57173000  0.63460800  1
  O  O29  1  0.00000000  0.42827000  0.13460800  1
