# generated using pymatgen
data_CaCr2O6
_symmetry_space_group_name_H-M   'P 1'
_cell_length_a   5.33295000
_cell_length_b   5.38743638
_cell_length_c   7.37193480
_cell_angle_alpha   90.24255469
_cell_angle_beta   90.10872466
_cell_angle_gamma   90.45029363
_symmetry_Int_Tables_number   1
_chemical_formula_structural   CaCr2O6
_chemical_formula_sum   'Ca2 Cr4 O12'
_cell_volume   211.79370042
_cell_formula_units_Z   2
loop_
 _symmetry_equiv_pos_site_id
 _symmetry_equiv_pos_as_xyz
  1  'x, y, z'
loop_
 _atom_site_type_symbol
 _atom_site_label
 _atom_site_symmetry_multiplicity
 _atom_site_fract_x
 _atom_site_fract_y
 _atom_site_fract_z
 _atom_site_occupancy
  Ca  Ca0  1  0.49044900  0.54620200  0.73795100  1
  Ca  Ca1  1  0.98545800  0.95246200  0.25973500  1
  Cr  Cr2  1  0.44867900  0.01754800  0.99112600  1
  Cr  Cr3  1  0.95753600  0.48271800  0.00888300  1
  Cr  Cr4  1  0.97412200  0.49175200  0.49887200  1
  Cr  Cr5  1  0.48056300  0.01470100  0.49787500  1
  O  O6  1  0.06134000  0.50821700  0.24944600  1
  O  O7  1  0.56495300  0.99617400  0.76952100  1
  O  O8  1  0.45071400  0.01208700  0.23318500  1
  O  O9  1  0.95277900  0.48850900  0.75072600  1
  O  O10  1  0.29405100  0.28543300  0.53214200  1
  O  O11  1  0.79359900  0.21113000  0.46889900  1
  O  O12  1  0.23216400  0.78973600  0.97024300  1
  O  O13  1  0.73999500  0.71155000  0.02886600  1
  O  O14  1  0.29347500  0.28606200  0.96617400  1
  O  O15  1  0.80213700  0.20952400  0.03467500  1
  O  O16  1  0.72934300  0.71408000  0.47388500  1
  O  O17  1  0.23240100  0.78211700  0.52779500  1
