# generated using pymatgen
data_CaFeP2O7
_symmetry_space_group_name_H-M   'P 1'
_cell_length_a   8.87163000
_cell_length_b   7.45517700
_cell_length_c   9.26436519
_cell_angle_alpha   62.66956072
_cell_angle_beta   90.00000000
_cell_angle_gamma   90.00000000
_symmetry_Int_Tables_number   1
_chemical_formula_structural   CaFeP2O7
_chemical_formula_sum   'Ca4 Fe4 P8 O28'
_cell_volume   544.34296312
_cell_formula_units_Z   4
loop_
 _symmetry_equiv_pos_site_id
 _symmetry_equiv_pos_as_xyz
  1  'x, y, z'
loop_
 _atom_site_type_symbol
 _atom_site_label
 _atom_site_symmetry_multiplicity
 _atom_site_fract_x
 _atom_site_fract_y
 _atom_site_fract_z
 _atom_site_occupancy
  Ca  Ca0  1  0.94965000  0.27144800  0.87242100  1
  Ca  Ca1  1  0.44965000  0.72855200  0.62757900  1
  Ca  Ca2  1  0.55035000  0.27144800  0.37242100  1
  Ca  Ca3  1  0.05035000  0.72855200  0.12757900  1
  Fe  Fe4  1  0.07281200  0.77100500  0.61447400  1
  Fe  Fe5  1  0.92718800  0.22899500  0.38552600  1
  Fe  Fe6  1  0.57281200  0.22899500  0.88552600  1
  Fe  Fe7  1  0.42718800  0.77100500  0.11447400  1
  P  P8  1  0.72590200  0.95096700  0.23756900  1
  P  P9  1  0.24404200  0.47118700  0.96436800  1
  P  P10  1  0.77409800  0.95096700  0.73756900  1
  P  P11  1  0.25595800  0.47118700  0.46436800  1
  P  P12  1  0.22590200  0.04903300  0.26243100  1
  P  P13  1  0.74404200  0.52881300  0.53563200  1
  P  P14  1  0.75595800  0.52881300  0.03563200  1
  P  P15  1  0.27409800  0.04903300  0.76243100  1
  O  O16  1  0.18004200  0.25721000  0.10326800  1
  O  O17  1  0.62850400  0.92670600  0.66143200  1
  O  O18  1  0.87149600  0.92670600  0.16143200  1
  O  O19  1  0.38936800  0.44001900  0.89036200  1
  O  O20  1  0.81995800  0.74279000  0.89673200  1
  O  O21  1  0.08785400  0.01222400  0.37502500  1
  O  O22  1  0.61063200  0.55998100  0.10963800  1
  O  O23  1  0.10783800  0.53244000  0.84723500  1
  O  O24  1  0.23981100  0.60967700  0.54435600  1
  O  O25  1  0.91214600  0.98777600  0.62497500  1
  O  O26  1  0.41214600  0.01222400  0.87502500  1
  O  O27  1  0.76473500  0.10399500  0.80470300  1
  O  O28  1  0.26473500  0.89600500  0.69529700  1
  O  O29  1  0.31995800  0.25721000  0.60326800  1
  O  O30  1  0.58785400  0.98777600  0.12497500  1
  O  O31  1  0.12850400  0.07329400  0.83856800  1
  O  O32  1  0.23526500  0.89600500  0.19529700  1
  O  O33  1  0.89216200  0.46756000  0.15276500  1
  O  O34  1  0.26018900  0.60967700  0.04435600  1
  O  O35  1  0.73981100  0.39032300  0.95564400  1
  O  O36  1  0.88936800  0.55998100  0.60963800  1
  O  O37  1  0.39216200  0.53244000  0.34723500  1
  O  O38  1  0.60783800  0.46756000  0.65276500  1
  O  O39  1  0.37149600  0.07329400  0.33856800  1
  O  O40  1  0.73526500  0.10399500  0.30470300  1
  O  O41  1  0.11063200  0.44001900  0.39036200  1
  O  O42  1  0.76018900  0.39032300  0.45564400  1
  O  O43  1  0.68004200  0.74279000  0.39673200  1
