# generated using pymatgen
data_Zn3Cu2(AsO4)4
_symmetry_space_group_name_H-M   'P 1'
_cell_length_a   5.44540400
_cell_length_b   6.97865309
_cell_length_c   9.48147605
_cell_angle_alpha   80.11810021
_cell_angle_beta   80.15828655
_cell_angle_gamma   68.51444371
_symmetry_Int_Tables_number   1
_chemical_formula_structural   Zn3Cu2(AsO4)4
_chemical_formula_sum   'Zn3 Cu2 As4 O16'
_cell_volume   327.99559989
_cell_formula_units_Z   1
loop_
 _symmetry_equiv_pos_site_id
 _symmetry_equiv_pos_as_xyz
  1  'x, y, z'
loop_
 _atom_site_type_symbol
 _atom_site_label
 _atom_site_symmetry_multiplicity
 _atom_site_fract_x
 _atom_site_fract_y
 _atom_site_fract_z
 _atom_site_occupancy
  Zn  Zn0  1  0.62120600  0.82978000  0.10518000  1
  Zn  Zn1  1  0.12549900  0.81457500  0.61680100  1
  Zn  Zn2  1  0.86586600  0.19030000  0.38611300  1
  Cu  Cu3  1  0.25098800  0.49684000  0.24818700  1
  Cu  Cu4  1  0.74449800  0.49991600  0.75338800  1
  As  As5  1  0.72398600  0.72407700  0.43264200  1
  As  As6  1  0.23258800  0.72212300  0.93331800  1
  As  As7  1  0.77853100  0.26885500  0.06484100  1
  As  As8  1  0.28218700  0.26891300  0.57535100  1
  O  O9  1  0.56178000  0.50428600  0.13709300  1
  O  O10  1  0.05603900  0.50572700  0.63402800  1
  O  O11  1  0.93729600  0.49320700  0.36382800  1
  O  O12  1  0.43905600  0.48976400  0.86327800  1
  O  O13  1  0.00951400  0.15838400  0.18387900  1
  O  O14  1  0.52858500  0.14614000  0.67582100  1
  O  O15  1  0.49433800  0.84663200  0.31699400  1
  O  O16  1  0.99593000  0.84258100  0.81934000  1
  O  O17  1  0.60350800  0.12004900  0.05142600  1
  O  O18  1  0.10101500  0.12345900  0.54471100  1
  O  O19  1  0.04703200  0.65492000  0.09592000  1
  O  O20  1  0.54577100  0.65708300  0.59616600  1
  O  O21  1  0.44646400  0.34522500  0.40451600  1
  O  O22  1  0.93892600  0.35630400  0.90336700  1
  O  O23  1  0.90228400  0.87477700  0.45406300  1
  O  O24  1  0.39760400  0.87711500  0.95329100  1
