# generated using pymatgen
data_Ca(FeS2)4
_symmetry_space_group_name_H-M   'P 1'
_cell_length_a   6.82516539
_cell_length_b   6.82516539
_cell_length_c   6.82516556
_cell_angle_alpha   60.32610773
_cell_angle_beta   60.32610773
_cell_angle_gamma   60.32611020
_symmetry_Int_Tables_number   1
_chemical_formula_structural   Ca(FeS2)4
_chemical_formula_sum   'Ca1 Fe4 S8'
_cell_volume   226.47337995
_cell_formula_units_Z   1
loop_
 _symmetry_equiv_pos_site_id
 _symmetry_equiv_pos_as_xyz
  1  'x, y, z'
loop_
 _atom_site_type_symbol
 _atom_site_label
 _atom_site_symmetry_multiplicity
 _atom_site_fract_x
 _atom_site_fract_y
 _atom_site_fract_z
 _atom_site_occupancy
  Ca  Ca0  1  0.00000000  0.00000000  0.00000000  1
  Fe  Fe1  1  0.50000000  0.50000000  0.50000000  1
  Fe  Fe2  1  0.50000000  0.50000000  0.00000000  1
  Fe  Fe3  1  0.50000000  0.00000000  0.50000000  1
  Fe  Fe4  1  0.00000000  0.50000000  0.50000000  1
  S  S5  1  0.72870200  0.29927100  0.72870200  1
  S  S6  1  0.72870200  0.72870200  0.29927100  1
  S  S7  1  0.29927100  0.72870200  0.72870200  1
  S  S8  1  0.73475400  0.73475400  0.73475400  1
  S  S9  1  0.26524600  0.26524600  0.26524600  1
  S  S10  1  0.27129800  0.27129800  0.70072900  1
  S  S11  1  0.70072900  0.27129800  0.27129800  1
  S  S12  1  0.27129800  0.70072900  0.27129800  1
