# generated using pymatgen
data_BaCr4O7
_symmetry_space_group_name_H-M   'P 1'
_cell_length_a   6.68976574
_cell_length_b   6.68976574
_cell_length_c   10.55129600
_cell_angle_alpha   90.00000000
_cell_angle_beta   90.00000000
_cell_angle_gamma   119.99999742
_symmetry_Int_Tables_number   1
_chemical_formula_structural   BaCr4O7
_chemical_formula_sum   'Ba2 Cr8 O14'
_cell_volume   408.93875421
_cell_formula_units_Z   2
loop_
 _symmetry_equiv_pos_site_id
 _symmetry_equiv_pos_as_xyz
  1  'x, y, z'
loop_
 _atom_site_type_symbol
 _atom_site_label
 _atom_site_symmetry_multiplicity
 _atom_site_fract_x
 _atom_site_fract_y
 _atom_site_fract_z
 _atom_site_occupancy
  Ba  Ba0  1  0.66666700  0.33333300  0.47571400  1
  Ba  Ba1  1  0.33333300  0.66666700  0.97571400  1
  Cr  Cr2  1  0.82810000  0.17190000  0.19065100  1
  Cr  Cr3  1  0.65620000  0.82810000  0.69065100  1
  Cr  Cr4  1  0.17190000  0.34380000  0.69065100  1
  Cr  Cr5  1  0.82810000  0.65620000  0.19065100  1
  Cr  Cr6  1  0.34380000  0.17190000  0.19065100  1
  Cr  Cr7  1  0.17190000  0.82810000  0.69065100  1
  Cr  Cr8  1  0.00000000  0.00000000  0.44235300  1
  Cr  Cr9  1  0.00000000  0.00000000  0.94235300  1
  O  O10  1  0.85563700  0.14436300  0.01732400  1
  O  O11  1  0.71127300  0.85563700  0.51732400  1
  O  O12  1  0.14436300  0.28872700  0.51732400  1
  O  O13  1  0.85563700  0.71127300  0.01732400  1
  O  O14  1  0.28872700  0.14436300  0.01732400  1
  O  O15  1  0.14436300  0.85563700  0.51732400  1
  O  O16  1  0.00000000  0.00000000  0.74536300  1
  O  O17  1  0.00000000  0.00000000  0.24536300  1
  O  O18  1  0.52733700  0.47266300  0.25556500  1
  O  O19  1  0.05467300  0.52733700  0.75556500  1
  O  O20  1  0.47266300  0.94532700  0.75556500  1
  O  O21  1  0.52733700  0.05467300  0.25556500  1
  O  O22  1  0.47266300  0.52733700  0.75556500  1
  O  O23  1  0.94532700  0.47266300  0.25556500  1
