# generated using pymatgen
data_Ba2Mn3O7
_symmetry_space_group_name_H-M   'P 1'
_cell_length_a   3.79356300
_cell_length_b   3.82280000
_cell_length_c   13.43203500
_cell_angle_alpha   90.00000000
_cell_angle_beta   90.00000000
_cell_angle_gamma   90.00000000
_symmetry_Int_Tables_number   1
_chemical_formula_structural   Ba2Mn3O7
_chemical_formula_sum   'Ba2 Mn3 O7'
_cell_volume   194.79180994
_cell_formula_units_Z   1
loop_
 _symmetry_equiv_pos_site_id
 _symmetry_equiv_pos_as_xyz
  1  'x, y, z'
loop_
 _atom_site_type_symbol
 _atom_site_label
 _atom_site_symmetry_multiplicity
 _atom_site_fract_x
 _atom_site_fract_y
 _atom_site_fract_z
 _atom_site_occupancy
  Ba  Ba0  1  0.49835100  0.50000000  0.30739100  1
  Ba  Ba1  1  0.49835100  0.50000000  0.69260900  1
  Mn  Mn2  1  0.99877000  0.00000000  0.13555300  1
  Mn  Mn3  1  0.99877000  0.00000000  0.86444700  1
  Mn  Mn4  1  0.00143600  0.00000000  0.50000000  1
  O  O5  1  0.03408100  0.50000000  0.50000000  1
  O  O6  1  0.49903600  0.00000000  0.15561200  1
  O  O7  1  0.49903600  0.00000000  0.84438800  1
  O  O8  1  0.99961300  0.50000000  0.15349300  1
  O  O9  1  0.99961300  0.50000000  0.84650700  1
  O  O10  1  0.99482200  0.00000000  0.35927600  1
  O  O11  1  0.99482200  0.00000000  0.64072400  1
