# generated using pymatgen
data_YNi3Se2ClO8
_symmetry_space_group_name_H-M   'P 1'
_cell_length_a   6.41588400
_cell_length_b   7.15707600
_cell_length_c   9.63638400
_cell_angle_alpha   90.00000000
_cell_angle_beta   90.00000000
_cell_angle_gamma   90.00000000
_symmetry_Int_Tables_number   1
_chemical_formula_structural   YNi3Se2ClO8
_chemical_formula_sum   'Y2 Ni6 Se4 Cl2 O16'
_cell_volume   442.49282198
_cell_formula_units_Z   2
loop_
 _symmetry_equiv_pos_site_id
 _symmetry_equiv_pos_as_xyz
  1  'x, y, z'
loop_
 _atom_site_type_symbol
 _atom_site_label
 _atom_site_symmetry_multiplicity
 _atom_site_fract_x
 _atom_site_fract_y
 _atom_site_fract_z
 _atom_site_occupancy
  Y  Y0  1  0.00000000  0.74075900  0.00000000  1
  Y  Y1  1  0.50000000  0.25924100  0.50000000  1
  Ni  Ni2  1  0.25000000  0.00000000  0.75000000  1
  Ni  Ni3  1  0.25000000  0.00000000  0.25000000  1
  Ni  Ni4  1  0.75000000  0.00000000  0.75000000  1
  Ni  Ni5  1  0.50000000  0.79567800  0.50000000  1
  Ni  Ni6  1  0.00000000  0.20432200  0.00000000  1
  Ni  Ni7  1  0.75000000  0.00000000  0.25000000  1
  Se  Se8  1  0.50000000  0.59427700  0.80955900  1
  Se  Se9  1  0.00000000  0.40572300  0.69044100  1
  Se  Se10  1  0.50000000  0.59427700  0.19044100  1
  Se  Se11  1  0.00000000  0.40572300  0.30955900  1
  Cl  Cl12  1  0.00000000  0.85767000  0.50000000  1
  Cl  Cl13  1  0.50000000  0.14233000  0.00000000  1
  O  O14  1  0.00000000  0.00183000  0.86256700  1
  O  O15  1  0.00000000  0.42471900  0.86927900  1
  O  O16  1  0.50000000  0.57528100  0.36927900  1
  O  O17  1  0.28875200  0.74044900  0.83823500  1
  O  O18  1  0.21124800  0.25955100  0.33823500  1
  O  O19  1  0.78875200  0.25955100  0.33823500  1
  O  O20  1  0.50000000  0.99817000  0.63743300  1
  O  O21  1  0.71124800  0.74044900  0.83823500  1
  O  O22  1  0.71124800  0.74044900  0.16176500  1
  O  O23  1  0.78875200  0.25955100  0.66176500  1
  O  O24  1  0.00000000  0.00183000  0.13743300  1
  O  O25  1  0.50000000  0.99817000  0.36256700  1
  O  O26  1  0.21124800  0.25955100  0.66176500  1
  O  O27  1  0.28875200  0.74044900  0.16176500  1
  O  O28  1  0.50000000  0.57528100  0.63072100  1
  O  O29  1  0.00000000  0.42471900  0.13072100  1
