# generated using pymatgen
data_MgCrF4
_symmetry_space_group_name_H-M   'P 1'
_cell_length_a   6.34818896
_cell_length_b   6.34818896
_cell_length_c   6.34818896
_cell_angle_alpha   132.64122664
_cell_angle_beta   131.76618137
_cell_angle_gamma   69.90987802
_symmetry_Int_Tables_number   1
_chemical_formula_structural   MgCrF4
_chemical_formula_sum   'Mg2 Cr2 F8'
_cell_volume   137.63367883
_cell_formula_units_Z   2
loop_
 _symmetry_equiv_pos_site_id
 _symmetry_equiv_pos_as_xyz
  1  'x, y, z'
loop_
 _atom_site_type_symbol
 _atom_site_label
 _atom_site_symmetry_multiplicity
 _atom_site_fract_x
 _atom_site_fract_y
 _atom_site_fract_z
 _atom_site_occupancy
  Mg  Mg0  1  0.75000000  0.75000000  0.00000000  1
  Mg  Mg1  1  0.25000000  0.25000000  0.00000000  1
  Cr  Cr2  1  0.00000000  0.50000000  0.50000000  1
  Cr  Cr3  1  0.50000000  0.00000000  0.50000000  1
  F  F4  1  0.94504300  0.42677100  0.10050000  1
  F  F5  1  0.67372900  0.15545700  0.10050000  1
  F  F6  1  0.05495700  0.57322900  0.89950000  1
  F  F7  1  0.55495700  0.65545700  0.48172800  1
  F  F8  1  0.32627100  0.84454300  0.89950000  1
  F  F9  1  0.82627100  0.92677100  0.48172800  1
  F  F10  1  0.44504300  0.34454300  0.51827200  1
  F  F11  1  0.17372900  0.07322900  0.51827200  1
