# generated using pymatgen
data_VZnF5
_symmetry_space_group_name_H-M   'P 1'
_cell_length_a   5.35904981
_cell_length_b   5.35904981
_cell_length_c   7.63221463
_cell_angle_alpha   68.83098859
_cell_angle_beta   68.83098859
_cell_angle_gamma   71.75949430
_symmetry_Int_Tables_number   1
_chemical_formula_structural   VZnF5
_chemical_formula_sum   'V2 Zn2 F10'
_cell_volume   186.35872684
_cell_formula_units_Z   2
loop_
 _symmetry_equiv_pos_site_id
 _symmetry_equiv_pos_as_xyz
  1  'x, y, z'
loop_
 _atom_site_type_symbol
 _atom_site_label
 _atom_site_symmetry_multiplicity
 _atom_site_fract_x
 _atom_site_fract_y
 _atom_site_fract_z
 _atom_site_occupancy
  V  V0  1  0.00000000  0.00000000  0.00000000  1
  V  V1  1  0.00000000  0.00000000  0.50000000  1
  Zn  Zn2  1  0.52524800  0.47475200  0.75000000  1
  Zn  Zn3  1  0.47475200  0.52524800  0.25000000  1
  F  F4  1  0.11587700  0.88412300  0.25000000  1
  F  F5  1  0.88412300  0.11587700  0.75000000  1
  F  F6  1  0.22031900  0.27806300  0.37190600  1
  F  F7  1  0.72193700  0.77968100  0.12809400  1
  F  F8  1  0.70899300  0.32143700  0.04644100  1
  F  F9  1  0.67856300  0.29100700  0.45355900  1
  F  F10  1  0.29100700  0.67856300  0.95355900  1
  F  F11  1  0.32143700  0.70899300  0.54644100  1
  F  F12  1  0.27806300  0.22031900  0.87190600  1
  F  F13  1  0.77968100  0.72193700  0.62809400  1
