# generated using pymatgen
data_ZnCrF5
_symmetry_space_group_name_H-M   'P 1'
_cell_length_a   5.33485145
_cell_length_b   5.33485145
_cell_length_c   7.48375606
_cell_angle_alpha   69.46050289
_cell_angle_beta   69.46050289
_cell_angle_gamma   73.09426794
_symmetry_Int_Tables_number   1
_chemical_formula_structural   ZnCrF5
_chemical_formula_sum   'Zn2 Cr2 F10'
_cell_volume   183.32629743
_cell_formula_units_Z   2
loop_
 _symmetry_equiv_pos_site_id
 _symmetry_equiv_pos_as_xyz
  1  'x, y, z'
loop_
 _atom_site_type_symbol
 _atom_site_label
 _atom_site_symmetry_multiplicity
 _atom_site_fract_x
 _atom_site_fract_y
 _atom_site_fract_z
 _atom_site_occupancy
  Zn  Zn0  1  0.51752900  0.48247100  0.75000000  1
  Zn  Zn1  1  0.48247100  0.51752900  0.25000000  1
  Cr  Cr2  1  0.00000000  0.00000000  0.00000000  1
  Cr  Cr3  1  0.00000000  0.00000000  0.50000000  1
  F  F4  1  0.09559000  0.90441000  0.25000000  1
  F  F5  1  0.90441000  0.09559000  0.75000000  1
  F  F6  1  0.22030900  0.27975500  0.36924600  1
  F  F7  1  0.72024500  0.77969100  0.13075400  1
  F  F8  1  0.71282400  0.31433200  0.03740200  1
  F  F9  1  0.68566800  0.28717600  0.46259800  1
  F  F10  1  0.28717600  0.68566800  0.96259800  1
  F  F11  1  0.31433200  0.71282400  0.53740200  1
  F  F12  1  0.27975500  0.22030900  0.86924600  1
  F  F13  1  0.77969100  0.72024500  0.63075400  1
