# generated using pymatgen
data_ZnCuF4
_symmetry_space_group_name_H-M   'P 1'
_cell_length_a   5.18277110
_cell_length_b   5.14502466
_cell_length_c   6.24056498
_cell_angle_alpha   114.31051323
_cell_angle_beta   114.77622034
_cell_angle_gamma   90.02123934
_symmetry_Int_Tables_number   1
_chemical_formula_structural   ZnCuF4
_chemical_formula_sum   'Zn2 Cu2 F8'
_cell_volume   134.65314487
_cell_formula_units_Z   2
loop_
 _symmetry_equiv_pos_site_id
 _symmetry_equiv_pos_as_xyz
  1  'x, y, z'
loop_
 _atom_site_type_symbol
 _atom_site_label
 _atom_site_symmetry_multiplicity
 _atom_site_fract_x
 _atom_site_fract_y
 _atom_site_fract_z
 _atom_site_occupancy
  Zn  Zn0  1  0.25523300  0.25046100  0.50133300  1
  Zn  Zn1  1  0.75256200  0.74738200  0.50023000  1
  Cu  Cu2  1  0.99759700  0.50195500  0.99919700  1
  Cu  Cu3  1  0.49836500  0.99876100  0.00116300  1
  F  F4  1  0.94963300  0.44306100  0.26644200  1
  F  F5  1  0.68078400  0.17561800  0.72967000  1
  F  F6  1  0.04818200  0.55890000  0.73220200  1
  F  F7  1  0.18127000  0.05742500  0.73428500  1
  F  F8  1  0.32201300  0.81835500  0.26862700  1
  F  F9  1  0.45301100  0.32091000  0.27305900  1
  F  F10  1  0.82078800  0.94546700  0.26953800  1
  F  F11  1  0.54877000  0.67551300  0.73443600  1
