# generated using pymatgen
data_Zn3Bi2O7
_symmetry_space_group_name_H-M   'P 1'
_cell_length_a   10.41071430
_cell_length_b   10.41071430
_cell_length_c   5.55905100
_cell_angle_alpha   90.00000000
_cell_angle_beta   90.00000000
_cell_angle_gamma   148.41796912
_symmetry_Int_Tables_number   1
_chemical_formula_structural   Zn3Bi2O7
_chemical_formula_sum   'Zn6 Bi4 O14'
_cell_volume   315.54394221
_cell_formula_units_Z   2
loop_
 _symmetry_equiv_pos_site_id
 _symmetry_equiv_pos_as_xyz
  1  'x, y, z'
loop_
 _atom_site_type_symbol
 _atom_site_label
 _atom_site_symmetry_multiplicity
 _atom_site_fract_x
 _atom_site_fract_y
 _atom_site_fract_z
 _atom_site_occupancy
  Zn  Zn0  1  0.73842700  0.73842700  0.25456500  1
  Zn  Zn1  1  0.26157300  0.26157300  0.75456500  1
  Zn  Zn2  1  0.00536300  0.58515100  0.21697700  1
  Zn  Zn3  1  0.99463700  0.41484900  0.71697700  1
  Zn  Zn4  1  0.58515100  0.00536300  0.21697700  1
  Zn  Zn5  1  0.41484900  0.99463700  0.71697700  1
  Bi  Bi6  1  0.15529500  0.36498800  0.24534500  1
  Bi  Bi7  1  0.84470500  0.63501200  0.74534500  1
  Bi  Bi8  1  0.63501200  0.84470500  0.74534500  1
  Bi  Bi9  1  0.36498800  0.15529500  0.24534500  1
  O  O10  1  0.33867600  0.92305200  0.35430800  1
  O  O11  1  0.66132400  0.07694800  0.85430800  1
  O  O12  1  0.07694800  0.66132400  0.85430800  1
  O  O13  1  0.92305200  0.33867600  0.35430800  1
  O  O14  1  0.54797900  0.25586500  0.90815600  1
  O  O15  1  0.45202100  0.74413500  0.40815600  1
  O  O16  1  0.74413500  0.45202100  0.40815600  1
  O  O17  1  0.25586500  0.54797900  0.90815600  1
  O  O18  1  0.98524300  0.83645200  0.09002500  1
  O  O19  1  0.01475700  0.16354800  0.59002500  1
  O  O20  1  0.39915900  0.39915900  0.09581400  1
  O  O21  1  0.60084100  0.60084100  0.59581400  1
  O  O22  1  0.83645200  0.98524300  0.09002500  1
  O  O23  1  0.16354800  0.01475700  0.59002500  1
