# generated using pymatgen
data_Mg2Nb2CuO8
_symmetry_space_group_name_H-M   'P 1'
_cell_length_a   10.02656593
_cell_length_b   10.02656593
_cell_length_c   5.16518261
_cell_angle_alpha   88.35715531
_cell_angle_beta   88.35715531
_cell_angle_gamma   35.26220195
_symmetry_Int_Tables_number   1
_chemical_formula_structural   Mg2Nb2CuO8
_chemical_formula_sum   'Mg4 Nb4 Cu2 O16'
_cell_volume   299.64665557
_cell_formula_units_Z   2
loop_
 _symmetry_equiv_pos_site_id
 _symmetry_equiv_pos_as_xyz
  1  'x, y, z'
loop_
 _atom_site_type_symbol
 _atom_site_label
 _atom_site_symmetry_multiplicity
 _atom_site_fract_x
 _atom_site_fract_y
 _atom_site_fract_z
 _atom_site_occupancy
  Mg  Mg0  1  0.86999100  0.58654600  0.75221900  1
  Mg  Mg1  1  0.41345400  0.13000900  0.74778100  1
  Mg  Mg2  1  0.13000900  0.41345400  0.24778100  1
  Mg  Mg3  1  0.58654600  0.86999100  0.25221900  1
  Nb  Nb4  1  0.04906300  0.71977300  0.73553800  1
  Nb  Nb5  1  0.28022700  0.95093700  0.76446200  1
  Nb  Nb6  1  0.95093700  0.28022700  0.26446200  1
  Nb  Nb7  1  0.71977300  0.04906300  0.23553800  1
  Cu  Cu8  1  0.65125600  0.34874400  0.75000000  1
  Cu  Cu9  1  0.34874400  0.65125600  0.25000000  1
  O  O10  1  0.03945100  0.81632800  0.06885500  1
  O  O11  1  0.18367200  0.96054900  0.43114500  1
  O  O12  1  0.96054900  0.18367200  0.93114500  1
  O  O13  1  0.81632800  0.03945100  0.56885500  1
  O  O14  1  0.30648100  0.58071300  0.56102500  1
  O  O15  1  0.41928700  0.69351900  0.93897500  1
  O  O16  1  0.69351900  0.41928700  0.43897500  1
  O  O17  1  0.58071300  0.30648100  0.06102500  1
  O  O18  1  0.91454100  0.71025000  0.45339100  1
  O  O19  1  0.28975000  0.08545900  0.04660900  1
  O  O20  1  0.45209600  0.16535300  0.37755900  1
  O  O21  1  0.83464700  0.54790400  0.12244100  1
  O  O22  1  0.54790400  0.83464700  0.62244100  1
  O  O23  1  0.16535300  0.45209600  0.87755900  1
  O  O24  1  0.71025000  0.91454100  0.95339100  1
  O  O25  1  0.08545900  0.28975000  0.54660900  1
