# generated using pymatgen
data_MgVF5
_symmetry_space_group_name_H-M   'P 1'
_cell_length_a   5.32449273
_cell_length_b   5.32449273
_cell_length_c   7.56664405
_cell_angle_alpha   68.86254623
_cell_angle_beta   68.86254623
_cell_angle_gamma   71.54418311
_symmetry_Int_Tables_number   1
_chemical_formula_structural   MgVF5
_chemical_formula_sum   'Mg2 V2 F10'
_cell_volume   182.28054310
_cell_formula_units_Z   2
loop_
 _symmetry_equiv_pos_site_id
 _symmetry_equiv_pos_as_xyz
  1  'x, y, z'
loop_
 _atom_site_type_symbol
 _atom_site_label
 _atom_site_symmetry_multiplicity
 _atom_site_fract_x
 _atom_site_fract_y
 _atom_site_fract_z
 _atom_site_occupancy
  Mg  Mg0  1  0.52784400  0.47215600  0.25000000  1
  Mg  Mg1  1  0.47215600  0.52784400  0.75000000  1
  V  V2  1  0.00000000  0.00000000  0.50000000  1
  V  V3  1  0.00000000  0.00000000  0.00000000  1
  F  F4  1  0.12761900  0.87238100  0.75000000  1
  F  F5  1  0.87238100  0.12761900  0.25000000  1
  F  F6  1  0.22244800  0.27475600  0.87088000  1
  F  F7  1  0.72524400  0.77755200  0.62912000  1
  F  F8  1  0.71205700  0.32112900  0.55307100  1
  F  F9  1  0.67887100  0.28794300  0.94692900  1
  F  F10  1  0.28794300  0.67887100  0.44692900  1
  F  F11  1  0.32112900  0.71205700  0.05307100  1
  F  F12  1  0.27475600  0.22244800  0.37088000  1
  F  F13  1  0.77755200  0.72524400  0.12912000  1
