# generated using pymatgen
data_CaBiF5
_symmetry_space_group_name_H-M   'P 1'
_cell_length_a   11.07812300
_cell_length_b   6.02488000
_cell_length_c   8.35788056
_cell_angle_alpha   70.16342043
_cell_angle_beta   90.00000000
_cell_angle_gamma   90.00000000
_symmetry_Int_Tables_number   1
_chemical_formula_structural   CaBiF5
_chemical_formula_sum   'Ca4 Bi4 F20'
_cell_volume   524.74150191
_cell_formula_units_Z   4
loop_
 _symmetry_equiv_pos_site_id
 _symmetry_equiv_pos_as_xyz
  1  'x, y, z'
loop_
 _atom_site_type_symbol
 _atom_site_label
 _atom_site_symmetry_multiplicity
 _atom_site_fract_x
 _atom_site_fract_y
 _atom_site_fract_z
 _atom_site_occupancy
  Ca  Ca0  1  0.01167500  0.52291500  0.74853800  1
  Ca  Ca1  1  0.51167500  0.47708500  0.75146200  1
  Ca  Ca2  1  0.98832500  0.47708500  0.25146200  1
  Ca  Ca3  1  0.48832500  0.52291500  0.24853800  1
  Bi  Bi4  1  0.75337000  0.10206400  0.60228700  1
  Bi  Bi5  1  0.25337000  0.89793600  0.89771300  1
  Bi  Bi6  1  0.24663000  0.89793600  0.39771300  1
  Bi  Bi7  1  0.74663000  0.10206400  0.10228700  1
  F  F8  1  0.89252300  0.39956300  0.56694400  1
  F  F9  1  0.39252300  0.60043700  0.93305600  1
  F  F10  1  0.10747700  0.60043700  0.43305600  1
  F  F11  1  0.60747700  0.39956300  0.06694400  1
  F  F12  1  0.60337100  0.37299600  0.48949700  1
  F  F13  1  0.10337100  0.62700400  0.01050300  1
  F  F14  1  0.39662900  0.62700400  0.51050300  1
  F  F15  1  0.89662900  0.37299600  0.98949700  1
  F  F16  1  0.41075100  0.13978200  0.80291100  1
  F  F17  1  0.91075100  0.86021800  0.69708900  1
  F  F18  1  0.58924900  0.86021800  0.19708900  1
  F  F19  1  0.08924900  0.13978200  0.30291100  1
  F  F20  1  0.12858500  0.20688300  0.85232800  1
  F  F21  1  0.62858500  0.79311700  0.64767200  1
  F  F22  1  0.87141500  0.79311700  0.14767200  1
  F  F23  1  0.37141500  0.20688300  0.35232800  1
  F  F24  1  0.67858100  0.19978000  0.82759100  1
  F  F25  1  0.17858100  0.80022000  0.67240900  1
  F  F26  1  0.32141900  0.80022000  0.17240900  1
  F  F27  1  0.82141900  0.19978000  0.32759100  1
