# generated using pymatgen
data_YFe3Se2ClO8
_symmetry_space_group_name_H-M   'P 1'
_cell_length_a   6.51620300
_cell_length_b   7.25913000
_cell_length_c   9.67287100
_cell_angle_alpha   90.00000000
_cell_angle_beta   90.00000000
_cell_angle_gamma   90.00000000
_symmetry_Int_Tables_number   1
_chemical_formula_structural   YFe3Se2ClO8
_chemical_formula_sum   'Y2 Fe6 Se4 Cl2 O16'
_cell_volume   457.54580243
_cell_formula_units_Z   2
loop_
 _symmetry_equiv_pos_site_id
 _symmetry_equiv_pos_as_xyz
  1  'x, y, z'
loop_
 _atom_site_type_symbol
 _atom_site_label
 _atom_site_symmetry_multiplicity
 _atom_site_fract_x
 _atom_site_fract_y
 _atom_site_fract_z
 _atom_site_occupancy
  Y  Y0  1  0.00000000  0.22763200  0.00000000  1
  Y  Y1  1  0.50000000  0.77236800  0.50000000  1
  Fe  Fe2  1  0.25000000  0.50000000  0.75000000  1
  Fe  Fe3  1  0.25000000  0.50000000  0.25000000  1
  Fe  Fe4  1  0.75000000  0.50000000  0.75000000  1
  Fe  Fe5  1  0.50000000  0.29853400  0.50000000  1
  Fe  Fe6  1  0.00000000  0.70146600  0.00000000  1
  Fe  Fe7  1  0.75000000  0.50000000  0.25000000  1
  Se  Se8  1  0.50000000  0.08553000  0.81294300  1
  Se  Se9  1  0.00000000  0.91447000  0.68705700  1
  Se  Se10  1  0.50000000  0.08553000  0.18705700  1
  Se  Se11  1  0.00000000  0.91447000  0.31294300  1
  Cl  Cl12  1  0.00000000  0.37196400  0.50000000  1
  Cl  Cl13  1  0.50000000  0.62803600  0.00000000  1
  O  O14  1  0.00000000  0.49114700  0.86346100  1
  O  O15  1  0.00000000  0.92447900  0.86745100  1
  O  O16  1  0.50000000  0.07552100  0.36745100  1
  O  O17  1  0.29197400  0.22863300  0.84131600  1
  O  O18  1  0.20802600  0.77136700  0.34131600  1
  O  O19  1  0.79197400  0.77136700  0.34131600  1
  O  O20  1  0.50000000  0.50885300  0.63653900  1
  O  O21  1  0.70802600  0.22863300  0.84131600  1
  O  O22  1  0.70802600  0.22863300  0.15868400  1
  O  O23  1  0.79197400  0.77136700  0.65868400  1
  O  O24  1  0.00000000  0.49114700  0.13653900  1
  O  O25  1  0.50000000  0.50885300  0.36346100  1
  O  O26  1  0.20802600  0.77136700  0.65868400  1
  O  O27  1  0.29197400  0.22863300  0.15868400  1
  O  O28  1  0.50000000  0.07552100  0.63254900  1
  O  O29  1  0.00000000  0.92447900  0.13254900  1
