# generated using pymatgen
data_Zn3Sb2O7
_symmetry_space_group_name_H-M   'P 1'
_cell_length_a   10.10579769
_cell_length_b   10.10579769
_cell_length_c   5.45722300
_cell_angle_alpha   90.00000000
_cell_angle_beta   90.00000000
_cell_angle_gamma   148.30342793
_symmetry_Int_Tables_number   1
_chemical_formula_structural   Zn3Sb2O7
_chemical_formula_sum   'Zn6 Sb4 O14'
_cell_volume   292.83306813
_cell_formula_units_Z   2
loop_
 _symmetry_equiv_pos_site_id
 _symmetry_equiv_pos_as_xyz
  1  'x, y, z'
loop_
 _atom_site_type_symbol
 _atom_site_label
 _atom_site_symmetry_multiplicity
 _atom_site_fract_x
 _atom_site_fract_y
 _atom_site_fract_z
 _atom_site_occupancy
  Zn  Zn0  1  0.74373600  0.74373600  0.25591900  1
  Zn  Zn1  1  0.25626400  0.25626400  0.75591900  1
  Zn  Zn2  1  0.99401300  0.58140000  0.21268300  1
  Zn  Zn3  1  0.00598700  0.41860000  0.71268300  1
  Zn  Zn4  1  0.58140000  0.99401300  0.21268300  1
  Zn  Zn5  1  0.41860000  0.00598700  0.71268300  1
  Sb  Sb6  1  0.15379100  0.36290900  0.24682500  1
  Sb  Sb7  1  0.84620900  0.63709100  0.74682500  1
  Sb  Sb8  1  0.63709100  0.84620900  0.74682500  1
  Sb  Sb9  1  0.36290900  0.15379100  0.24682500  1
  O  O10  1  0.34148400  0.93122100  0.34034500  1
  O  O11  1  0.65851600  0.06877900  0.84034500  1
  O  O12  1  0.06877900  0.65851600  0.84034500  1
  O  O13  1  0.93122100  0.34148400  0.34034500  1
  O  O14  1  0.55309500  0.26893600  0.92382700  1
  O  O15  1  0.44690500  0.73106400  0.42382700  1
  O  O16  1  0.73106400  0.44690500  0.42382700  1
  O  O17  1  0.26893600  0.55309500  0.92382700  1
  O  O18  1  0.00035900  0.84499000  0.08303800  1
  O  O19  1  0.99964100  0.15501000  0.58303800  1
  O  O20  1  0.39259700  0.39259700  0.11064500  1
  O  O21  1  0.60740300  0.60740300  0.61064500  1
  O  O22  1  0.84499000  0.00035900  0.08303800  1
  O  O23  1  0.15501000  0.99964100  0.58303800  1
