# generated using pymatgen
data_MgCrF5
_symmetry_space_group_name_H-M   'P 1'
_cell_length_a   5.28548843
_cell_length_b   5.28548843
_cell_length_c   7.39606253
_cell_angle_alpha   69.43866262
_cell_angle_beta   69.43866262
_cell_angle_gamma   72.50827223
_symmetry_Int_Tables_number   1
_chemical_formula_structural   MgCrF5
_chemical_formula_sum   'Mg2 Cr2 F10'
_cell_volume   177.39334761
_cell_formula_units_Z   2
loop_
 _symmetry_equiv_pos_site_id
 _symmetry_equiv_pos_as_xyz
  1  'x, y, z'
loop_
 _atom_site_type_symbol
 _atom_site_label
 _atom_site_symmetry_multiplicity
 _atom_site_fract_x
 _atom_site_fract_y
 _atom_site_fract_z
 _atom_site_occupancy
  Mg  Mg0  1  0.52382500  0.47617500  0.75000000  1
  Mg  Mg1  1  0.47617500  0.52382500  0.25000000  1
  Cr  Cr2  1  0.00000000  0.00000000  0.00000000  1
  Cr  Cr3  1  0.00000000  0.00000000  0.50000000  1
  F  F4  1  0.11119600  0.88880400  0.25000000  1
  F  F5  1  0.88880400  0.11119600  0.75000000  1
  F  F6  1  0.22006700  0.27762000  0.37025100  1
  F  F7  1  0.72238000  0.77993300  0.12974900  1
  F  F8  1  0.70842800  0.31543200  0.04556800  1
  F  F9  1  0.68456800  0.29157200  0.45443200  1
  F  F10  1  0.29157200  0.68456800  0.95443200  1
  F  F11  1  0.31543200  0.70842800  0.54556800  1
  F  F12  1  0.27762000  0.22006700  0.87025100  1
  F  F13  1  0.77993300  0.72238000  0.62974900  1
