# generated using pymatgen
data_MgSbF5
_symmetry_space_group_name_H-M   'P 1'
_cell_length_a   10.15096000
_cell_length_b   5.67715000
_cell_length_c   8.06366346
_cell_angle_alpha   59.97877009
_cell_angle_beta   90.00000000
_cell_angle_gamma   90.00000000
_symmetry_Int_Tables_number   1
_chemical_formula_structural   MgSbF5
_chemical_formula_sum   'Mg4 Sb4 F20'
_cell_volume   402.35329686
_cell_formula_units_Z   4
loop_
 _symmetry_equiv_pos_site_id
 _symmetry_equiv_pos_as_xyz
  1  'x, y, z'
loop_
 _atom_site_type_symbol
 _atom_site_label
 _atom_site_symmetry_multiplicity
 _atom_site_fract_x
 _atom_site_fract_y
 _atom_site_fract_z
 _atom_site_occupancy
  Mg  Mg0  1  0.02605600  0.47326200  0.81086200  1
  Mg  Mg1  1  0.52605600  0.52673800  0.68913800  1
  Mg  Mg2  1  0.97394400  0.52673800  0.18913800  1
  Mg  Mg3  1  0.47394400  0.47326200  0.31086200  1
  Sb  Sb4  1  0.77695200  0.06155800  0.66897700  1
  Sb  Sb5  1  0.27695200  0.93844200  0.83102300  1
  Sb  Sb6  1  0.22304800  0.93844200  0.33102300  1
  Sb  Sb7  1  0.72304800  0.06155800  0.16897700  1
  F  F8  1  0.93121100  0.30178000  0.68479900  1
  F  F9  1  0.43121100  0.69822000  0.81520100  1
  F  F10  1  0.06878900  0.69822000  0.31520100  1
  F  F11  1  0.56878900  0.30178000  0.18479900  1
  F  F12  1  0.60273800  0.36452200  0.53315300  1
  F  F13  1  0.10273800  0.63547800  0.96684700  1
  F  F14  1  0.39726200  0.63547800  0.46684700  1
  F  F15  1  0.89726200  0.36452200  0.03315300  1
  F  F16  1  0.42189200  0.18302800  0.83626200  1
  F  F17  1  0.92189200  0.81697200  0.66373800  1
  F  F18  1  0.57810800  0.81697200  0.16373800  1
  F  F19  1  0.07810800  0.18302800  0.33626200  1
  F  F20  1  0.15395100  0.16204400  0.93707500  1
  F  F21  1  0.65395100  0.83795600  0.56292500  1
  F  F22  1  0.84604900  0.83795600  0.06292500  1
  F  F23  1  0.34604900  0.16204400  0.43707500  1
  F  F24  1  0.67500700  0.30262500  0.88690700  1
  F  F25  1  0.17500700  0.69737500  0.61309300  1
  F  F26  1  0.32499300  0.69737500  0.11309300  1
  F  F27  1  0.82499300  0.30262500  0.38690700  1
