# generated using pymatgen
data_CaFeO2
_symmetry_space_group_name_H-M   'P 1'
_cell_length_a   3.13458600
_cell_length_b   8.88264753
_cell_length_c   9.26747312
_cell_angle_alpha   90.80059280
_cell_angle_beta   98.65305982
_cell_angle_gamma   99.26434817
_symmetry_Int_Tables_number   1
_chemical_formula_structural   CaFeO2
_chemical_formula_sum   'Ca4 Fe4 O8'
_cell_volume   251.58056449
_cell_formula_units_Z   4
loop_
 _symmetry_equiv_pos_site_id
 _symmetry_equiv_pos_as_xyz
  1  'x, y, z'
loop_
 _atom_site_type_symbol
 _atom_site_label
 _atom_site_symmetry_multiplicity
 _atom_site_fract_x
 _atom_site_fract_y
 _atom_site_fract_z
 _atom_site_occupancy
  Ca  Ca0  1  0.59485600  0.23365200  0.93125200  1
  Ca  Ca1  1  0.40514400  0.76634800  0.06874800  1
  Ca  Ca2  1  0.22380200  0.12326300  0.31057600  1
  Ca  Ca3  1  0.77619800  0.87673700  0.68942400  1
  Fe  Fe4  1  0.17054200  0.54996600  0.79626800  1
  Fe  Fe5  1  0.40991600  0.20873300  0.62478100  1
  Fe  Fe6  1  0.59008400  0.79126700  0.37521900  1
  Fe  Fe7  1  0.82945800  0.45003400  0.20373200  1
  O  O8  1  0.41215100  0.58771500  0.24314200  1
  O  O9  1  0.17568000  0.81830600  0.52337100  1
  O  O10  1  0.82432000  0.18169400  0.47662900  1
  O  O11  1  0.58784900  0.41228500  0.75685800  1
  O  O12  1  0.78708700  0.70546500  0.87541800  1
  O  O13  1  0.97315100  0.11537500  0.78261100  1
  O  O14  1  0.21291300  0.29453500  0.12458200  1
  O  O15  1  0.02684900  0.88462500  0.21738900  1
