# generated using pymatgen
data_Y2Cu3(WO4)6
_symmetry_space_group_name_H-M   'P 1'
_cell_length_a   6.02397300
_cell_length_b   9.91546200
_cell_length_c   17.56977840
_cell_angle_alpha   59.48751549
_cell_angle_beta   90.00000000
_cell_angle_gamma   90.00000000
_symmetry_Int_Tables_number   1
_chemical_formula_structural   Y2Cu3(WO4)6
_chemical_formula_sum   'Y4 Cu6 W12 O48'
_cell_volume   904.12168924
_cell_formula_units_Z   2
loop_
 _symmetry_equiv_pos_site_id
 _symmetry_equiv_pos_as_xyz
  1  'x, y, z'
loop_
 _atom_site_type_symbol
 _atom_site_label
 _atom_site_symmetry_multiplicity
 _atom_site_fract_x
 _atom_site_fract_y
 _atom_site_fract_z
 _atom_site_occupancy
  Y  Y0  1  0.33442500  0.16755800  0.58532000  1
  Y  Y1  1  0.33442500  0.83244200  0.91468000  1
  Y  Y2  1  0.66557500  0.83244200  0.41468000  1
  Y  Y3  1  0.66557500  0.16755800  0.08532000  1
  Cu  Cu4  1  0.71304100  0.33372300  0.41818800  1
  Cu  Cu5  1  0.71304100  0.66627700  0.08181200  1
  Cu  Cu6  1  0.73635200  0.00000000  0.75000000  1
  Cu  Cu7  1  0.28695900  0.66627700  0.58181200  1
  Cu  Cu8  1  0.26364800  0.00000000  0.25000000  1
  Cu  Cu9  1  0.28695900  0.33372300  0.91818800  1
  W  W10  1  0.83391700  0.91685600  0.58614500  1
  W  W11  1  0.83580400  0.26058700  0.25217000  1
  W  W12  1  0.82422000  0.58394000  0.91505500  1
  W  W13  1  0.82422000  0.41606000  0.58494500  1
  W  W14  1  0.83580400  0.73941300  0.24783000  1
  W  W15  1  0.83391700  0.08314400  0.91385500  1
  W  W16  1  0.16608300  0.08314400  0.41385500  1
  W  W17  1  0.17578000  0.41606000  0.08494500  1
  W  W18  1  0.16419600  0.73941300  0.74783000  1
  W  W19  1  0.17578000  0.58394000  0.41505500  1
  W  W20  1  0.16608300  0.91685600  0.08614500  1
  W  W21  1  0.16419600  0.26058700  0.75217000  1
  O  O22  1  0.65300300  0.33271600  0.52718200  1
  O  O23  1  0.67079700  0.67314900  0.18694800  1
  O  O24  1  0.65617900  0.99730800  0.86026500  1
  O  O25  1  0.65617900  0.00269200  0.63973500  1
  O  O26  1  0.67079700  0.32685100  0.31305200  1
  O  O27  1  0.65300300  0.66728400  0.97281800  1
  O  O28  1  0.34699700  0.66728400  0.47281800  1
  O  O29  1  0.34382100  0.00269200  0.13973500  1
  O  O30  1  0.32920300  0.32685100  0.81305200  1
  O  O31  1  0.34382100  0.99730800  0.36026500  1
  O  O32  1  0.34699700  0.33271600  0.02718200  1
  O  O33  1  0.32920300  0.67314900  0.68694800  1
  O  O34  1  0.08554900  0.87349300  0.51822100  1
  O  O35  1  0.09470800  0.20789400  0.18583800  1
  O  O36  1  0.09137400  0.54135900  0.85410300  1
  O  O37  1  0.09137400  0.45864100  0.64589700  1
  O  O38  1  0.09470800  0.79210600  0.31416200  1
  O  O39  1  0.08554900  0.12650700  0.98177900  1
  O  O40  1  0.91445100  0.12650700  0.48177900  1
  O  O41  1  0.90862600  0.45864100  0.14589700  1
  O  O42  1  0.90529200  0.79210600  0.81416200  1
  O  O43  1  0.90862600  0.54135900  0.35410300  1
  O  O44  1  0.91445100  0.87349300  0.01822100  1
  O  O45  1  0.90529200  0.20789400  0.68583800  1
  O  O46  1  0.39263300  0.52191900  0.37262900  1
  O  O47  1  0.37778900  0.85848900  0.03402700  1
  O  O48  1  0.37244300  0.18658500  0.70538900  1
  O  O49  1  0.37778900  0.14151100  0.46597300  1
  O  O50  1  0.39263300  0.47808100  0.12737100  1
  O  O51  1  0.37244300  0.81341500  0.79461100  1
  O  O52  1  0.60736700  0.47808100  0.62737100  1
  O  O53  1  0.62755700  0.81341500  0.29461100  1
  O  O54  1  0.62221100  0.14151100  0.96597300  1
  O  O55  1  0.62221100  0.85848900  0.53402700  1
  O  O56  1  0.62755700  0.18658500  0.20538900  1
  O  O57  1  0.60736700  0.52191900  0.87262900  1
  O  O58  1  0.11371900  0.38003200  0.51704400  1
  O  O59  1  0.11056600  0.72009800  0.18443900  1
  O  O60  1  0.11237300  0.04317200  0.85233900  1
  O  O61  1  0.88628100  0.61996800  0.48295600  1
  O  O62  1  0.88762700  0.95682800  0.14766100  1
  O  O63  1  0.88943400  0.27990200  0.81556100  1
  O  O64  1  0.11237300  0.95682800  0.64766100  1
  O  O65  1  0.11056600  0.27990200  0.31556100  1
  O  O66  1  0.11371900  0.61996800  0.98295600  1
  O  O67  1  0.88762700  0.04317200  0.35233900  1
  O  O68  1  0.88628100  0.38003200  0.01704400  1
  O  O69  1  0.88943400  0.72009800  0.68443900  1
