# generated using pymatgen
data_Zn2Fe3O8
_symmetry_space_group_name_H-M   'P 1'
_cell_length_a   5.93700841
_cell_length_b   5.93700841
_cell_length_c   5.03128945
_cell_angle_alpha   71.82585085
_cell_angle_beta   71.82585085
_cell_angle_gamma   59.67424607
_symmetry_Int_Tables_number   1
_chemical_formula_structural   Zn2Fe3O8
_chemical_formula_sum   'Zn2 Fe3 O8'
_cell_volume   142.83906170
_cell_formula_units_Z   1
loop_
 _symmetry_equiv_pos_site_id
 _symmetry_equiv_pos_as_xyz
  1  'x, y, z'
loop_
 _atom_site_type_symbol
 _atom_site_label
 _atom_site_symmetry_multiplicity
 _atom_site_fract_x
 _atom_site_fract_y
 _atom_site_fract_z
 _atom_site_occupancy
  Zn  Zn0  1  0.71693700  0.71693700  0.34672600  1
  Zn  Zn1  1  0.28306300  0.28306300  0.65327400  1
  Fe  Fe2  1  0.00000000  0.00000000  0.50000000  1
  Fe  Fe3  1  0.73747300  0.26252700  0.00000000  1
  Fe  Fe4  1  0.26252700  0.73747300  0.00000000  1
  O  O5  1  0.39004000  0.39004000  0.92396900  1
  O  O6  1  0.60996000  0.60996000  0.07603100  1
  O  O7  1  0.89084300  0.89084300  0.92268500  1
  O  O8  1  0.10915700  0.10915700  0.07731500  1
  O  O9  1  0.34601600  0.88755800  0.60035200  1
  O  O10  1  0.88755800  0.34601600  0.60035200  1
  O  O11  1  0.11244200  0.65398400  0.39964800  1
  O  O12  1  0.65398400  0.11244200  0.39964800  1
