# generated using pymatgen
data_CrF5
_symmetry_space_group_name_H-M   'P 1'
_cell_length_a   5.36919364
_cell_length_b   5.36919364
_cell_length_c   7.47048806
_cell_angle_alpha   69.84691000
_cell_angle_beta   69.84691000
_cell_angle_gamma   70.44172344
_symmetry_Int_Tables_number   1
_chemical_formula_structural   CrF5
_chemical_formula_sum   'Cr2 F10'
_cell_volume   184.00510120
_cell_formula_units_Z   2
loop_
 _symmetry_equiv_pos_site_id
 _symmetry_equiv_pos_as_xyz
  1  'x, y, z'
loop_
 _atom_site_type_symbol
 _atom_site_label
 _atom_site_symmetry_multiplicity
 _atom_site_fract_x
 _atom_site_fract_y
 _atom_site_fract_z
 _atom_site_occupancy
  Cr  Cr0  1  0.00000000  0.00000000  0.50000000  1
  Cr  Cr1  1  0.00000000  0.00000000  0.00000000  1
  F  F2  1  0.07626400  0.92373600  0.75000000  1
  F  F3  1  0.92373600  0.07626400  0.25000000  1
  F  F4  1  0.20181600  0.24481000  0.88783500  1
  F  F5  1  0.75519000  0.79818400  0.61216500  1
  F  F6  1  0.72690400  0.28692100  0.55046500  1
  F  F7  1  0.71307900  0.27309600  0.94953500  1
  F  F8  1  0.27309700  0.71307900  0.44953500  1
  F  F9  1  0.28692100  0.72690300  0.05046500  1
  F  F10  1  0.24481000  0.20181600  0.38783500  1
  F  F11  1  0.79818400  0.75519000  0.11216500  1
