# generated using pymatgen
data_ZnCoO2
_symmetry_space_group_name_H-M   'P 1'
_cell_length_a   3.05070800
_cell_length_b   8.01666502
_cell_length_c   8.21941825
_cell_angle_alpha   94.32068966
_cell_angle_beta   96.32998063
_cell_angle_gamma   91.60267102
_symmetry_Int_Tables_number   1
_chemical_formula_structural   ZnCoO2
_chemical_formula_sum   'Zn4 Co4 O8'
_cell_volume   199.09140582
_cell_formula_units_Z   4
loop_
 _symmetry_equiv_pos_site_id
 _symmetry_equiv_pos_as_xyz
  1  'x, y, z'
loop_
 _atom_site_type_symbol
 _atom_site_label
 _atom_site_symmetry_multiplicity
 _atom_site_fract_x
 _atom_site_fract_y
 _atom_site_fract_z
 _atom_site_occupancy
  Zn  Zn0  1  0.85612300  0.58615100  0.23947400  1
  Zn  Zn1  1  0.14387700  0.41384900  0.76052600  1
  Zn  Zn2  1  0.26967700  0.24597600  0.38893500  1
  Zn  Zn3  1  0.73032300  0.75402400  0.61106500  1
  Co  Co4  1  0.49792200  0.75349400  0.93160800  1
  Co  Co5  1  0.20918300  0.91934900  0.28079600  1
  Co  Co6  1  0.79081700  0.08065100  0.71920400  1
  Co  Co7  1  0.50207800  0.24650600  0.06839200  1
  O  O8  1  0.96203800  0.24912400  0.91999600  1
  O  O9  1  0.30203100  0.89836000  0.74520400  1
  O  O10  1  0.69796900  0.10164000  0.25479600  1
  O  O11  1  0.03796200  0.75087600  0.08000400  1
  O  O12  1  0.65624900  0.57326200  0.75346500  1
  O  O13  1  0.73064200  0.78636300  0.38761100  1
  O  O14  1  0.34375100  0.42673800  0.24653500  1
  O  O15  1  0.26935800  0.21363700  0.61238900  1
