# generated using pymatgen
data_MnZnO2
_symmetry_space_group_name_H-M   'P 1'
_cell_length_a   8.08043579
_cell_length_b   8.08043579
_cell_length_c   9.83384694
_cell_angle_alpha   54.54836904
_cell_angle_beta   54.54836904
_cell_angle_gamma   21.34276184
_symmetry_Int_Tables_number   1
_chemical_formula_structural   MnZnO2
_chemical_formula_sum   'Mn4 Zn4 O8'
_cell_volume   188.63978323
_cell_formula_units_Z   4
loop_
 _symmetry_equiv_pos_site_id
 _symmetry_equiv_pos_as_xyz
  1  'x, y, z'
loop_
 _atom_site_type_symbol
 _atom_site_label
 _atom_site_symmetry_multiplicity
 _atom_site_fract_x
 _atom_site_fract_y
 _atom_site_fract_z
 _atom_site_occupancy
  Mn  Mn0  1  0.37048800  0.37048800  0.95257300  1
  Mn  Mn1  1  0.84268900  0.84268900  0.32410000  1
  Mn  Mn2  1  0.15731100  0.15731100  0.67590000  1
  Mn  Mn3  1  0.62951200  0.62951200  0.04742700  1
  Zn  Zn4  1  0.68507700  0.68507700  0.29119100  1
  Zn  Zn5  1  0.31492300  0.31492300  0.70880900  1
  Zn  Zn6  1  0.98732200  0.98732200  0.38656300  1
  Zn  Zn7  1  0.01267800  0.01267800  0.61343700  1
  O  O8  1  0.14638900  0.14638900  0.89816600  1
  O  O9  1  0.53584600  0.53584600  0.72905100  1
  O  O10  1  0.46415400  0.46415400  0.27094900  1
  O  O11  1  0.85361100  0.85361100  0.10183400  1
  O  O12  1  0.84661100  0.84661100  0.82746400  1
  O  O13  1  0.20887000  0.20887000  0.41273600  1
  O  O14  1  0.15338900  0.15338900  0.17253600  1
  O  O15  1  0.79113000  0.79113000  0.58726400  1
