# generated using pymatgen
data_Mg(WO2)4
_symmetry_space_group_name_H-M   'P 1'
_cell_length_a   3.24706400
_cell_length_b   7.74733214
_cell_length_c   7.88087659
_cell_angle_alpha   96.01318977
_cell_angle_beta   101.59495854
_cell_angle_gamma   101.85411701
_symmetry_Int_Tables_number   1
_chemical_formula_structural   Mg(WO2)4
_chemical_formula_sum   'Mg1 W4 O8'
_cell_volume   187.84626528
_cell_formula_units_Z   1
loop_
 _symmetry_equiv_pos_site_id
 _symmetry_equiv_pos_as_xyz
  1  'x, y, z'
loop_
 _atom_site_type_symbol
 _atom_site_label
 _atom_site_symmetry_multiplicity
 _atom_site_fract_x
 _atom_site_fract_y
 _atom_site_fract_z
 _atom_site_occupancy
  Mg  Mg0  1  0.46220700  0.14243300  0.78755300  1
  W  W1  1  0.80213600  0.16664200  0.43089400  1
  W  W2  1  0.66214600  0.50917200  0.79826700  1
  W  W3  1  0.32167600  0.48179300  0.16572500  1
  W  W4  1  0.14888400  0.80387200  0.51046100  1
  O  O5  1  0.51657600  0.66060300  0.38403600  1
  O  O6  1  0.77564900  0.32656500  0.24341700  1
  O  O7  1  0.18971300  0.64918400  0.71645600  1
  O  O8  1  0.45569500  0.29351600  0.57688700  1
  O  O9  1  0.16094000  0.01192800  0.33799100  1
  O  O10  1  0.11862500  0.32090500  0.90290700  1
  O  O11  1  0.81266700  0.99822800  0.64351600  1
  O  O12  1  0.84495700  0.61126600  0.07124300  1
