# generated using pymatgen
data_Ba4CaCr4Cu2F28
_symmetry_space_group_name_H-M   'P 1'
_cell_length_a   5.40375115
_cell_length_b   7.57836648
_cell_length_c   15.03294100
_cell_angle_alpha   91.27508768
_cell_angle_beta   90.02560940
_cell_angle_gamma   110.89289259
_symmetry_Int_Tables_number   1
_chemical_formula_structural   Ba4CaCr4Cu2F28
_chemical_formula_sum   'Ba4 Ca1 Cr4 Cu2 F28'
_cell_volume   574.97950279
_cell_formula_units_Z   1
loop_
 _symmetry_equiv_pos_site_id
 _symmetry_equiv_pos_as_xyz
  1  'x, y, z'
loop_
 _atom_site_type_symbol
 _atom_site_label
 _atom_site_symmetry_multiplicity
 _atom_site_fract_x
 _atom_site_fract_y
 _atom_site_fract_z
 _atom_site_occupancy
  Ba  Ba0  1  0.11738700  0.37438200  0.62206400  1
  Ba  Ba1  1  0.25678300  0.36156000  0.12625500  1
  Ba  Ba2  1  0.89424600  0.63629900  0.37340300  1
  Ba  Ba3  1  0.74286800  0.62712300  0.87809300  1
  Ca  Ca4  1  0.42363600  0.00160900  0.74920800  1
  Cr  Cr5  1  0.14062500  0.23945800  0.37227400  1
  Cr  Cr6  1  0.10130300  0.24363100  0.87419400  1
  Cr  Cr7  1  0.85361200  0.75572400  0.62502900  1
  Cr  Cr8  1  0.89897700  0.75947800  0.12756600  1
  Cu  Cu9  1  0.50052100  0.00279600  0.00102600  1
  Cu  Cu10  1  0.50078200  0.99928200  0.49764400  1
  F  F11  1  0.84345500  0.50514700  0.09554200  1
  F  F12  1  0.15875700  0.50602200  0.89887000  1
  F  F13  1  0.08505700  0.01274300  0.65345600  1
  F  F14  1  0.07119900  0.98621100  0.84528400  1
  F  F15  1  0.29571400  0.17042600  0.47789800  1
  F  F16  1  0.58524500  0.76526200  0.70933700  1
  F  F17  1  0.82575900  0.23532800  0.78920600  1
  F  F18  1  0.64615600  0.49455700  0.59976000  1
  F  F19  1  0.93612500  0.00117100  0.15077100  1
  F  F20  1  0.88742300  0.27597300  0.45220400  1
  F  F21  1  0.40354500  0.28061700  0.95275600  1
  F  F22  1  0.61864500  0.10997000  0.61239100  1
  F  F23  1  0.92765800  0.99632100  0.35063500  1
  F  F24  1  0.15198100  0.75002900  0.20493600  1
  F  F25  1  0.64446700  0.66500500  0.21896900  1
  F  F26  1  0.34083400  0.49151400  0.40393300  1
  F  F27  1  0.87841600  0.17439700  0.97974200  1
  F  F28  1  0.61040300  0.72374000  0.04719900  1
  F  F29  1  0.98352800  0.33407800  0.28045900  1
  F  F30  1  0.03033700  0.67784400  0.72289300  1
  F  F31  1  0.50742400  0.89293900  0.88621600  1
  F  F32  1  0.49773800  0.11740500  0.10994700  1
  F  F33  1  0.11787000  0.71549400  0.54729300  1
  F  F34  1  0.70340600  0.82693100  0.51910700  1
  F  F35  1  0.12380100  0.82803500  0.02217500  1
  F  F36  1  0.35924800  0.31961400  0.77693200  1
  F  F37  1  0.40064800  0.24260300  0.29554700  1
  F  F38  1  0.37457400  0.88184600  0.38977400  1
