# generated using pymatgen
data_Mg2CoSbO6
_symmetry_space_group_name_H-M   'P 1'
_cell_length_a   7.54723200
_cell_length_b   5.20525400
_cell_length_c   5.37977891
_cell_angle_alpha   89.24512317
_cell_angle_beta   90.00000000
_cell_angle_gamma   90.00000000
_symmetry_Int_Tables_number   1
_chemical_formula_structural   Mg2CoSbO6
_chemical_formula_sum   'Mg4 Co2 Sb2 O12'
_cell_volume   211.32766816
_cell_formula_units_Z   2
loop_
 _symmetry_equiv_pos_site_id
 _symmetry_equiv_pos_as_xyz
  1  'x, y, z'
loop_
 _atom_site_type_symbol
 _atom_site_label
 _atom_site_symmetry_multiplicity
 _atom_site_fract_x
 _atom_site_fract_y
 _atom_site_fract_z
 _atom_site_occupancy
  Mg  Mg0  1  0.75000000  0.47858000  0.56998700  1
  Mg  Mg1  1  0.25000000  0.52142000  0.43001300  1
  Mg  Mg2  1  0.75000000  0.98576500  0.03628100  1
  Mg  Mg3  1  0.25000000  0.01423500  0.96371900  1
  Co  Co4  1  0.50000000  0.50000000  0.00000000  1
  Co  Co5  1  0.00000000  0.50000000  0.00000000  1
  Sb  Sb6  1  0.50000000  0.00000000  0.50000000  1
  Sb  Sb7  1  0.00000000  0.00000000  0.50000000  1
  O  O8  1  0.43278000  0.67983000  0.67636100  1
  O  O9  1  0.06866100  0.82897600  0.18529800  1
  O  O10  1  0.93278000  0.32017000  0.32363900  1
  O  O11  1  0.56866100  0.17102400  0.81470200  1
  O  O12  1  0.43133900  0.82897600  0.18529800  1
  O  O13  1  0.93133900  0.17102400  0.81470200  1
  O  O14  1  0.25000000  0.14062700  0.57323500  1
  O  O15  1  0.06722000  0.67983000  0.67636100  1
  O  O16  1  0.75000000  0.61413900  0.93056900  1
  O  O17  1  0.56722000  0.32017000  0.32363900  1
  O  O18  1  0.75000000  0.85937300  0.42676500  1
  O  O19  1  0.25000000  0.38586100  0.06943100  1
