# generated using pymatgen
data_MnNb2ZnO8
_symmetry_space_group_name_H-M   'P 1'
_cell_length_a   10.24492945
_cell_length_b   10.24492945
_cell_length_c   5.10545078
_cell_angle_alpha   86.29549951
_cell_angle_beta   86.29549951
_cell_angle_gamma   32.80126732
_symmetry_Int_Tables_number   1
_chemical_formula_structural   MnNb2ZnO8
_chemical_formula_sum   'Mn2 Nb4 Zn2 O16'
_cell_volume   289.63103864
_cell_formula_units_Z   2
loop_
 _symmetry_equiv_pos_site_id
 _symmetry_equiv_pos_as_xyz
  1  'x, y, z'
loop_
 _atom_site_type_symbol
 _atom_site_label
 _atom_site_symmetry_multiplicity
 _atom_site_fract_x
 _atom_site_fract_y
 _atom_site_fract_z
 _atom_site_occupancy
  Mn  Mn0  1  0.35986900  0.64013100  0.00000000  1
  Mn  Mn1  1  0.64985500  0.35014500  0.50000000  1
  Nb  Nb2  1  0.69749100  0.06175500  0.00244200  1
  Nb  Nb3  1  0.93824500  0.30250900  0.99755800  1
  Nb  Nb4  1  0.29595300  0.93508300  0.49035500  1
  Nb  Nb5  1  0.06491700  0.70404700  0.50964500  1
  Zn  Zn6  1  0.43497800  0.11375600  0.55624100  1
  Zn  Zn7  1  0.88624400  0.56502200  0.44375900  1
  O  O8  1  0.81279300  0.06943700  0.65868300  1
  O  O9  1  0.93056300  0.18720700  0.34131700  1
  O  O10  1  0.19601800  0.92258900  0.83071300  1
  O  O11  1  0.07741100  0.80398200  0.16928700  1
  O  O12  1  0.55791500  0.33781400  0.18795900  1
  O  O13  1  0.66218600  0.44208500  0.81204100  1
  O  O14  1  0.44579100  0.65895100  0.31356600  1
  O  O15  1  0.34104900  0.55420900  0.68643400  1
  O  O16  1  0.72936800  0.93453000  0.34186900  1
  O  O17  1  0.06547000  0.27063200  0.65813100  1
  O  O18  1  0.16896800  0.44913400  0.41067300  1
  O  O19  1  0.55086600  0.83103200  0.58932700  1
  O  O20  1  0.79787300  0.56466300  0.11601400  1
  O  O21  1  0.43533700  0.20212700  0.88398600  1
  O  O22  1  0.92444700  0.75089600  0.83231500  1
  O  O23  1  0.24910400  0.07555300  0.16768500  1
