# generated using pymatgen
data_Ti2ZnS5
_symmetry_space_group_name_H-M   'P 1'
_cell_length_a   3.83673400
_cell_length_b   6.01007900
_cell_length_c   14.96403900
_cell_angle_alpha   90.00000000
_cell_angle_beta   90.00000000
_cell_angle_gamma   90.00000000
_symmetry_Int_Tables_number   1
_chemical_formula_structural   Ti2ZnS5
_chemical_formula_sum   'Ti4 Zn2 S10'
_cell_volume   345.05688925
_cell_formula_units_Z   2
loop_
 _symmetry_equiv_pos_site_id
 _symmetry_equiv_pos_as_xyz
  1  'x, y, z'
loop_
 _atom_site_type_symbol
 _atom_site_label
 _atom_site_symmetry_multiplicity
 _atom_site_fract_x
 _atom_site_fract_y
 _atom_site_fract_z
 _atom_site_occupancy
  Ti  Ti0  1  0.00000000  0.06922000  0.84778200  1
  Ti  Ti1  1  0.50000000  0.93078000  0.65221800  1
  Ti  Ti2  1  0.50000000  0.93078000  0.34778200  1
  Ti  Ti3  1  0.00000000  0.06922000  0.15221800  1
  Zn  Zn4  1  0.50000000  0.61214000  0.00000000  1
  Zn  Zn5  1  0.00000000  0.38786000  0.50000000  1
  S  S6  1  0.50000000  0.10002100  0.50000000  1
  S  S7  1  0.00000000  0.89997900  0.00000000  1
  S  S8  1  0.50000000  0.85558200  0.81533100  1
  S  S9  1  0.00000000  0.14441800  0.68466900  1
  S  S10  1  0.50000000  0.85558200  0.18466900  1
  S  S11  1  0.00000000  0.14441800  0.31533100  1
  S  S12  1  0.00000000  0.41461700  0.10478500  1
  S  S13  1  0.50000000  0.58538300  0.39521500  1
  S  S14  1  0.50000000  0.58538300  0.60478500  1
  S  S15  1  0.00000000  0.41461700  0.89521500  1
