# generated using pymatgen
data_Ca2Bi3O8
_symmetry_space_group_name_H-M   'P 1'
_cell_length_a   6.82089455
_cell_length_b   6.82089455
_cell_length_c   5.81278916
_cell_angle_alpha   71.60320577
_cell_angle_beta   71.60320577
_cell_angle_gamma   59.81237797
_symmetry_Int_Tables_number   1
_chemical_formula_structural   Ca2Bi3O8
_chemical_formula_sum   'Ca2 Bi3 O8'
_cell_volume   217.71870125
_cell_formula_units_Z   1
loop_
 _symmetry_equiv_pos_site_id
 _symmetry_equiv_pos_as_xyz
  1  'x, y, z'
loop_
 _atom_site_type_symbol
 _atom_site_label
 _atom_site_symmetry_multiplicity
 _atom_site_fract_x
 _atom_site_fract_y
 _atom_site_fract_z
 _atom_site_occupancy
  Ca  Ca0  1  0.72077700  0.72077700  0.35562100  1
  Ca  Ca1  1  0.27922300  0.27922300  0.64437900  1
  Bi  Bi2  1  0.00000000  0.00000000  0.50000000  1
  Bi  Bi3  1  0.73744300  0.26255700  0.00000000  1
  Bi  Bi4  1  0.26255700  0.73744300  0.00000000  1
  O  O5  1  0.39586900  0.39586900  0.91370100  1
  O  O6  1  0.60413100  0.60413100  0.08629900  1
  O  O7  1  0.89137600  0.89137600  0.94122000  1
  O  O8  1  0.10862400  0.10862400  0.05878000  1
  O  O9  1  0.35447000  0.88712100  0.61347700  1
  O  O10  1  0.88712100  0.35447000  0.61347700  1
  O  O11  1  0.11287900  0.64553000  0.38652300  1
  O  O12  1  0.64553000  0.11287900  0.38652300  1
