# generated using pymatgen
data_La2MgWO6
_symmetry_space_group_name_H-M   'P 1'
_cell_length_a   5.64924301
_cell_length_b   5.64924301
_cell_length_c   5.64924261
_cell_angle_alpha   61.36405331
_cell_angle_beta   61.36405331
_cell_angle_gamma   61.36405110
_symmetry_Int_Tables_number   1
_chemical_formula_structural   La2MgWO6
_chemical_formula_sum   'La2 Mg1 W1 O6'
_cell_volume   131.39121537
_cell_formula_units_Z   1
loop_
 _symmetry_equiv_pos_site_id
 _symmetry_equiv_pos_as_xyz
  1  'x, y, z'
loop_
 _atom_site_type_symbol
 _atom_site_label
 _atom_site_symmetry_multiplicity
 _atom_site_fract_x
 _atom_site_fract_y
 _atom_site_fract_z
 _atom_site_occupancy
  La  La0  1  0.74894600  0.74894600  0.74894600  1
  La  La1  1  0.25105400  0.25105400  0.25105400  1
  Mg  Mg2  1  0.50000000  0.50000000  0.50000000  1
  W  W3  1  0.00000000  0.00000000  0.00000000  1
  O  O4  1  0.74885800  0.33525300  0.16305300  1
  O  O5  1  0.16305300  0.74885800  0.33525300  1
  O  O6  1  0.33525300  0.16305300  0.74885800  1
  O  O7  1  0.25114200  0.66474700  0.83694700  1
  O  O8  1  0.66474700  0.83694700  0.25114200  1
  O  O9  1  0.83694700  0.25114200  0.66474700  1
