# generated using pymatgen
data_Mn2ZnN2
_symmetry_space_group_name_H-M   'P 1'
_cell_length_a   3.62228300
_cell_length_b   3.62228300
_cell_length_c   5.03464900
_cell_angle_alpha   90.00000000
_cell_angle_beta   90.00000000
_cell_angle_gamma   90.00000000
_symmetry_Int_Tables_number   1
_chemical_formula_structural   Mn2ZnN2
_chemical_formula_sum   'Mn2 Zn1 N2'
_cell_volume   66.05929791
_cell_formula_units_Z   1
loop_
 _symmetry_equiv_pos_site_id
 _symmetry_equiv_pos_as_xyz
  1  'x, y, z'
loop_
 _atom_site_type_symbol
 _atom_site_label
 _atom_site_symmetry_multiplicity
 _atom_site_fract_x
 _atom_site_fract_y
 _atom_site_fract_z
 _atom_site_occupancy
  Mn  Mn0  1  0.50000000  0.50000000  0.74831900  1
  Mn  Mn1  1  0.50000000  0.50000000  0.25168100  1
  Zn  Zn2  1  0.00000000  0.00000000  0.00000000  1
  N  N3  1  0.50000000  0.00000000  0.25305200  1
  N  N4  1  0.00000000  0.50000000  0.74694800  1
