# generated using pymatgen
data_Mg2SbWO6
_symmetry_space_group_name_H-M   'P 1'
_cell_length_a   7.95061100
_cell_length_b   5.51430800
_cell_length_c   5.52605994
_cell_angle_alpha   86.21902124
_cell_angle_beta   90.00000000
_cell_angle_gamma   90.00000000
_symmetry_Int_Tables_number   1
_chemical_formula_structural   Mg2SbWO6
_chemical_formula_sum   'Mg4 Sb2 W2 O12'
_cell_volume   241.74684073
_cell_formula_units_Z   2
loop_
 _symmetry_equiv_pos_site_id
 _symmetry_equiv_pos_as_xyz
  1  'x, y, z'
loop_
 _atom_site_type_symbol
 _atom_site_label
 _atom_site_symmetry_multiplicity
 _atom_site_fract_x
 _atom_site_fract_y
 _atom_site_fract_z
 _atom_site_occupancy
  Mg  Mg0  1  0.25000000  0.54586800  0.50281700  1
  Mg  Mg1  1  0.75000000  0.45413200  0.49718300  1
  Mg  Mg2  1  0.25000000  0.02865200  0.98085800  1
  Mg  Mg3  1  0.75000000  0.97134800  0.01914200  1
  Sb  Sb4  1  0.50000000  0.50000000  0.00000000  1
  Sb  Sb5  1  0.00000000  0.50000000  0.00000000  1
  W  W6  1  0.50000000  0.00000000  0.50000000  1
  W  W7  1  0.00000000  0.00000000  0.50000000  1
  O  O8  1  0.57200900  0.68468600  0.63110600  1
  O  O9  1  0.92482500  0.15551000  0.80881400  1
  O  O10  1  0.07200900  0.31531400  0.36889400  1
  O  O11  1  0.42482500  0.84449000  0.19118600  1
  O  O12  1  0.57517500  0.15551000  0.80881400  1
  O  O13  1  0.07517500  0.84449000  0.19118600  1
  O  O14  1  0.75000000  0.60699300  0.14335000  1
  O  O15  1  0.92799100  0.68468600  0.63110600  1
  O  O16  1  0.25000000  0.91098600  0.63211100  1
  O  O17  1  0.42799100  0.31531400  0.36889400  1
  O  O18  1  0.25000000  0.39300700  0.85665000  1
  O  O19  1  0.75000000  0.08901400  0.36788900  1
