# generated using pymatgen
data_CaFe2S5
_symmetry_space_group_name_H-M   'P 1'
_cell_length_a   4.17485300
_cell_length_b   5.84201900
_cell_length_c   13.59050200
_cell_angle_alpha   90.00000000
_cell_angle_beta   90.00000000
_cell_angle_gamma   90.00000000
_symmetry_Int_Tables_number   1
_chemical_formula_structural   CaFe2S5
_chemical_formula_sum   'Ca2 Fe4 S10'
_cell_volume   331.46650731
_cell_formula_units_Z   2
loop_
 _symmetry_equiv_pos_site_id
 _symmetry_equiv_pos_as_xyz
  1  'x, y, z'
loop_
 _atom_site_type_symbol
 _atom_site_label
 _atom_site_symmetry_multiplicity
 _atom_site_fract_x
 _atom_site_fract_y
 _atom_site_fract_z
 _atom_site_occupancy
  Ca  Ca0  1  0.50000000  0.10797100  0.00000000  1
  Ca  Ca1  1  0.00000000  0.89202900  0.50000000  1
  Fe  Fe2  1  0.00000000  0.58808200  0.84988600  1
  Fe  Fe3  1  0.50000000  0.41191800  0.65011400  1
  Fe  Fe4  1  0.50000000  0.41191800  0.34988600  1
  Fe  Fe5  1  0.00000000  0.58808200  0.15011400  1
  S  S6  1  0.50000000  0.53895100  0.50000000  1
  S  S7  1  0.00000000  0.46104900  0.00000000  1
  S  S8  1  0.50000000  0.46166900  0.81585500  1
  S  S9  1  0.00000000  0.53833100  0.68414500  1
  S  S10  1  0.50000000  0.46166900  0.18414500  1
  S  S11  1  0.00000000  0.53833100  0.31585500  1
  S  S12  1  0.00000000  0.94271300  0.12740300  1
  S  S13  1  0.50000000  0.05728700  0.37259700  1
  S  S14  1  0.50000000  0.05728700  0.62740300  1
  S  S15  1  0.00000000  0.94271300  0.87259700  1
