# generated using pymatgen
data_SnO2
_symmetry_space_group_name_H-M   'P 1'
_cell_length_a   7.76898512
_cell_length_b   7.76898512
_cell_length_c   7.76898512
_cell_angle_alpha   92.48049105
_cell_angle_beta   92.48049105
_cell_angle_gamma   155.98537026
_symmetry_Int_Tables_number   1
_chemical_formula_structural   SnO2
_chemical_formula_sum   'Sn4 O8'
_cell_volume   186.65849287
_cell_formula_units_Z   4
loop_
 _symmetry_equiv_pos_site_id
 _symmetry_equiv_pos_as_xyz
  1  'x, y, z'
loop_
 _atom_site_type_symbol
 _atom_site_label
 _atom_site_symmetry_multiplicity
 _atom_site_fract_x
 _atom_site_fract_y
 _atom_site_fract_z
 _atom_site_occupancy
  Sn  Sn0  1  0.64892300  0.16893300  0.81785600  1
  Sn  Sn1  1  0.16893300  0.35107700  0.52000900  1
  Sn  Sn2  1  0.83106700  0.64892300  0.47999100  1
  Sn  Sn3  1  0.35107700  0.83106700  0.18214400  1
  O  O4  1  0.83895500  0.45704000  0.29599500  1
  O  O5  1  0.45704000  0.16104500  0.61808500  1
  O  O6  1  0.54296000  0.83895500  0.38191500  1
  O  O7  1  0.16104500  0.54296000  0.70400500  1
  O  O8  1  0.15492800  0.79439900  0.94932700  1
  O  O9  1  0.79439900  0.84507200  0.63947100  1
  O  O10  1  0.84507200  0.20560100  0.05067300  1
  O  O11  1  0.20560100  0.15492800  0.36052900  1
