data_image0
_chemical_formula_structural       Fe2K2Se4
_chemical_formula_sum              "Fe2 K2 Se4"
_cell_length_a       5.58791
_cell_length_b       6.84113
_cell_length_c       6.84113
_cell_angle_alpha    115.925
_cell_angle_beta     101.76
_cell_angle_gamma    101.76

_space_group_name_H-M_alt    "P 1"
_space_group_IT_number       1

loop_
  _space_group_symop_operation_xyz
  'x, y, z'

loop_
  _atom_site_type_symbol
  _atom_site_label
  _atom_site_symmetry_multiplicity
  _atom_site_fract_x
  _atom_site_fract_y
  _atom_site_fract_z
  _atom_site_occupancy
  Fe  Fe1       1.0  0.25000  0.99800  0.00223  1.0000
  Fe  Fe2       1.0  0.75000  0.00223  0.99800  1.0000
  K   K1        1.0  0.75000  0.63800  0.36200  1.0000
  K   K2        1.0  0.25000  0.36200  0.63800  1.0000
  Se  Se1       1.0  0.10000  0.31100  0.08370  1.0000
  Se  Se2       1.0  0.60000  0.08370  0.31100  1.0000
  Se  Se3       1.0  0.40000  0.91600  0.68900  1.0000
  Se  Se4       1.0  0.90000  0.68900  0.91600  1.0000
