# generated using pymatgen
data_Ti(BiO3)2
_symmetry_space_group_name_H-M   'P 1'
_cell_length_a   6.17290358
_cell_length_b   6.17290358
_cell_length_c   6.17290358
_cell_angle_alpha   128.44116451
_cell_angle_beta   128.44116451
_cell_angle_gamma   75.91144107
_symmetry_Int_Tables_number   1
_chemical_formula_structural   Ti(BiO3)2
_chemical_formula_sum   'Ti1 Bi2 O6'
_cell_volume   140.31908018
_cell_formula_units_Z   1
loop_
 _symmetry_equiv_pos_site_id
 _symmetry_equiv_pos_as_xyz
  1  'x, y, z'
loop_
 _atom_site_type_symbol
 _atom_site_label
 _atom_site_symmetry_multiplicity
 _atom_site_fract_x
 _atom_site_fract_y
 _atom_site_fract_z
 _atom_site_occupancy
  Ti  Ti0  1  0.79780200  0.79780200  0.00000000  1
  Bi  Bi1  1  0.49352500  0.99352500  0.50000000  1
  Bi  Bi2  1  0.99352500  0.49352500  0.50000000  1
  O  O3  1  0.07268400  0.07268400  0.00000000  1
  O  O4  1  0.61386600  0.61386600  0.00000000  1
  O  O5  1  0.10900000  0.62742100  0.00000000  1
  O  O6  1  0.62742100  0.62742100  0.51842100  1
  O  O7  1  0.62742100  0.10900000  0.00000000  1
  O  O8  1  0.10900000  0.10900000  0.48157900  1
