# generated using pymatgen
data_Ca2Ta2WO8
_symmetry_space_group_name_H-M   'P 1'
_cell_length_a   10.12337198
_cell_length_b   10.12337198
_cell_length_c   5.52863514
_cell_angle_alpha   87.30304361
_cell_angle_beta   87.30304361
_cell_angle_gamma   36.68416588
_symmetry_Int_Tables_number   1
_chemical_formula_structural   Ca2Ta2WO8
_chemical_formula_sum   'Ca4 Ta4 W2 O16'
_cell_volume   338.06627502
_cell_formula_units_Z   2
loop_
 _symmetry_equiv_pos_site_id
 _symmetry_equiv_pos_as_xyz
  1  'x, y, z'
loop_
 _atom_site_type_symbol
 _atom_site_label
 _atom_site_symmetry_multiplicity
 _atom_site_fract_x
 _atom_site_fract_y
 _atom_site_fract_z
 _atom_site_occupancy
  Ca  Ca0  1  0.87811400  0.54601200  0.51683800  1
  Ca  Ca1  1  0.45398800  0.12188600  0.48316200  1
  Ca  Ca2  1  0.12030000  0.47481900  0.98805600  1
  Ca  Ca3  1  0.52518100  0.87970000  0.01194400  1
  Ta  Ta4  1  0.01685900  0.75898300  0.50775600  1
  Ta  Ta5  1  0.24101700  0.98314100  0.49224400  1
  Ta  Ta6  1  0.97553500  0.25613000  0.01379400  1
  Ta  Ta7  1  0.74387000  0.02446500  0.98620600  1
  W  W8  1  0.63521300  0.36478700  0.50000000  1
  W  W9  1  0.36824800  0.63175200  0.00000000  1
  O  O10  1  0.07709000  0.77223500  0.85480500  1
  O  O11  1  0.22776500  0.92291000  0.14519500  1
  O  O12  1  0.94375500  0.18735800  0.67380100  1
  O  O13  1  0.81264200  0.05624500  0.32619900  1
  O  O14  1  0.30677300  0.58268500  0.35345100  1
  O  O15  1  0.41731500  0.69322700  0.64654900  1
  O  O16  1  0.69041100  0.42544000  0.15336200  1
  O  O17  1  0.57456000  0.30958900  0.84663800  1
  O  O18  1  0.88110800  0.76652200  0.23379500  1
  O  O19  1  0.23347800  0.11889200  0.76620500  1
  O  O20  1  0.46979900  0.15305800  0.08018500  1
  O  O21  1  0.84694200  0.53020100  0.91981500  1
  O  O22  1  0.52396800  0.84585500  0.41629400  1
  O  O23  1  0.15414500  0.47603200  0.58370600  1
  O  O24  1  0.75574800  0.87765100  0.72804000  1
  O  O25  1  0.12234900  0.24425200  0.27196000  1
