# generated using pymatgen
data_Mg(SbO3)2
_symmetry_space_group_name_H-M   'P 1'
_cell_length_a   5.21551900
_cell_length_b   5.42886800
_cell_length_c   7.57468200
_cell_angle_alpha   90.00000000
_cell_angle_beta   90.00000000
_cell_angle_gamma   90.00000000
_symmetry_Int_Tables_number   1
_chemical_formula_structural   Mg(SbO3)2
_chemical_formula_sum   'Mg2 Sb4 O12'
_cell_volume   214.47230487
_cell_formula_units_Z   2
loop_
 _symmetry_equiv_pos_site_id
 _symmetry_equiv_pos_as_xyz
  1  'x, y, z'
loop_
 _atom_site_type_symbol
 _atom_site_label
 _atom_site_symmetry_multiplicity
 _atom_site_fract_x
 _atom_site_fract_y
 _atom_site_fract_z
 _atom_site_occupancy
  Mg  Mg0  1  0.52013800  0.32083000  0.50000000  1
  Mg  Mg1  1  0.02013800  0.67917000  0.00000000  1
  Sb  Sb2  1  0.50258700  0.75776700  0.74920300  1
  Sb  Sb3  1  0.00258700  0.24223300  0.75079700  1
  Sb  Sb4  1  0.00258700  0.24223300  0.24920300  1
  Sb  Sb5  1  0.50258700  0.75776700  0.25079700  1
  O  O6  1  0.67265200  0.07277700  0.31587400  1
  O  O7  1  0.17265200  0.92722300  0.18412600  1
  O  O8  1  0.80100300  0.54282300  0.68787500  1
  O  O9  1  0.30100300  0.45717700  0.81212500  1
  O  O10  1  0.30100300  0.45717700  0.18787500  1
  O  O11  1  0.80100300  0.54282300  0.31212500  1
  O  O12  1  0.17265200  0.92722300  0.81587400  1
  O  O13  1  0.67265200  0.07277700  0.68412600  1
  O  O14  1  0.14083300  0.21159900  0.50000000  1
  O  O15  1  0.64083300  0.78840100  0.00000000  1
  O  O16  1  0.39681100  0.69095200  0.50000000  1
  O  O17  1  0.89681100  0.30904800  0.00000000  1
