# generated using pymatgen
data_Ba2Ca3Ti4Tl2O12
_symmetry_space_group_name_H-M   'P 1'
_cell_length_a   23.14558207
_cell_length_b   23.14558207
_cell_length_c   23.14558207
_cell_angle_alpha   170.25983318
_cell_angle_beta   170.25983318
_cell_angle_gamma   13.79136523
_symmetry_Int_Tables_number   1
_chemical_formula_structural   Ba2Ca3Ti4Tl2O12
_chemical_formula_sum   'Ba2 Ca3 Ti4 Tl2 O12'
_cell_volume   354.88918095
_cell_formula_units_Z   1
loop_
 _symmetry_equiv_pos_site_id
 _symmetry_equiv_pos_as_xyz
  1  'x, y, z'
loop_
 _atom_site_type_symbol
 _atom_site_label
 _atom_site_symmetry_multiplicity
 _atom_site_fract_x
 _atom_site_fract_y
 _atom_site_fract_z
 _atom_site_occupancy
  Ba  Ba0  1  0.17257700  0.17257700  0.00000000  1
  Ba  Ba1  1  0.82742300  0.82742300  0.00000000  1
  Ca  Ca2  1  0.07474400  0.07474400  0.00000000  1
  Ca  Ca3  1  0.92525600  0.92525600  0.00000000  1
  Ca  Ca4  1  0.00000000  0.00000000  0.00000000  1
  Ti  Ti5  1  0.53129300  0.53129300  0.00000000  1
  Ti  Ti6  1  0.38552100  0.38552100  0.00000000  1
  Ti  Ti7  1  0.61447900  0.61447900  0.00000000  1
  Ti  Ti8  1  0.46870700  0.46870700  0.00000000  1
  Tl  Tl9  1  0.72468800  0.72468800  0.00000000  1
  Tl  Tl10  1  0.27531200  0.27531200  0.00000000  1
  O  O11  1  0.89511400  0.39511400  0.50000000  1
  O  O12  1  0.03529800  0.53529800  0.50000000  1
  O  O13  1  0.22510900  0.22510900  0.00000000  1
  O  O14  1  0.46470200  0.96470200  0.50000000  1
  O  O15  1  0.77489100  0.77489100  0.00000000  1
  O  O16  1  0.60488600  0.10488600  0.50000000  1
  O  O17  1  0.10488600  0.60488600  0.50000000  1
  O  O18  1  0.34689000  0.34689000  0.00000000  1
  O  O19  1  0.39511400  0.89511400  0.50000000  1
  O  O20  1  0.53529800  0.03529800  0.50000000  1
  O  O21  1  0.96470200  0.46470200  0.50000000  1
  O  O22  1  0.65311000  0.65311000  0.00000000  1
