# generated using pymatgen
data_CaTa2Bi2O9
_symmetry_space_group_name_H-M   'P 1'
_cell_length_a   3.93784200
_cell_length_b   3.95475735
_cell_length_c   13.05467051
_cell_angle_alpha   94.28859759
_cell_angle_beta   96.40472039
_cell_angle_gamma   90.02396284
_symmetry_Int_Tables_number   1
_chemical_formula_structural   CaTa2Bi2O9
_chemical_formula_sum   'Ca1 Ta2 Bi2 O9'
_cell_volume   201.46069011
_cell_formula_units_Z   1
loop_
 _symmetry_equiv_pos_site_id
 _symmetry_equiv_pos_as_xyz
  1  'x, y, z'
loop_
 _atom_site_type_symbol
 _atom_site_label
 _atom_site_symmetry_multiplicity
 _atom_site_fract_x
 _atom_site_fract_y
 _atom_site_fract_z
 _atom_site_occupancy
  Ca  Ca0  1  0.50000000  0.50000000  0.00000000  1
  Ta  Ta1  1  0.06162500  0.04890300  0.16016400  1
  Ta  Ta2  1  0.93837500  0.95109700  0.83983600  1
  Bi  Bi3  1  0.25609800  0.23635200  0.59903000  1
  Bi  Bi4  1  0.74390200  0.76364800  0.40097000  1
  O  O5  1  0.10743400  0.06742400  0.30815300  1
  O  O6  1  0.89256600  0.93257600  0.69184700  1
  O  O7  1  0.55025200  0.03787900  0.14245500  1
  O  O8  1  0.75549200  0.24717500  0.49767500  1
  O  O9  1  0.24450800  0.75282500  0.50232500  1
  O  O10  1  0.04353900  0.53826900  0.14180300  1
  O  O11  1  0.44974800  0.96212100  0.85754500  1
  O  O12  1  0.95646100  0.46173100  0.85819700  1
  O  O13  1  0.00000000  0.00000000  0.00000000  1
