# generated using pymatgen
data_CaMoO3
_symmetry_space_group_name_H-M   'P 1'
_cell_length_a   5.50477500
_cell_length_b   5.73031556
_cell_length_c   7.98621926
_cell_angle_alpha   89.80294805
_cell_angle_beta   89.89011788
_cell_angle_gamma   89.27278409
_symmetry_Int_Tables_number   1
_chemical_formula_structural   CaMoO3
_chemical_formula_sum   'Ca4 Mo4 O12'
_cell_volume   251.89585819
_cell_formula_units_Z   4
loop_
 _symmetry_equiv_pos_site_id
 _symmetry_equiv_pos_as_xyz
  1  'x, y, z'
loop_
 _atom_site_type_symbol
 _atom_site_label
 _atom_site_symmetry_multiplicity
 _atom_site_fract_x
 _atom_site_fract_y
 _atom_site_fract_z
 _atom_site_occupancy
  Ca  Ca0  1  0.00990000  0.04819300  0.75174400  1
  Ca  Ca1  1  0.51381700  0.44420700  0.24938700  1
  Ca  Ca2  1  0.48618300  0.55579300  0.75061300  1
  Ca  Ca3  1  0.99010000  0.95180700  0.24825600  1
  Mo  Mo4  1  0.50000000  0.00000000  0.00000000  1
  Mo  Mo5  1  0.00000000  0.50000000  0.00000000  1
  Mo  Mo6  1  0.00000000  0.50000000  0.50000000  1
  Mo  Mo7  1  0.50000000  0.00000000  0.50000000  1
  O  O8  1  0.28847300  0.30973500  0.54775300  1
  O  O9  1  0.81007400  0.20899400  0.44318600  1
  O  O10  1  0.19339200  0.79377900  0.94759800  1
  O  O11  1  0.69847800  0.69989900  0.05612600  1
  O  O12  1  0.71152700  0.69026500  0.45224700  1
  O  O13  1  0.18992600  0.79100600  0.55681400  1
  O  O14  1  0.80660800  0.20622100  0.05240200  1
  O  O15  1  0.30152200  0.30010100  0.94387400  1
  O  O16  1  0.89804600  0.45826100  0.74471300  1
  O  O17  1  0.39842200  0.03986800  0.24296400  1
  O  O18  1  0.60157800  0.96013200  0.75703600  1
  O  O19  1  0.10195400  0.54173900  0.25528700  1
