# generated using pymatgen
data_Ca(SnO2)2
_symmetry_space_group_name_H-M   'P 1'
_cell_length_a   3.25212600
_cell_length_b   10.26468300
_cell_length_c   12.19327100
_cell_angle_alpha   90.00000000
_cell_angle_beta   90.00000000
_cell_angle_gamma   90.00000000
_symmetry_Int_Tables_number   1
_chemical_formula_structural   Ca(SnO2)2
_chemical_formula_sum   'Ca4 Sn8 O16'
_cell_volume   407.03629032
_cell_formula_units_Z   4
loop_
 _symmetry_equiv_pos_site_id
 _symmetry_equiv_pos_as_xyz
  1  'x, y, z'
loop_
 _atom_site_type_symbol
 _atom_site_label
 _atom_site_symmetry_multiplicity
 _atom_site_fract_x
 _atom_site_fract_y
 _atom_site_fract_z
 _atom_site_occupancy
  Ca  Ca0  1  0.75000000  0.26837000  0.83899300  1
  Ca  Ca1  1  0.25000000  0.73163000  0.16100700  1
  Ca  Ca2  1  0.75000000  0.76837000  0.66100700  1
  Ca  Ca3  1  0.25000000  0.23163000  0.33899300  1
  Sn  Sn4  1  0.25000000  0.44113300  0.61106400  1
  Sn  Sn5  1  0.75000000  0.05886700  0.11106400  1
  Sn  Sn6  1  0.25000000  0.94113300  0.88893600  1
  Sn  Sn7  1  0.75000000  0.55886700  0.38893600  1
  Sn  Sn8  1  0.75000000  0.58458800  0.89295700  1
  Sn  Sn9  1  0.25000000  0.41541200  0.10704300  1
  Sn  Sn10  1  0.75000000  0.08458800  0.60704300  1
  Sn  Sn11  1  0.25000000  0.91541200  0.39295700  1
  O  O12  1  0.25000000  0.92745400  0.59165800  1
  O  O13  1  0.75000000  0.07254600  0.40834200  1
  O  O14  1  0.25000000  0.42745400  0.90834200  1
  O  O15  1  0.75000000  0.57254600  0.09165800  1
  O  O16  1  0.25000000  0.96873500  0.19195600  1
  O  O17  1  0.75000000  0.03126500  0.80804400  1
  O  O18  1  0.25000000  0.46873500  0.30804400  1
  O  O19  1  0.75000000  0.53126500  0.69195600  1
  O  O20  1  0.25000000  0.61283400  0.50344400  1
  O  O21  1  0.75000000  0.38716600  0.49655600  1
  O  O22  1  0.25000000  0.11283400  0.99655600  1
  O  O23  1  0.75000000  0.88716600  0.00344400  1
  O  O24  1  0.75000000  0.71886700  0.29444600  1
  O  O25  1  0.25000000  0.28113300  0.70555400  1
  O  O26  1  0.25000000  0.78113300  0.79444600  1
  O  O27  1  0.75000000  0.21886700  0.20555400  1
