# generated using pymatgen
data_ZnSbAsO5
_symmetry_space_group_name_H-M   'P 1'
_cell_length_a   7.51125700
_cell_length_b   7.82994300
_cell_length_c   8.75980700
_cell_angle_alpha   90.00000000
_cell_angle_beta   90.00000000
_cell_angle_gamma   90.00000000
_symmetry_Int_Tables_number   1
_chemical_formula_structural   ZnSbAsO5
_chemical_formula_sum   'Zn4 Sb4 As4 O20'
_cell_volume   515.18802526
_cell_formula_units_Z   4
loop_
 _symmetry_equiv_pos_site_id
 _symmetry_equiv_pos_as_xyz
  1  'x, y, z'
loop_
 _atom_site_type_symbol
 _atom_site_label
 _atom_site_symmetry_multiplicity
 _atom_site_fract_x
 _atom_site_fract_y
 _atom_site_fract_z
 _atom_site_occupancy
  Zn  Zn0  1  0.11631700  0.75812500  0.67529600  1
  Zn  Zn1  1  0.38368300  0.24187500  0.17529600  1
  Zn  Zn2  1  0.88368300  0.25812500  0.82470400  1
  Zn  Zn3  1  0.61631700  0.74187500  0.32470400  1
  Sb  Sb4  1  0.27198400  0.72422600  0.00508700  1
  Sb  Sb5  1  0.22801600  0.27577400  0.50508700  1
  Sb  Sb6  1  0.72801600  0.22422600  0.49491300  1
  Sb  Sb7  1  0.77198400  0.77577400  0.99491300  1
  As  As8  1  0.44994200  0.11755300  0.84050800  1
  As  As9  1  0.05005800  0.88244700  0.34050800  1
  As  As10  1  0.55005800  0.61755300  0.65949200  1
  As  As11  1  0.94994200  0.38244700  0.15949200  1
  O  O12  1  0.44538800  0.92724600  0.94367600  1
  O  O13  1  0.05461200  0.07275400  0.44367600  1
  O  O14  1  0.55461200  0.42724600  0.55632400  1
  O  O15  1  0.94538800  0.57275400  0.05632400  1
  O  O16  1  0.43089700  0.28301000  0.96955600  1
  O  O17  1  0.06910300  0.71699000  0.46955600  1
  O  O18  1  0.56910300  0.78301000  0.53044400  1
  O  O19  1  0.93089700  0.21699000  0.03044400  1
  O  O20  1  0.65773600  0.12881400  0.75766600  1
  O  O21  1  0.84226400  0.87118600  0.25766600  1
  O  O22  1  0.34226400  0.62881400  0.74233400  1
  O  O23  1  0.15773600  0.37118600  0.24233400  1
  O  O24  1  0.28538100  0.12086000  0.70428400  1
  O  O25  1  0.21461900  0.87914000  0.20428400  1
  O  O26  1  0.71461900  0.62086000  0.79571600  1
  O  O27  1  0.78538100  0.37914000  0.29571600  1
  O  O28  1  0.07524000  0.82641300  0.87597100  1
  O  O29  1  0.42476000  0.17358700  0.37597100  1
  O  O30  1  0.92476000  0.32641300  0.62402900  1
  O  O31  1  0.57524000  0.67358700  0.12402900  1
