# generated using pymatgen
data_Ba2CaCuSb2F14
_symmetry_space_group_name_H-M   'P 1'
_cell_length_a   7.71135790
_cell_length_b   7.71135790
_cell_length_c   16.28965995
_cell_angle_alpha   89.27963957
_cell_angle_beta   89.27963957
_cell_angle_gamma   42.17995954
_symmetry_Int_Tables_number   1
_chemical_formula_structural   Ba2CaCuSb2F14
_chemical_formula_sum   'Ba4 Ca2 Cu2 Sb4 F28'
_cell_volume   650.36233549
_cell_formula_units_Z   2
loop_
 _symmetry_equiv_pos_site_id
 _symmetry_equiv_pos_as_xyz
  1  'x, y, z'
loop_
 _atom_site_type_symbol
 _atom_site_label
 _atom_site_symmetry_multiplicity
 _atom_site_fract_x
 _atom_site_fract_y
 _atom_site_fract_z
 _atom_site_occupancy
  Ba  Ba0  1  0.73649700  0.90285300  0.62333800  1
  Ba  Ba1  1  0.90285300  0.73649700  0.12333800  1
  Ba  Ba2  1  0.26350300  0.09714700  0.37666200  1
  Ba  Ba3  1  0.09714700  0.26350300  0.87666200  1
  Ca  Ca4  1  0.44643100  0.55356900  0.75000000  1
  Ca  Ca5  1  0.55356900  0.44643100  0.25000000  1
  Cu  Cu6  1  0.50000000  0.50000000  0.00000000  1
  Cu  Cu7  1  0.50000000  0.50000000  0.50000000  1
  Sb  Sb8  1  0.83805400  0.93094700  0.87659100  1
  Sb  Sb9  1  0.16194600  0.06905300  0.12340900  1
  Sb  Sb10  1  0.93094700  0.83805400  0.37659100  1
  Sb  Sb11  1  0.06905300  0.16194600  0.62340900  1
  F  F12  1  0.89897400  0.14102300  0.33183500  1
  F  F13  1  0.59716500  0.10323300  0.45588200  1
  F  F14  1  0.40283500  0.89676700  0.54411800  1
  F  F15  1  0.13988300  0.37528700  0.60786200  1
  F  F16  1  0.57822800  0.36328200  0.61200400  1
  F  F17  1  0.63671800  0.42177200  0.88799600  1
  F  F18  1  0.10323300  0.59716500  0.95588200  1
  F  F19  1  0.85897700  0.10102600  0.16816500  1
  F  F20  1  0.02977500  0.64146300  0.78936000  1
  F  F21  1  0.86011700  0.62471300  0.39213800  1
  F  F22  1  0.57481500  0.17420700  0.76573400  1
  F  F23  1  0.62471300  0.86011700  0.89213800  1
  F  F24  1  0.17420700  0.57481500  0.26573400  1
  F  F25  1  0.42518500  0.82579300  0.23426600  1
  F  F26  1  0.36328200  0.57822800  0.11200400  1
  F  F27  1  0.97022500  0.35853700  0.21064000  1
  F  F28  1  0.30649100  0.85403300  0.98805300  1
  F  F29  1  0.10102600  0.85897700  0.66816500  1
  F  F30  1  0.69350900  0.14596700  0.01194700  1
  F  F31  1  0.85403300  0.30649100  0.48805300  1
  F  F32  1  0.89676700  0.40283500  0.04411800  1
  F  F33  1  0.82579300  0.42518500  0.73426600  1
  F  F34  1  0.64146300  0.02977500  0.28936000  1
  F  F35  1  0.14596700  0.69350900  0.51194700  1
  F  F36  1  0.42177200  0.63671800  0.38799600  1
  F  F37  1  0.14102300  0.89897400  0.83183500  1
  F  F38  1  0.35853700  0.97022500  0.71064000  1
  F  F39  1  0.37528700  0.13988300  0.10786200  1
