# generated using pymatgen
data_Zn(BiO2)2
_symmetry_space_group_name_H-M   'P 1'
_cell_length_a   3.38277100
_cell_length_b   11.06907000
_cell_length_c   11.42710300
_cell_angle_alpha   90.00000000
_cell_angle_beta   90.00000000
_cell_angle_gamma   90.00000000
_symmetry_Int_Tables_number   1
_chemical_formula_structural   Zn(BiO2)2
_chemical_formula_sum   'Zn4 Bi8 O16'
_cell_volume   427.87791875
_cell_formula_units_Z   4
loop_
 _symmetry_equiv_pos_site_id
 _symmetry_equiv_pos_as_xyz
  1  'x, y, z'
loop_
 _atom_site_type_symbol
 _atom_site_label
 _atom_site_symmetry_multiplicity
 _atom_site_fract_x
 _atom_site_fract_y
 _atom_site_fract_z
 _atom_site_occupancy
  Zn  Zn0  1  0.25000000  0.19822200  0.13789600  1
  Zn  Zn1  1  0.75000000  0.80177800  0.86210400  1
  Zn  Zn2  1  0.25000000  0.69822200  0.36210400  1
  Zn  Zn3  1  0.75000000  0.30177800  0.63789600  1
  Bi  Bi4  1  0.75000000  0.40499200  0.37059700  1
  Bi  Bi5  1  0.25000000  0.09500800  0.87059700  1
  Bi  Bi6  1  0.75000000  0.90499200  0.12940300  1
  Bi  Bi7  1  0.25000000  0.59500800  0.62940300  1
  Bi  Bi8  1  0.25000000  0.59540400  0.10414500  1
  Bi  Bi9  1  0.75000000  0.40459600  0.89585500  1
  Bi  Bi10  1  0.25000000  0.09540400  0.39585500  1
  Bi  Bi11  1  0.75000000  0.90459600  0.60414500  1
  O  O12  1  0.75000000  0.96905700  0.40760300  1
  O  O13  1  0.25000000  0.03094300  0.59239700  1
  O  O14  1  0.75000000  0.46905700  0.09239700  1
  O  O15  1  0.25000000  0.53094300  0.90760300  1
  O  O16  1  0.75000000  0.97801600  0.79510200  1
  O  O17  1  0.25000000  0.02198400  0.20489800  1
  O  O18  1  0.75000000  0.47801600  0.70489800  1
  O  O19  1  0.25000000  0.52198400  0.29510200  1
  O  O20  1  0.75000000  0.67848800  0.48038300  1
  O  O21  1  0.25000000  0.32151200  0.51961700  1
  O  O22  1  0.75000000  0.17848800  0.01961700  1
  O  O23  1  0.25000000  0.82151200  0.98038300  1
  O  O24  1  0.25000000  0.75419300  0.74241900  1
  O  O25  1  0.75000000  0.24580700  0.25758100  1
  O  O26  1  0.75000000  0.74580700  0.24241900  1
  O  O27  1  0.25000000  0.25419300  0.75758100  1
