# generated using pymatgen
data_Ba2Ti2CuF14
_symmetry_space_group_name_H-M   'P 1'
_cell_length_a   7.68933162
_cell_length_b   7.68933162
_cell_length_c   15.31314524
_cell_angle_alpha   88.88682401
_cell_angle_beta   88.88682401
_cell_angle_gamma   40.96096373
_symmetry_Int_Tables_number   1
_chemical_formula_structural   Ba2Ti2CuF14
_chemical_formula_sum   'Ba4 Ti4 Cu2 F28'
_cell_volume   593.40400729
_cell_formula_units_Z   2
loop_
 _symmetry_equiv_pos_site_id
 _symmetry_equiv_pos_as_xyz
  1  'x, y, z'
loop_
 _atom_site_type_symbol
 _atom_site_label
 _atom_site_symmetry_multiplicity
 _atom_site_fract_x
 _atom_site_fract_y
 _atom_site_fract_z
 _atom_site_occupancy
  Ba  Ba0  1  0.10587200  0.24921700  0.87649700  1
  Ba  Ba1  1  0.24921700  0.10587200  0.37649700  1
  Ba  Ba2  1  0.89412800  0.75078300  0.12350300  1
  Ba  Ba3  1  0.75078300  0.89412800  0.62350300  1
  Ti  Ti4  1  0.10077300  0.14249200  0.62872400  1
  Ti  Ti5  1  0.89922700  0.85750800  0.37127600  1
  Ti  Ti6  1  0.14249200  0.10077300  0.12872400  1
  Ti  Ti7  1  0.85750800  0.89922700  0.87127600  1
  Cu  Cu8  1  0.50000000  0.50000000  0.50000000  1
  Cu  Cu9  1  0.50000000  0.50000000  0.00000000  1
  F  F10  1  0.94098500  0.05943700  0.15139100  1
  F  F11  1  0.88723900  0.39752800  0.05068700  1
  F  F12  1  0.11276100  0.60247200  0.94931300  1
  F  F13  1  0.64302700  0.86478300  0.91163000  1
  F  F14  1  0.62562600  0.49854600  0.89668900  1
  F  F15  1  0.50145400  0.37437400  0.60331100  1
  F  F16  1  0.39752800  0.88723900  0.55068700  1
  F  F17  1  0.94056300  0.05901500  0.34860900  1
  F  F18  1  0.35714300  0.99062200  0.71657500  1
  F  F19  1  0.35697300  0.13521700  0.08837000  1
  F  F20  1  0.84632300  0.40528700  0.70622300  1
  F  F21  1  0.13521700  0.35697300  0.58837000  1
  F  F22  1  0.40528700  0.84632300  0.20622300  1
  F  F23  1  0.15367700  0.59471300  0.29377700  1
  F  F24  1  0.49854600  0.62562600  0.39668900  1
  F  F25  1  0.64285700  0.00937800  0.28342500  1
  F  F26  1  0.11924100  0.70929700  0.47577100  1
  F  F27  1  0.05901500  0.94056300  0.84860900  1
  F  F28  1  0.88075900  0.29070300  0.52422900  1
  F  F29  1  0.70929700  0.11924100  0.97577100  1
  F  F30  1  0.60247200  0.11276100  0.44931300  1
  F  F31  1  0.59471300  0.15367700  0.79377700  1
  F  F32  1  0.99062200  0.35714300  0.21657500  1
  F  F33  1  0.29070300  0.88075900  0.02422900  1
  F  F34  1  0.37437400  0.50145400  0.10331100  1
  F  F35  1  0.05943700  0.94098500  0.65139100  1
  F  F36  1  0.00937800  0.64285700  0.78342500  1
  F  F37  1  0.86478300  0.64302700  0.41163000  1
