# generated using pymatgen
data_BiF4
_symmetry_space_group_name_H-M   'P 1'
_cell_length_a   6.64490609
_cell_length_b   6.64490609
_cell_length_c   6.64490609
_cell_angle_alpha   131.96558107
_cell_angle_beta   131.96558107
_cell_angle_gamma   70.28339328
_symmetry_Int_Tables_number   1
_chemical_formula_structural   BiF4
_chemical_formula_sum   'Bi2 F8'
_cell_volume   158.98251189
_cell_formula_units_Z   2
loop_
 _symmetry_equiv_pos_site_id
 _symmetry_equiv_pos_as_xyz
  1  'x, y, z'
loop_
 _atom_site_type_symbol
 _atom_site_label
 _atom_site_symmetry_multiplicity
 _atom_site_fract_x
 _atom_site_fract_y
 _atom_site_fract_z
 _atom_site_occupancy
  Bi  Bi0  1  0.00000000  0.00000000  0.00000000  1
  Bi  Bi1  1  0.50000000  0.50000000  0.00000000  1
  F  F2  1  0.87385100  0.87385100  0.52566700  1
  F  F3  1  0.65181600  0.65181600  0.52566700  1
  F  F4  1  0.12614900  0.12614900  0.47433300  1
  F  F5  1  0.65181600  0.12614900  0.00000000  1
  F  F6  1  0.34818400  0.34818400  0.47433300  1
  F  F7  1  0.87385100  0.34818400  0.00000000  1
  F  F8  1  0.34818400  0.87385100  0.00000000  1
  F  F9  1  0.12614900  0.65181600  0.00000000  1
