# generated using pymatgen
data_Ca3(TiS2)4
_symmetry_space_group_name_H-M   'P 1'
_cell_length_a   7.12026435
_cell_length_b   7.12026435
_cell_length_c   9.01968956
_cell_angle_alpha   54.28321450
_cell_angle_beta   54.28321450
_cell_angle_gamma   60.32951339
_symmetry_Int_Tables_number   1
_chemical_formula_structural   Ca3(TiS2)4
_chemical_formula_sum   'Ca3 Ti4 S8'
_cell_volume   293.07638661
_cell_formula_units_Z   1
loop_
 _symmetry_equiv_pos_site_id
 _symmetry_equiv_pos_as_xyz
  1  'x, y, z'
loop_
 _atom_site_type_symbol
 _atom_site_label
 _atom_site_symmetry_multiplicity
 _atom_site_fract_x
 _atom_site_fract_y
 _atom_site_fract_z
 _atom_site_occupancy
  Ca  Ca0  1  0.00000000  0.50000000  0.50000000  1
  Ca  Ca1  1  0.50000000  0.00000000  0.50000000  1
  Ca  Ca2  1  0.50000000  0.50000000  0.50000000  1
  Ti  Ti3  1  0.77871200  0.22128800  0.00000000  1
  Ti  Ti4  1  0.22128800  0.77871200  0.00000000  1
  Ti  Ti5  1  0.23930400  0.23930400  0.00565000  1
  Ti  Ti6  1  0.76069600  0.76069600  0.99435000  1
  S  S7  1  0.97397200  0.47922000  0.21468800  1
  S  S8  1  0.47922000  0.97397200  0.21468800  1
  S  S9  1  0.47831400  0.47831400  0.20909900  1
  S  S10  1  0.97002800  0.97002800  0.23311100  1
  S  S11  1  0.02997200  0.02997200  0.76688900  1
  S  S12  1  0.52168600  0.52168600  0.79090100  1
  S  S13  1  0.52078000  0.02602800  0.78531200  1
  S  S14  1  0.02602800  0.52078000  0.78531200  1
