# generated using pymatgen
data_Y(CoO2)3
_symmetry_space_group_name_H-M   'P 1'
_cell_length_a   5.73989800
_cell_length_b   6.17120272
_cell_length_c   15.11891091
_cell_angle_alpha   98.93979751
_cell_angle_beta   86.96379877
_cell_angle_gamma   114.94632231
_symmetry_Int_Tables_number   1
_chemical_formula_structural   Y(CoO2)3
_chemical_formula_sum   'Y4 Co12 O24'
_cell_volume   479.63277919
_cell_formula_units_Z   4
loop_
 _symmetry_equiv_pos_site_id
 _symmetry_equiv_pos_as_xyz
  1  'x, y, z'
loop_
 _atom_site_type_symbol
 _atom_site_label
 _atom_site_symmetry_multiplicity
 _atom_site_fract_x
 _atom_site_fract_y
 _atom_site_fract_z
 _atom_site_occupancy
  Y  Y0  1  0.33489000  0.66898600  0.45645000  1
  Y  Y1  1  0.96515500  0.98467400  0.12307900  1
  Y  Y2  1  0.66511000  0.33101400  0.54355000  1
  Y  Y3  1  0.03484500  0.01532600  0.87692100  1
  Co  Co4  1  0.31857000  0.17921900  0.33875200  1
  Co  Co5  1  0.68143000  0.82078100  0.66124800  1
  Co  Co6  1  0.00000000  0.50000000  0.00000000  1
  Co  Co7  1  0.81466000  0.16336000  0.33358700  1
  Co  Co8  1  0.18534000  0.83664000  0.66641300  1
  Co  Co9  1  0.50000000  0.50000000  0.00000000  1
  Co  Co10  1  0.59220300  0.32860500  0.16535100  1
  Co  Co11  1  0.00000000  0.00000000  0.50000000  1
  Co  Co12  1  0.40779700  0.67139500  0.83464900  1
  Co  Co13  1  0.84469700  0.64018600  0.32099700  1
  Co  Co14  1  0.15530300  0.35981400  0.67900300  1
  Co  Co15  1  0.50000000  0.00000000  0.00000000  1
  O  O16  1  0.89266400  0.44287000  0.41082600  1
  O  O17  1  0.16080900  0.09085900  0.73664400  1
  O  O18  1  0.53299400  0.79079600  0.07067500  1
  O  O19  1  0.33917500  0.09033300  0.21895100  1
  O  O20  1  0.70552800  0.71541700  0.54073100  1
  O  O21  1  0.16606700  0.43709900  0.89980400  1
  O  O22  1  0.83919100  0.90914100  0.26335600  1
  O  O23  1  0.10733600  0.55713000  0.58917400  1
  O  O24  1  0.46700600  0.20920400  0.92932500  1
  O  O25  1  0.29447200  0.28458300  0.45926900  1
  O  O26  1  0.66082500  0.90966700  0.78104900  1
  O  O27  1  0.83393300  0.56290100  0.10019600  1
  O  O28  1  0.16282100  0.86840200  0.37664000  1
  O  O29  1  0.51119700  0.49162500  0.67138400  1
  O  O30  1  0.86517600  0.16834400  0.00711000  1
  O  O31  1  0.72418800  0.00947500  0.43525600  1
  O  O32  1  0.14455100  0.65662300  0.76038900  1
  O  O33  1  0.34694800  0.30485600  0.09169700  1
  O  O34  1  0.85544900  0.34337700  0.23961100  1
  O  O35  1  0.27581200  0.99052500  0.56474400  1
  O  O36  1  0.65305200  0.69514400  0.90830300  1
  O  O37  1  0.48880300  0.50837500  0.32861600  1
  O  O38  1  0.83717900  0.13159800  0.62336000  1
  O  O39  1  0.13482400  0.83165600  0.99289000  1
