# generated using pymatgen
data_Sr3MgFe2S2O5
_symmetry_space_group_name_H-M   'P 1'
_cell_length_a   14.09979413
_cell_length_b   14.09979413
_cell_length_c   14.09979413
_cell_angle_alpha   163.86251267
_cell_angle_beta   163.86251267
_cell_angle_gamma   22.89858494
_symmetry_Int_Tables_number   1
_chemical_formula_structural   Sr3MgFe2S2O5
_chemical_formula_sum   'Sr3 Mg1 Fe2 S2 O5'
_cell_volume   216.50240725
_cell_formula_units_Z   1
loop_
 _symmetry_equiv_pos_site_id
 _symmetry_equiv_pos_as_xyz
  1  'x, y, z'
loop_
 _atom_site_type_symbol
 _atom_site_label
 _atom_site_symmetry_multiplicity
 _atom_site_fract_x
 _atom_site_fract_y
 _atom_site_fract_z
 _atom_site_occupancy
  Sr  Sr0  1  0.50000000  0.50000000  0.00000000  1
  Sr  Sr1  1  0.63759600  0.63759600  0.00000000  1
  Sr  Sr2  1  0.36240400  0.36240400  0.00000000  1
  Mg  Mg3  1  0.75000000  0.25000000  0.50000000  1
  Fe  Fe4  1  0.06968200  0.06968200  0.00000000  1
  Fe  Fe5  1  0.93031800  0.93031800  0.00000000  1
  S  S6  1  0.19367700  0.19367700  0.00000000  1
  S  S7  1  0.80632300  0.80632300  0.00000000  1
  O  O8  1  0.07913100  0.57913100  0.50000000  1
  O  O9  1  0.58017900  0.08017900  0.50000000  1
  O  O10  1  0.91982100  0.41982100  0.50000000  1
  O  O11  1  0.42086900  0.92086900  0.50000000  1
  O  O12  1  0.00000000  0.00000000  0.00000000  1
