# generated using pymatgen
data_Ca(BiO3)2
_symmetry_space_group_name_H-M   'P 1'
_cell_length_a   5.67182700
_cell_length_b   5.91557900
_cell_length_c   8.16907100
_cell_angle_alpha   90.00000000
_cell_angle_beta   90.00000000
_cell_angle_gamma   90.00000000
_symmetry_Int_Tables_number   1
_chemical_formula_structural   Ca(BiO3)2
_chemical_formula_sum   'Ca2 Bi4 O12'
_cell_volume   274.08981952
_cell_formula_units_Z   2
loop_
 _symmetry_equiv_pos_site_id
 _symmetry_equiv_pos_as_xyz
  1  'x, y, z'
loop_
 _atom_site_type_symbol
 _atom_site_label
 _atom_site_symmetry_multiplicity
 _atom_site_fract_x
 _atom_site_fract_y
 _atom_site_fract_z
 _atom_site_occupancy
  Ca  Ca0  1  0.52177500  0.32759100  0.50000000  1
  Ca  Ca1  1  0.02177500  0.67240900  0.00000000  1
  Bi  Bi2  1  0.50415300  0.76304500  0.74983800  1
  Bi  Bi3  1  0.00415300  0.23695500  0.75016200  1
  Bi  Bi4  1  0.00415300  0.23695500  0.24983800  1
  Bi  Bi5  1  0.50415300  0.76304500  0.25016200  1
  O  O6  1  0.67955900  0.06933900  0.31069500  1
  O  O7  1  0.17955900  0.93066100  0.18930500  1
  O  O8  1  0.79641100  0.53895400  0.69679000  1
  O  O9  1  0.29641100  0.46104600  0.80321000  1
  O  O10  1  0.29641100  0.46104600  0.19679000  1
  O  O11  1  0.79641100  0.53895400  0.30321000  1
  O  O12  1  0.17955900  0.93066100  0.81069500  1
  O  O13  1  0.67955900  0.06933900  0.68930500  1
  O  O14  1  0.12675200  0.22139800  0.50000000  1
  O  O15  1  0.62675200  0.77860200  0.00000000  1
  O  O16  1  0.40182500  0.70824200  0.50000000  1
  O  O17  1  0.90182500  0.29175800  0.00000000  1
