# generated using pymatgen
data_Mg(MoO3)2
_symmetry_space_group_name_H-M   'P 1'
_cell_length_a   5.42440500
_cell_length_b   5.26504400
_cell_length_c   9.17055768
_cell_angle_alpha   55.69457818
_cell_angle_beta   90.00000000
_cell_angle_gamma   90.00000000
_symmetry_Int_Tables_number   1
_chemical_formula_structural   Mg(MoO3)2
_chemical_formula_sum   'Mg2 Mo4 O12'
_cell_volume   216.34833032
_cell_formula_units_Z   2
loop_
 _symmetry_equiv_pos_site_id
 _symmetry_equiv_pos_as_xyz
  1  'x, y, z'
loop_
 _atom_site_type_symbol
 _atom_site_label
 _atom_site_symmetry_multiplicity
 _atom_site_fract_x
 _atom_site_fract_y
 _atom_site_fract_z
 _atom_site_occupancy
  Mg  Mg0  1  0.80601400  0.73485300  0.75113700  1
  Mg  Mg1  1  0.19398600  0.73485300  0.25113700  1
  Mo  Mo2  1  0.24728000  0.48788700  0.00548500  1
  Mo  Mo3  1  0.73601300  0.00235400  0.00316800  1
  Mo  Mo4  1  0.75272000  0.48788700  0.50548500  1
  Mo  Mo5  1  0.26398700  0.00235400  0.50316800  1
  O  O6  1  0.57179800  0.76277100  0.56586000  1
  O  O7  1  0.43641400  0.39578200  0.43674400  1
  O  O8  1  0.03946900  0.25847300  0.94401800  1
  O  O9  1  0.96426300  0.64993100  0.04558200  1
  O  O10  1  0.96053100  0.25847300  0.44401800  1
  O  O11  1  0.03573700  0.64993100  0.54558200  1
  O  O12  1  0.42820200  0.76277100  0.06586000  1
  O  O13  1  0.56358600  0.39578200  0.93674400  1
  O  O14  1  0.71770200  0.11077000  0.75485000  1
  O  O15  1  0.28229800  0.11077000  0.25485000  1
  O  O16  1  0.19773500  0.83645900  0.74299600  1
  O  O17  1  0.80226500  0.83645900  0.24299600  1
