# generated using pymatgen
data_ZnP4WO12
_symmetry_space_group_name_H-M   'P 1'
_cell_length_a   7.74186250
_cell_length_b   7.74186250
_cell_length_c   10.40642801
_cell_angle_alpha   67.21571737
_cell_angle_beta   67.21571737
_cell_angle_gamma   69.55216811
_symmetry_Int_Tables_number   1
_chemical_formula_structural   ZnP4WO12
_chemical_formula_sum   'Zn2 P8 W2 O24'
_cell_volume   515.39163115
_cell_formula_units_Z   2
loop_
 _symmetry_equiv_pos_site_id
 _symmetry_equiv_pos_as_xyz
  1  'x, y, z'
loop_
 _atom_site_type_symbol
 _atom_site_label
 _atom_site_symmetry_multiplicity
 _atom_site_fract_x
 _atom_site_fract_y
 _atom_site_fract_z
 _atom_site_occupancy
  Zn  Zn0  1  0.98521500  0.01478500  0.75000000  1
  Zn  Zn1  1  0.01478500  0.98521500  0.25000000  1
  P  P2  1  0.32708100  0.31299600  0.69063000  1
  P  P3  1  0.68700400  0.67291900  0.80937000  1
  P  P4  1  0.67291900  0.68700400  0.30937000  1
  P  P5  1  0.31299600  0.32708100  0.19063000  1
  P  P6  1  0.71768900  0.27557600  0.47073800  1
  P  P7  1  0.72442400  0.28231100  0.02926200  1
  P  P8  1  0.28231100  0.72442400  0.52926200  1
  P  P9  1  0.27557600  0.71768900  0.97073800  1
  W  W10  1  0.50000000  0.00000000  0.00000000  1
  W  W11  1  0.00000000  0.50000000  0.50000000  1
  O  O12  1  0.33399500  0.53141200  0.65894500  1
  O  O13  1  0.46858800  0.66600500  0.84105500  1
  O  O14  1  0.66600500  0.46858800  0.34105500  1
  O  O15  1  0.53141200  0.33399500  0.15894500  1
  O  O16  1  0.50770800  0.23549800  0.56734300  1
  O  O17  1  0.76450200  0.49229200  0.93265700  1
  O  O18  1  0.49229200  0.76450200  0.43265700  1
  O  O19  1  0.23549800  0.50770800  0.06734300  1
  O  O20  1  0.35202600  0.19992700  0.83811200  1
  O  O21  1  0.80007300  0.64797400  0.66188800  1
  O  O22  1  0.64797400  0.80007300  0.16188800  1
  O  O23  1  0.19992700  0.35202600  0.33811200  1
  O  O24  1  0.14806300  0.31097500  0.66446400  1
  O  O25  1  0.68902500  0.85193700  0.83553600  1
  O  O26  1  0.85193700  0.68902500  0.33553600  1
  O  O27  1  0.31097500  0.14806300  0.16446400  1
  O  O28  1  0.79740100  0.32918800  0.55834900  1
  O  O29  1  0.67081200  0.20259900  0.94165100  1
  O  O30  1  0.20259900  0.67081200  0.44165100  1
  O  O31  1  0.32918800  0.79740100  0.05834900  1
  O  O32  1  0.82561100  0.11033900  0.41046000  1
  O  O33  1  0.88966100  0.17438900  0.08954000  1
  O  O34  1  0.17438900  0.88966100  0.58954000  1
  O  O35  1  0.11033900  0.82561100  0.91046000  1
