# generated using pymatgen
data_Mo(PO3)4
_symmetry_space_group_name_H-M   'P 1'
_cell_length_a   7.61608367
_cell_length_b   7.61608367
_cell_length_c   10.08782114
_cell_angle_alpha   67.74914635
_cell_angle_beta   67.74914635
_cell_angle_gamma   66.89588104
_symmetry_Int_Tables_number   1
_chemical_formula_structural   Mo(PO3)4
_chemical_formula_sum   'Mo2 P8 O24'
_cell_volume   479.59425130
_cell_formula_units_Z   2
loop_
 _symmetry_equiv_pos_site_id
 _symmetry_equiv_pos_as_xyz
  1  'x, y, z'
loop_
 _atom_site_type_symbol
 _atom_site_label
 _atom_site_symmetry_multiplicity
 _atom_site_fract_x
 _atom_site_fract_y
 _atom_site_fract_z
 _atom_site_occupancy
  Mo  Mo0  1  0.50000000  0.00000000  0.00000000  1
  Mo  Mo1  1  0.00000000  0.50000000  0.50000000  1
  P  P2  1  0.74801800  0.26261200  0.46835400  1
  P  P3  1  0.73738800  0.25198200  0.03164600  1
  P  P4  1  0.69089800  0.65656500  0.81492600  1
  P  P5  1  0.26261200  0.74801800  0.96835400  1
  P  P6  1  0.25198200  0.73738800  0.53164600  1
  P  P7  1  0.34343500  0.30910200  0.68507400  1
  P  P8  1  0.65656500  0.69089800  0.31492600  1
  P  P9  1  0.30910200  0.34343500  0.18507400  1
  O  O10  1  0.65756900  0.46877100  0.34883800  1
  O  O11  1  0.20295500  0.35030100  0.34400000  1
  O  O12  1  0.79704500  0.64969900  0.65600000  1
  O  O13  1  0.81891800  0.33125500  0.56139600  1
  O  O14  1  0.33125500  0.81891800  0.06139600  1
  O  O15  1  0.46877100  0.65756900  0.84883800  1
  O  O16  1  0.30594700  0.16961500  0.14867200  1
  O  O17  1  0.21120300  0.54450200  0.07824500  1
  O  O18  1  0.54450200  0.21120300  0.57824500  1
  O  O19  1  0.10530400  0.87598000  0.89737900  1
  O  O20  1  0.34243100  0.53122900  0.65116200  1
  O  O21  1  0.35030100  0.20295500  0.84400000  1
  O  O22  1  0.83038500  0.69405300  0.35132800  1
  O  O23  1  0.12402000  0.89469600  0.60262100  1
  O  O24  1  0.87598000  0.10530400  0.39737900  1
  O  O25  1  0.66874500  0.18108200  0.93860400  1
  O  O26  1  0.64969900  0.79704500  0.15600000  1
  O  O27  1  0.18108200  0.66874500  0.43860400  1
  O  O28  1  0.89469600  0.12402000  0.10262100  1
  O  O29  1  0.45549800  0.78879700  0.42175500  1
  O  O30  1  0.78879700  0.45549800  0.92175500  1
  O  O31  1  0.69405300  0.83038500  0.85132800  1
  O  O32  1  0.53122900  0.34243100  0.15116200  1
  O  O33  1  0.16961500  0.30594700  0.64867200  1
