# generated using pymatgen
data_CaCr(PO3)4
_symmetry_space_group_name_H-M   'P 1'
_cell_length_a   7.56403678
_cell_length_b   7.56403678
_cell_length_c   10.58184467
_cell_angle_alpha   67.36648710
_cell_angle_beta   67.36648710
_cell_angle_gamma   71.55530155
_symmetry_Int_Tables_number   1
_chemical_formula_structural   CaCr(PO3)4
_chemical_formula_sum   'Ca2 Cr2 P8 O24'
_cell_volume   505.60835742
_cell_formula_units_Z   2
loop_
 _symmetry_equiv_pos_site_id
 _symmetry_equiv_pos_as_xyz
  1  'x, y, z'
loop_
 _atom_site_type_symbol
 _atom_site_label
 _atom_site_symmetry_multiplicity
 _atom_site_fract_x
 _atom_site_fract_y
 _atom_site_fract_z
 _atom_site_occupancy
  Ca  Ca0  1  0.96044200  0.03955800  0.75000000  1
  Ca  Ca1  1  0.03955800  0.96044200  0.25000000  1
  Cr  Cr2  1  0.50000000  0.00000000  0.00000000  1
  Cr  Cr3  1  0.00000000  0.50000000  0.50000000  1
  P  P4  1  0.31984600  0.30230700  0.69215900  1
  P  P5  1  0.69769300  0.68015400  0.80784100  1
  P  P6  1  0.68015400  0.69769300  0.30784100  1
  P  P7  1  0.30230700  0.31984600  0.19215900  1
  P  P8  1  0.72072500  0.26943900  0.47678400  1
  P  P9  1  0.73056100  0.27927500  0.02321600  1
  P  P10  1  0.27927500  0.73056100  0.52321600  1
  P  P11  1  0.26943900  0.72072500  0.97678400  1
  O  O12  1  0.32145000  0.53166600  0.64972500  1
  O  O13  1  0.46833400  0.67855000  0.85027500  1
  O  O14  1  0.67855000  0.46833400  0.35027500  1
  O  O15  1  0.53166600  0.32145000  0.14972500  1
  O  O16  1  0.50551400  0.22833100  0.56879800  1
  O  O17  1  0.77166900  0.49448600  0.93120200  1
  O  O18  1  0.49448600  0.77166900  0.43120200  1
  O  O19  1  0.22833100  0.50551400  0.06879800  1
  O  O20  1  0.34816700  0.20186900  0.83516800  1
  O  O21  1  0.79813100  0.65183300  0.66483200  1
  O  O22  1  0.65183300  0.79813100  0.16483200  1
  O  O23  1  0.20186900  0.34816700  0.33516800  1
  O  O24  1  0.14098700  0.28686600  0.66842600  1
  O  O25  1  0.71313400  0.85901300  0.83157400  1
  O  O26  1  0.85901300  0.71313400  0.33157400  1
  O  O27  1  0.28686600  0.14098700  0.16842600  1
  O  O28  1  0.80894900  0.30948700  0.56854100  1
  O  O29  1  0.69051300  0.19105100  0.93145900  1
  O  O30  1  0.19105100  0.69051300  0.43145900  1
  O  O31  1  0.30948700  0.80894900  0.06854100  1
  O  O32  1  0.82975600  0.10684400  0.41396700  1
  O  O33  1  0.89315600  0.17024400  0.08603300  1
  O  O34  1  0.17024400  0.89315600  0.58603300  1
  O  O35  1  0.10684400  0.82975600  0.91396700  1
