# generated using pymatgen
data_Ta2Zn2CuO8
_symmetry_space_group_name_H-M   'P 1'
_cell_length_a   10.14458117
_cell_length_b   10.14458117
_cell_length_c   5.23050036
_cell_angle_alpha   87.71357680
_cell_angle_beta   87.71357680
_cell_angle_gamma   34.40182909
_symmetry_Int_Tables_number   1
_chemical_formula_structural   Ta2Zn2CuO8
_chemical_formula_sum   'Ta4 Zn4 Cu2 O16'
_cell_volume   303.86154665
_cell_formula_units_Z   2
loop_
 _symmetry_equiv_pos_site_id
 _symmetry_equiv_pos_as_xyz
  1  'x, y, z'
loop_
 _atom_site_type_symbol
 _atom_site_label
 _atom_site_symmetry_multiplicity
 _atom_site_fract_x
 _atom_site_fract_y
 _atom_site_fract_z
 _atom_site_occupancy
  Ta  Ta0  1  0.04378800  0.72596100  0.23057900  1
  Ta  Ta1  1  0.27403900  0.95621200  0.26942100  1
  Ta  Ta2  1  0.95621200  0.27403900  0.76942100  1
  Ta  Ta3  1  0.72596100  0.04378800  0.73057900  1
  Zn  Zn4  1  0.87564900  0.56127300  0.26505200  1
  Zn  Zn5  1  0.43872700  0.12435100  0.23494800  1
  Zn  Zn6  1  0.12435100  0.43872700  0.73494800  1
  Zn  Zn7  1  0.56127300  0.87564900  0.76505200  1
  Cu  Cu8  1  0.64398500  0.35601500  0.25000000  1
  Cu  Cu9  1  0.35601500  0.64398500  0.75000000  1
  O  O10  1  0.04939000  0.80830200  0.56060000  1
  O  O11  1  0.19169800  0.95061000  0.93940000  1
  O  O12  1  0.95061000  0.19169800  0.43940000  1
  O  O13  1  0.80830200  0.04939000  0.06060000  1
  O  O14  1  0.31083400  0.57632700  0.06582600  1
  O  O15  1  0.42367300  0.68916600  0.43417400  1
  O  O16  1  0.68916600  0.42367300  0.93417400  1
  O  O17  1  0.57632700  0.31083400  0.56582600  1
  O  O18  1  0.92417100  0.71763000  0.93452500  1
  O  O19  1  0.28237000  0.07582900  0.56547500  1
  O  O20  1  0.45457700  0.15995800  0.85980800  1
  O  O21  1  0.84004200  0.54542300  0.64019200  1
  O  O22  1  0.54542300  0.84004200  0.14019200  1
  O  O23  1  0.15995800  0.45457700  0.35980800  1
  O  O24  1  0.71763000  0.92417100  0.43452500  1
  O  O25  1  0.07582900  0.28237000  0.06547500  1
