# generated using pymatgen
data_YCu3(SnO3)4
_symmetry_space_group_name_H-M   'P 1'
_cell_length_a   6.74633963
_cell_length_b   6.74633963
_cell_length_c   6.74633963
_cell_angle_alpha   109.47122063
_cell_angle_beta   109.47122063
_cell_angle_gamma   109.47122063
_symmetry_Int_Tables_number   1
_chemical_formula_structural   YCu3(SnO3)4
_chemical_formula_sum   'Y1 Cu3 Sn4 O12'
_cell_volume   236.36475155
_cell_formula_units_Z   1
loop_
 _symmetry_equiv_pos_site_id
 _symmetry_equiv_pos_as_xyz
  1  'x, y, z'
loop_
 _atom_site_type_symbol
 _atom_site_label
 _atom_site_symmetry_multiplicity
 _atom_site_fract_x
 _atom_site_fract_y
 _atom_site_fract_z
 _atom_site_occupancy
  Y  Y0  1  0.00000000  0.00000000  0.00000000  1
  Cu  Cu1  1  0.00000000  0.50000000  0.50000000  1
  Cu  Cu2  1  0.50000000  0.00000000  0.50000000  1
  Cu  Cu3  1  0.50000000  0.50000000  0.00000000  1
  Sn  Sn4  1  0.00000000  0.00000000  0.50000000  1
  Sn  Sn5  1  0.00000000  0.50000000  0.00000000  1
  Sn  Sn6  1  0.50000000  0.00000000  0.00000000  1
  Sn  Sn7  1  0.50000000  0.50000000  0.50000000  1
  O  O8  1  0.29687000  0.12863600  0.83176500  1
  O  O9  1  0.70313000  0.87136400  0.16823500  1
  O  O10  1  0.70313000  0.53489500  0.83176500  1
  O  O11  1  0.46510500  0.16823500  0.29687000  1
  O  O12  1  0.16823500  0.29687000  0.46510500  1
  O  O13  1  0.83176500  0.29687000  0.12863600  1
  O  O14  1  0.87136400  0.16823500  0.70313000  1
  O  O15  1  0.83176500  0.70313000  0.53489500  1
  O  O16  1  0.29687000  0.46510500  0.16823500  1
  O  O17  1  0.53489500  0.83176500  0.70313000  1
  O  O18  1  0.16823500  0.70313000  0.87136400  1
  O  O19  1  0.12863600  0.83176500  0.29687000  1
