# generated using pymatgen
data_Sr2YTlCr2O7
_symmetry_space_group_name_H-M   'P 1'
_cell_length_a   3.88516800
_cell_length_b   3.88516800
_cell_length_c   12.77344800
_cell_angle_alpha   90.00000000
_cell_angle_beta   90.00000000
_cell_angle_gamma   90.00000000
_symmetry_Int_Tables_number   1
_chemical_formula_structural   Sr2YTlCr2O7
_chemical_formula_sum   'Sr2 Y1 Tl1 Cr2 O7'
_cell_volume   192.80919900
_cell_formula_units_Z   1
loop_
 _symmetry_equiv_pos_site_id
 _symmetry_equiv_pos_as_xyz
  1  'x, y, z'
loop_
 _atom_site_type_symbol
 _atom_site_label
 _atom_site_symmetry_multiplicity
 _atom_site_fract_x
 _atom_site_fract_y
 _atom_site_fract_z
 _atom_site_occupancy
  Sr  Sr0  1  0.50000000  0.50000000  0.80862100  1
  Sr  Sr1  1  0.50000000  0.50000000  0.19137900  1
  Y  Y2  1  0.50000000  0.50000000  0.50000000  1
  Tl  Tl3  1  0.00000000  0.00000000  0.00000000  1
  Cr  Cr4  1  0.00000000  0.00000000  0.64400200  1
  Cr  Cr5  1  0.00000000  0.00000000  0.35599800  1
  O  O6  1  0.50000000  0.00000000  0.61106500  1
  O  O7  1  0.00000000  0.50000000  0.61106500  1
  O  O8  1  0.50000000  0.00000000  0.38893500  1
  O  O9  1  0.00000000  0.50000000  0.38893500  1
  O  O10  1  0.00000000  0.00000000  0.79398300  1
  O  O11  1  0.00000000  0.00000000  0.20601700  1
  O  O12  1  0.50000000  0.50000000  0.00000000  1
