# generated using pymatgen
data_ZnCr5O7
_symmetry_space_group_name_H-M   'P 1'
_cell_length_a   5.33734383
_cell_length_b   5.33734383
_cell_length_c   18.40000300
_cell_angle_alpha   90.00000000
_cell_angle_beta   90.00000000
_cell_angle_gamma   147.40314788
_symmetry_Int_Tables_number   1
_chemical_formula_structural   ZnCr5O7
_chemical_formula_sum   'Zn2 Cr10 O14'
_cell_volume   282.38068089
_cell_formula_units_Z   2
loop_
 _symmetry_equiv_pos_site_id
 _symmetry_equiv_pos_as_xyz
  1  'x, y, z'
loop_
 _atom_site_type_symbol
 _atom_site_label
 _atom_site_symmetry_multiplicity
 _atom_site_fract_x
 _atom_site_fract_y
 _atom_site_fract_z
 _atom_site_occupancy
  Zn  Zn0  1  0.20350200  0.79649800  0.75000000  1
  Zn  Zn1  1  0.79649800  0.20350200  0.25000000  1
  Cr  Cr2  1  0.72566300  0.27433700  0.57748400  1
  Cr  Cr3  1  0.54114400  0.45885600  0.15491400  1
  Cr  Cr4  1  0.00000000  0.00000000  0.50000000  1
  Cr  Cr5  1  0.00000000  0.00000000  0.00000000  1
  Cr  Cr6  1  0.45885600  0.54114400  0.84508600  1
  Cr  Cr7  1  0.27433700  0.72566300  0.42251600  1
  Cr  Cr8  1  0.27433700  0.72566300  0.07748400  1
  Cr  Cr9  1  0.72566300  0.27433700  0.92251600  1
  Cr  Cr10  1  0.45885600  0.54114400  0.65491400  1
  Cr  Cr11  1  0.54114400  0.45885600  0.34508600  1
  O  O12  1  0.36956200  0.63043800  0.97571700  1
  O  O13  1  0.63043800  0.36956200  0.02428300  1
  O  O14  1  0.63043800  0.36956200  0.47571700  1
  O  O15  1  0.36956200  0.63043800  0.52428300  1
  O  O16  1  0.82315300  0.17684700  0.82712900  1
  O  O17  1  0.17684700  0.82315300  0.17287100  1
  O  O18  1  0.17684700  0.82315300  0.32712900  1
  O  O19  1  0.82315300  0.17684700  0.67287100  1
  O  O20  1  0.06955900  0.93044100  0.89571700  1
  O  O21  1  0.93044100  0.06955900  0.10428300  1
  O  O22  1  0.93044100  0.06955900  0.39571700  1
  O  O23  1  0.06955900  0.93044100  0.60428300  1
  O  O24  1  0.56670900  0.43329100  0.75000000  1
  O  O25  1  0.43329100  0.56670900  0.25000000  1
