# generated using pymatgen
data_CaCu(PO3)4
_symmetry_space_group_name_H-M   'P 1'
_cell_length_a   7.44111097
_cell_length_b   7.44111097
_cell_length_c   10.27035298
_cell_angle_alpha   68.53243946
_cell_angle_beta   68.53243946
_cell_angle_gamma   72.22402659
_symmetry_Int_Tables_number   1
_chemical_formula_structural   CaCu(PO3)4
_chemical_formula_sum   'Ca2 Cu2 P8 O24'
_cell_volume   482.76797435
_cell_formula_units_Z   2
loop_
 _symmetry_equiv_pos_site_id
 _symmetry_equiv_pos_as_xyz
  1  'x, y, z'
loop_
 _atom_site_type_symbol
 _atom_site_label
 _atom_site_symmetry_multiplicity
 _atom_site_fract_x
 _atom_site_fract_y
 _atom_site_fract_z
 _atom_site_occupancy
  Ca  Ca0  1  0.95000100  0.04999900  0.75000000  1
  Ca  Ca1  1  0.04999900  0.95000100  0.25000000  1
  Cu  Cu2  1  0.00000000  0.50000000  0.50000000  1
  Cu  Cu3  1  0.50000000  0.00000000  0.00000000  1
  P  P4  1  0.69319100  0.68386600  0.80942300  1
  P  P5  1  0.31613400  0.30680900  0.69057700  1
  P  P6  1  0.30680900  0.31613400  0.19057700  1
  P  P7  1  0.68386600  0.69319100  0.30942300  1
  P  P8  1  0.73045400  0.28226700  0.02387100  1
  P  P9  1  0.71773300  0.26954600  0.47612900  1
  P  P10  1  0.26954600  0.71773300  0.97612900  1
  P  P11  1  0.28226700  0.73045400  0.52387100  1
  O  O12  1  0.46575900  0.67192800  0.84796000  1
  O  O13  1  0.32807200  0.53424100  0.65204000  1
  O  O14  1  0.53424100  0.32807200  0.15204000  1
  O  O15  1  0.67192800  0.46575900  0.34796000  1
  O  O16  1  0.77325800  0.49895100  0.93217400  1
  O  O17  1  0.50104900  0.22674200  0.56782600  1
  O  O18  1  0.22674200  0.50104900  0.06782600  1
  O  O19  1  0.49895100  0.77325800  0.43217400  1
  O  O20  1  0.80195300  0.66393100  0.66112500  1
  O  O21  1  0.33606900  0.19804700  0.83887500  1
  O  O22  1  0.19804700  0.33606900  0.33887500  1
  O  O23  1  0.66393100  0.80195300  0.16112500  1
  O  O24  1  0.69665500  0.86857500  0.84017500  1
  O  O25  1  0.13142500  0.30334500  0.65982500  1
  O  O26  1  0.30334500  0.13142500  0.15982500  1
  O  O27  1  0.86857500  0.69665500  0.34017500  1
  O  O28  1  0.68293800  0.19673000  0.92842600  1
  O  O29  1  0.80327000  0.31706200  0.57157400  1
  O  O30  1  0.31706200  0.80327000  0.07157400  1
  O  O31  1  0.19673000  0.68293800  0.42842600  1
  O  O32  1  0.89694500  0.17109500  0.08606200  1
  O  O33  1  0.82890500  0.10305500  0.41393800  1
  O  O34  1  0.10305500  0.82890500  0.91393800  1
  O  O35  1  0.17109500  0.89694500  0.58606200  1
