# generated using pymatgen
data_Zn(WO3)2
_symmetry_space_group_name_H-M   'P 1'
_cell_length_a   5.34741200
_cell_length_b   5.47209000
_cell_length_c   7.67083900
_cell_angle_alpha   90.00000000
_cell_angle_beta   90.00000000
_cell_angle_gamma   90.00000000
_symmetry_Int_Tables_number   1
_chemical_formula_structural   Zn(WO3)2
_chemical_formula_sum   'Zn2 W4 O12'
_cell_volume   224.46040675
_cell_formula_units_Z   2
loop_
 _symmetry_equiv_pos_site_id
 _symmetry_equiv_pos_as_xyz
  1  'x, y, z'
loop_
 _atom_site_type_symbol
 _atom_site_label
 _atom_site_symmetry_multiplicity
 _atom_site_fract_x
 _atom_site_fract_y
 _atom_site_fract_z
 _atom_site_occupancy
  Zn  Zn0  1  0.50187000  0.23508900  0.50000000  1
  Zn  Zn1  1  0.00187000  0.76491100  0.00000000  1
  W  W2  1  0.50210200  0.74759800  0.74914800  1
  W  W3  1  0.00210200  0.25240200  0.75085200  1
  W  W4  1  0.00210200  0.25240200  0.24914800  1
  W  W5  1  0.50210200  0.74759800  0.25085200  1
  O  O6  1  0.67809300  0.06028700  0.30571900  1
  O  O7  1  0.17809300  0.93971300  0.19428100  1
  O  O8  1  0.79919400  0.53943600  0.70080700  1
  O  O9  1  0.29919400  0.46056400  0.79919300  1
  O  O10  1  0.29919400  0.46056400  0.20080700  1
  O  O11  1  0.79919400  0.53943600  0.29919300  1
  O  O12  1  0.17809300  0.93971300  0.80571900  1
  O  O13  1  0.67809300  0.06028700  0.69428100  1
  O  O14  1  0.13540000  0.22615900  0.50000000  1
  O  O15  1  0.63540000  0.77384100  0.00000000  1
  O  O16  1  0.40697200  0.72618700  0.50000000  1
  O  O17  1  0.90697200  0.27381300  0.00000000  1
