# generated using pymatgen
data_Ba2ZnCuAg2F14
_symmetry_space_group_name_H-M   'P 1'
_cell_length_a   7.69024817
_cell_length_b   7.69024817
_cell_length_c   15.45770591
_cell_angle_alpha   88.40745003
_cell_angle_beta   88.40745003
_cell_angle_gamma   41.18725586
_symmetry_Int_Tables_number   1
_chemical_formula_structural   Ba2ZnCuAg2F14
_chemical_formula_sum   'Ba4 Zn2 Cu2 Ag4 F28'
_cell_volume   601.73408397
_cell_formula_units_Z   2
loop_
 _symmetry_equiv_pos_site_id
 _symmetry_equiv_pos_as_xyz
  1  'x, y, z'
loop_
 _atom_site_type_symbol
 _atom_site_label
 _atom_site_symmetry_multiplicity
 _atom_site_fract_x
 _atom_site_fract_y
 _atom_site_fract_z
 _atom_site_occupancy
  Ba  Ba0  1  0.09983100  0.27338600  0.37427200  1
  Ba  Ba1  1  0.27338600  0.09983100  0.87427200  1
  Ba  Ba2  1  0.90016900  0.72661400  0.62572800  1
  Ba  Ba3  1  0.72661400  0.90016900  0.12572800  1
  Zn  Zn4  1  0.42503000  0.57497000  0.25000000  1
  Zn  Zn5  1  0.57497000  0.42503000  0.75000000  1
  Cu  Cu6  1  0.50000000  0.50000000  0.00000000  1
  Cu  Cu7  1  0.50000000  0.50000000  0.50000000  1
  Ag  Ag8  1  0.08929100  0.14507200  0.12741200  1
  Ag  Ag9  1  0.91070900  0.85492800  0.87258800  1
  Ag  Ag10  1  0.14507200  0.08929100  0.62741200  1
  Ag  Ag11  1  0.85492800  0.91070900  0.37258800  1
  F  F12  1  0.86231100  0.10954800  0.66527800  1
  F  F13  1  0.86610200  0.41889500  0.54042100  1
  F  F14  1  0.13389800  0.58110500  0.45957900  1
  F  F15  1  0.62646500  0.86312100  0.40467100  1
  F  F16  1  0.62019000  0.46883000  0.38751100  1
  F  F17  1  0.53117000  0.37981000  0.11248900  1
  F  F18  1  0.41889500  0.86610200  0.04042100  1
  F  F19  1  0.89045200  0.13768900  0.83472200  1
  F  F20  1  0.37135800  0.97921100  0.22897500  1
  F  F21  1  0.37353500  0.13687900  0.59532900  1
  F  F22  1  0.77350700  0.43499700  0.22188900  1
  F  F23  1  0.13687900  0.37353500  0.09532900  1
  F  F24  1  0.43499700  0.77350700  0.72188900  1
  F  F25  1  0.22649300  0.56500300  0.77811100  1
  F  F26  1  0.46883000  0.62019000  0.88751100  1
  F  F27  1  0.62864200  0.02078900  0.77102500  1
  F  F28  1  0.14202400  0.70755900  0.99077500  1
  F  F29  1  0.13768900  0.89045200  0.33472200  1
  F  F30  1  0.85797600  0.29244100  0.00922500  1
  F  F31  1  0.70755900  0.14202400  0.49077500  1
  F  F32  1  0.58110500  0.13389800  0.95957900  1
  F  F33  1  0.56500300  0.22649300  0.27811100  1
  F  F34  1  0.97921100  0.37135800  0.72897500  1
  F  F35  1  0.29244100  0.85797600  0.50922500  1
  F  F36  1  0.37981000  0.53117000  0.61248900  1
  F  F37  1  0.10954800  0.86231100  0.16527800  1
  F  F38  1  0.02078900  0.62864200  0.27102500  1
  F  F39  1  0.86312100  0.62646500  0.90467100  1
