# generated using pymatgen
data_YCu3(SbO3)4
_symmetry_space_group_name_H-M   'P 1'
_cell_length_a   6.86455036
_cell_length_b   6.86455036
_cell_length_c   6.86455036
_cell_angle_alpha   109.47122063
_cell_angle_beta   109.47122063
_cell_angle_gamma   109.47122063
_symmetry_Int_Tables_number   1
_chemical_formula_structural   YCu3(SbO3)4
_chemical_formula_sum   'Y1 Cu3 Sb4 O12'
_cell_volume   249.00862847
_cell_formula_units_Z   1
loop_
 _symmetry_equiv_pos_site_id
 _symmetry_equiv_pos_as_xyz
  1  'x, y, z'
loop_
 _atom_site_type_symbol
 _atom_site_label
 _atom_site_symmetry_multiplicity
 _atom_site_fract_x
 _atom_site_fract_y
 _atom_site_fract_z
 _atom_site_occupancy
  Y  Y0  1  0.00000000  0.00000000  0.00000000  1
  Cu  Cu1  1  0.00000000  0.50000000  0.50000000  1
  Cu  Cu2  1  0.50000000  0.50000000  0.00000000  1
  Cu  Cu3  1  0.50000000  0.00000000  0.50000000  1
  Sb  Sb4  1  0.50000000  0.00000000  0.00000000  1
  Sb  Sb5  1  0.50000000  0.50000000  0.50000000  1
  Sb  Sb6  1  0.00000000  0.50000000  0.00000000  1
  Sb  Sb7  1  0.00000000  0.00000000  0.50000000  1
  O  O8  1  0.29361000  0.83246800  0.12607800  1
  O  O9  1  0.70639000  0.16753200  0.87392200  1
  O  O10  1  0.70639000  0.83246800  0.53885800  1
  O  O11  1  0.87392200  0.70639000  0.16753200  1
  O  O12  1  0.83246800  0.12607800  0.29361000  1
  O  O13  1  0.16753200  0.46114200  0.29361000  1
  O  O14  1  0.46114200  0.29361000  0.16753200  1
  O  O15  1  0.16753200  0.87392200  0.70639000  1
  O  O16  1  0.29361000  0.16753200  0.46114200  1
  O  O17  1  0.12607800  0.29361000  0.83246800  1
  O  O18  1  0.83246800  0.53885800  0.70639000  1
  O  O19  1  0.53885800  0.70639000  0.83246800  1
