# generated using pymatgen
data_Sr2YCr2GaO7
_symmetry_space_group_name_H-M   'P 1'
_cell_length_a   12.20506344
_cell_length_b   12.20506344
_cell_length_c   12.20506344
_cell_angle_alpha   153.42834037
_cell_angle_beta   152.79186075
_cell_angle_gamma   38.39690270
_symmetry_Int_Tables_number   1
_chemical_formula_structural   Sr2YCr2GaO7
_chemical_formula_sum   'Sr4 Y2 Cr4 Ga2 O14'
_cell_volume   371.23963811
_cell_formula_units_Z   2
loop_
 _symmetry_equiv_pos_site_id
 _symmetry_equiv_pos_as_xyz
  1  'x, y, z'
loop_
 _atom_site_type_symbol
 _atom_site_label
 _atom_site_symmetry_multiplicity
 _atom_site_fract_x
 _atom_site_fract_y
 _atom_site_fract_z
 _atom_site_occupancy
  Sr  Sr0  1  0.87215100  0.82961200  0.01021500  1
  Sr  Sr1  1  0.12784900  0.13806400  0.95746000  1
  Sr  Sr2  1  0.31939700  0.32961200  0.95746000  1
  Sr  Sr3  1  0.68060300  0.63806400  0.01021500  1
  Y  Y4  1  0.50000000  0.49508400  0.99508400  1
  Y  Y5  1  0.00000000  0.99508400  0.99508400  1
  Cr  Cr6  1  0.07709400  0.57301000  0.49991600  1
  Cr  Cr7  1  0.42690600  0.92282200  0.49991600  1
  Cr  Cr8  1  0.57309400  0.07301000  0.49591600  1
  Cr  Cr9  1  0.92290600  0.42282200  0.49591600  1
  Ga  Ga10  1  0.32199200  0.71418300  0.53617500  1
  Ga  Ga11  1  0.67800800  0.21418300  0.39219000  1
  O  O12  1  0.22472600  0.64556200  0.99855400  1
  O  O13  1  0.38324200  0.37608300  0.25932500  1
  O  O14  1  0.14700700  0.14556200  0.42083600  1
  O  O15  1  0.73178500  0.20641200  0.58220100  1
  O  O16  1  0.27342300  0.86022500  0.99943600  1
  O  O17  1  0.36078900  0.36022500  0.58680200  1
  O  O18  1  0.61675800  0.87608300  0.99284100  1
  O  O19  1  0.85299200  0.27382800  0.99855400  1
  O  O20  1  0.77527400  0.77382800  0.42083600  1
  O  O21  1  0.12421000  0.70641200  0.47462600  1
  O  O22  1  0.26821500  0.85041600  0.47462600  1
  O  O23  1  0.87579000  0.35041600  0.58220100  1
  O  O24  1  0.72657700  0.72601300  0.58680200  1
  O  O25  1  0.63921100  0.22601300  0.99943600  1
