# generated using pymatgen
data_Ba2TlSb2O7
_symmetry_space_group_name_H-M   'P 1'
_cell_length_a   3.95281500
_cell_length_b   3.95281500
_cell_length_c   13.49216800
_cell_angle_alpha   90.00000000
_cell_angle_beta   90.00000000
_cell_angle_gamma   90.00000000
_symmetry_Int_Tables_number   1
_chemical_formula_structural   Ba2TlSb2O7
_chemical_formula_sum   'Ba2 Tl1 Sb2 O7'
_cell_volume   210.81170371
_cell_formula_units_Z   1
loop_
 _symmetry_equiv_pos_site_id
 _symmetry_equiv_pos_as_xyz
  1  'x, y, z'
loop_
 _atom_site_type_symbol
 _atom_site_label
 _atom_site_symmetry_multiplicity
 _atom_site_fract_x
 _atom_site_fract_y
 _atom_site_fract_z
 _atom_site_occupancy
  Ba  Ba0  1  0.50000000  0.50000000  0.69269400  1
  Ba  Ba1  1  0.50000000  0.50000000  0.30730600  1
  Tl  Tl2  1  0.00000000  0.00000000  0.50000000  1
  Sb  Sb3  1  0.00000000  0.00000000  0.88852300  1
  Sb  Sb4  1  0.00000000  0.00000000  0.11147700  1
  O  O5  1  0.50000000  0.50000000  0.50000000  1
  O  O6  1  0.00000000  0.50000000  0.85123800  1
  O  O7  1  0.50000000  0.00000000  0.85123800  1
  O  O8  1  0.00000000  0.50000000  0.14876200  1
  O  O9  1  0.50000000  0.00000000  0.14876200  1
  O  O10  1  0.00000000  0.00000000  0.65635300  1
  O  O11  1  0.00000000  0.00000000  0.34364700  1
