# generated using pymatgen
data_MgTiO2
_symmetry_space_group_name_H-M   'P 1'
_cell_length_a   2.89108500
_cell_length_b   7.92296469
_cell_length_c   8.03568963
_cell_angle_alpha   87.19500636
_cell_angle_beta   79.85843741
_cell_angle_gamma   79.52861338
_symmetry_Int_Tables_number   1
_chemical_formula_structural   MgTiO2
_chemical_formula_sum   'Mg4 Ti4 O8'
_cell_volume   178.14449738
_cell_formula_units_Z   4
loop_
 _symmetry_equiv_pos_site_id
 _symmetry_equiv_pos_as_xyz
  1  'x, y, z'
loop_
 _atom_site_type_symbol
 _atom_site_label
 _atom_site_symmetry_multiplicity
 _atom_site_fract_x
 _atom_site_fract_y
 _atom_site_fract_z
 _atom_site_occupancy
  Mg  Mg0  1  0.68455300  0.95002400  0.18760700  1
  Mg  Mg1  1  0.31544700  0.04997600  0.81239300  1
  Mg  Mg2  1  0.43339300  0.24659600  0.39344000  1
  Mg  Mg3  1  0.56660700  0.75340400  0.60656000  1
  Ti  Ti4  1  0.96032800  0.66096600  0.91855700  1
  Ti  Ti5  1  0.32264000  0.60586500  0.25550200  1
  Ti  Ti6  1  0.67736000  0.39413500  0.74449800  1
  Ti  Ti7  1  0.03967200  0.33903400  0.08144300  1
  O  O8  1  0.67820100  0.19819500  0.94066600  1
  O  O9  1  0.12911900  0.56594000  0.66971000  1
  O  O10  1  0.87088100  0.43406000  0.33029000  1
  O  O11  1  0.32179900  0.80180500  0.05933400  1
  O  O12  1  0.93533100  0.88379700  0.73934800  1
  O  O13  1  0.69639000  0.75912000  0.35856300  1
  O  O14  1  0.06466900  0.11620300  0.26065200  1
  O  O15  1  0.30361000  0.24088000  0.64143700  1
