# generated using pymatgen
data_AlFe3Se2ClO8
_symmetry_space_group_name_H-M   'P 1'
_cell_length_a   5.57054100
_cell_length_b   8.29611151
_cell_length_c   9.92966320
_cell_angle_alpha   90.64379968
_cell_angle_beta   91.24093027
_cell_angle_gamma   90.12740139
_symmetry_Int_Tables_number   1
_chemical_formula_structural   AlFe3Se2ClO8
_chemical_formula_sum   'Al2 Fe6 Se4 Cl2 O16'
_cell_volume   458.74977767
_cell_formula_units_Z   2
loop_
 _symmetry_equiv_pos_site_id
 _symmetry_equiv_pos_as_xyz
  1  'x, y, z'
loop_
 _atom_site_type_symbol
 _atom_site_label
 _atom_site_symmetry_multiplicity
 _atom_site_fract_x
 _atom_site_fract_y
 _atom_site_fract_z
 _atom_site_occupancy
  Al  Al0  1  0.74636300  0.15701600  0.75184600  1
  Al  Al1  1  0.25363700  0.84298400  0.24815400  1
  Fe  Fe2  1  0.50000000  0.00000000  0.00000000  1
  Fe  Fe3  1  0.50000000  0.00000000  0.50000000  1
  Fe  Fe4  1  0.00000000  0.00000000  0.00000000  1
  Fe  Fe5  1  0.23727800  0.22755000  0.24983900  1
  Fe  Fe6  1  0.76272200  0.77245000  0.75016100  1
  Fe  Fe7  1  0.00000000  0.00000000  0.50000000  1
  Se  Se8  1  0.24831000  0.36236000  0.91500100  1
  Se  Se9  1  0.75169000  0.63764000  0.08499900  1
  Se  Se10  1  0.25287100  0.36239400  0.58410800  1
  Se  Se11  1  0.74712900  0.63760600  0.41589200  1
  Cl  Cl12  1  0.75796600  0.17805800  0.24689000  1
  Cl  Cl13  1  0.24203400  0.82194200  0.75311000  1
  O  O14  1  0.74511100  0.97891200  0.86923600  1
  O  O15  1  0.75102100  0.61581300  0.91441000  1
  O  O16  1  0.25264100  0.38525300  0.41481600  1
  O  O17  1  0.49102800  0.22789100  0.89016200  1
  O  O18  1  0.49948100  0.77172500  0.38854900  1
  O  O19  1  0.98925100  0.77216000  0.39242500  1
  O  O20  1  0.25488900  0.02108800  0.13076400  1
  O  O21  1  0.00047100  0.22856100  0.88637100  1
  O  O22  1  0.01074900  0.22784000  0.60757500  1
  O  O23  1  0.99952900  0.77143900  0.11362900  1
  O  O24  1  0.75305200  0.97834600  0.63159300  1
  O  O25  1  0.24694800  0.02165400  0.36840700  1
  O  O26  1  0.50897200  0.77210900  0.10983800  1
  O  O27  1  0.50051900  0.22827500  0.61145100  1
  O  O28  1  0.24897900  0.38418700  0.08559000  1
  O  O29  1  0.74735900  0.61474700  0.58518400  1
