# generated using pymatgen
data_VPO5
_symmetry_space_group_name_H-M   'P 1'
_cell_length_a   5.18290640
_cell_length_b   5.18290640
_cell_length_c   7.51004094
_cell_angle_alpha   74.73604807
_cell_angle_beta   74.73604807
_cell_angle_gamma   97.11206105
_symmetry_Int_Tables_number   1
_chemical_formula_structural   VPO5
_chemical_formula_sum   'V2 P2 O10'
_cell_volume   183.66974393
_cell_formula_units_Z   2
loop_
 _symmetry_equiv_pos_site_id
 _symmetry_equiv_pos_as_xyz
  1  'x, y, z'
loop_
 _atom_site_type_symbol
 _atom_site_label
 _atom_site_symmetry_multiplicity
 _atom_site_fract_x
 _atom_site_fract_y
 _atom_site_fract_z
 _atom_site_occupancy
  V  V0  1  0.94475600  0.48222100  0.53782900  1
  V  V1  1  0.48222100  0.94475600  0.03782900  1
  P  P2  1  0.92846000  0.07865500  0.24954700  1
  P  P3  1  0.07865500  0.92846000  0.74954700  1
  O  O4  1  0.23687500  0.15941300  0.12802600  1
  O  O5  1  0.84638700  0.77163200  0.36525700  1
  O  O6  1  0.77163200  0.84638700  0.86525700  1
  O  O7  1  0.15941300  0.23687500  0.62802600  1
  O  O8  1  0.13640300  0.75510000  0.60916200  1
  O  O9  1  0.25891400  0.87132200  0.88222800  1
  O  O10  1  0.87132200  0.25891400  0.38222800  1
  O  O11  1  0.75510000  0.13640300  0.10916200  1
  O  O12  1  0.66892800  0.37146300  0.71995000  1
  O  O13  1  0.37146300  0.66892800  0.21995000  1
