# generated using pymatgen
data_YMnF5
_symmetry_space_group_name_H-M   'P 1'
_cell_length_a   5.86187346
_cell_length_b   5.86187346
_cell_length_c   5.86187346
_cell_angle_alpha   137.55599550
_cell_angle_beta   106.29609850
_cell_angle_gamma   88.93775595
_symmetry_Int_Tables_number   1
_chemical_formula_structural   YMnF5
_chemical_formula_sum   'Y1 Mn1 F5'
_cell_volume   124.82469732
_cell_formula_units_Z   1
loop_
 _symmetry_equiv_pos_site_id
 _symmetry_equiv_pos_as_xyz
  1  'x, y, z'
loop_
 _atom_site_type_symbol
 _atom_site_label
 _atom_site_symmetry_multiplicity
 _atom_site_fract_x
 _atom_site_fract_y
 _atom_site_fract_z
 _atom_site_occupancy
  Y  Y0  1  0.50000000  0.50000000  0.00000000  1
  Mn  Mn1  1  0.00000000  0.00000000  0.00000000  1
  F  F2  1  0.81236600  0.50000000  0.31236600  1
  F  F3  1  0.18763400  0.50000000  0.68763400  1
  F  F4  1  0.23681300  0.23681300  0.00000000  1
  F  F5  1  0.76318700  0.76318700  0.00000000  1
  F  F6  1  0.50000000  0.00000000  0.50000000  1
