# generated using pymatgen
data_Zn4Cr5(TeO6)3
_symmetry_space_group_name_H-M   'P 1'
_cell_length_a   8.72837576
_cell_length_b   8.72837576
_cell_length_c   10.57415306
_cell_angle_alpha   85.33588592
_cell_angle_beta   85.33588592
_cell_angle_gamma   63.22634643
_symmetry_Int_Tables_number   1
_chemical_formula_structural   Zn4Cr5(TeO6)3
_chemical_formula_sum   'Zn8 Cr10 Te6 O36'
_cell_volume   715.93638613
_cell_formula_units_Z   2
loop_
 _symmetry_equiv_pos_site_id
 _symmetry_equiv_pos_as_xyz
  1  'x, y, z'
loop_
 _atom_site_type_symbol
 _atom_site_label
 _atom_site_symmetry_multiplicity
 _atom_site_fract_x
 _atom_site_fract_y
 _atom_site_fract_z
 _atom_site_occupancy
  Zn  Zn0  1  0.34855100  0.05985800  0.06667800  1
  Zn  Zn1  1  0.37728400  0.67814900  0.96395400  1
  Zn  Zn2  1  0.94014200  0.65144900  0.43332200  1
  Zn  Zn3  1  0.32185100  0.62271600  0.53604600  1
  Zn  Zn4  1  0.67814900  0.37728400  0.46395400  1
  Zn  Zn5  1  0.05985800  0.34855100  0.56667800  1
  Zn  Zn6  1  0.65144900  0.94014200  0.93332200  1
  Zn  Zn7  1  0.62271600  0.32185100  0.03604600  1
  Cr  Cr8  1  0.31572100  0.99215500  0.72828600  1
  Cr  Cr9  1  0.99215500  0.31572100  0.22828600  1
  Cr  Cr10  1  0.14682700  0.52328800  0.04190900  1
  Cr  Cr11  1  0.52328800  0.14682700  0.54190900  1
  Cr  Cr12  1  0.47671200  0.85317300  0.45809100  1
  Cr  Cr13  1  0.82867900  0.17132100  0.75000000  1
  Cr  Cr14  1  0.17132100  0.82867900  0.25000000  1
  Cr  Cr15  1  0.85317300  0.47671200  0.95809100  1
  Cr  Cr16  1  0.68427900  0.00784500  0.27171400  1
  Cr  Cr17  1  0.00784500  0.68427900  0.77171400  1
  Te  Te18  1  0.66512200  0.64604100  0.70786000  1
  Te  Te19  1  0.00000000  0.00000000  0.00000000  1
  Te  Te20  1  0.00000000  0.00000000  0.50000000  1
  Te  Te21  1  0.64604100  0.66512200  0.20786000  1
  Te  Te22  1  0.33487800  0.35395900  0.29214000  1
  Te  Te23  1  0.35395900  0.33487800  0.79214000  1
  O  O24  1  0.94429800  0.59113600  0.62256800  1
  O  O25  1  0.25056600  0.91885500  0.56393000  1
  O  O26  1  0.41213400  0.75840800  0.31270900  1
  O  O27  1  0.93131200  0.91994000  0.17987800  1
  O  O28  1  0.08114500  0.74943400  0.93607000  1
  O  O29  1  0.08006000  0.06868800  0.32012200  1
  O  O30  1  0.61253200  0.55724100  0.04201700  1
  O  O31  1  0.89270700  0.24601100  0.57616200  1
  O  O32  1  0.10729300  0.75398900  0.42383800  1
  O  O33  1  0.22183300  0.28302400  0.13934400  1
  O  O34  1  0.43153700  0.75082900  0.79599100  1
  O  O35  1  0.77816700  0.71697600  0.86065600  1
  O  O36  1  0.74943400  0.08114500  0.43607000  1
  O  O37  1  0.54010100  0.92091600  0.61730900  1
  O  O38  1  0.24917100  0.56846300  0.70400900  1
  O  O39  1  0.38746800  0.44275900  0.95798300  1
  O  O40  1  0.56846300  0.24917100  0.20400900  1
  O  O41  1  0.07908400  0.45989900  0.88269100  1
  O  O42  1  0.24159200  0.58786600  0.18729100  1
  O  O43  1  0.75082900  0.43153700  0.29599100  1
  O  O44  1  0.59113600  0.94429800  0.12256800  1
  O  O45  1  0.45989900  0.07908400  0.38269100  1
  O  O46  1  0.75398900  0.10729300  0.92383800  1
  O  O47  1  0.55724100  0.61253200  0.54201700  1
  O  O48  1  0.58786600  0.24159200  0.68729100  1
  O  O49  1  0.91994000  0.93131200  0.67987800  1
  O  O50  1  0.28302400  0.22183300  0.63934400  1
  O  O51  1  0.44275900  0.38746800  0.45798300  1
  O  O52  1  0.91885500  0.25056600  0.06393000  1
  O  O53  1  0.92091600  0.54010100  0.11730900  1
  O  O54  1  0.05570200  0.40886400  0.37743200  1
  O  O55  1  0.06868800  0.08006000  0.82012200  1
  O  O56  1  0.24601100  0.89270700  0.07616200  1
  O  O57  1  0.71697600  0.77816700  0.36065600  1
  O  O58  1  0.75840800  0.41213400  0.81270900  1
  O  O59  1  0.40886400  0.05570200  0.87743200  1
