# generated using pymatgen
data_ZnCoPO5
_symmetry_space_group_name_H-M   'P 1'
_cell_length_a   5.31671600
_cell_length_b   5.39188191
_cell_length_c   6.97911101
_cell_angle_alpha   105.88943431
_cell_angle_beta   105.47332481
_cell_angle_gamma   98.86786163
_symmetry_Int_Tables_number   1
_chemical_formula_structural   ZnCoPO5
_chemical_formula_sum   'Zn2 Co2 P2 O10'
_cell_volume   179.79494239
_cell_formula_units_Z   2
loop_
 _symmetry_equiv_pos_site_id
 _symmetry_equiv_pos_as_xyz
  1  'x, y, z'
loop_
 _atom_site_type_symbol
 _atom_site_label
 _atom_site_symmetry_multiplicity
 _atom_site_fract_x
 _atom_site_fract_y
 _atom_site_fract_z
 _atom_site_occupancy
  Zn  Zn0  1  0.31938100  0.16360400  0.77232800  1
  Zn  Zn1  1  0.70072400  0.83727900  0.27077900  1
  Co  Co2  1  0.00450400  0.49510100  0.51465800  1
  Co  Co3  1  0.00419100  0.49533000  0.01455300  1
  P  P4  1  0.66489200  0.84174400  0.76613100  1
  P  P5  1  0.34100700  0.14523000  0.26050700  1
  O  O6  1  0.69385100  0.65739500  0.90146500  1
  O  O7  1  0.86171900  0.82010000  0.63684800  1
  O  O8  1  0.31308400  0.32586400  0.12156700  1
  O  O9  1  0.13931900  0.16754900  0.38533500  1
  O  O10  1  0.63786200  0.20773300  0.40929000  1
  O  O11  1  0.30298300  0.84906900  0.12578200  1
  O  O12  1  0.36690300  0.78572700  0.62176800  1
  O  O13  1  0.70929400  0.13795600  0.90469000  1
  O  O14  1  0.91505500  0.58266000  0.26469000  1
  O  O15  1  0.09321500  0.40640300  0.76248100  1
