# generated using pymatgen
data_ZnSnF4
_symmetry_space_group_name_H-M   'P 1'
_cell_length_a   5.16878900
_cell_length_b   5.57315539
_cell_length_c   6.66847791
_cell_angle_alpha   107.73141298
_cell_angle_beta   110.35510676
_cell_angle_gamma   89.87441122
_symmetry_Int_Tables_number   1
_chemical_formula_structural   ZnSnF4
_chemical_formula_sum   'Zn2 Sn2 F8'
_cell_volume   170.38262521
_cell_formula_units_Z   2
loop_
 _symmetry_equiv_pos_site_id
 _symmetry_equiv_pos_as_xyz
  1  'x, y, z'
loop_
 _atom_site_type_symbol
 _atom_site_label
 _atom_site_symmetry_multiplicity
 _atom_site_fract_x
 _atom_site_fract_y
 _atom_site_fract_z
 _atom_site_occupancy
  Zn  Zn0  1  0.25401100  0.24763400  0.50188300  1
  Zn  Zn1  1  0.75112300  0.74487000  0.50266700  1
  Sn  Sn2  1  0.01477000  0.52252000  0.04718500  1
  Sn  Sn3  1  0.48556900  0.99356600  0.96173000  1
  F  F4  1  0.43770500  0.70727300  0.18704000  1
  F  F5  1  0.06696000  0.79388200  0.81879500  1
  F  F6  1  0.60123500  0.07302300  0.62582600  1
  F  F7  1  0.50672300  0.59197000  0.63699700  1
  F  F8  1  0.89993800  0.41736600  0.37505000  1
  F  F9  1  0.00021500  0.89769300  0.36609000  1
  F  F10  1  0.27617300  0.22945300  0.19642800  1
  F  F11  1  0.22723400  0.27029500  0.80630900  1
