# generated using pymatgen
data_CaCrO2
_symmetry_space_group_name_H-M   'P 1'
_cell_length_a   3.11215100
_cell_length_b   8.26931100
_cell_length_c   8.50207833
_cell_angle_alpha   83.38605637
_cell_angle_beta   90.00000000
_cell_angle_gamma   90.00000000
_symmetry_Int_Tables_number   1
_chemical_formula_structural   CaCrO2
_chemical_formula_sum   'Ca4 Cr4 O8'
_cell_volume   217.34772328
_cell_formula_units_Z   4
loop_
 _symmetry_equiv_pos_site_id
 _symmetry_equiv_pos_as_xyz
  1  'x, y, z'
loop_
 _atom_site_type_symbol
 _atom_site_label
 _atom_site_symmetry_multiplicity
 _atom_site_fract_x
 _atom_site_fract_y
 _atom_site_fract_z
 _atom_site_occupancy
  Ca  Ca0  1  0.75000000  0.42615600  0.18035000  1
  Ca  Ca1  1  0.25000000  0.57384400  0.81965000  1
  Ca  Ca2  1  0.75000000  0.68606600  0.45880700  1
  Ca  Ca3  1  0.25000000  0.31393400  0.54119300  1
  Cr  Cr4  1  0.75000000  0.21444700  0.89507400  1
  Cr  Cr5  1  0.25000000  0.05601900  0.29780300  1
  Cr  Cr6  1  0.75000000  0.94398100  0.70219700  1
  Cr  Cr7  1  0.25000000  0.78555300  0.10492600  1
  O  O8  1  0.75000000  0.67471300  0.99546700  1
  O  O9  1  0.25000000  0.10300900  0.76720200  1
  O  O10  1  0.75000000  0.89699100  0.23279800  1
  O  O11  1  0.25000000  0.32528700  0.00453300  1
  O  O12  1  0.75000000  0.46156500  0.66533400  1
  O  O13  1  0.75000000  0.19141600  0.37548100  1
  O  O14  1  0.25000000  0.53843500  0.33466600  1
  O  O15  1  0.25000000  0.80858400  0.62451900  1
