# generated using pymatgen
data_SrCaP2WO8
_symmetry_space_group_name_H-M   'P 1'
_cell_length_a   6.12669000
_cell_length_b   6.73383257
_cell_length_c   9.63375721
_cell_angle_alpha   107.28722032
_cell_angle_beta   106.25295633
_cell_angle_gamma   94.67243175
_symmetry_Int_Tables_number   1
_chemical_formula_structural   SrCaP2WO8
_chemical_formula_sum   'Sr2 Ca2 P4 W2 O16'
_cell_volume   358.40708572
_cell_formula_units_Z   2
loop_
 _symmetry_equiv_pos_site_id
 _symmetry_equiv_pos_as_xyz
  1  'x, y, z'
loop_
 _atom_site_type_symbol
 _atom_site_label
 _atom_site_symmetry_multiplicity
 _atom_site_fract_x
 _atom_site_fract_y
 _atom_site_fract_z
 _atom_site_occupancy
  Sr  Sr0  1  0.31567200  0.80021000  0.07429600  1
  Sr  Sr1  1  0.68432800  0.19979000  0.92570400  1
  Ca  Ca2  1  0.02049600  0.42068700  0.67665100  1
  Ca  Ca3  1  0.97950400  0.57931300  0.32334900  1
  P  P4  1  0.37393900  0.39556700  0.21874100  1
  P  P5  1  0.62606100  0.60443300  0.78125900  1
  P  P6  1  0.86567300  0.01721400  0.27559900  1
  P  P7  1  0.13432700  0.98278600  0.72440100  1
  W  W8  1  0.64347100  0.84828700  0.53034700  1
  W  W9  1  0.35652900  0.15171300  0.46965300  1
  O  O10  1  0.87113400  0.60633900  0.88765200  1
  O  O11  1  0.57163100  0.44090500  0.15599700  1
  O  O12  1  0.60883500  0.81030800  0.74039800  1
  O  O13  1  0.91499600  0.09580500  0.71678100  1
  O  O14  1  0.42836900  0.55909500  0.84400300  1
  O  O15  1  0.04409000  0.75060900  0.60650100  1
  O  O16  1  0.95591000  0.24939100  0.39349900  1
  O  O17  1  0.25966900  0.99193600  0.88662000  1
  O  O18  1  0.39116500  0.18969200  0.25960200  1
  O  O19  1  0.74033100  0.00806400  0.11338000  1
  O  O20  1  0.12886600  0.39366100  0.11234800  1
  O  O21  1  0.39039900  0.57937600  0.37040000  1
  O  O22  1  0.60960100  0.42062400  0.62960000  1
  O  O23  1  0.71039400  0.87600200  0.32576500  1
  O  O24  1  0.08500400  0.90419500  0.28321900  1
  O  O25  1  0.28960600  0.12399800  0.67423500  1
