# generated using pymatgen
data_MgTiSiO5
_symmetry_space_group_name_H-M   'P 1'
_cell_length_a   5.31419145
_cell_length_b   5.31419145
_cell_length_c   7.16059738
_cell_angle_alpha   75.05135345
_cell_angle_beta   75.05135345
_cell_angle_gamma   104.07586004
_symmetry_Int_Tables_number   1
_chemical_formula_structural   MgTiSiO5
_chemical_formula_sum   'Mg2 Ti2 Si2 O10'
_cell_volume   178.06886250
_cell_formula_units_Z   2
loop_
 _symmetry_equiv_pos_site_id
 _symmetry_equiv_pos_as_xyz
  1  'x, y, z'
loop_
 _atom_site_type_symbol
 _atom_site_label
 _atom_site_symmetry_multiplicity
 _atom_site_fract_x
 _atom_site_fract_y
 _atom_site_fract_z
 _atom_site_occupancy
  Mg  Mg0  1  0.83326900  0.17623200  0.74551400  1
  Mg  Mg1  1  0.17623200  0.83326900  0.24551400  1
  Ti  Ti2  1  0.49469600  0.50864600  0.49361400  1
  Ti  Ti3  1  0.50864600  0.49469600  0.99361400  1
  Si  Si4  1  0.17340000  0.82709500  0.76014400  1
  Si  Si5  1  0.82709500  0.17340000  0.26014400  1
  O  O6  1  0.39549900  0.82729200  0.88351400  1
  O  O7  1  0.17346800  0.60556900  0.63744600  1
  O  O8  1  0.60556900  0.17346800  0.13744600  1
  O  O9  1  0.82729200  0.39549900  0.38351400  1
  O  O10  1  0.77419600  0.87041200  0.42197700  1
  O  O11  1  0.12926400  0.22886700  0.10010400  1
  O  O12  1  0.22886700  0.12926400  0.60010400  1
  O  O13  1  0.87041200  0.77419600  0.92197700  1
  O  O14  1  0.41254400  0.59187900  0.26145600  1
  O  O15  1  0.59187900  0.41254400  0.76145600  1
