# generated using pymatgen
data_CaMnO2
_symmetry_space_group_name_H-M   'P 1'
_cell_length_a   3.33449500
_cell_length_b   8.59681327
_cell_length_c   8.79489825
_cell_angle_alpha   81.95947510
_cell_angle_beta   86.90523017
_cell_angle_gamma   82.64355295
_symmetry_Int_Tables_number   1
_chemical_formula_structural   CaMnO2
_chemical_formula_sum   'Ca4 Mn4 O8'
_cell_volume   247.41442852
_cell_formula_units_Z   4
loop_
 _symmetry_equiv_pos_site_id
 _symmetry_equiv_pos_as_xyz
  1  'x, y, z'
loop_
 _atom_site_type_symbol
 _atom_site_label
 _atom_site_symmetry_multiplicity
 _atom_site_fract_x
 _atom_site_fract_y
 _atom_site_fract_z
 _atom_site_occupancy
  Ca  Ca0  1  0.19404000  0.19755900  0.94947600  1
  Ca  Ca1  1  0.80596000  0.80244100  0.05052400  1
  Ca  Ca2  1  0.08022700  0.37820600  0.26520700  1
  Ca  Ca3  1  0.91977300  0.62179400  0.73479300  1
  Mn  Mn4  1  0.32152100  0.92683300  0.72821500  1
  Mn  Mn5  1  0.71392800  0.26813200  0.63337600  1
  Mn  Mn6  1  0.28607200  0.73186800  0.36662400  1
  Mn  Mn7  1  0.67847900  0.07316700  0.27178500  1
  O  O8  1  0.23244800  0.95046900  0.19132500  1
  O  O9  1  0.39074100  0.76136500  0.58146600  1
  O  O10  1  0.60925900  0.23863500  0.41853400  1
  O  O11  1  0.76755200  0.04953100  0.80867500  1
  O  O12  1  0.35420700  0.72581600  0.89908500  1
  O  O13  1  0.16170900  0.36789600  0.72449500  1
  O  O14  1  0.64579300  0.27418400  0.10091500  1
  O  O15  1  0.83829100  0.63210400  0.27550500  1
