# generated using pymatgen
data_SrSb(PO4)2
_symmetry_space_group_name_H-M   'P 1'
_cell_length_a   6.24299600
_cell_length_b   6.87207221
_cell_length_c   9.42540792
_cell_angle_alpha   68.78851315
_cell_angle_beta   71.02282610
_cell_angle_gamma   81.71325546
_symmetry_Int_Tables_number   1
_chemical_formula_structural   SrSb(PO4)2
_chemical_formula_sum   'Sr2 Sb2 P4 O16'
_cell_volume   356.32613241
_cell_formula_units_Z   2
loop_
 _symmetry_equiv_pos_site_id
 _symmetry_equiv_pos_as_xyz
  1  'x, y, z'
loop_
 _atom_site_type_symbol
 _atom_site_label
 _atom_site_symmetry_multiplicity
 _atom_site_fract_x
 _atom_site_fract_y
 _atom_site_fract_z
 _atom_site_occupancy
  Sr  Sr0  1  0.74934500  0.73708900  0.97277600  1
  Sr  Sr1  1  0.25065500  0.26291100  0.02722400  1
  Sb  Sb2  1  0.87549200  0.86066700  0.46833600  1
  Sb  Sb3  1  0.12450800  0.13933300  0.53166400  1
  P  P4  1  0.83795000  0.40822100  0.77072900  1
  P  P5  1  0.16205000  0.59177900  0.22927100  1
  P  P6  1  0.40070200  0.99689800  0.72409600  1
  P  P7  1  0.59929800  0.00310200  0.27590400  1
  O  O8  1  0.04599000  0.59973400  0.10784000  1
  O  O9  1  0.58416900  0.44407100  0.82583400  1
  O  O10  1  0.10543600  0.79788100  0.27813600  1
  O  O11  1  0.78710400  0.12468200  0.28756300  1
  O  O12  1  0.41583100  0.55592900  0.17416600  1
  O  O13  1  0.61759600  0.78554100  0.41262700  1
  O  O14  1  0.38240400  0.21445900  0.58737300  1
  O  O15  1  0.63283100  0.99408500  0.11321600  1
  O  O16  1  0.89456400  0.20211900  0.72186400  1
  O  O17  1  0.36716900  0.00591500  0.88678400  1
  O  O18  1  0.95401000  0.40026600  0.89216000  1
  O  O19  1  0.95813000  0.59070900  0.61201700  1
  O  O20  1  0.04187000  0.40929100  0.38798300  1
  O  O21  1  0.64428800  0.89776200  0.67460100  1
  O  O22  1  0.21289600  0.87531800  0.71243700  1
  O  O23  1  0.35571200  0.10223800  0.32539900  1
