# generated using pymatgen
data_Ba2Ti3Tl2O10
_symmetry_space_group_name_H-M   'P 1'
_cell_length_a   3.99373000
_cell_length_b   3.99746300
_cell_length_c   16.45946987
_cell_angle_alpha   91.01538239
_cell_angle_beta   90.17783178
_cell_angle_gamma   90.00044432
_symmetry_Int_Tables_number   1
_chemical_formula_structural   Ba2Ti3Tl2O10
_chemical_formula_sum   'Ba2 Ti3 Tl2 O10'
_cell_volume   262.72941742
_cell_formula_units_Z   1
loop_
 _symmetry_equiv_pos_site_id
 _symmetry_equiv_pos_as_xyz
  1  'x, y, z'
loop_
 _atom_site_type_symbol
 _atom_site_label
 _atom_site_symmetry_multiplicity
 _atom_site_fract_x
 _atom_site_fract_y
 _atom_site_fract_z
 _atom_site_occupancy
  Ba  Ba0  1  0.76553500  0.77718200  0.26105300  1
  Ba  Ba1  1  0.29162000  0.29339900  0.73819200  1
  Ti  Ti2  1  0.81567600  0.80217700  0.85965200  1
  Ti  Ti3  1  0.26150200  0.24666000  0.13560500  1
  Ti  Ti4  1  0.71874900  0.31751900  0.99570800  1
  Tl  Tl5  1  0.27914600  0.27745300  0.43896000  1
  Tl  Tl6  1  0.83064700  0.78552400  0.58596400  1
  O  O7  1  0.76778600  0.30136100  0.86916300  1
  O  O8  1  0.76686400  0.79294900  0.72405500  1
  O  O9  1  0.26038900  0.79994600  0.84523100  1
  O  O10  1  0.11394900  0.28578400  0.58490700  1
  O  O11  1  0.27492100  0.30802400  0.00926000  1
  O  O12  1  0.76419500  0.29729800  0.11417400  1
  O  O13  1  0.27341200  0.30836200  0.24823500  1
  O  O14  1  0.26083900  0.80280000  0.14154200  1
  O  O15  1  0.63564300  0.77827100  0.46736600  1
  O  O16  1  0.76866100  0.80658600  0.97398700  1
