# generated using pymatgen
data_SrZnSn(PO4)2
_symmetry_space_group_name_H-M   'P 1'
_cell_length_a   5.56493700
_cell_length_b   7.20214687
_cell_length_c   10.03473528
_cell_angle_alpha   107.56161809
_cell_angle_beta   105.15875848
_cell_angle_gamma   96.90517543
_symmetry_Int_Tables_number   1
_chemical_formula_structural   SrZnSn(PO4)2
_chemical_formula_sum   'Sr2 Zn2 Sn2 P4 O16'
_cell_volume   361.33158737
_cell_formula_units_Z   2
loop_
 _symmetry_equiv_pos_site_id
 _symmetry_equiv_pos_as_xyz
  1  'x, y, z'
loop_
 _atom_site_type_symbol
 _atom_site_label
 _atom_site_symmetry_multiplicity
 _atom_site_fract_x
 _atom_site_fract_y
 _atom_site_fract_z
 _atom_site_occupancy
  Sr  Sr0  1  0.80160000  0.24921600  0.03749700  1
  Sr  Sr1  1  0.19840000  0.75078400  0.96250300  1
  Zn  Zn2  1  0.61908600  0.28196000  0.63841200  1
  Zn  Zn3  1  0.38091400  0.71804000  0.36158800  1
  Sn  Sn4  1  0.95816700  0.75255300  0.57943900  1
  Sn  Sn5  1  0.04183300  0.24744700  0.42056100  1
  P  P6  1  0.84454200  0.79855700  0.21270100  1
  P  P7  1  0.15545800  0.20144300  0.78729900  1
  P  P8  1  0.46394500  0.26845000  0.27999300  1
  P  P9  1  0.53605500  0.73155000  0.72000700  1
  O  O10  1  0.12733600  0.35924100  0.92117400  1
  O  O11  1  0.57553400  0.74939100  0.22958200  1
  O  O12  1  0.11992800  0.98860300  0.80075600  1
  O  O13  1  0.72775100  0.58448400  0.70287400  1
  O  O14  1  0.42446600  0.25060900  0.77041800  1
  O  O15  1  0.51667500  0.81402800  0.58929900  1
  O  O16  1  0.48332500  0.18597200  0.41070100  1
  O  O17  1  0.64181700  0.89192100  0.87180800  1
  O  O18  1  0.88007200  0.01139700  0.19924400  1
  O  O19  1  0.35818300  0.10807900  0.12819200  1
  O  O20  1  0.87266400  0.64075900  0.07882600  1
  O  O21  1  0.06573200  0.82061300  0.35518700  1
  O  O22  1  0.93426800  0.17938700  0.64481300  1
  O  O23  1  0.73311100  0.38574800  0.30039700  1
  O  O24  1  0.27224900  0.41551600  0.29712600  1
  O  O25  1  0.26688900  0.61425200  0.69960300  1
