# generated using pymatgen
data_Sb5(TeO6)3
_symmetry_space_group_name_H-M   'P 1'
_cell_length_a   8.93014390
_cell_length_b   8.93014390
_cell_length_c   11.96185879
_cell_angle_alpha   85.87607403
_cell_angle_beta   85.87607403
_cell_angle_gamma   66.59034686
_symmetry_Int_Tables_number   1
_chemical_formula_structural   Sb5(TeO6)3
_chemical_formula_sum   'Sb10 Te6 O36'
_cell_volume   872.16194365
_cell_formula_units_Z   2
loop_
 _symmetry_equiv_pos_site_id
 _symmetry_equiv_pos_as_xyz
  1  'x, y, z'
loop_
 _atom_site_type_symbol
 _atom_site_label
 _atom_site_symmetry_multiplicity
 _atom_site_fract_x
 _atom_site_fract_y
 _atom_site_fract_z
 _atom_site_occupancy
  Sb  Sb0  1  0.48888100  0.15013100  0.96153900  1
  Sb  Sb1  1  0.72631300  0.89007300  0.45300000  1
  Sb  Sb2  1  0.64564100  0.63814700  0.28271300  1
  Sb  Sb3  1  0.26506000  0.05317900  0.79783500  1
  Sb  Sb4  1  0.36185300  0.35435900  0.71728700  1
  Sb  Sb5  1  0.92859500  0.07140500  0.00000000  1
  Sb  Sb6  1  0.69859200  0.30140800  0.50000000  1
  Sb  Sb7  1  0.94682100  0.73494000  0.20216500  1
  Sb  Sb8  1  0.10992700  0.27368700  0.54700000  1
  Sb  Sb9  1  0.84986900  0.51111900  0.03846100  1
  Te  Te10  1  0.19294100  0.55915800  0.96424000  1
  Te  Te11  1  0.75872600  0.19177600  0.24795300  1
  Te  Te12  1  0.80822400  0.24127400  0.75204700  1
  Te  Te13  1  0.16837900  0.60275800  0.44364200  1
  Te  Te14  1  0.39724200  0.83162100  0.55635800  1
  Te  Te15  1  0.44084200  0.80705900  0.03576000  1
  O  O16  1  0.99359500  0.55163500  0.91174800  1
  O  O17  1  0.56081800  0.24160400  0.81672800  1
  O  O18  1  0.50574500  0.41857800  0.60798200  1
  O  O19  1  0.87356900  0.21040000  0.37349800  1
  O  O20  1  0.75839600  0.43918200  0.18327200  1
  O  O21  1  0.78960000  0.12643100  0.62650200  1
  O  O22  1  0.14210000  0.69011100  0.28620500  1
  O  O23  1  0.87964300  0.04163300  0.84454400  1
  O  O24  1  0.84919300  0.39033100  0.56186400  1
  O  O25  1  0.54976300  0.83278400  0.38073700  1
  O  O26  1  0.36320000  0.36125500  0.03093600  1
  O  O27  1  0.04738600  0.51730000  0.12092400  1
  O  O28  1  0.05527200  0.18429300  0.71736800  1
  O  O29  1  0.26827200  0.25341900  0.86466500  1
  O  O30  1  0.63874500  0.63680000  0.96906400  1
  O  O31  1  0.45187400  0.71572300  0.19164100  1
  O  O32  1  0.24924300  0.03370900  0.49120700  1
  O  O33  1  0.74658100  0.73172800  0.13533500  1
  O  O34  1  0.58142200  0.49425500  0.39201800  1
  O  O35  1  0.96629100  0.75075700  0.50879300  1
  O  O36  1  0.14459300  0.40786300  0.40614900  1
  O  O37  1  0.36230000  0.14722500  0.66515300  1
  O  O38  1  0.95836700  0.12035700  0.15545600  1
  O  O39  1  0.28427700  0.54812600  0.80835900  1
  O  O40  1  0.16171000  0.00176800  0.94019200  1
  O  O41  1  0.87934800  0.31043400  0.96010200  1
  O  O42  1  0.48270000  0.95261400  0.87907600  1
  O  O43  1  0.30988900  0.85790000  0.71379500  1
  O  O44  1  0.81570700  0.94472800  0.28263200  1
  O  O45  1  0.85277500  0.63770000  0.33484700  1
  O  O46  1  0.59213700  0.85540700  0.59385100  1
  O  O47  1  0.68956600  0.12065200  0.03989800  1
  O  O48  1  0.60966900  0.15080700  0.43813600  1
  O  O49  1  0.16721600  0.45023700  0.61926300  1
  O  O50  1  0.99823200  0.83829000  0.05980800  1
  O  O51  1  0.44836500  0.00640500  0.08825200  1
