# generated using pymatgen
data_CaW5O7
_symmetry_space_group_name_H-M   'P 1'
_cell_length_a   5.63792185
_cell_length_b   5.63792185
_cell_length_c   18.66979200
_cell_angle_alpha   90.00000000
_cell_angle_beta   90.00000000
_cell_angle_gamma   146.26408856
_symmetry_Int_Tables_number   1
_chemical_formula_structural   CaW5O7
_chemical_formula_sum   'Ca2 W10 O14'
_cell_volume   329.57684118
_cell_formula_units_Z   2
loop_
 _symmetry_equiv_pos_site_id
 _symmetry_equiv_pos_as_xyz
  1  'x, y, z'
loop_
 _atom_site_type_symbol
 _atom_site_label
 _atom_site_symmetry_multiplicity
 _atom_site_fract_x
 _atom_site_fract_y
 _atom_site_fract_z
 _atom_site_occupancy
  Ca  Ca0  1  0.18326800  0.81673200  0.75000000  1
  Ca  Ca1  1  0.81673200  0.18326800  0.25000000  1
  W  W2  1  0.68516500  0.31483500  0.57323300  1
  W  W3  1  0.55881300  0.44118700  0.14729300  1
  W  W4  1  0.00000000  0.00000000  0.50000000  1
  W  W5  1  0.00000000  0.00000000  0.00000000  1
  W  W6  1  0.44118700  0.55881300  0.85270700  1
  W  W7  1  0.31483500  0.68516500  0.42676700  1
  W  W8  1  0.31483500  0.68516500  0.07323300  1
  W  W9  1  0.68516500  0.31483500  0.92676700  1
  W  W10  1  0.44118700  0.55881300  0.64729300  1
  W  W11  1  0.55881300  0.44118700  0.35270700  1
  O  O12  1  0.30170000  0.69830000  0.95293300  1
  O  O13  1  0.69830000  0.30170000  0.04706700  1
  O  O14  1  0.69830000  0.30170000  0.45293300  1
  O  O15  1  0.30170000  0.69830000  0.54706700  1
  O  O16  1  0.81094200  0.18905800  0.83142700  1
  O  O17  1  0.18905800  0.81094200  0.16857300  1
  O  O18  1  0.18905800  0.81094200  0.33142700  1
  O  O19  1  0.81094200  0.18905800  0.66857300  1
  O  O20  1  0.09317100  0.90682900  0.86384800  1
  O  O21  1  0.90682900  0.09317100  0.13615200  1
  O  O22  1  0.90682900  0.09317100  0.36384800  1
  O  O23  1  0.09317100  0.90682900  0.63615200  1
  O  O24  1  0.52648400  0.47351600  0.75000000  1
  O  O25  1  0.47351600  0.52648400  0.25000000  1
