# generated using pymatgen
data_CaNiO2
_symmetry_space_group_name_H-M   'P 1'
_cell_length_a   3.12961538
_cell_length_b   8.35078753
_cell_length_c   8.13612842
_cell_angle_alpha   77.48824722
_cell_angle_beta   89.77190680
_cell_angle_gamma   102.20178721
_symmetry_Int_Tables_number   1
_chemical_formula_structural   CaNiO2
_chemical_formula_sum   'Ca4 Ni4 O8'
_cell_volume   202.62026296
_cell_formula_units_Z   4
loop_
 _symmetry_equiv_pos_site_id
 _symmetry_equiv_pos_as_xyz
  1  'x, y, z'
loop_
 _atom_site_type_symbol
 _atom_site_label
 _atom_site_symmetry_multiplicity
 _atom_site_fract_x
 _atom_site_fract_y
 _atom_site_fract_z
 _atom_site_occupancy
  Ca  Ca0  1  0.26877300  0.02778600  0.32333200  1
  Ca  Ca1  1  0.72735400  0.95208300  0.70484100  1
  Ca  Ca2  1  0.09906200  0.72251700  0.11907200  1
  Ca  Ca3  1  0.89714900  0.25733100  0.90922800  1
  Ni  Ni4  1  0.41492400  0.30188500  0.55978800  1
  Ni  Ni5  1  0.94840500  0.35992000  0.24942200  1
  Ni  Ni6  1  0.04732200  0.62013400  0.77878300  1
  Ni  Ni7  1  0.58110200  0.67781500  0.46845500  1
  O  O8  1  0.14804600  0.80041200  0.56569200  1
  O  O9  1  0.46957800  0.48154900  0.69778400  1
  O  O10  1  0.52623200  0.49840200  0.33035800  1
  O  O11  1  0.84819200  0.17961500  0.46246400  1
  O  O12  1  0.31799400  0.11666300  0.78845900  1
  O  O13  1  0.40170000  0.27447200  0.11939300  1
  O  O14  1  0.67823600  0.86326100  0.23967400  1
  O  O15  1  0.59420700  0.70549000  0.90887700  1
