# generated using pymatgen
data_Mg4Te3W5O18
_symmetry_space_group_name_H-M   'P 1'
_cell_length_a   9.50104651
_cell_length_b   9.50104651
_cell_length_c   10.29223992
_cell_angle_alpha   88.71735152
_cell_angle_beta   88.71735152
_cell_angle_gamma   68.10235094
_symmetry_Int_Tables_number   1
_chemical_formula_structural   Mg4Te3W5O18
_chemical_formula_sum   'Mg8 Te6 W10 O36'
_cell_volume   861.73301784
_cell_formula_units_Z   2
loop_
 _symmetry_equiv_pos_site_id
 _symmetry_equiv_pos_as_xyz
  1  'x, y, z'
loop_
 _atom_site_type_symbol
 _atom_site_label
 _atom_site_symmetry_multiplicity
 _atom_site_fract_x
 _atom_site_fract_y
 _atom_site_fract_z
 _atom_site_occupancy
  Mg  Mg0  1  0.12039700  0.46207000  0.67871200  1
  Mg  Mg1  1  0.47384800  0.49667400  0.77027200  1
  Mg  Mg2  1  0.53793000  0.87960300  0.32128800  1
  Mg  Mg3  1  0.50332600  0.52615200  0.22972800  1
  Mg  Mg4  1  0.88646200  0.08345400  0.28037400  1
  Mg  Mg5  1  0.85445000  0.72924100  0.18181800  1
  Mg  Mg6  1  0.27075900  0.14555000  0.81818200  1
  Mg  Mg7  1  0.91654600  0.11353800  0.71962600  1
  Te  Te8  1  0.66711700  0.17555800  0.06599300  1
  Te  Te9  1  0.19674900  0.80168600  0.74713300  1
  Te  Te10  1  0.19831400  0.80325100  0.25286700  1
  Te  Te11  1  0.55622300  0.28077600  0.55655900  1
  Te  Te12  1  0.71922400  0.44377700  0.44344100  1
  Te  Te13  1  0.82444200  0.33288300  0.93400700  1
  W  W14  1  0.20455100  0.47847000  0.01365800  1
  W  W15  1  0.87029600  0.81030500  0.51721700  1
  W  W16  1  0.68660000  0.65020700  0.70493600  1
  W  W17  1  0.04265900  0.29063100  0.20189500  1
  W  W18  1  0.34979300  0.31340000  0.29506400  1
  W  W19  1  0.07120600  0.92879400  0.00000000  1
  W  W20  1  0.31528600  0.68471400  0.50000000  1
  W  W21  1  0.70936900  0.95734100  0.79810500  1
  W  W22  1  0.18969500  0.12970400  0.48278300  1
  W  W23  1  0.52153000  0.79544900  0.98634200  1
  O  O24  1  0.62521800  0.85317900  0.12639100  1
  O  O25  1  0.28959800  0.51516600  0.17779100  1
  O  O26  1  0.37798300  0.46399200  0.42237200  1
  O  O27  1  0.28776300  0.92562100  0.51764600  1
  O  O28  1  0.48483400  0.71040200  0.82220900  1
  O  O29  1  0.07437900  0.71223700  0.48235400  1
  O  O30  1  0.68672600  0.15728300  0.71727700  1
  O  O31  1  0.96594800  0.87945600  0.18027200  1
  O  O32  1  0.43013100  0.72804100  0.32928100  1
  O  O33  1  0.90105200  0.60768800  0.63515900  1
  O  O34  1  0.38385900  0.44619900  0.92997800  1
  O  O35  1  0.49638300  0.00367200  0.86079700  1
  O  O36  1  0.10328600  0.08821800  0.31847700  1
  O  O37  1  0.25501300  0.27407600  0.12404900  1
  O  O38  1  0.55380100  0.61614100  0.07002200  1
  O  O39  1  0.69909600  0.43966500  0.77959200  1
  O  O40  1  0.00674300  0.16544100  0.56352300  1
  O  O41  1  0.72592400  0.74498700  0.87595100  1
  O  O42  1  0.53600800  0.62201700  0.57762800  1
  O  O43  1  0.83455900  0.99325700  0.43647700  1
  O  O44  1  0.24560700  0.23374800  0.62312400  1
  O  O45  1  0.12915500  0.33276800  0.37136800  1
  O  O46  1  0.12054400  0.03405200  0.81972800  1
  O  O47  1  0.56033500  0.30090400  0.22040800  1
  O  O48  1  0.02686400  0.15165800  0.07804300  1
  O  O49  1  0.31790800  0.89802700  0.01864200  1
  O  O50  1  0.99632800  0.50361700  0.13920300  1
  O  O51  1  0.84271700  0.31327400  0.28272300  1
  O  O52  1  0.91178200  0.89671400  0.68152300  1
  O  O53  1  0.66723200  0.87084500  0.62863200  1
  O  O54  1  0.76625200  0.75439300  0.37687600  1
  O  O55  1  0.10197300  0.68209200  0.98135800  1
  O  O56  1  0.27195900  0.56986900  0.67071900  1
  O  O57  1  0.39231200  0.09894800  0.36484100  1
  O  O58  1  0.84834200  0.97313600  0.92195700  1
  O  O59  1  0.14682100  0.37478200  0.87360900  1
