# generated using pymatgen
data_MgCoPO5
_symmetry_space_group_name_H-M   'P 1'
_cell_length_a   5.28967400
_cell_length_b   5.34162801
_cell_length_c   6.81307388
_cell_angle_alpha   104.21338557
_cell_angle_beta   103.98050196
_cell_angle_gamma   102.46780102
_symmetry_Int_Tables_number   1
_chemical_formula_structural   MgCoPO5
_chemical_formula_sum   'Mg2 Co2 P2 O10'
_cell_volume   173.16232803
_cell_formula_units_Z   2
loop_
 _symmetry_equiv_pos_site_id
 _symmetry_equiv_pos_as_xyz
  1  'x, y, z'
loop_
 _atom_site_type_symbol
 _atom_site_label
 _atom_site_symmetry_multiplicity
 _atom_site_fract_x
 _atom_site_fract_y
 _atom_site_fract_z
 _atom_site_occupancy
  Mg  Mg0  1  0.32304500  0.66758800  0.74645900  1
  Mg  Mg1  1  0.67695500  0.33241200  0.25354100  1
  Co  Co2  1  0.00000000  0.00000000  0.50000000  1
  Co  Co3  1  0.00000000  0.00000000  0.00000000  1
  P  P4  1  0.66305900  0.33752600  0.74708500  1
  P  P5  1  0.33694100  0.66247400  0.25291500  1
  O  O6  1  0.66419800  0.12616100  0.86820500  1
  O  O7  1  0.87782600  0.33943800  0.62531800  1
  O  O8  1  0.33580200  0.87383900  0.13179500  1
  O  O9  1  0.12217400  0.66056200  0.37468200  1
  O  O10  1  0.61648600  0.70948800  0.40402200  1
  O  O11  1  0.28636400  0.37114300  0.09019800  1
  O  O12  1  0.38351400  0.29051200  0.59597800  1
  O  O13  1  0.71363600  0.62885700  0.90980200  1
  O  O14  1  0.90776100  0.08334500  0.24620200  1
  O  O15  1  0.09223900  0.91665500  0.75379800  1
