# generated using pymatgen
data_Te3W5O18
_symmetry_space_group_name_H-M   'P 1'
_cell_length_a   9.16931903
_cell_length_b   9.16931903
_cell_length_c   12.00392432
_cell_angle_alpha   88.43279943
_cell_angle_beta   88.43279943
_cell_angle_gamma   62.17940918
_symmetry_Int_Tables_number   1
_chemical_formula_structural   Te3W5O18
_chemical_formula_sum   'Te6 W10 O36'
_cell_volume   892.13605382
_cell_formula_units_Z   2
loop_
 _symmetry_equiv_pos_site_id
 _symmetry_equiv_pos_as_xyz
  1  'x, y, z'
loop_
 _atom_site_type_symbol
 _atom_site_label
 _atom_site_symmetry_multiplicity
 _atom_site_fract_x
 _atom_site_fract_y
 _atom_site_fract_z
 _atom_site_occupancy
  Te  Te0  1  0.80713800  0.37156200  0.90504300  1
  Te  Te1  1  0.16124400  0.82449000  0.23483600  1
  Te  Te2  1  0.17551000  0.83875600  0.76516400  1
  Te  Te3  1  0.74042600  0.39604000  0.41378600  1
  Te  Te4  1  0.60396000  0.25957400  0.58621400  1
  Te  Te5  1  0.62843800  0.19286200  0.09495700  1
  W  W6  1  0.54811900  0.80034400  0.95921700  1
  W  W7  1  0.18329200  0.14231100  0.45540300  1
  W  W8  1  0.32251100  0.34451400  0.30769600  1
  W  W9  1  0.74038500  0.95319800  0.81458300  1
  W  W10  1  0.65548600  0.67748900  0.69230400  1
  W  W11  1  0.08974500  0.91025500  0.00000000  1
  W  W12  1  0.31508000  0.68492000  0.50000000  1
  W  W13  1  0.04680200  0.25961500  0.18541700  1
  W  W14  1  0.85768900  0.81670800  0.54459700  1
  W  W15  1  0.19965600  0.45188100  0.04078300  1
  O  O16  1  0.18355700  0.37378700  0.91390300  1
  O  O17  1  0.46539300  0.77832900  0.78555700  1
  O  O18  1  0.54207700  0.68143700  0.56917700  1
  O  O19  1  0.08035800  0.74965600  0.49771700  1
  O  O20  1  0.22167100  0.53460700  0.21444300  1
  O  O21  1  0.25034400  0.91964200  0.50228300  1
  O  O22  1  0.83623200  0.33333100  0.24574400  1
  O  O23  1  0.07856000  0.03975600  0.85656400  1
  O  O24  1  0.35711900  0.55984800  0.62641400  1
  O  O25  1  0.38153700  0.13033800  0.38432500  1
  O  O26  1  0.62317600  0.56146100  0.96886000  1
  O  O27  1  0.99185300  0.46334300  0.10451100  1
  O  O28  1  0.94968000  0.84724100  0.72662300  1
  O  O29  1  0.75237600  0.72524400  0.84607800  1
  O  O30  1  0.43853900  0.37682400  0.03114000  1
  O  O31  1  0.54323200  0.26308000  0.25030900  1
  O  O32  1  0.78779000  0.04775500  0.53869800  1
  O  O33  1  0.27475600  0.24762400  0.15392200  1
  O  O34  1  0.31856300  0.45792300  0.43082300  1
  O  O35  1  0.95224500  0.21221000  0.46130200  1
  O  O36  1  0.77333600  0.80005700  0.42064700  1
  O  O37  1  0.65804900  0.89741500  0.66352000  1
  O  O38  1  0.96024400  0.92144000  0.14343600  1
  O  O39  1  0.73692000  0.45676800  0.74969100  1
  O  O40  1  0.85433000  0.96169300  0.93731900  1
  O  O41  1  0.13544500  0.67126800  0.00486200  1
  O  O42  1  0.53665700  0.00814700  0.89548900  1
  O  O43  1  0.66666900  0.16376800  0.75425600  1
  O  O44  1  0.15275900  0.05032000  0.27337700  1
  O  O45  1  0.10258500  0.34195100  0.33648000  1
  O  O46  1  0.19994300  0.22666400  0.57935300  1
  O  O47  1  0.32873200  0.86455500  0.99513800  1
  O  O48  1  0.44015200  0.64288100  0.37358600  1
  O  O49  1  0.86966200  0.61846300  0.61567500  1
  O  O50  1  0.03830700  0.14567000  0.06268100  1
  O  O51  1  0.62621300  0.81644300  0.08609700  1
