# generated using pymatgen
data_ZnFeO2
_symmetry_space_group_name_H-M   'P 1'
_cell_length_a   3.09294900
_cell_length_b   8.03014116
_cell_length_c   8.39060324
_cell_angle_alpha   90.09408498
_cell_angle_beta   94.50987633
_cell_angle_gamma   90.72291082
_symmetry_Int_Tables_number   1
_chemical_formula_structural   ZnFeO2
_chemical_formula_sum   'Zn4 Fe4 O8'
_cell_volume   207.73338001
_cell_formula_units_Z   4
loop_
 _symmetry_equiv_pos_site_id
 _symmetry_equiv_pos_as_xyz
  1  'x, y, z'
loop_
 _atom_site_type_symbol
 _atom_site_label
 _atom_site_symmetry_multiplicity
 _atom_site_fract_x
 _atom_site_fract_y
 _atom_site_fract_z
 _atom_site_occupancy
  Zn  Zn0  1  0.84248200  0.57978000  0.23340200  1
  Zn  Zn1  1  0.15751800  0.42022000  0.76659800  1
  Zn  Zn2  1  0.26159200  0.24682600  0.39428100  1
  Zn  Zn3  1  0.73840800  0.75317400  0.60571900  1
  Fe  Fe4  1  0.47815200  0.75661700  0.92695500  1
  Fe  Fe5  1  0.21703500  0.91269900  0.28107600  1
  Fe  Fe6  1  0.78296500  0.08730100  0.71892400  1
  Fe  Fe7  1  0.52184800  0.24338300  0.07304500  1
  O  O8  1  0.98909500  0.23966200  0.92221100  1
  O  O9  1  0.25432700  0.89304000  0.72228000  1
  O  O10  1  0.74567300  0.10696000  0.27772000  1
  O  O11  1  0.01090500  0.76033800  0.07778900  1
  O  O12  1  0.66719500  0.57633000  0.76336000  1
  O  O13  1  0.71068400  0.76595600  0.38049300  1
  O  O14  1  0.33280500  0.42367000  0.23664000  1
  O  O15  1  0.28931600  0.23404400  0.61950700  1
