# generated using pymatgen
data_YCoF5
_symmetry_space_group_name_H-M   'P 1'
_cell_length_a   5.76214083
_cell_length_b   5.76214083
_cell_length_c   5.76214083
_cell_angle_alpha   137.07990060
_cell_angle_beta   105.97629020
_cell_angle_gamma   89.56777918
_symmetry_Int_Tables_number   1
_chemical_formula_structural   YCoF5
_chemical_formula_sum   'Y1 Co1 F5'
_cell_volume   119.62354491
_cell_formula_units_Z   1
loop_
 _symmetry_equiv_pos_site_id
 _symmetry_equiv_pos_as_xyz
  1  'x, y, z'
loop_
 _atom_site_type_symbol
 _atom_site_label
 _atom_site_symmetry_multiplicity
 _atom_site_fract_x
 _atom_site_fract_y
 _atom_site_fract_z
 _atom_site_occupancy
  Y  Y0  1  0.50000000  0.50000000  0.00000000  1
  Co  Co1  1  0.00000000  0.00000000  0.00000000  1
  F  F2  1  0.81592500  0.50000000  0.31592500  1
  F  F3  1  0.18407500  0.50000000  0.68407500  1
  F  F4  1  0.23053400  0.23053400  0.00000000  1
  F  F5  1  0.76946600  0.76946600  0.00000000  1
  F  F6  1  0.50000000  0.00000000  0.50000000  1
