# generated using pymatgen
data_Zn3Co2(SiO4)3
_symmetry_space_group_name_H-M   'P 1'
_cell_length_a   10.06046123
_cell_length_b   10.06046123
_cell_length_c   10.06046123
_cell_angle_alpha   109.47122063
_cell_angle_beta   109.47122063
_cell_angle_gamma   109.47122063
_symmetry_Int_Tables_number   1
_chemical_formula_structural   Zn3Co2(SiO4)3
_chemical_formula_sum   'Zn12 Co8 Si12 O48'
_cell_volume   783.84787386
_cell_formula_units_Z   4
loop_
 _symmetry_equiv_pos_site_id
 _symmetry_equiv_pos_as_xyz
  1  'x, y, z'
loop_
 _atom_site_type_symbol
 _atom_site_label
 _atom_site_symmetry_multiplicity
 _atom_site_fract_x
 _atom_site_fract_y
 _atom_site_fract_z
 _atom_site_occupancy
  Zn  Zn0  1  0.25000000  0.37500000  0.12500000  1
  Zn  Zn1  1  0.75000000  0.12500000  0.37500000  1
  Zn  Zn2  1  0.37500000  0.12500000  0.25000000  1
  Zn  Zn3  1  0.12500000  0.37500000  0.75000000  1
  Zn  Zn4  1  0.25000000  0.87500000  0.62500000  1
  Zn  Zn5  1  0.12500000  0.25000000  0.37500000  1
  Zn  Zn6  1  0.62500000  0.25000000  0.87500000  1
  Zn  Zn7  1  0.75000000  0.62500000  0.87500000  1
  Zn  Zn8  1  0.87500000  0.75000000  0.62500000  1
  Zn  Zn9  1  0.87500000  0.62500000  0.25000000  1
  Zn  Zn10  1  0.62500000  0.87500000  0.75000000  1
  Zn  Zn11  1  0.37500000  0.75000000  0.12500000  1
  Co  Co12  1  0.50000000  0.00000000  0.00000000  1
  Co  Co13  1  0.50000000  0.50000000  0.00000000  1
  Co  Co14  1  0.00000000  0.50000000  0.50000000  1
  Co  Co15  1  0.00000000  0.00000000  0.50000000  1
  Co  Co16  1  0.50000000  0.50000000  0.50000000  1
  Co  Co17  1  0.00000000  0.50000000  0.00000000  1
  Co  Co18  1  0.50000000  0.00000000  0.50000000  1
  Co  Co19  1  0.00000000  0.00000000  0.00000000  1
  Si  Si20  1  0.12500000  0.75000000  0.87500000  1
  Si  Si21  1  0.87500000  0.25000000  0.12500000  1
  Si  Si22  1  0.75000000  0.37500000  0.62500000  1
  Si  Si23  1  0.12500000  0.87500000  0.25000000  1
  Si  Si24  1  0.25000000  0.12500000  0.87500000  1
  Si  Si25  1  0.37500000  0.62500000  0.75000000  1
  Si  Si26  1  0.37500000  0.25000000  0.62500000  1
  Si  Si27  1  0.87500000  0.12500000  0.75000000  1
  Si  Si28  1  0.62500000  0.37500000  0.25000000  1
  Si  Si29  1  0.75000000  0.87500000  0.12500000  1
  Si  Si30  1  0.25000000  0.62500000  0.37500000  1
  Si  Si31  1  0.62500000  0.75000000  0.37500000  1
  O  O32  1  0.58226000  0.89628900  0.37853800  1
  O  O33  1  0.37853800  0.58226000  0.89628900  1
  O  O34  1  0.29627800  0.31402900  0.91774000  1
  O  O35  1  0.48224900  0.60371100  0.18597100  1
  O  O36  1  0.31402900  0.89628900  0.01775100  1
  O  O37  1  0.12146200  0.01775100  0.20372200  1
  O  O38  1  0.37853800  0.29627800  0.48224900  1
  O  O39  1  0.89628900  0.37853800  0.58226000  1
  O  O40  1  0.18597100  0.20372200  0.58226000  1
  O  O41  1  0.48224900  0.37853800  0.29627800  1
  O  O42  1  0.89628900  0.01775100  0.31402900  1
  O  O43  1  0.60371100  0.91774000  0.12146200  1
  O  O44  1  0.91774000  0.12146200  0.60371100  1
  O  O45  1  0.29627800  0.48224900  0.37853800  1
  O  O46  1  0.58226000  0.18597100  0.20372200  1
  O  O47  1  0.20372200  0.58226000  0.18597100  1
  O  O48  1  0.01775100  0.31402900  0.89628900  1
  O  O49  1  0.91774000  0.29627800  0.31402900  1
  O  O50  1  0.01775100  0.20372200  0.12146200  1
  O  O51  1  0.81402900  0.79627800  0.41774000  1
  O  O52  1  0.18597100  0.48224900  0.60371100  1
  O  O53  1  0.60371100  0.18597100  0.48224900  1
  O  O54  1  0.20372200  0.12146200  0.01775100  1
  O  O55  1  0.12146200  0.60371100  0.91774000  1
  O  O56  1  0.41774000  0.10371100  0.62146200  1
  O  O57  1  0.62146200  0.41774000  0.10371100  1
  O  O58  1  0.70372200  0.68597100  0.08226000  1
  O  O59  1  0.51775100  0.39628900  0.81402900  1
  O  O60  1  0.68597100  0.10371100  0.98224900  1
  O  O61  1  0.87853800  0.98224900  0.79627800  1
  O  O62  1  0.62146200  0.70372200  0.51775100  1
  O  O63  1  0.10371100  0.62146200  0.41774000  1
  O  O64  1  0.87853800  0.39628900  0.08226000  1
  O  O65  1  0.79627800  0.87853800  0.98224900  1
  O  O66  1  0.39628900  0.81402900  0.51775100  1
  O  O67  1  0.68597100  0.08226000  0.70372200  1
  O  O68  1  0.81402900  0.51775100  0.39628900  1
  O  O69  1  0.98224900  0.79627800  0.87853800  1
  O  O70  1  0.08226000  0.70372200  0.68597100  1
  O  O71  1  0.98224900  0.68597100  0.10371100  1
  O  O72  1  0.79627800  0.41774000  0.81402900  1
  O  O73  1  0.41774000  0.81402900  0.79627800  1
  O  O74  1  0.70372200  0.51775100  0.62146200  1
  O  O75  1  0.08226000  0.87853800  0.39628900  1
  O  O76  1  0.39628900  0.08226000  0.87853800  1
  O  O77  1  0.10371100  0.98224900  0.68597100  1
  O  O78  1  0.51775100  0.62146200  0.70372200  1
  O  O79  1  0.31402900  0.91774000  0.29627800  1
