# generated using pymatgen
data_CaTiF5
_symmetry_space_group_name_H-M   'P 1'
_cell_length_a   10.31249700
_cell_length_b   5.62274100
_cell_length_c   7.78251558
_cell_angle_alpha   70.14005257
_cell_angle_beta   90.00000000
_cell_angle_gamma   90.00000000
_symmetry_Int_Tables_number   1
_chemical_formula_structural   CaTiF5
_chemical_formula_sum   'Ca4 Ti4 F20'
_cell_volume   424.42664908
_cell_formula_units_Z   4
loop_
 _symmetry_equiv_pos_site_id
 _symmetry_equiv_pos_as_xyz
  1  'x, y, z'
loop_
 _atom_site_type_symbol
 _atom_site_label
 _atom_site_symmetry_multiplicity
 _atom_site_fract_x
 _atom_site_fract_y
 _atom_site_fract_z
 _atom_site_occupancy
  Ca  Ca0  1  0.01927300  0.52884900  0.74533900  1
  Ca  Ca1  1  0.51927300  0.47115100  0.75466100  1
  Ca  Ca2  1  0.98072700  0.47115100  0.25466100  1
  Ca  Ca3  1  0.48072700  0.52884900  0.24533900  1
  Ti  Ti4  1  0.75398200  0.10555400  0.59978600  1
  Ti  Ti5  1  0.25398200  0.89444600  0.90021400  1
  Ti  Ti6  1  0.24601800  0.89444600  0.40021400  1
  Ti  Ti7  1  0.74601800  0.10555400  0.09978600  1
  F  F8  1  0.88410700  0.39110400  0.55562800  1
  F  F9  1  0.38410700  0.60889600  0.94437200  1
  F  F10  1  0.11589300  0.60889600  0.44437200  1
  F  F11  1  0.61589300  0.39110400  0.05562800  1
  F  F12  1  0.61126600  0.35863700  0.50447000  1
  F  F13  1  0.11126600  0.64136300  0.99553000  1
  F  F14  1  0.38873400  0.64136300  0.49553000  1
  F  F15  1  0.88873400  0.35863700  0.00447000  1
  F  F16  1  0.39598800  0.12285800  0.81046500  1
  F  F17  1  0.89598800  0.87714200  0.68953500  1
  F  F18  1  0.60401200  0.87714200  0.18953500  1
  F  F19  1  0.10401200  0.12285800  0.31046500  1
  F  F20  1  0.13591100  0.17500100  0.85850200  1
  F  F21  1  0.63591100  0.82499900  0.64149800  1
  F  F22  1  0.86408900  0.82499900  0.14149800  1
  F  F23  1  0.36408900  0.17500100  0.35850200  1
  F  F24  1  0.70327900  0.15225500  0.83731200  1
  F  F25  1  0.20327900  0.84774500  0.66268800  1
  F  F26  1  0.29672100  0.84774500  0.16268800  1
  F  F27  1  0.79672100  0.15225500  0.33731200  1
