# generated using pymatgen
data_AlAgO3
_symmetry_space_group_name_H-M   'P 1'
_cell_length_a   6.04946803
_cell_length_b   6.04946803
_cell_length_c   10.84698400
_cell_angle_alpha   90.00000000
_cell_angle_beta   90.00000000
_cell_angle_gamma   120.00000031
_symmetry_Int_Tables_number   1
_chemical_formula_structural   AlAgO3
_chemical_formula_sum   'Al6 Ag6 O18'
_cell_volume   343.77477104
_cell_formula_units_Z   6
loop_
 _symmetry_equiv_pos_site_id
 _symmetry_equiv_pos_as_xyz
  1  'x, y, z'
loop_
 _atom_site_type_symbol
 _atom_site_label
 _atom_site_symmetry_multiplicity
 _atom_site_fract_x
 _atom_site_fract_y
 _atom_site_fract_z
 _atom_site_occupancy
  Al  Al0  1  0.66666700  0.33333300  0.24283300  1
  Al  Al1  1  0.33333300  0.66666700  0.74283300  1
  Al  Al2  1  0.66666700  0.33333300  0.74283300  1
  Al  Al3  1  0.33333300  0.66666700  0.24283300  1
  Al  Al4  1  0.00000000  0.00000000  0.74429700  1
  Al  Al5  1  0.00000000  0.00000000  0.24429700  1
  Ag  Ag6  1  0.67420500  0.00000000  0.49713200  1
  Ag  Ag7  1  0.67420500  0.67420500  0.99713200  1
  Ag  Ag8  1  0.00000000  0.32579500  0.99713200  1
  Ag  Ag9  1  0.00000000  0.67420500  0.49713200  1
  Ag  Ag10  1  0.32579500  0.32579500  0.49713200  1
  Ag  Ag11  1  0.32579500  0.00000000  0.99713200  1
  O  O12  1  0.66666700  0.33333300  0.06749600  1
  O  O13  1  0.33333300  0.66666700  0.56749600  1
  O  O14  1  0.66666700  0.33333300  0.56749600  1
  O  O15  1  0.33333300  0.66666700  0.06749600  1
  O  O16  1  0.00000000  0.00000000  0.91069900  1
  O  O17  1  0.00000000  0.00000000  0.41069900  1
  O  O18  1  0.44499300  0.00000000  0.82134700  1
  O  O19  1  0.44499300  0.44499300  0.32134700  1
  O  O20  1  0.00000000  0.55500700  0.32134700  1
  O  O21  1  0.00000000  0.44499300  0.82134700  1
  O  O22  1  0.55500700  0.55500700  0.82134700  1
  O  O23  1  0.55500700  0.00000000  0.32134700  1
  O  O24  1  0.27157300  0.00000000  0.18130300  1
  O  O25  1  0.27157300  0.27157300  0.68130300  1
  O  O26  1  0.00000000  0.72842700  0.68130300  1
  O  O27  1  0.00000000  0.27157300  0.18130300  1
  O  O28  1  0.72842700  0.72842700  0.18130300  1
  O  O29  1  0.72842700  0.00000000  0.68130300  1
