# generated using pymatgen
data_Zn3Mo2O7
_symmetry_space_group_name_H-M   'P 1'
_cell_length_a   9.99729425
_cell_length_b   9.99729425
_cell_length_c   5.32313700
_cell_angle_alpha   90.00000000
_cell_angle_beta   90.00000000
_cell_angle_gamma   148.98584105
_symmetry_Int_Tables_number   1
_chemical_formula_structural   Zn3Mo2O7
_chemical_formula_sum   'Zn6 Mo4 O14'
_cell_volume   274.12616758
_cell_formula_units_Z   2
loop_
 _symmetry_equiv_pos_site_id
 _symmetry_equiv_pos_as_xyz
  1  'x, y, z'
loop_
 _atom_site_type_symbol
 _atom_site_label
 _atom_site_symmetry_multiplicity
 _atom_site_fract_x
 _atom_site_fract_y
 _atom_site_fract_z
 _atom_site_occupancy
  Zn  Zn0  1  0.73436700  0.73436700  0.26312900  1
  Zn  Zn1  1  0.26563300  0.26563300  0.76312900  1
  Zn  Zn2  1  0.98896000  0.57924900  0.21855800  1
  Zn  Zn3  1  0.01104000  0.42075100  0.71855800  1
  Zn  Zn4  1  0.57924900  0.98896000  0.21855800  1
  Zn  Zn5  1  0.42075100  0.01104000  0.71855800  1
  Mo  Mo6  1  0.14858200  0.35538100  0.24264300  1
  Mo  Mo7  1  0.85141800  0.64461900  0.74264300  1
  Mo  Mo8  1  0.64461900  0.85141800  0.74264300  1
  Mo  Mo9  1  0.35538100  0.14858200  0.24264300  1
  O  O10  1  0.34649100  0.93621000  0.34207500  1
  O  O11  1  0.65350900  0.06379000  0.84207500  1
  O  O12  1  0.06379000  0.65350900  0.84207500  1
  O  O13  1  0.93621000  0.34649100  0.34207500  1
  O  O14  1  0.54514200  0.27723900  0.91783000  1
  O  O15  1  0.45485800  0.72276100  0.41783000  1
  O  O16  1  0.72276100  0.45485800  0.41783000  1
  O  O17  1  0.27723900  0.54514200  0.91783000  1
  O  O18  1  0.98916100  0.83987000  0.06641100  1
  O  O19  1  0.01083900  0.16013000  0.56641100  1
  O  O20  1  0.36944700  0.36944700  0.14183500  1
  O  O21  1  0.63055300  0.63055300  0.64183500  1
  O  O22  1  0.83987000  0.98916100  0.06641100  1
  O  O23  1  0.16013000  0.01083900  0.56641100  1
