# generated using pymatgen
data_Zn2Ag2O5
_symmetry_space_group_name_H-M   'P 1'
_cell_length_a   3.67748900
_cell_length_b   6.33255700
_cell_length_c   10.93302200
_cell_angle_alpha   90.00000000
_cell_angle_beta   90.00000000
_cell_angle_gamma   90.00000000
_symmetry_Int_Tables_number   1
_chemical_formula_structural   Zn2Ag2O5
_chemical_formula_sum   'Zn4 Ag4 O10'
_cell_volume   254.60721825
_cell_formula_units_Z   2
loop_
 _symmetry_equiv_pos_site_id
 _symmetry_equiv_pos_as_xyz
  1  'x, y, z'
loop_
 _atom_site_type_symbol
 _atom_site_label
 _atom_site_symmetry_multiplicity
 _atom_site_fract_x
 _atom_site_fract_y
 _atom_site_fract_z
 _atom_site_occupancy
  Zn  Zn0  1  0.50000000  0.32584100  0.85847300  1
  Zn  Zn1  1  0.50000000  0.64426500  0.68157100  1
  Zn  Zn2  1  0.50000000  0.82584100  0.14152700  1
  Zn  Zn3  1  0.50000000  0.14426500  0.31842900  1
  Ag  Ag4  1  0.00000000  0.34732600  0.09654100  1
  Ag  Ag5  1  0.00000000  0.73976000  0.41372000  1
  Ag  Ag6  1  0.00000000  0.23976000  0.58628000  1
  Ag  Ag7  1  0.00000000  0.84732600  0.90345900  1
  O  O8  1  0.00000000  0.44961900  0.27914400  1
  O  O9  1  0.00000000  0.26548500  0.36087600  1
  O  O10  1  0.00000000  0.76548500  0.63912400  1
  O  O11  1  0.00000000  0.23404900  0.91513500  1
  O  O12  1  0.50000000  0.33834000  0.66980900  1
  O  O13  1  0.50000000  0.65149800  0.86158200  1
  O  O14  1  0.00000000  0.73404900  0.08486500  1
  O  O15  1  0.50000000  0.15149800  0.13841800  1
  O  O16  1  0.00000000  0.94961900  0.72085600  1
  O  O17  1  0.50000000  0.83834000  0.33019100  1
