# generated using pymatgen
data_Sr2Y2V2O7
_symmetry_space_group_name_H-M   'P 1'
_cell_length_a   12.68176350
_cell_length_b   12.68176350
_cell_length_c   12.68176350
_cell_angle_alpha   154.25600716
_cell_angle_beta   153.83585829
_cell_angle_gamma   37.03399556
_symmetry_Int_Tables_number   1
_chemical_formula_structural   Sr2Y2V2O7
_chemical_formula_sum   'Sr4 Y4 V4 O14'
_cell_volume   390.07675408
_cell_formula_units_Z   2
loop_
 _symmetry_equiv_pos_site_id
 _symmetry_equiv_pos_as_xyz
  1  'x, y, z'
loop_
 _atom_site_type_symbol
 _atom_site_label
 _atom_site_symmetry_multiplicity
 _atom_site_fract_x
 _atom_site_fract_y
 _atom_site_fract_z
 _atom_site_occupancy
  Sr  Sr0  1  0.83224600  0.83872200  0.95999100  1
  Sr  Sr1  1  0.16775400  0.12774500  0.00647600  1
  Sr  Sr2  1  0.62127000  0.62774500  0.95999100  1
  Sr  Sr3  1  0.37873000  0.33872200  0.00647600  1
  Y  Y4  1  0.50000000  0.47447600  0.97447600  1
  Y  Y5  1  0.00000000  0.97447600  0.97447600  1
  Y  Y6  1  0.19970300  0.77185500  0.47155800  1
  Y  Y7  1  0.80029700  0.27185500  0.57215200  1
  V  V8  1  0.92932000  0.39779900  0.46809900  1
  V  V9  1  0.07068000  0.53877900  0.46847900  1
  V  V10  1  0.57030100  0.03877900  0.46809900  1
  V  V11  1  0.42969900  0.89779900  0.46847900  1
  O  O12  1  0.83314900  0.66288400  0.99603300  1
  O  O13  1  0.16685100  0.16288400  0.82973500  1
  O  O14  1  0.72812100  0.69662000  0.55008500  1
  O  O15  1  0.27187900  0.82196400  0.96849900  1
  O  O16  1  0.35346500  0.32196400  0.55008500  1
  O  O17  1  0.64653500  0.19662000  0.96849900  1
  O  O18  1  0.13746600  0.10444300  0.37569000  1
  O  O19  1  0.86253400  0.23822400  0.96697700  1
  O  O20  1  0.77124700  0.73822400  0.37569000  1
  O  O21  1  0.22875300  0.60444300  0.96697700  1
  O  O22  1  0.37582200  0.78926500  0.49304700  1
  O  O23  1  0.62417800  0.11722400  0.41344200  1
  O  O24  1  0.20378200  0.61722400  0.49304700  1
  O  O25  1  0.79621800  0.28926500  0.41344200  1
