# generated using pymatgen
data_ZnAgF5
_symmetry_space_group_name_H-M   'P 1'
_cell_length_a   10.13544700
_cell_length_b   5.35314600
_cell_length_c   7.97094679
_cell_angle_alpha   69.05438577
_cell_angle_beta   90.00000000
_cell_angle_gamma   90.00000000
_symmetry_Int_Tables_number   1
_chemical_formula_structural   ZnAgF5
_chemical_formula_sum   'Zn4 Ag4 F20'
_cell_volume   403.89796169
_cell_formula_units_Z   4
loop_
 _symmetry_equiv_pos_site_id
 _symmetry_equiv_pos_as_xyz
  1  'x, y, z'
loop_
 _atom_site_type_symbol
 _atom_site_label
 _atom_site_symmetry_multiplicity
 _atom_site_fract_x
 _atom_site_fract_y
 _atom_site_fract_z
 _atom_site_occupancy
  Zn  Zn0  1  0.00274000  0.51456200  0.75236500  1
  Zn  Zn1  1  0.50274000  0.48543800  0.74763500  1
  Zn  Zn2  1  0.99726000  0.48543800  0.24763500  1
  Zn  Zn3  1  0.49726000  0.51456200  0.25236500  1
  Ag  Ag4  1  0.75383600  0.10360300  0.60139300  1
  Ag  Ag5  1  0.25383600  0.89639700  0.89860700  1
  Ag  Ag6  1  0.24616400  0.89639700  0.39860700  1
  Ag  Ag7  1  0.74616400  0.10360300  0.10139300  1
  F  F8  1  0.89534500  0.40639400  0.57267200  1
  F  F9  1  0.39534500  0.59360600  0.92732800  1
  F  F10  1  0.10465500  0.59360600  0.42732800  1
  F  F11  1  0.60465500  0.40639400  0.07267200  1
  F  F12  1  0.60200400  0.36923400  0.48979800  1
  F  F13  1  0.10200400  0.63076600  0.01020200  1
  F  F14  1  0.39799600  0.63076600  0.51020200  1
  F  F15  1  0.89799600  0.36923400  0.98979800  1
  F  F16  1  0.41287900  0.15196500  0.80282500  1
  F  F17  1  0.91287900  0.84803500  0.69717500  1
  F  F18  1  0.58712100  0.84803500  0.19717500  1
  F  F19  1  0.08712100  0.15196500  0.30282500  1
  F  F20  1  0.12289700  0.22618500  0.84151900  1
  F  F21  1  0.62289700  0.77381500  0.65848100  1
  F  F22  1  0.87710300  0.77381500  0.15848100  1
  F  F23  1  0.37710300  0.22618500  0.34151900  1
  F  F24  1  0.68432200  0.15192400  0.83866000  1
  F  F25  1  0.18432200  0.84807600  0.66134000  1
  F  F26  1  0.31567800  0.84807600  0.16134000  1
  F  F27  1  0.81567800  0.15192400  0.33866000  1
