# generated using pymatgen
data_MgNiPO5
_symmetry_space_group_name_H-M   'P 1'
_cell_length_a   5.26653145
_cell_length_b   5.26653145
_cell_length_c   6.79846524
_cell_angle_alpha   75.84893526
_cell_angle_beta   75.84893526
_cell_angle_gamma   103.50877587
_symmetry_Int_Tables_number   1
_chemical_formula_structural   MgNiPO5
_chemical_formula_sum   'Mg2 Ni2 P2 O10'
_cell_volume   168.44316549
_cell_formula_units_Z   2
loop_
 _symmetry_equiv_pos_site_id
 _symmetry_equiv_pos_as_xyz
  1  'x, y, z'
loop_
 _atom_site_type_symbol
 _atom_site_label
 _atom_site_symmetry_multiplicity
 _atom_site_fract_x
 _atom_site_fract_y
 _atom_site_fract_z
 _atom_site_occupancy
  Mg  Mg0  1  0.33588500  0.67886500  0.23321500  1
  Mg  Mg1  1  0.67886500  0.33588500  0.73321500  1
  Ni  Ni2  1  0.99847200  0.00143800  0.49401700  1
  Ni  Ni3  1  0.00143800  0.99847200  0.99401700  1
  P  P4  1  0.66502300  0.33405300  0.24495700  1
  P  P5  1  0.33405200  0.66502300  0.74495700  1
  O  O6  1  0.65837900  0.11112000  0.12986400  1
  O  O7  1  0.87903500  0.34131100  0.36619500  1
  O  O8  1  0.34131100  0.87903500  0.86619500  1
  O  O9  1  0.11112000  0.65837900  0.62986400  1
  O  O10  1  0.61649500  0.71572400  0.58554600  1
  O  O11  1  0.28077100  0.37526900  0.90595600  1
  O  O12  1  0.37526900  0.28077100  0.40595600  1
  O  O13  1  0.71572400  0.61649500  0.08554600  1
  O  O14  1  0.90933300  0.09197600  0.74786600  1
  O  O15  1  0.09197600  0.90933300  0.24786600  1
