# generated using pymatgen
data_YWF5
_symmetry_space_group_name_H-M   'P 1'
_cell_length_a   5.96745672
_cell_length_b   5.96745672
_cell_length_c   5.96745672
_cell_angle_alpha   137.52526531
_cell_angle_beta   108.42442252
_cell_angle_gamma   86.92583020
_symmetry_Int_Tables_number   1
_chemical_formula_structural   YWF5
_chemical_formula_sum   'Y1 W1 F5'
_cell_volume   130.68933552
_cell_formula_units_Z   1
loop_
 _symmetry_equiv_pos_site_id
 _symmetry_equiv_pos_as_xyz
  1  'x, y, z'
loop_
 _atom_site_type_symbol
 _atom_site_label
 _atom_site_symmetry_multiplicity
 _atom_site_fract_x
 _atom_site_fract_y
 _atom_site_fract_z
 _atom_site_occupancy
  Y  Y0  1  0.50000000  0.50000000  0.00000000  1
  W  W1  1  0.00000000  0.00000000  0.00000000  1
  F  F2  1  0.81756800  0.50000000  0.31756800  1
  F  F3  1  0.18243200  0.50000000  0.68243200  1
  F  F4  1  0.24723500  0.24723500  0.00000000  1
  F  F5  1  0.75276500  0.75276500  0.00000000  1
  F  F6  1  0.50000000  0.00000000  0.50000000  1
