# generated using pymatgen
data_MnZnF5
_symmetry_space_group_name_H-M   'P 1'
_cell_length_a   9.65681400
_cell_length_b   5.16530900
_cell_length_c   7.84872322
_cell_angle_alpha   68.48769458
_cell_angle_beta   90.00000000
_cell_angle_gamma   90.00000000
_symmetry_Int_Tables_number   1
_chemical_formula_structural   MnZnF5
_chemical_formula_sum   'Mn4 Zn4 F20'
_cell_volume   364.22549054
_cell_formula_units_Z   4
loop_
 _symmetry_equiv_pos_site_id
 _symmetry_equiv_pos_as_xyz
  1  'x, y, z'
loop_
 _atom_site_type_symbol
 _atom_site_label
 _atom_site_symmetry_multiplicity
 _atom_site_fract_x
 _atom_site_fract_y
 _atom_site_fract_z
 _atom_site_occupancy
  Mn  Mn0  1  0.75223100  0.11092900  0.60206100  1
  Mn  Mn1  1  0.25223100  0.88907100  0.89793900  1
  Mn  Mn2  1  0.24776900  0.88907100  0.39793900  1
  Mn  Mn3  1  0.74776900  0.11092900  0.10206100  1
  Zn  Zn4  1  0.00946500  0.52471300  0.74675000  1
  Zn  Zn5  1  0.50946500  0.47528700  0.75325000  1
  Zn  Zn6  1  0.99053500  0.47528700  0.25325000  1
  Zn  Zn7  1  0.49053500  0.52471300  0.24675000  1
  F  F8  1  0.88154700  0.40860700  0.58163600  1
  F  F9  1  0.38154700  0.59139300  0.91836400  1
  F  F10  1  0.11845300  0.59139300  0.41836400  1
  F  F11  1  0.61845300  0.40860700  0.08163600  1
  F  F12  1  0.60838200  0.35801300  0.48446900  1
  F  F13  1  0.10838200  0.64198700  0.01553100  1
  F  F14  1  0.39161800  0.64198700  0.51553100  1
  F  F15  1  0.89161800  0.35801300  0.98446900  1
  F  F16  1  0.39493600  0.13419900  0.78949900  1
  F  F17  1  0.89493600  0.86580100  0.71050100  1
  F  F18  1  0.60506400  0.86580100  0.21050100  1
  F  F19  1  0.10506400  0.13419900  0.28949900  1
  F  F20  1  0.13194400  0.19632900  0.85368100  1
  F  F21  1  0.63194400  0.80367100  0.64631900  1
  F  F22  1  0.86805600  0.80367100  0.14631900  1
  F  F23  1  0.36805600  0.19632900  0.35368100  1
  F  F24  1  0.66829200  0.19082400  0.83341400  1
  F  F25  1  0.16829200  0.80917600  0.66658600  1
  F  F26  1  0.33170800  0.80917600  0.16658600  1
  F  F27  1  0.83170800  0.19082400  0.33341400  1
