# generated using pymatgen
data_CaBiO3
_symmetry_space_group_name_H-M   'P 1'
_cell_length_a   5.83227000
_cell_length_b   6.08104800
_cell_length_c   8.41391400
_cell_angle_alpha   90.00000000
_cell_angle_beta   90.00000000
_cell_angle_gamma   90.00000000
_symmetry_Int_Tables_number   1
_chemical_formula_structural   CaBiO3
_chemical_formula_sum   'Ca4 Bi4 O12'
_cell_volume   298.41051437
_cell_formula_units_Z   4
loop_
 _symmetry_equiv_pos_site_id
 _symmetry_equiv_pos_as_xyz
  1  'x, y, z'
loop_
 _atom_site_type_symbol
 _atom_site_label
 _atom_site_symmetry_multiplicity
 _atom_site_fract_x
 _atom_site_fract_y
 _atom_site_fract_z
 _atom_site_occupancy
  Ca  Ca0  1  0.98928300  0.05658500  0.75000000  1
  Ca  Ca1  1  0.48928300  0.44341500  0.25000000  1
  Ca  Ca2  1  0.51071700  0.55658500  0.75000000  1
  Ca  Ca3  1  0.01071700  0.94341500  0.25000000  1
  Bi  Bi4  1  0.50000000  0.00000000  0.50000000  1
  Bi  Bi5  1  0.00000000  0.50000000  0.50000000  1
  Bi  Bi6  1  0.00000000  0.50000000  0.00000000  1
  Bi  Bi7  1  0.50000000  0.00000000  0.00000000  1
  O  O8  1  0.87140400  0.56487000  0.25000000  1
  O  O9  1  0.37140400  0.93513000  0.75000000  1
  O  O10  1  0.62859600  0.06487000  0.25000000  1
  O  O11  1  0.12859600  0.43513000  0.75000000  1
  O  O12  1  0.68471700  0.31092200  0.93366100  1
  O  O13  1  0.18471700  0.18907800  0.06633900  1
  O  O14  1  0.81528300  0.81092200  0.56633900  1
  O  O15  1  0.31528300  0.68907800  0.43366100  1
  O  O16  1  0.68471700  0.31092200  0.56633900  1
  O  O17  1  0.18471700  0.18907800  0.43366100  1
  O  O18  1  0.31528300  0.68907800  0.06633900  1
  O  O19  1  0.81528300  0.81092200  0.93366100  1
