# generated using pymatgen
data_CaCrF5
_symmetry_space_group_name_H-M   'P 1'
_cell_length_a   10.23796200
_cell_length_b   5.55485000
_cell_length_c   7.64830605
_cell_angle_alpha   70.16073674
_cell_angle_beta   90.00000000
_cell_angle_gamma   90.00000000
_symmetry_Int_Tables_number   1
_chemical_formula_structural   CaCrF5
_chemical_formula_sum   'Ca4 Cr4 F20'
_cell_volume   409.14612051
_cell_formula_units_Z   4
loop_
 _symmetry_equiv_pos_site_id
 _symmetry_equiv_pos_as_xyz
  1  'x, y, z'
loop_
 _atom_site_type_symbol
 _atom_site_label
 _atom_site_symmetry_multiplicity
 _atom_site_fract_x
 _atom_site_fract_y
 _atom_site_fract_z
 _atom_site_occupancy
  Ca  Ca0  1  0.01929500  0.52837800  0.74589600  1
  Ca  Ca1  1  0.51929500  0.47162200  0.75410400  1
  Ca  Ca2  1  0.98070500  0.47162200  0.25410400  1
  Ca  Ca3  1  0.48070500  0.52837800  0.24589600  1
  Cr  Cr4  1  0.75384700  0.10832700  0.59911700  1
  Cr  Cr5  1  0.25384700  0.89167300  0.90088300  1
  Cr  Cr6  1  0.24615300  0.89167300  0.40088300  1
  Cr  Cr7  1  0.74615300  0.10832700  0.09911700  1
  F  F8  1  0.88187600  0.38796800  0.55594900  1
  F  F9  1  0.38187600  0.61203200  0.94405100  1
  F  F10  1  0.11812400  0.61203200  0.44405100  1
  F  F11  1  0.61812400  0.38796800  0.05594900  1
  F  F12  1  0.61201800  0.35630800  0.50560100  1
  F  F13  1  0.11201800  0.64369200  0.99439900  1
  F  F14  1  0.38798200  0.64369200  0.49439900  1
  F  F15  1  0.88798200  0.35630800  0.00560100  1
  F  F16  1  0.39539400  0.12207500  0.81129900  1
  F  F17  1  0.89539400  0.87792500  0.68870100  1
  F  F18  1  0.60460600  0.87792500  0.18870100  1
  F  F19  1  0.10460600  0.12207500  0.31129900  1
  F  F20  1  0.13664200  0.17027600  0.85914000  1
  F  F21  1  0.63664200  0.82972400  0.64086000  1
  F  F22  1  0.86335800  0.82972400  0.14086000  1
  F  F23  1  0.36335800  0.17027600  0.35914000  1
  F  F24  1  0.70390200  0.14823300  0.83837200  1
  F  F25  1  0.20390200  0.85176700  0.66162800  1
  F  F26  1  0.29609800  0.85176700  0.16162800  1
  F  F27  1  0.79609800  0.14823300  0.33837200  1
