# generated using pymatgen
data_Ca3V2O7
_symmetry_space_group_name_H-M   'P 1'
_cell_length_a   9.95003594
_cell_length_b   9.95003594
_cell_length_c   5.52835000
_cell_angle_alpha   90.00000000
_cell_angle_beta   90.00000000
_cell_angle_gamma   148.11177252
_symmetry_Int_Tables_number   1
_chemical_formula_structural   Ca3V2O7
_chemical_formula_sum   'Ca6 V4 O14'
_cell_volume   289.13172730
_cell_formula_units_Z   2
loop_
 _symmetry_equiv_pos_site_id
 _symmetry_equiv_pos_as_xyz
  1  'x, y, z'
loop_
 _atom_site_type_symbol
 _atom_site_label
 _atom_site_symmetry_multiplicity
 _atom_site_fract_x
 _atom_site_fract_y
 _atom_site_fract_z
 _atom_site_occupancy
  Ca  Ca0  1  0.24217200  0.24217200  0.28970100  1
  Ca  Ca1  1  0.75782800  0.75782800  0.78970100  1
  Ca  Ca2  1  0.05594000  0.42537800  0.21276800  1
  Ca  Ca3  1  0.94406000  0.57462200  0.71276800  1
  Ca  Ca4  1  0.42537800  0.05594000  0.21276800  1
  Ca  Ca5  1  0.57462200  0.94406000  0.71276800  1
  V  V6  1  0.84867900  0.64936400  0.24808100  1
  V  V7  1  0.15132100  0.35063600  0.74808100  1
  V  V8  1  0.35063600  0.15132100  0.74808100  1
  V  V9  1  0.64936400  0.84867900  0.24808100  1
  O  O10  1  0.61599200  0.00966000  0.26628000  1
  O  O11  1  0.38400800  0.99034000  0.76628000  1
  O  O12  1  0.99034000  0.38400800  0.76628000  1
  O  O13  1  0.00966000  0.61599200  0.26628000  1
  O  O14  1  0.42910200  0.65100000  0.96028600  1
  O  O15  1  0.57089800  0.34900000  0.46028600  1
  O  O16  1  0.34900000  0.57089800  0.46028600  1
  O  O17  1  0.65100000  0.42910200  0.96028600  1
  O  O18  1  0.95440700  0.12348100  0.03966300  1
  O  O19  1  0.04559300  0.87651900  0.53966300  1
  O  O20  1  0.67946200  0.67946200  0.23614100  1
  O  O21  1  0.32053800  0.32053800  0.73614100  1
  O  O22  1  0.12348100  0.95440700  0.03966300  1
  O  O23  1  0.87651900  0.04559300  0.53966300  1
