# generated using pymatgen
data_MgMoF5
_symmetry_space_group_name_H-M   'P 1'
_cell_length_a   10.25154700
_cell_length_b   5.30027800
_cell_length_c   7.87063752
_cell_angle_alpha   71.66139617
_cell_angle_beta   90.00000000
_cell_angle_gamma   90.00000000
_symmetry_Int_Tables_number   1
_chemical_formula_structural   MgMoF5
_chemical_formula_sum   'Mg4 Mo4 F20'
_cell_volume   405.94011241
_cell_formula_units_Z   4
loop_
 _symmetry_equiv_pos_site_id
 _symmetry_equiv_pos_as_xyz
  1  'x, y, z'
loop_
 _atom_site_type_symbol
 _atom_site_label
 _atom_site_symmetry_multiplicity
 _atom_site_fract_x
 _atom_site_fract_y
 _atom_site_fract_z
 _atom_site_occupancy
  Mg  Mg0  1  0.00191900  0.50930500  0.28460500  1
  Mg  Mg1  1  0.50191900  0.49069500  0.21539500  1
  Mg  Mg2  1  0.99808100  0.49069500  0.71539500  1
  Mg  Mg3  1  0.49808100  0.50930500  0.78460500  1
  Mo  Mo4  1  0.75751300  0.09455100  0.12182400  1
  Mo  Mo5  1  0.25751300  0.90544900  0.37817600  1
  Mo  Mo6  1  0.24248700  0.90544900  0.87817600  1
  Mo  Mo7  1  0.74248700  0.09455100  0.62182400  1
  F  F8  1  0.89087100  0.39844300  0.11422800  1
  F  F9  1  0.39087100  0.60155700  0.38577200  1
  F  F10  1  0.10912900  0.60155700  0.88577200  1
  F  F11  1  0.60912900  0.39844300  0.61422800  1
  F  F12  1  0.60083600  0.35463600  0.01186400  1
  F  F13  1  0.10083600  0.64536400  0.48813600  1
  F  F14  1  0.39916400  0.64536400  0.98813600  1
  F  F15  1  0.89916400  0.35463600  0.51186400  1
  F  F16  1  0.41076600  0.15694200  0.27317100  1
  F  F17  1  0.91076600  0.84305800  0.22682900  1
  F  F18  1  0.58923400  0.84305800  0.72682900  1
  F  F19  1  0.08923400  0.15694200  0.77317100  1
  F  F20  1  0.13355200  0.23420800  0.33913400  1
  F  F21  1  0.63355200  0.76579200  0.16086600  1
  F  F22  1  0.86644800  0.76579200  0.66086600  1
  F  F23  1  0.36644800  0.23420800  0.83913400  1
  F  F24  1  0.67495900  0.14190800  0.35825400  1
  F  F25  1  0.17495900  0.85809200  0.14174600  1
  F  F26  1  0.32504100  0.85809200  0.64174600  1
  F  F27  1  0.82504100  0.14190800  0.85825400  1
