# generated using pymatgen
data_MoF5
_symmetry_space_group_name_H-M   'P 1'
_cell_length_a   9.99088400
_cell_length_b   5.60068300
_cell_length_c   7.93028839
_cell_angle_alpha   69.33670125
_cell_angle_beta   90.00000000
_cell_angle_gamma   90.00000000
_symmetry_Int_Tables_number   1
_chemical_formula_structural   MoF5
_chemical_formula_sum   'Mo4 F20'
_cell_volume   415.19939840
_cell_formula_units_Z   4
loop_
 _symmetry_equiv_pos_site_id
 _symmetry_equiv_pos_as_xyz
  1  'x, y, z'
loop_
 _atom_site_type_symbol
 _atom_site_label
 _atom_site_symmetry_multiplicity
 _atom_site_fract_x
 _atom_site_fract_y
 _atom_site_fract_z
 _atom_site_occupancy
  Mo  Mo0  1  0.75132600  0.11878000  0.59676900  1
  Mo  Mo1  1  0.25132600  0.88122000  0.90323100  1
  Mo  Mo2  1  0.24867400  0.88122000  0.40323100  1
  Mo  Mo3  1  0.74867400  0.11878000  0.09676900  1
  F  F4  1  0.86651500  0.39825100  0.56774100  1
  F  F5  1  0.36651500  0.60174900  0.93225900  1
  F  F6  1  0.13348500  0.60174900  0.43225900  1
  F  F7  1  0.63348500  0.39825100  0.06774100  1
  F  F8  1  0.61819000  0.35843100  0.48773300  1
  F  F9  1  0.11819000  0.64156900  0.01226700  1
  F  F10  1  0.38181000  0.64156900  0.51226700  1
  F  F11  1  0.88181000  0.35843100  0.98773300  1
  F  F12  1  0.38849600  0.11831600  0.79783900  1
  F  F13  1  0.88849600  0.88168400  0.70216100  1
  F  F14  1  0.61150400  0.88168400  0.20216100  1
  F  F15  1  0.11150400  0.11831600  0.29783900  1
  F  F16  1  0.13804200  0.16418500  0.87180200  1
  F  F17  1  0.63804200  0.83581500  0.62819800  1
  F  F18  1  0.86195800  0.83581500  0.12819800  1
  F  F19  1  0.36195800  0.16418500  0.37180200  1
  F  F20  1  0.69429800  0.11707300  0.84658400  1
  F  F21  1  0.19429800  0.88292700  0.65341600  1
  F  F22  1  0.30570200  0.88292700  0.15341600  1
  F  F23  1  0.80570200  0.11707300  0.34658400  1
