# generated using pymatgen
data_Mg2Ag2O5
_symmetry_space_group_name_H-M   'P 1'
_cell_length_a   3.99941400
_cell_length_b   5.18964100
_cell_length_c   10.90236800
_cell_angle_alpha   90.00000000
_cell_angle_beta   90.00000000
_cell_angle_gamma   90.00000000
_symmetry_Int_Tables_number   1
_chemical_formula_structural   Mg2Ag2O5
_chemical_formula_sum   'Mg4 Ag4 O10'
_cell_volume   226.28434837
_cell_formula_units_Z   2
loop_
 _symmetry_equiv_pos_site_id
 _symmetry_equiv_pos_as_xyz
  1  'x, y, z'
loop_
 _atom_site_type_symbol
 _atom_site_label
 _atom_site_symmetry_multiplicity
 _atom_site_fract_x
 _atom_site_fract_y
 _atom_site_fract_z
 _atom_site_occupancy
  Mg  Mg0  1  0.50000000  0.67814200  0.40560000  1
  Mg  Mg1  1  0.50000000  0.32185800  0.59440000  1
  Mg  Mg2  1  0.50000000  0.17814200  0.09440000  1
  Mg  Mg3  1  0.50000000  0.82185800  0.90560000  1
  Ag  Ag4  1  0.00000000  0.69171300  0.13317300  1
  Ag  Ag5  1  0.00000000  0.30828700  0.86682700  1
  Ag  Ag6  1  0.00000000  0.80828700  0.63317300  1
  Ag  Ag7  1  0.00000000  0.19171300  0.36682700  1
  O  O8  1  0.00000000  0.00000000  0.00000000  1
  O  O9  1  0.00000000  0.73471300  0.84822900  1
  O  O10  1  0.00000000  0.23471300  0.65177100  1
  O  O11  1  0.00000000  0.76528700  0.34822900  1
  O  O12  1  0.50000000  0.74336400  0.59993200  1
  O  O13  1  0.50000000  0.25663600  0.40006800  1
  O  O14  1  0.00000000  0.26528700  0.15177100  1
  O  O15  1  0.50000000  0.75663600  0.09993200  1
  O  O16  1  0.00000000  0.50000000  0.50000000  1
  O  O17  1  0.50000000  0.24336400  0.90006800  1
