# generated using pymatgen
data_ZnBiO3
_symmetry_space_group_name_H-M   'P 1'
_cell_length_a   5.59044700
_cell_length_b   5.65178600
_cell_length_c   10.01902410
_cell_angle_alpha   57.15133302
_cell_angle_beta   90.00000000
_cell_angle_gamma   90.00000000
_symmetry_Int_Tables_number   1
_chemical_formula_structural   ZnBiO3
_chemical_formula_sum   'Zn4 Bi4 O12'
_cell_volume   265.94500714
_cell_formula_units_Z   4
loop_
 _symmetry_equiv_pos_site_id
 _symmetry_equiv_pos_as_xyz
  1  'x, y, z'
loop_
 _atom_site_type_symbol
 _atom_site_label
 _atom_site_symmetry_multiplicity
 _atom_site_fract_x
 _atom_site_fract_y
 _atom_site_fract_z
 _atom_site_occupancy
  Zn  Zn0  1  0.02037900  0.77355500  0.24801500  1
  Zn  Zn1  1  0.47962100  0.77355500  0.74801500  1
  Zn  Zn2  1  0.52037900  0.22644500  0.25198500  1
  Zn  Zn3  1  0.97962100  0.22644500  0.75198500  1
  Bi  Bi4  1  0.00000000  0.50000000  0.00000000  1
  Bi  Bi5  1  0.50000000  0.00000000  0.00000000  1
  Bi  Bi6  1  0.50000000  0.50000000  0.50000000  1
  Bi  Bi7  1  0.00000000  0.00000000  0.50000000  1
  O  O8  1  0.62752200  0.12871200  0.73395100  1
  O  O9  1  0.87247800  0.12871200  0.23395100  1
  O  O10  1  0.12752200  0.87128800  0.76604900  1
  O  O11  1  0.37247800  0.87128800  0.26604900  1
  O  O12  1  0.35458900  0.24329600  0.42505700  1
  O  O13  1  0.16877500  0.55357300  0.58510800  1
  O  O14  1  0.85458900  0.75670400  0.07494300  1
  O  O15  1  0.66877500  0.44642700  0.91489200  1
  O  O16  1  0.33122500  0.55357300  0.08510800  1
  O  O17  1  0.14541100  0.24329600  0.92505700  1
  O  O18  1  0.64541100  0.75670400  0.57494300  1
  O  O19  1  0.83122500  0.44642700  0.41489200  1
