# generated using pymatgen
data_VZnSF5
_symmetry_space_group_name_H-M   'P 1'
_cell_length_a   8.43223769
_cell_length_b   7.62157510
_cell_length_c   12.04167156
_cell_angle_alpha   77.45897402
_cell_angle_beta   26.20508332
_cell_angle_gamma   88.69325374
_symmetry_Int_Tables_number   1
_chemical_formula_structural   VZnSF5
_chemical_formula_sum   'V2 Zn2 S2 F10'
_cell_volume   305.86845925
_cell_formula_units_Z   2
loop_
 _symmetry_equiv_pos_site_id
 _symmetry_equiv_pos_as_xyz
  1  'x, y, z'
loop_
 _atom_site_type_symbol
 _atom_site_label
 _atom_site_symmetry_multiplicity
 _atom_site_fract_x
 _atom_site_fract_y
 _atom_site_fract_z
 _atom_site_occupancy
  V  V0  1  0.49801300  0.49983400  0.50208400  1
  V  V1  1  0.49830900  0.99954500  0.50267900  1
  Zn  Zn2  1  0.53295900  0.35296200  0.21094600  1
  Zn  Zn3  1  0.46286200  0.64425200  0.79411000  1
  S  S4  1  0.96587100  0.37063600  0.50415800  1
  S  S5  1  0.02688100  0.62290600  0.50294000  1
  F  F6  1  0.45644500  0.87954800  0.69121600  1
  F  F7  1  0.32736500  0.47803300  0.76610300  1
  F  F8  1  0.54385200  0.11963900  0.31185800  1
  F  F9  1  0.66766200  0.52073500  0.23883400  1
  F  F10  1  0.06502600  0.59404300  0.16743200  1
  F  F11  1  0.98083200  0.88113400  0.82334500  1
  F  F12  1  0.93095700  0.40520600  0.83705900  1
  F  F13  1  0.01763700  0.11893300  0.18127500  1
  F  F14  1  0.56100500  0.77991700  0.42202600  1
  F  F15  1  0.43702000  0.21993800  0.58192400  1
