# generated using pymatgen
data_YBiO3
_symmetry_space_group_name_H-M   'P 1'
_cell_length_a   6.61361336
_cell_length_b   6.61361336
_cell_length_c   13.08213500
_cell_angle_alpha   90.00000000
_cell_angle_beta   90.00000000
_cell_angle_gamma   119.99999363
_symmetry_Int_Tables_number   1
_chemical_formula_structural   YBiO3
_chemical_formula_sum   'Y6 Bi6 O18'
_cell_volume   495.54932667
_cell_formula_units_Z   6
loop_
 _symmetry_equiv_pos_site_id
 _symmetry_equiv_pos_as_xyz
  1  'x, y, z'
loop_
 _atom_site_type_symbol
 _atom_site_label
 _atom_site_symmetry_multiplicity
 _atom_site_fract_x
 _atom_site_fract_y
 _atom_site_fract_z
 _atom_site_occupancy
  Y  Y0  1  0.66666700  0.33333300  0.23577200  1
  Y  Y1  1  0.33333300  0.66666700  0.73577200  1
  Y  Y2  1  0.66666700  0.33333300  0.73577200  1
  Y  Y3  1  0.33333300  0.66666700  0.23577200  1
  Y  Y4  1  0.00000000  0.00000000  0.76391700  1
  Y  Y5  1  0.00000000  0.00000000  0.26391700  1
  Bi  Bi6  1  0.66703600  0.00000000  0.49984000  1
  Bi  Bi7  1  0.66703600  0.66703600  0.99984000  1
  Bi  Bi8  1  0.00000000  0.33296400  0.99984000  1
  Bi  Bi9  1  0.00000000  0.66703600  0.49984000  1
  Bi  Bi10  1  0.33296400  0.33296400  0.49984000  1
  Bi  Bi11  1  0.33296400  0.00000000  0.99984000  1
  O  O12  1  0.66666700  0.33333300  0.04185800  1
  O  O13  1  0.33333300  0.66666700  0.54185800  1
  O  O14  1  0.66666700  0.33333300  0.54185800  1
  O  O15  1  0.33333300  0.66666700  0.04185800  1
  O  O16  1  0.00000000  0.00000000  0.95216900  1
  O  O17  1  0.00000000  0.00000000  0.45216900  1
  O  O18  1  0.37478900  0.00000000  0.82318300  1
  O  O19  1  0.37478900  0.37478900  0.32318300  1
  O  O20  1  0.00000000  0.62521100  0.32318300  1
  O  O21  1  0.00000000  0.37478900  0.82318300  1
  O  O22  1  0.62521100  0.62521100  0.82318300  1
  O  O23  1  0.62521100  0.00000000  0.32318300  1
  O  O24  1  0.29995200  0.00000000  0.17819600  1
  O  O25  1  0.29995200  0.29995200  0.67819600  1
  O  O26  1  0.00000000  0.70004800  0.67819600  1
  O  O27  1  0.00000000  0.29995200  0.17819600  1
  O  O28  1  0.70004800  0.70004800  0.17819600  1
  O  O29  1  0.70004800  0.00000000  0.67819600  1
