# generated using pymatgen
data_Ca2TaWO6
_symmetry_space_group_name_H-M   'P 1'
_cell_length_a   7.97274400
_cell_length_b   5.58336900
_cell_length_c   5.76011106
_cell_angle_alpha   89.61055236
_cell_angle_beta   90.00000000
_cell_angle_gamma   90.00000000
_symmetry_Int_Tables_number   1
_chemical_formula_structural   Ca2TaWO6
_chemical_formula_sum   'Ca4 Ta2 W2 O12'
_cell_volume   256.40410564
_cell_formula_units_Z   2
loop_
 _symmetry_equiv_pos_site_id
 _symmetry_equiv_pos_as_xyz
  1  'x, y, z'
loop_
 _atom_site_type_symbol
 _atom_site_label
 _atom_site_symmetry_multiplicity
 _atom_site_fract_x
 _atom_site_fract_y
 _atom_site_fract_z
 _atom_site_occupancy
  Ca  Ca0  1  0.75000000  0.99037600  0.04391400  1
  Ca  Ca1  1  0.75000000  0.50858000  0.56064300  1
  Ca  Ca2  1  0.25000000  0.49142000  0.43935700  1
  Ca  Ca3  1  0.25000000  0.00962400  0.95608600  1
  Ta  Ta4  1  0.00000000  0.00000000  0.50000000  1
  Ta  Ta5  1  0.50000000  0.00000000  0.50000000  1
  W  W6  1  0.00000000  0.50000000  0.00000000  1
  W  W7  1  0.50000000  0.50000000  0.00000000  1
  O  O8  1  0.44838300  0.18543300  0.21304400  1
  O  O9  1  0.54894500  0.70931600  0.31321100  1
  O  O10  1  0.55161700  0.81456700  0.78695600  1
  O  O11  1  0.04894500  0.29068400  0.68678900  1
  O  O12  1  0.25000000  0.90715200  0.53457500  1
  O  O13  1  0.45105500  0.29068400  0.68678900  1
  O  O14  1  0.95105500  0.70931600  0.31321100  1
  O  O15  1  0.05161700  0.18543300  0.21304400  1
  O  O16  1  0.75000000  0.38057900  0.94816400  1
  O  O17  1  0.94838300  0.81456700  0.78695600  1
  O  O18  1  0.25000000  0.61942100  0.05183600  1
  O  O19  1  0.75000000  0.09284800  0.46542500  1
