data_image0
_chemical_formula_structural       As3Cd4Rb
_chemical_formula_sum              "As3 Cd4 Rb1"
_cell_length_a       4.51827
_cell_length_b       4.51827
_cell_length_c       12.6907
_cell_angle_alpha    90
_cell_angle_beta     100.254
_cell_angle_gamma    60

_space_group_name_H-M_alt    "P 1"
_space_group_IT_number       1

loop_
  _space_group_symop_operation_xyz
  'x, y, z'

loop_
  _atom_site_type_symbol
  _atom_site_label
  _atom_site_symmetry_multiplicity
  _atom_site_fract_x
  _atom_site_fract_y
  _atom_site_fract_z
  _atom_site_occupancy
  As  As1       1.0  0.00000  0.00000  0.00000  1.0000
  As  As2       1.0  0.53900  0.23100  0.30800  1.0000
  As  As3       1.0  0.46100  0.76900  0.69200  1.0000
  Cd  Cd1       1.0  0.39500  0.30200  0.09250  1.0000
  Cd  Cd2       1.0  0.17300  0.91400  0.25900  1.0000
  Cd  Cd3       1.0  0.82700  0.08640  0.74100  1.0000
  Cd  Cd4       1.0  0.60500  0.69800  0.90700  1.0000
  Rb  Rb1       1.0  0.00000  0.50000  0.50000  1.0000
