# generated using pymatgen
data_Mg2W2O5
_symmetry_space_group_name_H-M   'P 1'
_cell_length_a   5.26768500
_cell_length_b   3.22559000
_cell_length_c   14.10711307
_cell_angle_alpha   89.46670759
_cell_angle_beta   90.00000000
_cell_angle_gamma   90.00000000
_symmetry_Int_Tables_number   1
_chemical_formula_structural   Mg2W2O5
_chemical_formula_sum   'Mg4 W4 O10'
_cell_volume   239.68910607
_cell_formula_units_Z   2
loop_
 _symmetry_equiv_pos_site_id
 _symmetry_equiv_pos_as_xyz
  1  'x, y, z'
loop_
 _atom_site_type_symbol
 _atom_site_label
 _atom_site_symmetry_multiplicity
 _atom_site_fract_x
 _atom_site_fract_y
 _atom_site_fract_z
 _atom_site_occupancy
  Mg  Mg0  1  0.79862500  0.98963700  0.55420300  1
  Mg  Mg1  1  0.19783300  0.00474500  0.95097700  1
  Mg  Mg2  1  0.29862500  0.01036300  0.44579700  1
  Mg  Mg3  1  0.69783300  0.99525500  0.04902300  1
  W  W4  1  0.80502000  0.51485400  0.32911100  1
  W  W5  1  0.19165900  0.49889200  0.16997500  1
  W  W6  1  0.69165900  0.50110800  0.83002500  1
  W  W7  1  0.30502000  0.48514600  0.67088900  1
  O  O8  1  0.49535300  0.49387600  0.25080200  1
  O  O9  1  0.89832500  0.49242000  0.07687000  1
  O  O10  1  0.39832500  0.50758000  0.92313000  1
  O  O11  1  0.61051000  0.48903400  0.58538800  1
  O  O12  1  0.83475000  0.00455800  0.90937900  1
  O  O13  1  0.16817000  0.99746000  0.58683000  1
  O  O14  1  0.11051000  0.51096600  0.41461200  1
  O  O15  1  0.66817000  0.00254000  0.41317000  1
  O  O16  1  0.99535300  0.50612400  0.74919800  1
  O  O17  1  0.33475000  0.99544200  0.09062100  1
