# generated using pymatgen
data_Ca2TaBiO6
_symmetry_space_group_name_H-M   'P 1'
_cell_length_a   8.13101500
_cell_length_b   5.77288700
_cell_length_c   5.98532536
_cell_angle_alpha   88.95349153
_cell_angle_beta   90.00000000
_cell_angle_gamma   90.00000000
_symmetry_Int_Tables_number   1
_chemical_formula_structural   Ca2TaBiO6
_chemical_formula_sum   'Ca4 Ta2 Bi2 O12'
_cell_volume   280.90090304
_cell_formula_units_Z   2
loop_
 _symmetry_equiv_pos_site_id
 _symmetry_equiv_pos_as_xyz
  1  'x, y, z'
loop_
 _atom_site_type_symbol
 _atom_site_label
 _atom_site_symmetry_multiplicity
 _atom_site_fract_x
 _atom_site_fract_y
 _atom_site_fract_z
 _atom_site_occupancy
  Ca  Ca0  1  0.75000000  0.98839100  0.05449100  1
  Ca  Ca1  1  0.75000000  0.50629900  0.55611200  1
  Ca  Ca2  1  0.25000000  0.49370100  0.44388800  1
  Ca  Ca3  1  0.25000000  0.01160900  0.94550900  1
  Ta  Ta4  1  0.00000000  0.00000000  0.50000000  1
  Ta  Ta5  1  0.50000000  0.00000000  0.50000000  1
  Bi  Bi6  1  0.00000000  0.50000000  0.00000000  1
  Bi  Bi7  1  0.50000000  0.50000000  0.00000000  1
  O  O8  1  0.43991100  0.15962400  0.21506600  1
  O  O9  1  0.55980700  0.71393800  0.33555600  1
  O  O10  1  0.56008900  0.84037600  0.78493400  1
  O  O11  1  0.05980700  0.28606200  0.66444400  1
  O  O12  1  0.25000000  0.89494000  0.54616400  1
  O  O13  1  0.44019300  0.28606200  0.66444400  1
  O  O14  1  0.94019300  0.71393800  0.33555600  1
  O  O15  1  0.06008900  0.15962400  0.21506600  1
  O  O16  1  0.75000000  0.35481800  0.92497600  1
  O  O17  1  0.93991100  0.84037600  0.78493400  1
  O  O18  1  0.25000000  0.64518200  0.07502400  1
  O  O19  1  0.75000000  0.10506000  0.45383600  1
