# generated using pymatgen
data_Zn3Ni2(GeO4)3
_symmetry_space_group_name_H-M   'P 1'
_cell_length_a   10.39168650
_cell_length_b   10.39168650
_cell_length_c   10.39168650
_cell_angle_alpha   109.47122063
_cell_angle_beta   109.47122063
_cell_angle_gamma   109.47122063
_symmetry_Int_Tables_number   1
_chemical_formula_structural   Zn3Ni2(GeO4)3
_chemical_formula_sum   'Zn12 Ni8 Ge12 O48'
_cell_volume   863.84578518
_cell_formula_units_Z   4
loop_
 _symmetry_equiv_pos_site_id
 _symmetry_equiv_pos_as_xyz
  1  'x, y, z'
loop_
 _atom_site_type_symbol
 _atom_site_label
 _atom_site_symmetry_multiplicity
 _atom_site_fract_x
 _atom_site_fract_y
 _atom_site_fract_z
 _atom_site_occupancy
  Zn  Zn0  1  0.25000000  0.87500000  0.62500000  1
  Zn  Zn1  1  0.75000000  0.62500000  0.87500000  1
  Zn  Zn2  1  0.62500000  0.87500000  0.75000000  1
  Zn  Zn3  1  0.87500000  0.62500000  0.25000000  1
  Zn  Zn4  1  0.62500000  0.25000000  0.87500000  1
  Zn  Zn5  1  0.87500000  0.75000000  0.62500000  1
  Zn  Zn6  1  0.75000000  0.12500000  0.37500000  1
  Zn  Zn7  1  0.25000000  0.37500000  0.12500000  1
  Zn  Zn8  1  0.37500000  0.12500000  0.25000000  1
  Zn  Zn9  1  0.12500000  0.37500000  0.75000000  1
  Zn  Zn10  1  0.37500000  0.75000000  0.12500000  1
  Zn  Zn11  1  0.12500000  0.25000000  0.37500000  1
  Ni  Ni12  1  0.50000000  0.50000000  0.50000000  1
  Ni  Ni13  1  0.50000000  0.00000000  0.50000000  1
  Ni  Ni14  1  0.00000000  0.50000000  0.50000000  1
  Ni  Ni15  1  0.50000000  0.50000000  0.00000000  1
  Ni  Ni16  1  0.00000000  0.00000000  0.50000000  1
  Ni  Ni17  1  0.00000000  0.50000000  0.00000000  1
  Ni  Ni18  1  0.50000000  0.00000000  0.00000000  1
  Ni  Ni19  1  0.00000000  0.00000000  0.00000000  1
  Ge  Ge20  1  0.12500000  0.75000000  0.87500000  1
  Ge  Ge21  1  0.87500000  0.25000000  0.12500000  1
  Ge  Ge22  1  0.62500000  0.37500000  0.25000000  1
  Ge  Ge23  1  0.75000000  0.87500000  0.12500000  1
  Ge  Ge24  1  0.87500000  0.12500000  0.75000000  1
  Ge  Ge25  1  0.25000000  0.62500000  0.37500000  1
  Ge  Ge26  1  0.75000000  0.37500000  0.62500000  1
  Ge  Ge27  1  0.25000000  0.12500000  0.87500000  1
  Ge  Ge28  1  0.12500000  0.87500000  0.25000000  1
  Ge  Ge29  1  0.37500000  0.62500000  0.75000000  1
  Ge  Ge30  1  0.62500000  0.75000000  0.37500000  1
  Ge  Ge31  1  0.37500000  0.25000000  0.62500000  1
  O  O32  1  0.42005500  0.81993500  0.79224900  1
  O  O33  1  0.87219400  0.39988000  0.07994500  1
  O  O34  1  0.10012000  0.97231400  0.68006500  1
  O  O35  1  0.52768600  0.62780600  0.70775100  1
  O  O36  1  0.68006500  0.07994500  0.70775100  1
  O  O37  1  0.62780600  0.70775100  0.52768600  1
  O  O38  1  0.62780600  0.42005500  0.10012000  1
  O  O39  1  0.70775100  0.52768600  0.62780600  1
  O  O40  1  0.81993500  0.52768600  0.39988000  1
  O  O41  1  0.97231400  0.79224900  0.87219400  1
  O  O42  1  0.79224900  0.87219400  0.97231400  1
  O  O43  1  0.70775100  0.68006500  0.07994500  1
  O  O44  1  0.42005500  0.10012000  0.62780600  1
  O  O45  1  0.39988000  0.81993500  0.52768600  1
  O  O46  1  0.07994500  0.70775100  0.68006500  1
  O  O47  1  0.10012000  0.62780600  0.42005500  1
  O  O48  1  0.52768600  0.39988000  0.81993500  1
  O  O49  1  0.07994500  0.87219400  0.39988000  1
  O  O50  1  0.97231400  0.68006500  0.10012000  1
  O  O51  1  0.18006500  0.47231400  0.60012000  1
  O  O52  1  0.68006500  0.10012000  0.97231400  1
  O  O53  1  0.79224900  0.42005500  0.81993500  1
  O  O54  1  0.39988000  0.07994500  0.87219400  1
  O  O55  1  0.87219400  0.97231400  0.79224900  1
  O  O56  1  0.57994500  0.18006500  0.20775100  1
  O  O57  1  0.12780600  0.60012000  0.92005500  1
  O  O58  1  0.89988000  0.02768600  0.31993500  1
  O  O59  1  0.47231400  0.37219400  0.29224900  1
  O  O60  1  0.31993500  0.92005500  0.29224900  1
  O  O61  1  0.37219400  0.29224900  0.47231400  1
  O  O62  1  0.37219400  0.57994500  0.89988000  1
  O  O63  1  0.29224900  0.47231400  0.37219400  1
  O  O64  1  0.12780600  0.02768600  0.20775100  1
  O  O65  1  0.60012000  0.92005500  0.12780600  1
  O  O66  1  0.20775100  0.57994500  0.18006500  1
  O  O67  1  0.18006500  0.20775100  0.57994500  1
  O  O68  1  0.31993500  0.89988000  0.02768600  1
  O  O69  1  0.02768600  0.31993500  0.89988000  1
  O  O70  1  0.92005500  0.12780600  0.60012000  1
  O  O71  1  0.47231400  0.60012000  0.18006500  1
  O  O72  1  0.89988000  0.37219400  0.57994500  1
  O  O73  1  0.92005500  0.29224900  0.31993500  1
  O  O74  1  0.60012000  0.18006500  0.47231400  1
  O  O75  1  0.57994500  0.89988000  0.37219400  1
  O  O76  1  0.29224900  0.31993500  0.92005500  1
  O  O77  1  0.20775100  0.12780600  0.02768600  1
  O  O78  1  0.02768600  0.20775100  0.12780600  1
  O  O79  1  0.81993500  0.79224900  0.42005500  1
