# generated using pymatgen
data_Zn3Sn2(GeO4)3
_symmetry_space_group_name_H-M   'P 1'
_cell_length_a   10.88856685
_cell_length_b   10.88856685
_cell_length_c   10.88856685
_cell_angle_alpha   109.47122063
_cell_angle_beta   109.47122063
_cell_angle_gamma   109.47122063
_symmetry_Int_Tables_number   1
_chemical_formula_structural   Zn3Sn2(GeO4)3
_chemical_formula_sum   'Zn12 Sn8 Ge12 O48'
_cell_volume   993.78005038
_cell_formula_units_Z   4
loop_
 _symmetry_equiv_pos_site_id
 _symmetry_equiv_pos_as_xyz
  1  'x, y, z'
loop_
 _atom_site_type_symbol
 _atom_site_label
 _atom_site_symmetry_multiplicity
 _atom_site_fract_x
 _atom_site_fract_y
 _atom_site_fract_z
 _atom_site_occupancy
  Zn  Zn0  1  0.25000000  0.87500000  0.62500000  1
  Zn  Zn1  1  0.75000000  0.62500000  0.87500000  1
  Zn  Zn2  1  0.62500000  0.87500000  0.75000000  1
  Zn  Zn3  1  0.87500000  0.62500000  0.25000000  1
  Zn  Zn4  1  0.62500000  0.25000000  0.87500000  1
  Zn  Zn5  1  0.87500000  0.75000000  0.62500000  1
  Zn  Zn6  1  0.75000000  0.12500000  0.37500000  1
  Zn  Zn7  1  0.25000000  0.37500000  0.12500000  1
  Zn  Zn8  1  0.37500000  0.12500000  0.25000000  1
  Zn  Zn9  1  0.12500000  0.37500000  0.75000000  1
  Zn  Zn10  1  0.37500000  0.75000000  0.12500000  1
  Zn  Zn11  1  0.12500000  0.25000000  0.37500000  1
  Sn  Sn12  1  0.50000000  0.50000000  0.50000000  1
  Sn  Sn13  1  0.50000000  0.00000000  0.50000000  1
  Sn  Sn14  1  0.00000000  0.50000000  0.50000000  1
  Sn  Sn15  1  0.50000000  0.50000000  0.00000000  1
  Sn  Sn16  1  0.00000000  0.00000000  0.50000000  1
  Sn  Sn17  1  0.00000000  0.50000000  0.00000000  1
  Sn  Sn18  1  0.50000000  0.00000000  0.00000000  1
  Sn  Sn19  1  0.00000000  0.00000000  0.00000000  1
  Ge  Ge20  1  0.12500000  0.75000000  0.87500000  1
  Ge  Ge21  1  0.87500000  0.25000000  0.12500000  1
  Ge  Ge22  1  0.62500000  0.37500000  0.25000000  1
  Ge  Ge23  1  0.75000000  0.87500000  0.12500000  1
  Ge  Ge24  1  0.87500000  0.12500000  0.75000000  1
  Ge  Ge25  1  0.25000000  0.62500000  0.37500000  1
  Ge  Ge26  1  0.75000000  0.37500000  0.62500000  1
  Ge  Ge27  1  0.25000000  0.12500000  0.87500000  1
  Ge  Ge28  1  0.12500000  0.87500000  0.25000000  1
  Ge  Ge29  1  0.37500000  0.62500000  0.75000000  1
  Ge  Ge30  1  0.62500000  0.75000000  0.37500000  1
  Ge  Ge31  1  0.37500000  0.25000000  0.62500000  1
  O  O32  1  0.41792700  0.81438100  0.78797100  1
  O  O33  1  0.87004400  0.39645500  0.08207300  1
  O  O34  1  0.10354500  0.97359000  0.68561900  1
  O  O35  1  0.52641000  0.62995600  0.71202900  1
  O  O36  1  0.68561900  0.08207300  0.71202900  1
  O  O37  1  0.62995600  0.71202900  0.52641000  1
  O  O38  1  0.62995600  0.41792700  0.10354500  1
  O  O39  1  0.71202900  0.52641000  0.62995600  1
  O  O40  1  0.81438100  0.52641000  0.39645500  1
  O  O41  1  0.97359000  0.78797100  0.87004400  1
  O  O42  1  0.78797100  0.87004400  0.97359000  1
  O  O43  1  0.71202900  0.68561900  0.08207300  1
  O  O44  1  0.41792700  0.10354500  0.62995600  1
  O  O45  1  0.39645500  0.81438100  0.52641000  1
  O  O46  1  0.08207300  0.71202900  0.68561900  1
  O  O47  1  0.10354500  0.62995600  0.41792700  1
  O  O48  1  0.52641000  0.39645500  0.81438100  1
  O  O49  1  0.08207300  0.87004400  0.39645500  1
  O  O50  1  0.97359000  0.68561900  0.10354500  1
  O  O51  1  0.18561900  0.47359000  0.60354500  1
  O  O52  1  0.68561900  0.10354500  0.97359000  1
  O  O53  1  0.78797100  0.41792700  0.81438100  1
  O  O54  1  0.39645500  0.08207300  0.87004400  1
  O  O55  1  0.87004400  0.97359000  0.78797100  1
  O  O56  1  0.58207300  0.18561900  0.21202900  1
  O  O57  1  0.12995600  0.60354500  0.91792700  1
  O  O58  1  0.89645500  0.02641000  0.31438100  1
  O  O59  1  0.47359000  0.37004400  0.28797100  1
  O  O60  1  0.31438100  0.91792700  0.28797100  1
  O  O61  1  0.37004400  0.28797100  0.47359000  1
  O  O62  1  0.37004400  0.58207300  0.89645500  1
  O  O63  1  0.28797100  0.47359000  0.37004400  1
  O  O64  1  0.12995600  0.02641000  0.21202900  1
  O  O65  1  0.60354500  0.91792700  0.12995600  1
  O  O66  1  0.21202900  0.58207300  0.18561900  1
  O  O67  1  0.18561900  0.21202900  0.58207300  1
  O  O68  1  0.31438100  0.89645500  0.02641000  1
  O  O69  1  0.02641000  0.31438100  0.89645500  1
  O  O70  1  0.91792700  0.12995600  0.60354500  1
  O  O71  1  0.47359000  0.60354500  0.18561900  1
  O  O72  1  0.89645500  0.37004400  0.58207300  1
  O  O73  1  0.91792700  0.28797100  0.31438100  1
  O  O74  1  0.60354500  0.18561900  0.47359000  1
  O  O75  1  0.58207300  0.89645500  0.37004400  1
  O  O76  1  0.28797100  0.31438100  0.91792700  1
  O  O77  1  0.21202900  0.12995600  0.02641000  1
  O  O78  1  0.02641000  0.21202900  0.12995600  1
  O  O79  1  0.81438100  0.78797100  0.41792700  1
