# generated using pymatgen
data_ZnSb2O5
_symmetry_space_group_name_H-M   'P 1'
_cell_length_a   3.99476300
_cell_length_b   5.40058884
_cell_length_c   13.56339571
_cell_angle_alpha   90.73685827
_cell_angle_beta   92.97160679
_cell_angle_gamma   111.38018025
_symmetry_Int_Tables_number   1
_chemical_formula_structural   ZnSb2O5
_chemical_formula_sum   'Zn2 Sb4 O10'
_cell_volume   271.95518131
_cell_formula_units_Z   2
loop_
 _symmetry_equiv_pos_site_id
 _symmetry_equiv_pos_as_xyz
  1  'x, y, z'
loop_
 _atom_site_type_symbol
 _atom_site_label
 _atom_site_symmetry_multiplicity
 _atom_site_fract_x
 _atom_site_fract_y
 _atom_site_fract_z
 _atom_site_occupancy
  Zn  Zn0  1  0.43295600  0.86074100  0.23635900  1
  Zn  Zn1  1  0.38820500  0.06111200  0.74306500  1
  Sb  Sb2  1  0.70689200  0.45281500  0.11632500  1
  Sb  Sb3  1  0.27749700  0.54652700  0.89369000  1
  Sb  Sb4  1  0.30801700  0.53117900  0.59792400  1
  Sb  Sb5  1  0.73004900  0.43853400  0.39003000  1
  O  O6  1  0.30527900  0.39315500  0.74292500  1
  O  O7  1  0.81429500  0.64001000  0.25444500  1
  O  O8  1  0.24936200  0.54140300  0.13019200  1
  O  O9  1  0.74492200  0.57252000  0.97759900  1
  O  O10  1  0.26997700  0.51332300  0.41778600  1
  O  O11  1  0.77073100  0.47610700  0.55222400  1
  O  O12  1  0.54278200  0.06933900  0.35733700  1
  O  O13  1  0.48152100  0.90616500  0.62716500  1
  O  O14  1  0.47523500  0.91503100  0.86238000  1
  O  O15  1  0.51644500  0.07934700  0.11868600  1
