# generated using pymatgen
data_Si2WO7
_symmetry_space_group_name_H-M   'P 1'
_cell_length_a   9.48338907
_cell_length_b   9.48338907
_cell_length_c   10.38515464
_cell_angle_alpha   60.39323102
_cell_angle_beta   60.39323102
_cell_angle_gamma   49.53802796
_symmetry_Int_Tables_number   1
_chemical_formula_structural   Si2WO7
_chemical_formula_sum   'Si8 W4 O28'
_cell_volume   596.21696678
_cell_formula_units_Z   4
loop_
 _symmetry_equiv_pos_site_id
 _symmetry_equiv_pos_as_xyz
  1  'x, y, z'
loop_
 _atom_site_type_symbol
 _atom_site_label
 _atom_site_symmetry_multiplicity
 _atom_site_fract_x
 _atom_site_fract_y
 _atom_site_fract_z
 _atom_site_occupancy
  Si  Si0  1  0.52708200  0.13432100  0.65869000  1
  Si  Si1  1  0.13432100  0.52708200  0.15869000  1
  Si  Si2  1  0.53421000  0.19027400  0.10954200  1
  Si  Si3  1  0.19027400  0.53421000  0.60954200  1
  Si  Si4  1  0.86567900  0.47291800  0.84131000  1
  Si  Si5  1  0.46579000  0.80972600  0.89045800  1
  Si  Si6  1  0.80972600  0.46579000  0.39045800  1
  Si  Si7  1  0.47291800  0.86567900  0.34131000  1
  W  W8  1  0.79400300  0.20599700  0.75000000  1
  W  W9  1  0.20599700  0.79400300  0.25000000  1
  W  W10  1  0.00000000  0.00000000  0.00000000  1
  W  W11  1  0.00000000  0.00000000  0.50000000  1
  O  O12  1  0.88698200  0.25985400  0.37352000  1
  O  O13  1  0.95537300  0.92223000  0.39442300  1
  O  O14  1  0.42846800  0.73349700  0.08526700  1
  O  O15  1  0.92223000  0.95537300  0.89442300  1
  O  O16  1  0.25756300  0.90843100  0.33376500  1
  O  O17  1  0.01151200  0.51047500  0.67183700  1
  O  O18  1  0.73349700  0.42846800  0.58526700  1
  O  O19  1  0.09156900  0.74243700  0.16623500  1
  O  O20  1  0.98848800  0.48952500  0.32816300  1
  O  O21  1  0.62888100  0.64383200  0.31883800  1
  O  O22  1  0.04462700  0.07777000  0.60557700  1
  O  O23  1  0.74243700  0.09156900  0.66623500  1
  O  O24  1  0.48952500  0.98848800  0.82816300  1
  O  O25  1  0.25985400  0.88698200  0.87352000  1
  O  O26  1  0.64383200  0.62888100  0.81883800  1
  O  O27  1  0.90843100  0.25756300  0.83376500  1
  O  O28  1  0.89573800  0.43019800  0.99206800  1
  O  O29  1  0.37111900  0.35616800  0.68116200  1
  O  O30  1  0.56980200  0.10426200  0.50793200  1
  O  O31  1  0.35616800  0.37111900  0.18116200  1
  O  O32  1  0.51047500  0.01151200  0.17183700  1
  O  O33  1  0.07777000  0.04462700  0.10557700  1
  O  O34  1  0.43019800  0.89573800  0.49206800  1
  O  O35  1  0.57153200  0.26650300  0.91473300  1
  O  O36  1  0.10426200  0.56980200  0.00793200  1
  O  O37  1  0.26650300  0.57153200  0.41473300  1
  O  O38  1  0.74014600  0.11301800  0.12648000  1
  O  O39  1  0.11301800  0.74014600  0.62648000  1
