# generated using pymatgen
data_Zn2Fe2O5
_symmetry_space_group_name_H-M   'P 1'
_cell_length_a   3.29539800
_cell_length_b   7.42333800
_cell_length_c   10.36858300
_cell_angle_alpha   90.00000000
_cell_angle_beta   90.00000000
_cell_angle_gamma   90.00000000
_symmetry_Int_Tables_number   1
_chemical_formula_structural   Zn2Fe2O5
_chemical_formula_sum   'Zn4 Fe4 O10'
_cell_volume   253.64512381
_cell_formula_units_Z   2
loop_
 _symmetry_equiv_pos_site_id
 _symmetry_equiv_pos_as_xyz
  1  'x, y, z'
loop_
 _atom_site_type_symbol
 _atom_site_label
 _atom_site_symmetry_multiplicity
 _atom_site_fract_x
 _atom_site_fract_y
 _atom_site_fract_z
 _atom_site_occupancy
  Zn  Zn0  1  0.50000000  0.89325400  0.87561900  1
  Zn  Zn1  1  0.50000000  0.10674600  0.12438100  1
  Zn  Zn2  1  0.50000000  0.39325400  0.62438100  1
  Zn  Zn3  1  0.50000000  0.60674600  0.37561900  1
  Fe  Fe4  1  0.00000000  0.80607300  0.60735100  1
  Fe  Fe5  1  0.00000000  0.19392700  0.39264900  1
  Fe  Fe6  1  0.00000000  0.69392700  0.10735100  1
  Fe  Fe7  1  0.00000000  0.30607300  0.89264900  1
  O  O8  1  0.00000000  0.00000000  0.50000000  1
  O  O9  1  0.00000000  0.65383100  0.28581200  1
  O  O10  1  0.00000000  0.15383100  0.21418800  1
  O  O11  1  0.00000000  0.84616900  0.78581200  1
  O  O12  1  0.50000000  0.83337100  0.06795500  1
  O  O13  1  0.50000000  0.16662900  0.93204500  1
  O  O14  1  0.00000000  0.34616900  0.71418800  1
  O  O15  1  0.50000000  0.66662900  0.56795500  1
  O  O16  1  0.00000000  0.50000000  0.00000000  1
  O  O17  1  0.50000000  0.33337100  0.43204500  1
