# generated using pymatgen
data_Nb2Zn2CoO8
_symmetry_space_group_name_H-M   'P 1'
_cell_length_a   10.13895758
_cell_length_b   10.13895758
_cell_length_c   5.28515240
_cell_angle_alpha   89.71335080
_cell_angle_beta   89.71335080
_cell_angle_gamma   34.19572671
_symmetry_Int_Tables_number   1
_chemical_formula_structural   Nb2Zn2CoO8
_chemical_formula_sum   'Nb4 Zn4 Co2 O16'
_cell_volume   305.34531034
_cell_formula_units_Z   2
loop_
 _symmetry_equiv_pos_site_id
 _symmetry_equiv_pos_as_xyz
  1  'x, y, z'
loop_
 _atom_site_type_symbol
 _atom_site_label
 _atom_site_symmetry_multiplicity
 _atom_site_fract_x
 _atom_site_fract_y
 _atom_site_fract_z
 _atom_site_occupancy
  Nb  Nb0  1  0.72224800  0.04963200  0.76631600  1
  Nb  Nb1  1  0.95036800  0.27775200  0.73368400  1
  Nb  Nb2  1  0.27775200  0.95036800  0.23368400  1
  Nb  Nb3  1  0.04963200  0.72224800  0.26631600  1
  Zn  Zn4  1  0.56747800  0.87356800  0.73687300  1
  Zn  Zn5  1  0.12643200  0.43252200  0.76312700  1
  Zn  Zn6  1  0.43252200  0.12643200  0.26312700  1
  Zn  Zn7  1  0.87356800  0.56747800  0.23687300  1
  Co  Co8  1  0.35420500  0.64579500  0.75000000  1
  Co  Co9  1  0.64579500  0.35420500  0.25000000  1
  O  O10  1  0.81140100  0.04916200  0.42603300  1
  O  O11  1  0.95083800  0.18859900  0.07396700  1
  O  O12  1  0.18859900  0.95083800  0.57396700  1
  O  O13  1  0.04916200  0.81140100  0.92603300  1
  O  O14  1  0.56608400  0.31991900  0.91335000  1
  O  O15  1  0.68008100  0.43391600  0.58665000  1
  O  O16  1  0.43391600  0.68008100  0.08665000  1
  O  O17  1  0.31991900  0.56608400  0.41335000  1
  O  O18  1  0.71534300  0.92686000  0.06282400  1
  O  O19  1  0.07314000  0.28465700  0.43717600  1
  O  O20  1  0.15981600  0.45359400  0.13546400  1
  O  O21  1  0.54640600  0.84018400  0.36453600  1
  O  O22  1  0.84018400  0.54640600  0.86453600  1
  O  O23  1  0.45359400  0.15981600  0.63546400  1
  O  O24  1  0.92686000  0.71534300  0.56282400  1
  O  O25  1  0.28465700  0.07314000  0.93717600  1
