# generated using pymatgen
data_Al(WO2)2
_symmetry_space_group_name_H-M   'P 1'
_cell_length_a   6.49106219
_cell_length_b   6.49106219
_cell_length_c   6.49106199
_cell_angle_alpha   53.84985046
_cell_angle_beta   53.84985046
_cell_angle_gamma   53.84985430
_symmetry_Int_Tables_number   1
_chemical_formula_structural   Al(WO2)2
_chemical_formula_sum   'Al2 W4 O8'
_cell_volume   165.59321213
_cell_formula_units_Z   2
loop_
 _symmetry_equiv_pos_site_id
 _symmetry_equiv_pos_as_xyz
  1  'x, y, z'
loop_
 _atom_site_type_symbol
 _atom_site_label
 _atom_site_symmetry_multiplicity
 _atom_site_fract_x
 _atom_site_fract_y
 _atom_site_fract_z
 _atom_site_occupancy
  Al  Al0  1  0.62868400  0.62868400  0.62868400  1
  Al  Al1  1  0.37131600  0.37131600  0.37131600  1
  W  W2  1  0.50000000  0.00000000  0.00000000  1
  W  W3  1  0.00000000  0.00000000  0.00000000  1
  W  W4  1  0.00000000  0.50000000  0.00000000  1
  W  W5  1  0.00000000  0.00000000  0.50000000  1
  O  O6  1  0.74947000  0.26120700  0.74947000  1
  O  O7  1  0.25053000  0.25053000  0.73879300  1
  O  O8  1  0.73879300  0.25053000  0.25053000  1
  O  O9  1  0.26366900  0.26366900  0.26366900  1
  O  O10  1  0.74947000  0.74947000  0.26120700  1
  O  O11  1  0.25053000  0.73879300  0.25053000  1
  O  O12  1  0.26120700  0.74947000  0.74947000  1
  O  O13  1  0.73633100  0.73633100  0.73633100  1
