# generated using pymatgen
data_AlWO3
_symmetry_space_group_name_H-M   'P 1'
_cell_length_a   4.87076100
_cell_length_b   5.93601300
_cell_length_c   8.69031600
_cell_angle_alpha   90.00000000
_cell_angle_beta   90.00000000
_cell_angle_gamma   90.00000000
_symmetry_Int_Tables_number   1
_chemical_formula_structural   AlWO3
_chemical_formula_sum   'Al4 W4 O12'
_cell_volume   251.26224283
_cell_formula_units_Z   4
loop_
 _symmetry_equiv_pos_site_id
 _symmetry_equiv_pos_as_xyz
  1  'x, y, z'
loop_
 _atom_site_type_symbol
 _atom_site_label
 _atom_site_symmetry_multiplicity
 _atom_site_fract_x
 _atom_site_fract_y
 _atom_site_fract_z
 _atom_site_occupancy
  Al  Al0  1  0.45872400  0.15772400  0.75000000  1
  Al  Al1  1  0.95872400  0.34227600  0.25000000  1
  Al  Al2  1  0.04127600  0.65772400  0.75000000  1
  Al  Al3  1  0.54127600  0.84227600  0.25000000  1
  W  W4  1  0.50000000  0.50000000  0.50000000  1
  W  W5  1  0.00000000  0.00000000  0.50000000  1
  W  W6  1  0.00000000  0.00000000  0.00000000  1
  W  W7  1  0.50000000  0.50000000  0.00000000  1
  O  O8  1  0.15160100  0.31809300  0.41672400  1
  O  O9  1  0.65160100  0.18190700  0.58327600  1
  O  O10  1  0.34839900  0.81809300  0.08327600  1
  O  O11  1  0.84839900  0.68190700  0.91672400  1
  O  O12  1  0.84839900  0.68190700  0.58327600  1
  O  O13  1  0.34839900  0.81809300  0.41672400  1
  O  O14  1  0.65160100  0.18190700  0.91672400  1
  O  O15  1  0.15160100  0.31809300  0.08327600  1
  O  O16  1  0.67890600  0.54298200  0.25000000  1
  O  O17  1  0.17890600  0.95701800  0.75000000  1
  O  O18  1  0.82109400  0.04298200  0.25000000  1
  O  O19  1  0.32109400  0.45701800  0.75000000  1
