# generated using pymatgen
data_Nb2Zn2CrO8
_symmetry_space_group_name_H-M   'P 1'
_cell_length_a   10.22997494
_cell_length_b   10.22997494
_cell_length_c   5.28711958
_cell_angle_alpha   89.19238496
_cell_angle_beta   89.19238496
_cell_angle_gamma   34.08451898
_symmetry_Int_Tables_number   1
_chemical_formula_structural   Nb2Zn2CrO8
_chemical_formula_sum   'Nb4 Zn4 Cr2 O16'
_cell_volume   310.04948022
_cell_formula_units_Z   2
loop_
 _symmetry_equiv_pos_site_id
 _symmetry_equiv_pos_as_xyz
  1  'x, y, z'
loop_
 _atom_site_type_symbol
 _atom_site_label
 _atom_site_symmetry_multiplicity
 _atom_site_fract_x
 _atom_site_fract_y
 _atom_site_fract_z
 _atom_site_occupancy
  Nb  Nb0  1  0.04363700  0.72314600  0.73216400  1
  Nb  Nb1  1  0.27444600  0.95614100  0.75984600  1
  Nb  Nb2  1  0.95614100  0.27444600  0.25984600  1
  Nb  Nb3  1  0.72314600  0.04363700  0.23216400  1
  Zn  Zn4  1  0.87479400  0.56192100  0.76246100  1
  Zn  Zn5  1  0.43265800  0.12546600  0.73458700  1
  Zn  Zn6  1  0.12546600  0.43265800  0.23458700  1
  Zn  Zn7  1  0.56192100  0.87479400  0.26246100  1
  Cr  Cr8  1  0.64949800  0.35016300  0.75669200  1
  Cr  Cr9  1  0.35016300  0.64949800  0.25669200  1
  O  O10  1  0.03513900  0.81866400  0.06447100  1
  O  O11  1  0.19110600  0.94798700  0.42735700  1
  O  O12  1  0.94798700  0.19110600  0.92735700  1
  O  O13  1  0.81866400  0.03513900  0.56447100  1
  O  O14  1  0.32026600  0.56474800  0.59338200  1
  O  O15  1  0.41555900  0.69947200  0.92568300  1
  O  O16  1  0.69947200  0.41555900  0.42568300  1
  O  O17  1  0.56474800  0.32026600  0.09338200  1
  O  O18  1  0.92549200  0.71363200  0.43500800  1
  O  O19  1  0.28154400  0.07434900  0.06193600  1
  O  O20  1  0.45053100  0.15837100  0.36342900  1
  O  O21  1  0.83767400  0.54817000  0.13511600  1
  O  O22  1  0.54817000  0.83767400  0.63511600  1
  O  O23  1  0.15837100  0.45053100  0.86342900  1
  O  O24  1  0.71363200  0.92549200  0.93500800  1
  O  O25  1  0.07434900  0.28154400  0.56193600  1
