# generated using pymatgen
data_Ca2TaSnO6
_symmetry_space_group_name_H-M   'P 1'
_cell_length_a   7.98698900
_cell_length_b   5.66943600
_cell_length_c   5.90241954
_cell_angle_alpha   89.68440866
_cell_angle_beta   90.00000000
_cell_angle_gamma   90.00000000
_symmetry_Int_Tables_number   1
_chemical_formula_structural   Ca2TaSnO6
_chemical_formula_sum   'Ca4 Ta2 Sn2 O12'
_cell_volume   267.26767193
_cell_formula_units_Z   2
loop_
 _symmetry_equiv_pos_site_id
 _symmetry_equiv_pos_as_xyz
  1  'x, y, z'
loop_
 _atom_site_type_symbol
 _atom_site_label
 _atom_site_symmetry_multiplicity
 _atom_site_fract_x
 _atom_site_fract_y
 _atom_site_fract_z
 _atom_site_occupancy
  Ca  Ca0  1  0.75000000  0.98929600  0.05111500  1
  Ca  Ca1  1  0.75000000  0.51312700  0.55716200  1
  Ca  Ca2  1  0.25000000  0.48687300  0.44283800  1
  Ca  Ca3  1  0.25000000  0.01070400  0.94888500  1
  Ta  Ta4  1  0.00000000  0.00000000  0.50000000  1
  Ta  Ta5  1  0.50000000  0.00000000  0.50000000  1
  Sn  Sn6  1  0.00000000  0.50000000  0.00000000  1
  Sn  Sn7  1  0.50000000  0.50000000  0.00000000  1
  O  O8  1  0.44204000  0.16947200  0.21339000  1
  O  O9  1  0.55644600  0.71076300  0.32528100  1
  O  O10  1  0.55796000  0.83052800  0.78661000  1
  O  O11  1  0.05644600  0.28923700  0.67471900  1
  O  O12  1  0.25000000  0.89549600  0.54066900  1
  O  O13  1  0.44355400  0.28923700  0.67471900  1
  O  O14  1  0.94355400  0.71076300  0.32528100  1
  O  O15  1  0.05796000  0.16947200  0.21339000  1
  O  O16  1  0.75000000  0.39214600  0.95653600  1
  O  O17  1  0.94204000  0.83052800  0.78661000  1
  O  O18  1  0.25000000  0.60785400  0.04346400  1
  O  O19  1  0.75000000  0.10450400  0.45933100  1
