# generated using pymatgen
data_Mg3Ge3(BiO6)2
_symmetry_space_group_name_H-M   'P 1'
_cell_length_a   11.08122979
_cell_length_b   11.08122979
_cell_length_c   11.08122979
_cell_angle_alpha   109.47122063
_cell_angle_beta   109.47122063
_cell_angle_gamma   109.47122063
_symmetry_Int_Tables_number   1
_chemical_formula_structural   Mg3Ge3(BiO6)2
_chemical_formula_sum   'Mg12 Ge12 Bi8 O48'
_cell_volume   1047.47095993
_cell_formula_units_Z   4
loop_
 _symmetry_equiv_pos_site_id
 _symmetry_equiv_pos_as_xyz
  1  'x, y, z'
loop_
 _atom_site_type_symbol
 _atom_site_label
 _atom_site_symmetry_multiplicity
 _atom_site_fract_x
 _atom_site_fract_y
 _atom_site_fract_z
 _atom_site_occupancy
  Mg  Mg0  1  0.25000000  0.87500000  0.62500000  1
  Mg  Mg1  1  0.75000000  0.62500000  0.87500000  1
  Mg  Mg2  1  0.62500000  0.87500000  0.75000000  1
  Mg  Mg3  1  0.87500000  0.62500000  0.25000000  1
  Mg  Mg4  1  0.62500000  0.25000000  0.87500000  1
  Mg  Mg5  1  0.87500000  0.75000000  0.62500000  1
  Mg  Mg6  1  0.75000000  0.12500000  0.37500000  1
  Mg  Mg7  1  0.25000000  0.37500000  0.12500000  1
  Mg  Mg8  1  0.37500000  0.12500000  0.25000000  1
  Mg  Mg9  1  0.12500000  0.37500000  0.75000000  1
  Mg  Mg10  1  0.37500000  0.75000000  0.12500000  1
  Mg  Mg11  1  0.12500000  0.25000000  0.37500000  1
  Ge  Ge12  1  0.12500000  0.75000000  0.87500000  1
  Ge  Ge13  1  0.87500000  0.25000000  0.12500000  1
  Ge  Ge14  1  0.62500000  0.37500000  0.25000000  1
  Ge  Ge15  1  0.75000000  0.87500000  0.12500000  1
  Ge  Ge16  1  0.87500000  0.12500000  0.75000000  1
  Ge  Ge17  1  0.25000000  0.62500000  0.37500000  1
  Ge  Ge18  1  0.75000000  0.37500000  0.62500000  1
  Ge  Ge19  1  0.25000000  0.12500000  0.87500000  1
  Ge  Ge20  1  0.12500000  0.87500000  0.25000000  1
  Ge  Ge21  1  0.37500000  0.62500000  0.75000000  1
  Ge  Ge22  1  0.62500000  0.75000000  0.37500000  1
  Ge  Ge23  1  0.37500000  0.25000000  0.62500000  1
  Bi  Bi24  1  0.50000000  0.50000000  0.50000000  1
  Bi  Bi25  1  0.50000000  0.00000000  0.50000000  1
  Bi  Bi26  1  0.00000000  0.50000000  0.50000000  1
  Bi  Bi27  1  0.50000000  0.50000000  0.00000000  1
  Bi  Bi28  1  0.00000000  0.00000000  0.50000000  1
  Bi  Bi29  1  0.00000000  0.50000000  0.00000000  1
  Bi  Bi30  1  0.50000000  0.00000000  0.00000000  1
  Bi  Bi31  1  0.00000000  0.00000000  0.00000000  1
  O  O32  1  0.40485800  0.80130300  0.76934900  1
  O  O33  1  0.86449100  0.39644400  0.09514200  1
  O  O34  1  0.10355600  0.96804600  0.69869700  1
  O  O35  1  0.53195400  0.63550900  0.73065100  1
  O  O36  1  0.69869700  0.09514200  0.73065100  1
  O  O37  1  0.63550900  0.73065100  0.53195400  1
  O  O38  1  0.63550900  0.40485800  0.10355600  1
  O  O39  1  0.73065100  0.53195400  0.63550900  1
  O  O40  1  0.80130300  0.53195400  0.39644400  1
  O  O41  1  0.96804600  0.76934900  0.86449100  1
  O  O42  1  0.76934900  0.86449100  0.96804600  1
  O  O43  1  0.73065100  0.69869700  0.09514200  1
  O  O44  1  0.40485800  0.10355600  0.63550900  1
  O  O45  1  0.39644400  0.80130300  0.53195400  1
  O  O46  1  0.09514200  0.73065100  0.69869700  1
  O  O47  1  0.10355600  0.63550900  0.40485800  1
  O  O48  1  0.53195400  0.39644400  0.80130300  1
  O  O49  1  0.09514200  0.86449100  0.39644400  1
  O  O50  1  0.96804600  0.69869700  0.10355600  1
  O  O51  1  0.19869700  0.46804600  0.60355600  1
  O  O52  1  0.69869700  0.10355600  0.96804600  1
  O  O53  1  0.76934900  0.40485800  0.80130300  1
  O  O54  1  0.39644400  0.09514200  0.86449100  1
  O  O55  1  0.86449100  0.96804600  0.76934900  1
  O  O56  1  0.59514200  0.19869700  0.23065100  1
  O  O57  1  0.13550900  0.60355600  0.90485800  1
  O  O58  1  0.89644400  0.03195400  0.30130300  1
  O  O59  1  0.46804600  0.36449100  0.26934900  1
  O  O60  1  0.30130300  0.90485800  0.26934900  1
  O  O61  1  0.36449100  0.26934900  0.46804600  1
  O  O62  1  0.36449100  0.59514200  0.89644400  1
  O  O63  1  0.26934900  0.46804600  0.36449100  1
  O  O64  1  0.13550900  0.03195400  0.23065100  1
  O  O65  1  0.60355600  0.90485800  0.13550900  1
  O  O66  1  0.23065100  0.59514200  0.19869700  1
  O  O67  1  0.19869700  0.23065100  0.59514200  1
  O  O68  1  0.30130300  0.89644400  0.03195400  1
  O  O69  1  0.03195400  0.30130300  0.89644400  1
  O  O70  1  0.90485800  0.13550900  0.60355600  1
  O  O71  1  0.46804600  0.60355600  0.19869700  1
  O  O72  1  0.89644400  0.36449100  0.59514200  1
  O  O73  1  0.90485800  0.26934900  0.30130300  1
  O  O74  1  0.60355600  0.19869700  0.46804600  1
  O  O75  1  0.59514200  0.89644400  0.36449100  1
  O  O76  1  0.26934900  0.30130300  0.90485800  1
  O  O77  1  0.23065100  0.13550900  0.03195400  1
  O  O78  1  0.03195400  0.23065100  0.13550900  1
  O  O79  1  0.80130300  0.76934900  0.40485800  1
