# generated using pymatgen
data_Sr2YV2O7
_symmetry_space_group_name_H-M   'P 1'
_cell_length_a   13.38005522
_cell_length_b   13.38005522
_cell_length_c   13.38005522
_cell_angle_alpha   157.35676002
_cell_angle_beta   156.44940012
_cell_angle_gamma   32.89919436
_symmetry_Int_Tables_number   1
_chemical_formula_structural   Sr2YV2O7
_chemical_formula_sum   'Sr4 Y2 V4 O14'
_cell_volume   368.15226121
_cell_formula_units_Z   2
loop_
 _symmetry_equiv_pos_site_id
 _symmetry_equiv_pos_as_xyz
  1  'x, y, z'
loop_
 _atom_site_type_symbol
 _atom_site_label
 _atom_site_symmetry_multiplicity
 _atom_site_fract_x
 _atom_site_fract_y
 _atom_site_fract_z
 _atom_site_occupancy
  Sr  Sr0  1  0.82300900  0.75222600  0.94263200  1
  Sr  Sr1  1  0.19040700  0.24777400  0.07078300  1
  Sr  Sr2  1  0.69040700  0.61962400  0.94263200  1
  Sr  Sr3  1  0.32300900  0.38037600  0.07078300  1
  Y  Y4  1  0.51560500  0.50000000  0.01560500  1
  Y  Y5  1  0.01560500  0.00000000  0.01560500  1
  V  V6  1  0.43517100  0.92728300  0.52440100  1
  V  V7  1  0.59711800  0.07271700  0.50788800  1
  V  V8  1  0.09711800  0.58922900  0.52440100  1
  V  V9  1  0.93517100  0.41077100  0.50788800  1
  O  O10  1  0.01056500  0.51395300  0.02451800  1
  O  O11  1  0.51056500  0.48604700  0.49661200  1
  O  O12  1  0.21334900  0.19758600  0.51487800  1
  O  O13  1  0.31729200  0.80241400  0.01576200  1
  O  O14  1  0.81729200  0.80153000  0.51487800  1
  O  O15  1  0.71334900  0.19847000  0.01576200  1
  O  O16  1  0.70821600  0.69185500  0.51741100  1
  O  O17  1  0.82555600  0.30814500  0.01636100  1
  O  O18  1  0.32555600  0.30919400  0.51741100  1
  O  O19  1  0.20821600  0.69080600  0.01636100  1
  O  O20  1  0.86864000  0.32249300  0.49233200  1
  O  O21  1  0.16984000  0.67750700  0.54614700  1
  O  O22  1  0.66984000  0.12369300  0.49233200  1
  O  O23  1  0.36864000  0.87630700  0.54614700  1
