# generated using pymatgen
data_Zn(SbO2)2
_symmetry_space_group_name_H-M   'P 1'
_cell_length_a   6.68492387
_cell_length_b   6.68492387
_cell_length_c   6.68492387
_cell_angle_alpha   60.00000000
_cell_angle_beta   60.00000000
_cell_angle_gamma   60.00000000
_symmetry_Int_Tables_number   1
_chemical_formula_structural   Zn(SbO2)2
_chemical_formula_sum   'Zn2 Sb4 O8'
_cell_volume   211.23914420
_cell_formula_units_Z   2
loop_
 _symmetry_equiv_pos_site_id
 _symmetry_equiv_pos_as_xyz
  1  'x, y, z'
loop_
 _atom_site_type_symbol
 _atom_site_label
 _atom_site_symmetry_multiplicity
 _atom_site_fract_x
 _atom_site_fract_y
 _atom_site_fract_z
 _atom_site_occupancy
  Zn  Zn0  1  0.75000000  0.75000000  0.75000000  1
  Zn  Zn1  1  0.50000000  0.50000000  0.50000000  1
  Sb  Sb2  1  0.12500000  0.12500000  0.62500000  1
  Sb  Sb3  1  0.62500000  0.12500000  0.12500000  1
  Sb  Sb4  1  0.12500000  0.12500000  0.12500000  1
  Sb  Sb5  1  0.12500000  0.62500000  0.12500000  1
  O  O6  1  0.87763100  0.37412300  0.37412300  1
  O  O7  1  0.37412300  0.37412300  0.87763100  1
  O  O8  1  0.37412300  0.37412300  0.37412300  1
  O  O9  1  0.37236900  0.87587700  0.87587700  1
  O  O10  1  0.87587700  0.37236900  0.87587700  1
  O  O11  1  0.87587700  0.87587700  0.37236900  1
  O  O12  1  0.37412300  0.87763100  0.37412300  1
  O  O13  1  0.87587700  0.87587700  0.87587700  1
