# generated using pymatgen
data_Mg3Ge3(WO6)2
_symmetry_space_group_name_H-M   'P 1'
_cell_length_a   10.73376827
_cell_length_b   10.73376827
_cell_length_c   10.73376827
_cell_angle_alpha   109.47122063
_cell_angle_beta   109.47122063
_cell_angle_gamma   109.47122063
_symmetry_Int_Tables_number   1
_chemical_formula_structural   Mg3Ge3(WO6)2
_chemical_formula_sum   'Mg12 Ge12 W8 O48'
_cell_volume   951.99519109
_cell_formula_units_Z   4
loop_
 _symmetry_equiv_pos_site_id
 _symmetry_equiv_pos_as_xyz
  1  'x, y, z'
loop_
 _atom_site_type_symbol
 _atom_site_label
 _atom_site_symmetry_multiplicity
 _atom_site_fract_x
 _atom_site_fract_y
 _atom_site_fract_z
 _atom_site_occupancy
  Mg  Mg0  1  0.25000000  0.87500000  0.62500000  1
  Mg  Mg1  1  0.75000000  0.62500000  0.87500000  1
  Mg  Mg2  1  0.62500000  0.87500000  0.75000000  1
  Mg  Mg3  1  0.87500000  0.62500000  0.25000000  1
  Mg  Mg4  1  0.62500000  0.25000000  0.87500000  1
  Mg  Mg5  1  0.87500000  0.75000000  0.62500000  1
  Mg  Mg6  1  0.75000000  0.12500000  0.37500000  1
  Mg  Mg7  1  0.25000000  0.37500000  0.12500000  1
  Mg  Mg8  1  0.37500000  0.12500000  0.25000000  1
  Mg  Mg9  1  0.12500000  0.37500000  0.75000000  1
  Mg  Mg10  1  0.37500000  0.75000000  0.12500000  1
  Mg  Mg11  1  0.12500000  0.25000000  0.37500000  1
  Ge  Ge12  1  0.12500000  0.75000000  0.87500000  1
  Ge  Ge13  1  0.87500000  0.25000000  0.12500000  1
  Ge  Ge14  1  0.62500000  0.37500000  0.25000000  1
  Ge  Ge15  1  0.75000000  0.87500000  0.12500000  1
  Ge  Ge16  1  0.87500000  0.12500000  0.75000000  1
  Ge  Ge17  1  0.25000000  0.62500000  0.37500000  1
  Ge  Ge18  1  0.75000000  0.37500000  0.62500000  1
  Ge  Ge19  1  0.25000000  0.12500000  0.87500000  1
  Ge  Ge20  1  0.12500000  0.87500000  0.25000000  1
  Ge  Ge21  1  0.37500000  0.62500000  0.75000000  1
  Ge  Ge22  1  0.62500000  0.75000000  0.37500000  1
  Ge  Ge23  1  0.37500000  0.25000000  0.62500000  1
  W  W24  1  0.50000000  0.50000000  0.50000000  1
  W  W25  1  0.50000000  0.00000000  0.50000000  1
  W  W26  1  0.00000000  0.50000000  0.50000000  1
  W  W27  1  0.50000000  0.50000000  0.00000000  1
  W  W28  1  0.00000000  0.00000000  0.50000000  1
  W  W29  1  0.00000000  0.50000000  0.00000000  1
  W  W30  1  0.50000000  0.00000000  0.00000000  1
  W  W31  1  0.00000000  0.00000000  0.00000000  1
  O  O32  1  0.41265200  0.81086800  0.78047700  1
  O  O33  1  0.86782500  0.39821600  0.08734800  1
  O  O34  1  0.10178400  0.96960900  0.68913200  1
  O  O35  1  0.53039100  0.63217500  0.71952300  1
  O  O36  1  0.68913200  0.08734800  0.71952300  1
  O  O37  1  0.63217500  0.71952300  0.53039100  1
  O  O38  1  0.63217500  0.41265200  0.10178400  1
  O  O39  1  0.71952300  0.53039100  0.63217500  1
  O  O40  1  0.81086800  0.53039100  0.39821600  1
  O  O41  1  0.96960900  0.78047700  0.86782500  1
  O  O42  1  0.78047700  0.86782500  0.96960900  1
  O  O43  1  0.71952300  0.68913200  0.08734800  1
  O  O44  1  0.41265200  0.10178400  0.63217500  1
  O  O45  1  0.39821600  0.81086800  0.53039100  1
  O  O46  1  0.08734800  0.71952300  0.68913200  1
  O  O47  1  0.10178400  0.63217500  0.41265200  1
  O  O48  1  0.53039100  0.39821600  0.81086800  1
  O  O49  1  0.08734800  0.86782500  0.39821600  1
  O  O50  1  0.96960900  0.68913200  0.10178400  1
  O  O51  1  0.18913200  0.46960900  0.60178400  1
  O  O52  1  0.68913200  0.10178400  0.96960900  1
  O  O53  1  0.78047700  0.41265200  0.81086800  1
  O  O54  1  0.39821600  0.08734800  0.86782500  1
  O  O55  1  0.86782500  0.96960900  0.78047700  1
  O  O56  1  0.58734800  0.18913200  0.21952300  1
  O  O57  1  0.13217500  0.60178400  0.91265200  1
  O  O58  1  0.89821600  0.03039100  0.31086800  1
  O  O59  1  0.46960900  0.36782500  0.28047700  1
  O  O60  1  0.31086800  0.91265200  0.28047700  1
  O  O61  1  0.36782500  0.28047700  0.46960900  1
  O  O62  1  0.36782500  0.58734800  0.89821600  1
  O  O63  1  0.28047700  0.46960900  0.36782500  1
  O  O64  1  0.13217500  0.03039100  0.21952300  1
  O  O65  1  0.60178400  0.91265200  0.13217500  1
  O  O66  1  0.21952300  0.58734800  0.18913200  1
  O  O67  1  0.18913200  0.21952300  0.58734800  1
  O  O68  1  0.31086800  0.89821600  0.03039100  1
  O  O69  1  0.03039100  0.31086800  0.89821600  1
  O  O70  1  0.91265200  0.13217500  0.60178400  1
  O  O71  1  0.46960900  0.60178400  0.18913200  1
  O  O72  1  0.89821600  0.36782500  0.58734800  1
  O  O73  1  0.91265200  0.28047700  0.31086800  1
  O  O74  1  0.60178400  0.18913200  0.46960900  1
  O  O75  1  0.58734800  0.89821600  0.36782500  1
  O  O76  1  0.28047700  0.31086800  0.91265200  1
  O  O77  1  0.21952300  0.13217500  0.03039100  1
  O  O78  1  0.03039100  0.21952300  0.13217500  1
  O  O79  1  0.81086800  0.78047700  0.41265200  1
