# generated using pymatgen
data_Y2Si3(NiO4)3
_symmetry_space_group_name_H-M   'P 1'
_cell_length_a   10.63978893
_cell_length_b   10.63978893
_cell_length_c   10.63978893
_cell_angle_alpha   109.47122063
_cell_angle_beta   109.47122063
_cell_angle_gamma   109.47122063
_symmetry_Int_Tables_number   1
_chemical_formula_structural   Y2Si3(NiO4)3
_chemical_formula_sum   'Y8 Si12 Ni12 O48'
_cell_volume   927.20794950
_cell_formula_units_Z   4
loop_
 _symmetry_equiv_pos_site_id
 _symmetry_equiv_pos_as_xyz
  1  'x, y, z'
loop_
 _atom_site_type_symbol
 _atom_site_label
 _atom_site_symmetry_multiplicity
 _atom_site_fract_x
 _atom_site_fract_y
 _atom_site_fract_z
 _atom_site_occupancy
  Y  Y0  1  0.00000000  0.00000000  0.00000000  1
  Y  Y1  1  0.50000000  0.00000000  0.00000000  1
  Y  Y2  1  0.50000000  0.50000000  0.00000000  1
  Y  Y3  1  0.00000000  0.50000000  0.50000000  1
  Y  Y4  1  0.00000000  0.00000000  0.50000000  1
  Y  Y5  1  0.50000000  0.50000000  0.50000000  1
  Y  Y6  1  0.00000000  0.50000000  0.00000000  1
  Y  Y7  1  0.50000000  0.00000000  0.50000000  1
  Si  Si8  1  0.12500000  0.75000000  0.87500000  1
  Si  Si9  1  0.75000000  0.87500000  0.12500000  1
  Si  Si10  1  0.25000000  0.62500000  0.37500000  1
  Si  Si11  1  0.62500000  0.75000000  0.37500000  1
  Si  Si12  1  0.87500000  0.12500000  0.75000000  1
  Si  Si13  1  0.37500000  0.25000000  0.62500000  1
  Si  Si14  1  0.37500000  0.62500000  0.75000000  1
  Si  Si15  1  0.25000000  0.12500000  0.87500000  1
  Si  Si16  1  0.62500000  0.37500000  0.25000000  1
  Si  Si17  1  0.12500000  0.87500000  0.25000000  1
  Si  Si18  1  0.75000000  0.37500000  0.62500000  1
  Si  Si19  1  0.87500000  0.25000000  0.12500000  1
  Ni  Ni20  1  0.87500000  0.75000000  0.62500000  1
  Ni  Ni21  1  0.87500000  0.62500000  0.25000000  1
  Ni  Ni22  1  0.62500000  0.87500000  0.75000000  1
  Ni  Ni23  1  0.25000000  0.87500000  0.62500000  1
  Ni  Ni24  1  0.75000000  0.62500000  0.87500000  1
  Ni  Ni25  1  0.62500000  0.25000000  0.87500000  1
  Ni  Ni26  1  0.12500000  0.25000000  0.37500000  1
  Ni  Ni27  1  0.12500000  0.37500000  0.75000000  1
  Ni  Ni28  1  0.37500000  0.12500000  0.25000000  1
  Ni  Ni29  1  0.75000000  0.12500000  0.37500000  1
  Ni  Ni30  1  0.25000000  0.37500000  0.12500000  1
  Ni  Ni31  1  0.37500000  0.75000000  0.12500000  1
  O  O32  1  0.59515000  0.89209400  0.36929100  1
  O  O33  1  0.36929100  0.59515000  0.89209400  1
  O  O34  1  0.27414000  0.29694400  0.90485000  1
  O  O35  1  0.47719600  0.60790600  0.20305600  1
  O  O36  1  0.29694400  0.89209400  0.02280400  1
  O  O37  1  0.13070900  0.02280400  0.22586000  1
  O  O38  1  0.36929100  0.27414000  0.47719600  1
  O  O39  1  0.89209400  0.36929100  0.59515000  1
  O  O40  1  0.20305600  0.22586000  0.59515000  1
  O  O41  1  0.47719600  0.36929100  0.27414000  1
  O  O42  1  0.89209400  0.02280400  0.29694400  1
  O  O43  1  0.60790600  0.90485000  0.13070900  1
  O  O44  1  0.90485000  0.13070900  0.60790600  1
  O  O45  1  0.27414000  0.47719600  0.36929100  1
  O  O46  1  0.59515000  0.20305600  0.22586000  1
  O  O47  1  0.22586000  0.59515000  0.20305600  1
  O  O48  1  0.02280400  0.29694400  0.89209400  1
  O  O49  1  0.90485000  0.27414000  0.29694400  1
  O  O50  1  0.02280400  0.22586000  0.13070900  1
  O  O51  1  0.79694400  0.77414000  0.40485000  1
  O  O52  1  0.29694400  0.90485000  0.27414000  1
  O  O53  1  0.60790600  0.20305600  0.47719600  1
  O  O54  1  0.22586000  0.13070900  0.02280400  1
  O  O55  1  0.13070900  0.60790600  0.90485000  1
  O  O56  1  0.40485000  0.10790600  0.63070900  1
  O  O57  1  0.63070900  0.40485000  0.10790600  1
  O  O58  1  0.72586000  0.70305600  0.09515000  1
  O  O59  1  0.52280400  0.39209400  0.79694400  1
  O  O60  1  0.70305600  0.10790600  0.97719600  1
  O  O61  1  0.86929100  0.97719600  0.77414000  1
  O  O62  1  0.63070900  0.72586000  0.52280400  1
  O  O63  1  0.10790600  0.63070900  0.40485000  1
  O  O64  1  0.86929100  0.39209400  0.09515000  1
  O  O65  1  0.77414000  0.86929100  0.97719600  1
  O  O66  1  0.39209400  0.79694400  0.52280400  1
  O  O67  1  0.70305600  0.09515000  0.72586000  1
  O  O68  1  0.79694400  0.52280400  0.39209400  1
  O  O69  1  0.97719600  0.77414000  0.86929100  1
  O  O70  1  0.09515000  0.72586000  0.70305600  1
  O  O71  1  0.97719600  0.70305600  0.10790600  1
  O  O72  1  0.77414000  0.40485000  0.79694400  1
  O  O73  1  0.40485000  0.79694400  0.77414000  1
  O  O74  1  0.72586000  0.52280400  0.63070900  1
  O  O75  1  0.09515000  0.86929100  0.39209400  1
  O  O76  1  0.39209400  0.09515000  0.86929100  1
  O  O77  1  0.10790600  0.97719600  0.70305600  1
  O  O78  1  0.52280400  0.63070900  0.72586000  1
  O  O79  1  0.20305600  0.47719600  0.60790600  1
