# generated using pymatgen
data_Mg2Mo2O5
_symmetry_space_group_name_H-M   'P 1'
_cell_length_a   3.33509900
_cell_length_b   5.21716800
_cell_length_c   13.75622900
_cell_angle_alpha   90.00000000
_cell_angle_beta   90.00000000
_cell_angle_gamma   90.00000000
_symmetry_Int_Tables_number   1
_chemical_formula_structural   Mg2Mo2O5
_chemical_formula_sum   'Mg4 Mo4 O10'
_cell_volume   239.35524515
_cell_formula_units_Z   2
loop_
 _symmetry_equiv_pos_site_id
 _symmetry_equiv_pos_as_xyz
  1  'x, y, z'
loop_
 _atom_site_type_symbol
 _atom_site_label
 _atom_site_symmetry_multiplicity
 _atom_site_fract_x
 _atom_site_fract_y
 _atom_site_fract_z
 _atom_site_occupancy
  Mg  Mg0  1  0.50000000  0.17536700  0.95111900  1
  Mg  Mg1  1  0.50000000  0.81676000  0.56109100  1
  Mg  Mg2  1  0.50000000  0.67536700  0.04888100  1
  Mg  Mg3  1  0.50000000  0.31676000  0.43890900  1
  Mo  Mo4  1  0.00000000  0.17502100  0.17031000  1
  Mo  Mo5  1  0.00000000  0.80775500  0.33262400  1
  Mo  Mo6  1  0.00000000  0.30775500  0.66737600  1
  Mo  Mo7  1  0.00000000  0.67502100  0.82969000  1
  O  O8  1  0.00000000  0.51787400  0.25844000  1
  O  O9  1  0.00000000  0.13039900  0.41027800  1
  O  O10  1  0.00000000  0.63039900  0.58972200  1
  O  O11  1  0.00000000  0.36820100  0.92457400  1
  O  O12  1  0.50000000  0.19900100  0.58448800  1
  O  O13  1  0.50000000  0.80976800  0.90291800  1
  O  O14  1  0.00000000  0.86820100  0.07542600  1
  O  O15  1  0.50000000  0.30976800  0.09708200  1
  O  O16  1  0.00000000  0.01787400  0.74156000  1
  O  O17  1  0.50000000  0.69900100  0.41551200  1
