# generated using pymatgen
data_Ca2MoWO6
_symmetry_space_group_name_H-M   'P 1'
_cell_length_a   5.75698500
_cell_length_b   5.53560900
_cell_length_c   9.70903253
_cell_angle_alpha   55.41337961
_cell_angle_beta   90.00000000
_cell_angle_gamma   90.00000000
_symmetry_Int_Tables_number   1
_chemical_formula_structural   Ca2MoWO6
_chemical_formula_sum   'Ca4 Mo2 W2 O12'
_cell_volume   254.72888583
_cell_formula_units_Z   2
loop_
 _symmetry_equiv_pos_site_id
 _symmetry_equiv_pos_as_xyz
  1  'x, y, z'
loop_
 _atom_site_type_symbol
 _atom_site_label
 _atom_site_symmetry_multiplicity
 _atom_site_fract_x
 _atom_site_fract_y
 _atom_site_fract_z
 _atom_site_occupancy
  Ca  Ca0  1  0.44538200  0.26361200  0.75108200  1
  Ca  Ca1  1  0.94538200  0.73638800  0.74891800  1
  Ca  Ca2  1  0.55461800  0.73638800  0.24891800  1
  Ca  Ca3  1  0.05461800  0.26361200  0.25108200  1
  Mo  Mo4  1  0.50000000  0.00000000  0.50000000  1
  Mo  Mo5  1  0.00000000  0.00000000  0.00000000  1
  W  W6  1  0.50000000  0.50000000  0.00000000  1
  W  W7  1  0.00000000  0.50000000  0.50000000  1
  O  O8  1  0.21112100  0.37023800  0.94716000  1
  O  O9  1  0.71112100  0.62976200  0.55284000  1
  O  O10  1  0.78887900  0.62976200  0.05284000  1
  O  O11  1  0.28887900  0.37023800  0.44716000  1
  O  O12  1  0.30455600  0.73513600  0.05632600  1
  O  O13  1  0.80455600  0.26486400  0.44367400  1
  O  O14  1  0.69544400  0.26486400  0.94367400  1
  O  O15  1  0.19544400  0.73513600  0.55632600  1
  O  O16  1  0.04037800  0.15013900  0.74226200  1
  O  O17  1  0.54037800  0.84986100  0.75773800  1
  O  O18  1  0.45962200  0.15013900  0.24226200  1
  O  O19  1  0.95962200  0.84986100  0.25773800  1
