# generated using pymatgen
data_CaW2O5
_symmetry_space_group_name_H-M   'P 1'
_cell_length_a   3.63080200
_cell_length_b   5.16216500
_cell_length_c   13.19627900
_cell_angle_alpha   90.00000000
_cell_angle_beta   90.00000000
_cell_angle_gamma   90.00000000
_symmetry_Int_Tables_number   1
_chemical_formula_structural   CaW2O5
_chemical_formula_sum   'Ca2 W4 O10'
_cell_volume   247.33520493
_cell_formula_units_Z   2
loop_
 _symmetry_equiv_pos_site_id
 _symmetry_equiv_pos_as_xyz
  1  'x, y, z'
loop_
 _atom_site_type_symbol
 _atom_site_label
 _atom_site_symmetry_multiplicity
 _atom_site_fract_x
 _atom_site_fract_y
 _atom_site_fract_z
 _atom_site_occupancy
  Ca  Ca0  1  0.00000000  0.95492200  0.00000000  1
  Ca  Ca1  1  0.50000000  0.04507800  0.50000000  1
  W  W2  1  0.50000000  0.47298400  0.85435000  1
  W  W3  1  0.00000000  0.52701600  0.64565000  1
  W  W4  1  0.00000000  0.52701600  0.35435000  1
  W  W5  1  0.50000000  0.47298400  0.14565000  1
  O  O6  1  0.00000000  0.36908300  0.50000000  1
  O  O7  1  0.50000000  0.63091700  0.00000000  1
  O  O8  1  0.00000000  0.61101400  0.81278500  1
  O  O9  1  0.50000000  0.38898600  0.68721500  1
  O  O10  1  0.00000000  0.61101400  0.18721500  1
  O  O11  1  0.50000000  0.38898600  0.31278500  1
  O  O12  1  0.50000000  0.11751600  0.10915500  1
  O  O13  1  0.00000000  0.88248400  0.39084500  1
  O  O14  1  0.00000000  0.88248400  0.60915500  1
  O  O15  1  0.50000000  0.11751600  0.89084500  1
