# generated using pymatgen
data_MgCuAsO5
_symmetry_space_group_name_H-M   'P 1'
_cell_length_a   5.71022400
_cell_length_b   7.47722500
_cell_length_c   9.04314500
_cell_angle_alpha   90.00000000
_cell_angle_beta   90.00000000
_cell_angle_gamma   90.00000000
_symmetry_Int_Tables_number   1
_chemical_formula_structural   MgCuAsO5
_chemical_formula_sum   'Mg4 Cu4 As4 O20'
_cell_volume   386.11181292
_cell_formula_units_Z   4
loop_
 _symmetry_equiv_pos_site_id
 _symmetry_equiv_pos_as_xyz
  1  'x, y, z'
loop_
 _atom_site_type_symbol
 _atom_site_label
 _atom_site_symmetry_multiplicity
 _atom_site_fract_x
 _atom_site_fract_y
 _atom_site_fract_z
 _atom_site_occupancy
  Mg  Mg0  1  0.03795300  0.82028200  0.68596000  1
  Mg  Mg1  1  0.46204700  0.17971800  0.18596000  1
  Mg  Mg2  1  0.96204700  0.32028200  0.81404000  1
  Mg  Mg3  1  0.53795300  0.67971800  0.31404000  1
  Cu  Cu4  1  0.25085100  0.75130000  0.00110600  1
  Cu  Cu5  1  0.24914900  0.24870000  0.50110600  1
  Cu  Cu6  1  0.74914900  0.25130000  0.49889400  1
  Cu  Cu7  1  0.75085100  0.74870000  0.99889400  1
  As  As8  1  0.47230700  0.10239800  0.84202300  1
  As  As9  1  0.02769300  0.89760200  0.34202300  1
  As  As10  1  0.52769300  0.60239800  0.65797700  1
  As  As11  1  0.97230700  0.39760200  0.15797700  1
  O  O12  1  0.50398500  0.91315700  0.96235000  1
  O  O13  1  0.99601500  0.08684300  0.46235000  1
  O  O14  1  0.49601500  0.41315700  0.53765000  1
  O  O15  1  0.00398500  0.58684300  0.03765000  1
  O  O16  1  0.40441800  0.26141000  0.96826800  1
  O  O17  1  0.09558200  0.73859000  0.46826800  1
  O  O18  1  0.59558200  0.76141000  0.53173200  1
  O  O19  1  0.90441800  0.23859000  0.03173200  1
  O  O20  1  0.72837600  0.12719900  0.74773300  1
  O  O21  1  0.77162400  0.87280100  0.24773300  1
  O  O22  1  0.27162400  0.62719900  0.75226700  1
  O  O23  1  0.22837600  0.37280100  0.25226700  1
  O  O24  1  0.23868900  0.06920200  0.72648100  1
  O  O25  1  0.26131100  0.93079800  0.22648100  1
  O  O26  1  0.76131100  0.56920200  0.77351900  1
  O  O27  1  0.73868900  0.43079800  0.27351900  1
  O  O28  1  0.99709400  0.86728600  0.91209700  1
  O  O29  1  0.50290600  0.13271400  0.41209700  1
  O  O30  1  0.00290600  0.36728600  0.58790300  1
  O  O31  1  0.49709400  0.63271400  0.08790300  1
