# generated using pymatgen
data_MgCuP2O7
_symmetry_space_group_name_H-M   'P 1'
_cell_length_a   6.20577300
_cell_length_b   6.31596692
_cell_length_c   7.01686848
_cell_angle_alpha   68.31950399
_cell_angle_beta   79.97916656
_cell_angle_gamma   80.75246070
_symmetry_Int_Tables_number   1
_chemical_formula_structural   MgCuP2O7
_chemical_formula_sum   'Mg2 Cu2 P4 O14'
_cell_volume   250.27355998
_cell_formula_units_Z   2
loop_
 _symmetry_equiv_pos_site_id
 _symmetry_equiv_pos_as_xyz
  1  'x, y, z'
loop_
 _atom_site_type_symbol
 _atom_site_label
 _atom_site_symmetry_multiplicity
 _atom_site_fract_x
 _atom_site_fract_y
 _atom_site_fract_z
 _atom_site_occupancy
  Mg  Mg0  1  0.89453500  0.28141100  0.16094200  1
  Mg  Mg1  1  0.10546500  0.71858900  0.83905800  1
  Cu  Cu2  1  0.67916500  0.09520700  0.78312600  1
  Cu  Cu3  1  0.32083500  0.90479300  0.21687400  1
  P  P4  1  0.17212700  0.22999100  0.74933300  1
  P  P5  1  0.82787300  0.77000900  0.25066700  1
  P  P6  1  0.62385000  0.63276900  0.69487600  1
  P  P7  1  0.37615000  0.36723100  0.30512400  1
  O  O8  1  0.76512200  0.60721000  0.48182900  1
  O  O9  1  0.23487800  0.39279000  0.51817100  1
  O  O10  1  0.00414100  0.06903400  0.75580200  1
  O  O11  1  0.99585900  0.93096600  0.24419800  1
  O  O12  1  0.60871500  0.26871900  0.35090900  1
  O  O13  1  0.39128500  0.73128100  0.64909100  1
  O  O14  1  0.35717700  0.61612600  0.15282200  1
  O  O15  1  0.64282300  0.38387400  0.84717800  1
  O  O16  1  0.92605200  0.60895800  0.13301300  1
  O  O17  1  0.07394800  0.39104200  0.86698700  1
  O  O18  1  0.62980200  0.93003900  0.16315300  1
  O  O19  1  0.37019800  0.06996100  0.83684700  1
  O  O20  1  0.24410300  0.21499200  0.24933200  1
  O  O21  1  0.75589700  0.78500800  0.75066800  1
