# generated using pymatgen
data_ZnCr2O4
_symmetry_space_group_name_H-M   'P 1'
_cell_length_a   5.97285617
_cell_length_b   5.97285617
_cell_length_c   14.88213181
_cell_angle_alpha   86.70628409
_cell_angle_beta   86.70628409
_cell_angle_gamma   60.83252523
_symmetry_Int_Tables_number   1
_chemical_formula_structural   ZnCr2O4
_chemical_formula_sum   'Zn6 Cr12 O24'
_cell_volume   462.56889109
_cell_formula_units_Z   6
loop_
 _symmetry_equiv_pos_site_id
 _symmetry_equiv_pos_as_xyz
  1  'x, y, z'
loop_
 _atom_site_type_symbol
 _atom_site_label
 _atom_site_symmetry_multiplicity
 _atom_site_fract_x
 _atom_site_fract_y
 _atom_site_fract_z
 _atom_site_occupancy
  Zn  Zn0  1  0.66368700  0.66368700  0.04117400  1
  Zn  Zn1  1  0.33277600  0.33277600  0.33179600  1
  Zn  Zn2  1  0.16270600  0.16270600  0.16580000  1
  Zn  Zn3  1  0.66676700  0.66676700  0.66779000  1
  Zn  Zn4  1  0.50062700  0.50062700  0.49888300  1
  Zn  Zn5  1  0.83592600  0.83592600  0.83319400  1
  Cr  Cr6  1  0.16435300  0.66510100  0.16542600  1
  Cr  Cr7  1  0.99969700  0.99969700  0.37425500  1
  Cr  Cr8  1  0.00089800  0.00089800  0.00218400  1
  Cr  Cr9  1  0.66510100  0.16435300  0.16542600  1
  Cr  Cr10  1  0.50008300  0.99959200  0.49958100  1
  Cr  Cr11  1  0.33656000  0.33656000  0.70664700  1
  Cr  Cr12  1  0.99959200  0.50008300  0.49958100  1
  Cr  Cr13  1  0.83531500  0.33705000  0.83493600  1
  Cr  Cr14  1  0.66495300  0.66495300  0.29003600  1
  Cr  Cr15  1  0.33705000  0.83531500  0.83493600  1
  Cr  Cr16  1  0.99949300  0.99949300  0.62583900  1
  Cr  Cr17  1  0.33666100  0.33666100  0.96102200  1
  O  O18  1  0.29901200  0.84922300  0.08231700  1
  O  O19  1  0.97802200  0.97802200  0.24341800  1
  O  O20  1  0.84922300  0.29901200  0.08231700  1
  O  O21  1  0.84498600  0.84498600  0.08992100  1
  O  O22  1  0.65024300  0.17815400  0.41712400  1
  O  O23  1  0.49390300  0.49390300  0.23498500  1
  O  O24  1  0.31685000  0.31685000  0.57553200  1
  O  O25  1  0.48417300  0.01245700  0.24691400  1
  O  O26  1  0.17815400  0.65024300  0.41712400  1
  O  O27  1  0.34707200  0.34707200  0.09061600  1
  O  O28  1  0.17104800  0.17104800  0.42964200  1
  O  O29  1  0.01245700  0.48417300  0.24691400  1
  O  O30  1  0.98995900  0.50819100  0.75106400  1
  O  O31  1  0.82898000  0.82898000  0.57034200  1
  O  O32  1  0.82073500  0.34860700  0.58294900  1
  O  O33  1  0.50819100  0.98995900  0.75106400  1
  O  O34  1  0.66158300  0.66158300  0.90523800  1
  O  O35  1  0.68334500  0.68334500  0.42306400  1
  O  O36  1  0.50544100  0.50544100  0.76580000  1
  O  O37  1  0.34860700  0.82073500  0.58294900  1
  O  O38  1  0.15752300  0.15752300  0.90878500  1
  O  O39  1  0.16036800  0.69137900  0.92106400  1
  O  O40  1  0.01450900  0.01450900  0.76027200  1
  O  O41  1  0.69137900  0.16036800  0.92106400  1
