# generated using pymatgen
data_Ca2YTiO5
_symmetry_space_group_name_H-M   'P 1'
_cell_length_a   8.95328652
_cell_length_b   8.95328652
_cell_length_c   8.95328652
_cell_angle_alpha   143.96688887
_cell_angle_beta   142.80006866
_cell_angle_gamma   52.75620195
_symmetry_Int_Tables_number   1
_chemical_formula_structural   Ca2YTiO5
_chemical_formula_sum   'Ca4 Y2 Ti2 O10'
_cell_volume   253.72366403
_cell_formula_units_Z   2
loop_
 _symmetry_equiv_pos_site_id
 _symmetry_equiv_pos_as_xyz
  1  'x, y, z'
loop_
 _atom_site_type_symbol
 _atom_site_label
 _atom_site_symmetry_multiplicity
 _atom_site_fract_x
 _atom_site_fract_y
 _atom_site_fract_z
 _atom_site_occupancy
  Ca  Ca0  1  0.92778900  0.91217600  0.04081900  1
  Ca  Ca1  1  0.62864300  0.61303000  0.04081900  1
  Ca  Ca2  1  0.07221100  0.11303000  0.98438700  1
  Ca  Ca3  1  0.37135700  0.41217600  0.98438700  1
  Y  Y4  1  0.29222900  0.79166700  0.58389600  1
  Y  Y5  1  0.70777100  0.29166700  0.49943800  1
  Ti  Ti6  1  0.00000000  0.48748100  0.48748100  1
  Ti  Ti7  1  0.50000000  0.98748100  0.48748100  1
  O  O8  1  0.33535600  0.19028400  0.02563900  1
  O  O9  1  0.66464400  0.69028400  0.85492800  1
  O  O10  1  0.95306800  0.31540100  0.52597400  1
  O  O11  1  0.04693200  0.57290500  0.36233200  1
  O  O12  1  0.28942700  0.81540100  0.36233200  1
  O  O13  1  0.71057300  0.07290500  0.52597400  1
  O  O14  1  0.27193800  0.25601600  0.49403200  1
  O  O15  1  0.72806200  0.22209500  0.98407800  1
  O  O16  1  0.73801700  0.72209500  0.49403200  1
  O  O17  1  0.26198300  0.75601600  0.98407800  1
