# generated using pymatgen
data_Ca2Nb2CrO8
_symmetry_space_group_name_H-M   'P 1'
_cell_length_a   5.49511900
_cell_length_b   6.46544371
_cell_length_c   10.02382061
_cell_angle_alpha   106.16908153
_cell_angle_beta   91.64582326
_cell_angle_gamma   91.55882299
_symmetry_Int_Tables_number   1
_chemical_formula_structural   Ca2Nb2CrO8
_chemical_formula_sum   'Ca4 Nb4 Cr2 O16'
_cell_volume   341.67207459
_cell_formula_units_Z   2
loop_
 _symmetry_equiv_pos_site_id
 _symmetry_equiv_pos_as_xyz
  1  'x, y, z'
loop_
 _atom_site_type_symbol
 _atom_site_label
 _atom_site_symmetry_multiplicity
 _atom_site_fract_x
 _atom_site_fract_y
 _atom_site_fract_z
 _atom_site_occupancy
  Ca  Ca0  1  0.24449100  0.88361900  0.42164000  1
  Ca  Ca1  1  0.25636200  0.46621700  0.58176900  1
  Ca  Ca2  1  0.75550900  0.11638100  0.57836000  1
  Ca  Ca3  1  0.74363800  0.53378300  0.41823100  1
  Nb  Nb4  1  0.25530900  0.02568500  0.77191200  1
  Nb  Nb5  1  0.25138900  0.27085500  0.22627100  1
  Nb  Nb6  1  0.74469100  0.97431500  0.22808800  1
  Nb  Nb7  1  0.74861100  0.72914500  0.77372900  1
  Cr  Cr8  1  0.24316300  0.65042200  0.00113100  1
  Cr  Cr9  1  0.75683700  0.34957800  0.99886900  1
  O  O10  1  0.92716400  0.02659500  0.85360400  1
  O  O11  1  0.58703000  0.21306600  0.14458800  1
  O  O12  1  0.07283600  0.97340500  0.14639600  1
  O  O13  1  0.41297000  0.78693400  0.85541200  1
  O  O14  1  0.43472600  0.26624400  0.88056700  1
  O  O15  1  0.08834800  0.41532000  0.10943700  1
  O  O16  1  0.56527400  0.73375600  0.11943300  1
  O  O17  1  0.91165200  0.58468000  0.89056300  1
  O  O18  1  0.50705400  0.87482300  0.63260000  1
  O  O19  1  0.99858200  0.25160100  0.36854800  1
  O  O20  1  0.65724200  0.46130500  0.62929300  1
  O  O21  1  0.84148100  0.83908300  0.36985600  1
  O  O22  1  0.34275800  0.53869500  0.37070700  1
  O  O23  1  0.15851900  0.16091700  0.63014400  1
  O  O24  1  0.00141800  0.74839900  0.63145200  1
  O  O25  1  0.49294600  0.12517700  0.36740000  1
