# generated using pymatgen
data_MgTiAsO5
_symmetry_space_group_name_H-M   'P 1'
_cell_length_a   6.12619500
_cell_length_b   8.10839300
_cell_length_c   8.58973500
_cell_angle_alpha   90.00000000
_cell_angle_beta   90.00000000
_cell_angle_gamma   90.00000000
_symmetry_Int_Tables_number   1
_chemical_formula_structural   MgTiAsO5
_chemical_formula_sum   'Mg4 Ti4 As4 O20'
_cell_volume   426.68303176
_cell_formula_units_Z   4
loop_
 _symmetry_equiv_pos_site_id
 _symmetry_equiv_pos_as_xyz
  1  'x, y, z'
loop_
 _atom_site_type_symbol
 _atom_site_label
 _atom_site_symmetry_multiplicity
 _atom_site_fract_x
 _atom_site_fract_y
 _atom_site_fract_z
 _atom_site_occupancy
  Mg  Mg0  1  0.10608300  0.84787000  0.67427600  1
  Mg  Mg1  1  0.39391700  0.15213000  0.17427600  1
  Mg  Mg2  1  0.89391700  0.34787000  0.82572400  1
  Mg  Mg3  1  0.60608300  0.65213000  0.32572400  1
  Ti  Ti4  1  0.26872100  0.75145000  0.00573800  1
  Ti  Ti5  1  0.23127900  0.24855000  0.50573800  1
  Ti  Ti6  1  0.73127900  0.25145000  0.49426200  1
  Ti  Ti7  1  0.76872100  0.74855000  0.99426200  1
  As  As8  1  0.47423300  0.09950700  0.82259800  1
  As  As9  1  0.02576700  0.90049300  0.32259800  1
  As  As10  1  0.52576700  0.59950700  0.67740200  1
  As  As11  1  0.97423300  0.40049300  0.17740200  1
  O  O12  1  0.51897900  0.91500700  0.92593500  1
  O  O13  1  0.98102100  0.08499300  0.42593500  1
  O  O14  1  0.48102100  0.41500700  0.57406500  1
  O  O15  1  0.01897900  0.58499300  0.07406500  1
  O  O16  1  0.38883800  0.23895900  0.95777100  1
  O  O17  1  0.11116200  0.76104100  0.45777100  1
  O  O18  1  0.61116200  0.73895900  0.54222900  1
  O  O19  1  0.88883800  0.26104100  0.04222900  1
  O  O20  1  0.71131500  0.16099700  0.72915800  1
  O  O21  1  0.78868500  0.83900300  0.22915800  1
  O  O22  1  0.28868500  0.66099700  0.77084200  1
  O  O23  1  0.21131500  0.33900300  0.27084200  1
  O  O24  1  0.27594500  0.06830100  0.67832800  1
  O  O25  1  0.22405500  0.93169900  0.17832800  1
  O  O26  1  0.72405500  0.56830100  0.82167200  1
  O  O27  1  0.77594500  0.43169900  0.32167200  1
  O  O28  1  0.99838700  0.85271400  0.89134000  1
  O  O29  1  0.50161300  0.14728600  0.39134000  1
  O  O30  1  0.00161300  0.35271400  0.60866000  1
  O  O31  1  0.49838700  0.64728600  0.10866000  1
