# generated using pymatgen
data_Mn2ZnO4
_symmetry_space_group_name_H-M   'P 1'
_cell_length_a   6.08388035
_cell_length_b   6.08388035
_cell_length_c   20.13315765
_cell_angle_alpha   81.59376542
_cell_angle_beta   81.59376542
_cell_angle_gamma   59.72851362
_symmetry_Int_Tables_number   1
_chemical_formula_structural   Mn2ZnO4
_chemical_formula_sum   'Mn16 Zn8 O32'
_cell_volume   634.37927545
_cell_formula_units_Z   8
loop_
 _symmetry_equiv_pos_site_id
 _symmetry_equiv_pos_as_xyz
  1  'x, y, z'
loop_
 _atom_site_type_symbol
 _atom_site_label
 _atom_site_symmetry_multiplicity
 _atom_site_fract_x
 _atom_site_fract_y
 _atom_site_fract_z
 _atom_site_occupancy
  Mn  Mn0  1  0.37512100  0.87470100  0.87481100  1
  Mn  Mn1  1  0.24898700  0.24898700  0.74984400  1
  Mn  Mn2  1  0.87470100  0.37512100  0.87481100  1
  Mn  Mn3  1  0.35016100  0.35016100  0.46621800  1
  Mn  Mn4  1  0.12579200  0.62620300  0.62509800  1
  Mn  Mn5  1  0.90136600  0.90136600  0.78047300  1
  Mn  Mn6  1  0.09944000  0.09944000  0.21871400  1
  Mn  Mn7  1  0.62620300  0.12579200  0.62509800  1
  Mn  Mn8  1  0.87488300  0.37505800  0.37523900  1
  Mn  Mn9  1  0.65025800  0.65025800  0.53231900  1
  Mn  Mn10  1  0.37505800  0.87488300  0.37523900  1
  Mn  Mn11  1  0.12352500  0.62447300  0.12488200  1
  Mn  Mn12  1  0.62447300  0.12352500  0.12488200  1
  Mn  Mn13  1  0.39990100  0.39990100  0.28349900  1
  Mn  Mn14  1  0.50109300  0.50109300  0.99958400  1
  Mn  Mn15  1  0.15094600  0.15094600  0.03121800  1
  Zn  Zn16  1  0.84969300  0.84969300  0.97012900  1
  Zn  Zn17  1  0.37537800  0.37537800  0.87490800  1
  Zn  Zn18  1  0.60110500  0.60110500  0.71821700  1
  Zn  Zn19  1  0.12568600  0.12568600  0.62335500  1
  Zn  Zn20  1  0.87483600  0.87483600  0.37517400  1
  Zn  Zn21  1  0.99919000  0.99919000  0.50002400  1
  Zn  Zn22  1  0.62464500  0.62464500  0.12672100  1
  Zn  Zn23  1  0.75068000  0.75068000  0.25028200  1
  O  O24  1  0.68307000  0.22568100  0.93658200  1
  O  O25  1  0.56896700  0.56896700  0.82143400  1
  O  O26  1  0.22568100  0.68307000  0.93658200  1
  O  O27  1  0.68149300  0.68149300  0.93703600  1
  O  O28  1  0.07062100  0.07062100  0.81307100  1
  O  O29  1  0.43377800  0.97764200  0.68653000  1
  O  O30  1  0.52072000  0.06749600  0.81317300  1
  O  O31  1  0.31925700  0.31925700  0.57104400  1
  O  O32  1  0.97764200  0.43377800  0.68653000  1
  O  O33  1  0.18062600  0.18062600  0.92701500  1
  O  O34  1  0.42881900  0.42881900  0.68501500  1
  O  O35  1  0.06749600  0.52072000  0.81317300  1
  O  O36  1  0.19048800  0.72195500  0.43169000  1
  O  O37  1  0.81577100  0.81577100  0.57096300  1
  O  O38  1  0.28056200  0.80721700  0.56935200  1
  O  O39  1  0.07040400  0.07040400  0.32098200  1
  O  O40  1  0.72195500  0.19048800  0.43169000  1
  O  O41  1  0.93004100  0.93004100  0.67832200  1
  O  O42  1  0.17994600  0.17994600  0.42990500  1
  O  O43  1  0.80721700  0.28056200  0.56935200  1
  O  O44  1  0.56985500  0.56985500  0.32042900  1
  O  O45  1  0.94278600  0.46833900  0.18071400  1
  O  O46  1  0.02826800  0.55910700  0.31865000  1
  O  O47  1  0.81954800  0.81954800  0.07121200  1
  O  O48  1  0.46833900  0.94278600  0.18071400  1
  O  O49  1  0.67942600  0.67942600  0.42973300  1
  O  O50  1  0.93434000  0.93434000  0.17973400  1
  O  O51  1  0.55910700  0.02826800  0.31865000  1
  O  O52  1  0.32407100  0.32407100  0.06468500  1
  O  O53  1  0.76869100  0.31752600  0.06330100  1
  O  O54  1  0.43030700  0.43030700  0.17869900  1
  O  O55  1  0.31752600  0.76869100  0.06330100  1
