# generated using pymatgen
data_Zn(SnO2)2
_symmetry_space_group_name_H-M   'P 1'
_cell_length_a   6.40075442
_cell_length_b   6.40075442
_cell_length_c   17.19519387
_cell_angle_alpha   88.90036393
_cell_angle_beta   88.90036393
_cell_angle_gamma   59.82047500
_symmetry_Int_Tables_number   1
_chemical_formula_structural   Zn(SnO2)2
_chemical_formula_sum   'Zn6 Sn12 O24'
_cell_volume   608.84266838
_cell_formula_units_Z   6
loop_
 _symmetry_equiv_pos_site_id
 _symmetry_equiv_pos_as_xyz
  1  'x, y, z'
loop_
 _atom_site_type_symbol
 _atom_site_label
 _atom_site_symmetry_multiplicity
 _atom_site_fract_x
 _atom_site_fract_y
 _atom_site_fract_z
 _atom_site_occupancy
  Zn  Zn0  1  0.84459800  0.84459800  0.94596700  1
  Zn  Zn1  1  0.16530700  0.16530700  0.66507100  1
  Zn  Zn2  1  0.33402700  0.33402700  0.82733600  1
  Zn  Zn3  1  0.83324400  0.83324400  0.33456200  1
  Zn  Zn4  1  0.00008000  0.00008000  0.49886200  1
  Zn  Zn5  1  0.65977100  0.65977100  0.17423900  1
  Sn  Sn6  1  0.84293900  0.33487800  0.83247900  1
  Sn  Sn7  1  0.50384800  0.50384800  0.62580900  1
  Sn  Sn8  1  0.49893800  0.49893800  0.99443900  1
  Sn  Sn9  1  0.33487800  0.84293900  0.83247900  1
  Sn  Sn10  1  0.50013500  0.00058800  0.49912500  1
  Sn  Sn11  1  0.16629700  0.16629700  0.29029500  1
  Sn  Sn12  1  0.00058800  0.50013500  0.49912500  1
  Sn  Sn13  1  0.15541900  0.66499900  0.16784400  1
  Sn  Sn14  1  0.83367400  0.83367400  0.70543500  1
  Sn  Sn15  1  0.66499900  0.15541900  0.16784400  1
  Sn  Sn16  1  0.49685900  0.49685900  0.37221200  1
  Sn  Sn17  1  0.15635500  0.15635500  0.04809700  1
  O  O18  1  0.67939400  0.18454700  0.90663800  1
  O  O19  1  0.50439700  0.50439700  0.78146100  1
  O  O20  1  0.18454700  0.67939400  0.90663800  1
  O  O21  1  0.66982200  0.66982200  0.90124200  1
  O  O22  1  0.32718400  0.86913100  0.57474800  1
  O  O23  1  0.02032400  0.02032400  0.76116300  1
  O  O24  1  0.16956200  0.16956200  0.44082100  1
  O  O25  1  0.46334700  0.00641800  0.75212500  1
  O  O26  1  0.86913100  0.32718400  0.57474800  1
  O  O27  1  0.17420100  0.17420100  0.88791500  1
  O  O28  1  0.31944600  0.31944600  0.56890300  1
  O  O29  1  0.00641800  0.46334700  0.75212500  1
  O  O30  1  0.97917000  0.54000200  0.24289200  1
  O  O31  1  0.68368600  0.68368600  0.42987600  1
  O  O32  1  0.12945800  0.67305500  0.42327200  1
  O  O33  1  0.54000200  0.97917000  0.24289200  1
  O  O34  1  0.84565600  0.84565600  0.09387400  1
  O  O35  1  0.83080200  0.83080200  0.55821300  1
  O  O36  1  0.97329400  0.97329400  0.24138900  1
  O  O37  1  0.67305500  0.12945800  0.42327200  1
  O  O38  1  0.33323500  0.33323500  0.10499700  1
  O  O39  1  0.81995000  0.33394500  0.11040100  1
  O  O40  1  0.48200300  0.48200300  0.22879600  1
  O  O41  1  0.33394500  0.81995000  0.11040100  1
