data_image0
_chemical_formula_structural       Gd2Na2O4
_chemical_formula_sum              "Gd2 Na2 O4"
_cell_length_a       6.16262
_cell_length_b       4.62986
_cell_length_c       4.62986
_cell_angle_alpha    90
_cell_angle_beta     112.064
_cell_angle_gamma    112.064

_space_group_name_H-M_alt    "P 1"
_space_group_IT_number       1

loop_
  _space_group_symop_operation_xyz
  'x, y, z'

loop_
  _atom_site_type_symbol
  _atom_site_label
  _atom_site_symmetry_multiplicity
  _atom_site_fract_x
  _atom_site_fract_y
  _atom_site_fract_z
  _atom_site_occupancy
  Gd  Gd1       1.0  0.25000  0.12500  0.37500  1.0000
  Gd  Gd2       1.0  0.75000  0.87500  0.62500  1.0000
  Na  Na1       1.0  0.75000  0.37500  0.12500  1.0000
  Na  Na2       1.0  0.25000  0.62500  0.87500  1.0000
  O   O1        1.0  0.80600  0.90300  0.15300  1.0000
  O   O2        1.0  0.30600  0.65300  0.40300  1.0000
  O   O3        1.0  0.69400  0.34700  0.59700  1.0000
  O   O4        1.0  0.19400  0.09690  0.84700  1.0000
