# generated using pymatgen
data_Nb2Zn2WO8
_symmetry_space_group_name_H-M   'P 1'
_cell_length_a   5.38964500
_cell_length_b   5.91400054
_cell_length_c   10.20287483
_cell_angle_alpha   104.09393333
_cell_angle_beta   90.71869857
_cell_angle_gamma   91.72095336
_symmetry_Int_Tables_number   1
_chemical_formula_structural   Nb2Zn2WO8
_chemical_formula_sum   'Nb4 Zn4 W2 O16'
_cell_volume   315.21219112
_cell_formula_units_Z   2
loop_
 _symmetry_equiv_pos_site_id
 _symmetry_equiv_pos_as_xyz
  1  'x, y, z'
loop_
 _atom_site_type_symbol
 _atom_site_label
 _atom_site_symmetry_multiplicity
 _atom_site_fract_x
 _atom_site_fract_y
 _atom_site_fract_z
 _atom_site_occupancy
  Nb  Nb0  1  0.70767100  0.24058900  0.24348900  1
  Nb  Nb1  1  0.72873400  0.01845300  0.76801600  1
  Nb  Nb2  1  0.29232900  0.75941100  0.75651100  1
  Nb  Nb3  1  0.27126600  0.98154700  0.23198400  1
  Zn  Zn4  1  0.78155400  0.43354100  0.56502200  1
  Zn  Zn5  1  0.72566800  0.85722100  0.44097200  1
  Zn  Zn6  1  0.21844600  0.56645900  0.43497800  1
  Zn  Zn7  1  0.27433200  0.14277900  0.55902800  1
  W  W8  1  0.75482900  0.63876500  0.99442100  1
  W  W9  1  0.24517100  0.36123500  0.00557900  1
  O  O10  1  0.08701100  0.19144600  0.13718200  1
  O  O11  1  0.40685900  0.08971200  0.87704600  1
  O  O12  1  0.91298900  0.80855400  0.86281800  1
  O  O13  1  0.59314100  0.91028800  0.12295400  1
  O  O14  1  0.59422300  0.42963900  0.11468000  1
  O  O15  1  0.89805300  0.32654000  0.89509000  1
  O  O16  1  0.40577700  0.57036100  0.88532000  1
  O  O17  1  0.10194700  0.67346000  0.10491000  1
  O  O18  1  0.41633200  0.29065700  0.36896300  1
  O  O19  1  0.07946800  0.93782200  0.65310800  1
  O  O20  1  0.35751000  0.84744500  0.38845800  1
  O  O21  1  0.14043300  0.45903900  0.61195100  1
  O  O22  1  0.64249000  0.15255500  0.61154200  1
  O  O23  1  0.85956700  0.54096100  0.38804900  1
  O  O24  1  0.92053200  0.06217800  0.34689200  1
  O  O25  1  0.58366800  0.70934300  0.63103700  1
