# generated using pymatgen
data_ReWO6
_symmetry_space_group_name_H-M   'P 1'
_cell_length_a   5.38250500
_cell_length_b   5.32979500
_cell_length_c   9.26542402
_cell_angle_alpha   54.89428932
_cell_angle_beta   90.00000000
_cell_angle_gamma   90.00000000
_symmetry_Int_Tables_number   1
_chemical_formula_structural   ReWO6
_chemical_formula_sum   'Re2 W2 O12'
_cell_volume   217.45159907
_cell_formula_units_Z   2
loop_
 _symmetry_equiv_pos_site_id
 _symmetry_equiv_pos_as_xyz
  1  'x, y, z'
loop_
 _atom_site_type_symbol
 _atom_site_label
 _atom_site_symmetry_multiplicity
 _atom_site_fract_x
 _atom_site_fract_y
 _atom_site_fract_z
 _atom_site_occupancy
  Re  Re0  1  0.00000000  0.50000000  0.00000000  1
  Re  Re1  1  0.50000000  0.50000000  0.50000000  1
  W  W2  1  0.00000000  0.00000000  0.50000000  1
  W  W3  1  0.50000000  0.00000000  0.00000000  1
  O  O4  1  0.28191600  0.75090600  0.52595300  1
  O  O5  1  0.78191600  0.24909400  0.97404700  1
  O  O6  1  0.71808400  0.24909400  0.47404700  1
  O  O7  1  0.21808400  0.75090600  0.02595300  1
  O  O8  1  0.22363500  0.30824500  0.47402300  1
  O  O9  1  0.72363500  0.69175500  0.02597700  1
  O  O10  1  0.77636500  0.69175500  0.52597700  1
  O  O11  1  0.27636500  0.30824500  0.97402300  1
  O  O12  1  0.49427800  0.19957200  0.74736400  1
  O  O13  1  0.99427800  0.80042800  0.75263600  1
  O  O14  1  0.00572200  0.19957200  0.24736400  1
  O  O15  1  0.50572200  0.80042800  0.25263600  1
