# generated using pymatgen
data_BaMg(AgO2)4
_symmetry_space_group_name_H-M   'P 1'
_cell_length_a   5.75327945
_cell_length_b   5.75327945
_cell_length_c   7.29833600
_cell_angle_alpha   90.00000000
_cell_angle_beta   90.00000000
_cell_angle_gamma   119.99999368
_symmetry_Int_Tables_number   1
_chemical_formula_structural   BaMg(AgO2)4
_chemical_formula_sum   'Ba1 Mg1 Ag4 O8'
_cell_volume   209.21145087
_cell_formula_units_Z   1
loop_
 _symmetry_equiv_pos_site_id
 _symmetry_equiv_pos_as_xyz
  1  'x, y, z'
loop_
 _atom_site_type_symbol
 _atom_site_label
 _atom_site_symmetry_multiplicity
 _atom_site_fract_x
 _atom_site_fract_y
 _atom_site_fract_z
 _atom_site_occupancy
  Ba  Ba0  1  0.00000000  0.00000000  0.00000000  1
  Mg  Mg1  1  0.00000000  0.00000000  0.50000000  1
  Ag  Ag2  1  0.33333300  0.66666700  0.71419600  1
  Ag  Ag3  1  0.66666700  0.33333300  0.71419600  1
  Ag  Ag4  1  0.33333300  0.66666700  0.28580400  1
  Ag  Ag5  1  0.66666700  0.33333300  0.28580400  1
  O  O6  1  0.27909800  0.27909800  0.68479100  1
  O  O7  1  0.72090200  0.00000000  0.68479100  1
  O  O8  1  0.00000000  0.72090200  0.68479100  1
  O  O9  1  0.72090200  0.72090200  0.31520900  1
  O  O10  1  0.00000000  0.27909800  0.31520900  1
  O  O11  1  0.27909800  0.00000000  0.31520900  1
  O  O12  1  0.33333300  0.66666700  0.00000000  1
  O  O13  1  0.66666700  0.33333300  0.00000000  1
