# generated using pymatgen
data_ZnW2O5
_symmetry_space_group_name_H-M   'P 1'
_cell_length_a   4.00092000
_cell_length_b   6.66823600
_cell_length_c   11.72285500
_cell_angle_alpha   90.00000000
_cell_angle_beta   90.00000000
_cell_angle_gamma   90.00000000
_symmetry_Int_Tables_number   1
_chemical_formula_structural   ZnW2O5
_chemical_formula_sum   'Zn2 W4 O10'
_cell_volume   312.75497204
_cell_formula_units_Z   2
loop_
 _symmetry_equiv_pos_site_id
 _symmetry_equiv_pos_as_xyz
  1  'x, y, z'
loop_
 _atom_site_type_symbol
 _atom_site_label
 _atom_site_symmetry_multiplicity
 _atom_site_fract_x
 _atom_site_fract_y
 _atom_site_fract_z
 _atom_site_occupancy
  Zn  Zn0  1  0.50000000  0.61061400  0.00000000  1
  Zn  Zn1  1  0.00000000  0.38938600  0.50000000  1
  W  W2  1  0.00000000  0.11655300  0.84001000  1
  W  W3  1  0.50000000  0.88344700  0.65999000  1
  W  W4  1  0.50000000  0.88344700  0.34001000  1
  W  W5  1  0.00000000  0.11655300  0.15999000  1
  O  O6  1  0.50000000  0.96185100  0.50000000  1
  O  O7  1  0.00000000  0.03814900  0.00000000  1
  O  O8  1  0.50000000  0.03665400  0.81622900  1
  O  O9  1  0.00000000  0.96334600  0.68377100  1
  O  O10  1  0.50000000  0.03665400  0.18377100  1
  O  O11  1  0.00000000  0.96334600  0.31622900  1
  O  O12  1  0.00000000  0.37604700  0.17607700  1
  O  O13  1  0.50000000  0.62395300  0.32392300  1
  O  O14  1  0.50000000  0.62395300  0.67607700  1
  O  O15  1  0.00000000  0.37604700  0.82392300  1
