# generated using pymatgen
data_Sr2Y2Cr2O7
_symmetry_space_group_name_H-M   'P 1'
_cell_length_a   12.89450996
_cell_length_b   12.89450996
_cell_length_c   12.89450996
_cell_angle_alpha   154.81343322
_cell_angle_beta   154.42804373
_cell_angle_gamma   36.19898658
_symmetry_Int_Tables_number   1
_chemical_formula_structural   Sr2Y2Cr2O7
_chemical_formula_sum   'Sr4 Y4 Cr4 O14'
_cell_volume   393.32337070
_cell_formula_units_Z   2
loop_
 _symmetry_equiv_pos_site_id
 _symmetry_equiv_pos_as_xyz
  1  'x, y, z'
loop_
 _atom_site_type_symbol
 _atom_site_label
 _atom_site_symmetry_multiplicity
 _atom_site_fract_x
 _atom_site_fract_y
 _atom_site_fract_z
 _atom_site_occupancy
  Sr  Sr0  1  0.82992700  0.84459800  0.96367300  1
  Sr  Sr1  1  0.17007300  0.13374600  0.01467000  1
  Sr  Sr2  1  0.61907500  0.63374600  0.96367300  1
  Sr  Sr3  1  0.38092500  0.34459800  0.01467000  1
  Y  Y4  1  0.50000000  0.47802600  0.97802600  1
  Y  Y5  1  0.00000000  0.97802600  0.97802600  1
  Y  Y6  1  0.20092500  0.77186500  0.47279000  1
  Y  Y7  1  0.79907500  0.27186500  0.57094000  1
  Cr  Cr8  1  0.93092800  0.40077200  0.47382600  1
  Cr  Cr9  1  0.06907200  0.54289800  0.46984400  1
  Cr  Cr10  1  0.57305400  0.04289800  0.47382600  1
  Cr  Cr11  1  0.42694600  0.90077200  0.46984400  1
  O  O12  1  0.83276000  0.66342400  0.99618400  1
  O  O13  1  0.16724000  0.16342400  0.83066400  1
  O  O14  1  0.72920800  0.70011500  0.54852300  1
  O  O15  1  0.27079200  0.81931600  0.97090700  1
  O  O16  1  0.34840900  0.31931600  0.54852300  1
  O  O17  1  0.65159100  0.20011500  0.97090700  1
  O  O18  1  0.14102500  0.11130000  0.38114800  1
  O  O19  1  0.85897500  0.24012300  0.97027400  1
  O  O20  1  0.76984800  0.74012300  0.38114800  1
  O  O21  1  0.23015200  0.61130000  0.97027400  1
  O  O22  1  0.38386200  0.76933700  0.48834300  1
  O  O23  1  0.61613800  0.10448200  0.38547600  1
  O  O24  1  0.21900600  0.60448200  0.48834300  1
  O  O25  1  0.78099400  0.26933700  0.38547600  1
