# generated using pymatgen
data_CrWO6
_symmetry_space_group_name_H-M   'P 1'
_cell_length_a   5.20522600
_cell_length_b   5.05081000
_cell_length_c   8.83480304
_cell_angle_alpha   55.15303414
_cell_angle_beta   90.00000000
_cell_angle_gamma   90.00000000
_symmetry_Int_Tables_number   1
_chemical_formula_structural   CrWO6
_chemical_formula_sum   'Cr2 W2 O12'
_cell_volume   190.62152219
_cell_formula_units_Z   2
loop_
 _symmetry_equiv_pos_site_id
 _symmetry_equiv_pos_as_xyz
  1  'x, y, z'
loop_
 _atom_site_type_symbol
 _atom_site_label
 _atom_site_symmetry_multiplicity
 _atom_site_fract_x
 _atom_site_fract_y
 _atom_site_fract_z
 _atom_site_occupancy
  Cr  Cr0  1  0.00000000  0.50000000  0.00000000  1
  Cr  Cr1  1  0.50000000  0.50000000  0.50000000  1
  W  W2  1  0.00000000  0.00000000  0.50000000  1
  W  W3  1  0.50000000  0.00000000  0.00000000  1
  O  O4  1  0.30331300  0.74314900  0.54905900  1
  O  O5  1  0.80331300  0.25685100  0.95094100  1
  O  O6  1  0.69668700  0.25685100  0.45094100  1
  O  O7  1  0.19668700  0.74314900  0.04905900  1
  O  O8  1  0.21106100  0.35610700  0.45159600  1
  O  O9  1  0.71106100  0.64389300  0.04840400  1
  O  O10  1  0.78893900  0.64389300  0.54840400  1
  O  O11  1  0.28893900  0.35610700  0.95159600  1
  O  O12  1  0.48277300  0.16151700  0.74239400  1
  O  O13  1  0.98277300  0.83848300  0.75760600  1
  O  O14  1  0.01722700  0.16151700  0.24239400  1
  O  O15  1  0.51722700  0.83848300  0.25760600  1
