# generated using pymatgen
data_Ca2Nb2CoO8
_symmetry_space_group_name_H-M   'P 1'
_cell_length_a   10.02384303
_cell_length_b   10.02384303
_cell_length_c   5.47682306
_cell_angle_alpha   88.64278150
_cell_angle_beta   88.64278150
_cell_angle_gamma   37.05164606
_symmetry_Int_Tables_number   1
_chemical_formula_structural   Ca2Nb2CoO8
_chemical_formula_sum   'Ca4 Nb4 Co2 O16'
_cell_volume   331.46960975
_cell_formula_units_Z   2
loop_
 _symmetry_equiv_pos_site_id
 _symmetry_equiv_pos_as_xyz
  1  'x, y, z'
loop_
 _atom_site_type_symbol
 _atom_site_label
 _atom_site_symmetry_multiplicity
 _atom_site_fract_x
 _atom_site_fract_y
 _atom_site_fract_z
 _atom_site_occupancy
  Ca  Ca0  1  0.88702500  0.52998400  0.25595000  1
  Ca  Ca1  1  0.47001600  0.11297500  0.24405000  1
  Ca  Ca2  1  0.11297500  0.47001600  0.74405000  1
  Ca  Ca3  1  0.52998400  0.88702500  0.75595000  1
  Nb  Nb4  1  0.04254700  0.73626800  0.25024200  1
  Nb  Nb5  1  0.26373200  0.95745300  0.24975800  1
  Nb  Nb6  1  0.95745300  0.26373200  0.74975800  1
  Nb  Nb7  1  0.73626800  0.04254700  0.75024200  1
  Co  Co8  1  0.64338000  0.35662000  0.25000000  1
  Co  Co9  1  0.35662000  0.64338000  0.75000000  1
  O  O10  1  0.05696300  0.80477000  0.58749400  1
  O  O11  1  0.19523000  0.94303700  0.91250600  1
  O  O12  1  0.94303700  0.19523000  0.41250600  1
  O  O13  1  0.80477000  0.05696300  0.08749400  1
  O  O14  1  0.29909700  0.58748800  0.07903800  1
  O  O15  1  0.41251200  0.70090300  0.42096200  1
  O  O16  1  0.70090300  0.41251200  0.92096200  1
  O  O17  1  0.58748800  0.29909700  0.57903800  1
  O  O18  1  0.87996500  0.75523500  0.00020300  1
  O  O19  1  0.24476500  0.12003500  0.49979700  1
  O  O20  1  0.46734100  0.16510300  0.84353200  1
  O  O21  1  0.83489700  0.53265900  0.65646800  1
  O  O22  1  0.53265900  0.83489700  0.15646800  1
  O  O23  1  0.16510300  0.46734100  0.34353200  1
  O  O24  1  0.75523500  0.87996500  0.50020300  1
  O  O25  1  0.12003500  0.24476500  0.99979700  1
