# generated using pymatgen
data_Mg(SnO2)2
_symmetry_space_group_name_H-M   'P 1'
_cell_length_a   6.39815809
_cell_length_b   6.39815809
_cell_length_c   17.08039714
_cell_angle_alpha   88.87592852
_cell_angle_beta   88.87592852
_cell_angle_gamma   59.78100687
_symmetry_Int_Tables_number   1
_chemical_formula_structural   Mg(SnO2)2
_chemical_formula_sum   'Mg6 Sn12 O24'
_cell_volume   604.03863696
_cell_formula_units_Z   6
loop_
 _symmetry_equiv_pos_site_id
 _symmetry_equiv_pos_as_xyz
  1  'x, y, z'
loop_
 _atom_site_type_symbol
 _atom_site_label
 _atom_site_symmetry_multiplicity
 _atom_site_fract_x
 _atom_site_fract_y
 _atom_site_fract_z
 _atom_site_occupancy
  Mg  Mg0  1  0.84182400  0.84182400  0.94944600  1
  Mg  Mg1  1  0.16749500  0.16749500  0.66469300  1
  Mg  Mg2  1  0.33453300  0.33453300  0.82828300  1
  Mg  Mg3  1  0.83156900  0.83156900  0.33468700  1
  Mg  Mg4  1  0.00002200  0.00002200  0.49872800  1
  Mg  Mg5  1  0.66194900  0.66194900  0.17273800  1
  Sn  Sn6  1  0.84200300  0.33492300  0.83138500  1
  Sn  Sn7  1  0.50429000  0.50429000  0.62548100  1
  Sn  Sn8  1  0.49770300  0.49770300  0.99217400  1
  Sn  Sn9  1  0.33492300  0.84200300  0.83138500  1
  Sn  Sn10  1  0.50013000  0.00042500  0.49908800  1
  Sn  Sn11  1  0.16692700  0.16692700  0.29008900  1
  Sn  Sn12  1  0.00042500  0.50013000  0.49908800  1
  Sn  Sn13  1  0.15720100  0.66540600  0.16887200  1
  Sn  Sn14  1  0.83293000  0.83293000  0.70518300  1
  Sn  Sn15  1  0.66540600  0.15720100  0.16887200  1
  Sn  Sn16  1  0.49640800  0.49640800  0.37275700  1
  Sn  Sn17  1  0.15668300  0.15668300  0.04875900  1
  O  O18  1  0.67409000  0.18350800  0.90442500  1
  O  O19  1  0.50638000  0.50638000  0.77928200  1
  O  O20  1  0.18350800  0.67409000  0.90442500  1
  O  O21  1  0.66895100  0.66895100  0.90140600  1
  O  O22  1  0.32439200  0.87004200  0.57414700  1
  O  O23  1  0.02255900  0.02255900  0.75852500  1
  O  O24  1  0.16915300  0.16915300  0.44067800  1
  O  O25  1  0.46229500  0.01255500  0.75311500  1
  O  O26  1  0.87004200  0.32439200  0.57414700  1
  O  O27  1  0.17117300  0.17117300  0.88791800  1
  O  O28  1  0.31539600  0.31539600  0.57121300  1
  O  O29  1  0.01255500  0.46229500  0.75311500  1
  O  O30  1  0.97788800  0.54315600  0.24370800  1
  O  O31  1  0.68644700  0.68644700  0.42771800  1
  O  O32  1  0.12862900  0.67601500  0.42388100  1
  O  O33  1  0.54315600  0.97788800  0.24370800  1
  O  O34  1  0.84061500  0.84061500  0.09365700  1
  O  O35  1  0.83127100  0.83127100  0.55759000  1
  O  O36  1  0.97176000  0.97176000  0.24315000  1
  O  O37  1  0.67601500  0.12862900  0.42388100  1
  O  O38  1  0.33308600  0.33308600  0.10653600  1
  O  O39  1  0.82475000  0.33146400  0.11197600  1
  O  O40  1  0.48673700  0.48673700  0.22812600  1
  O  O41  1  0.33146400  0.82475000  0.11197600  1
