# generated using pymatgen
data_BaMg(BiO2)4
_symmetry_space_group_name_H-M   'P 1'
_cell_length_a   6.25721512
_cell_length_b   6.25721512
_cell_length_c   7.45763300
_cell_angle_alpha   90.00000000
_cell_angle_beta   90.00000000
_cell_angle_gamma   119.99999072
_symmetry_Int_Tables_number   1
_chemical_formula_structural   BaMg(BiO2)4
_chemical_formula_sum   'Ba1 Mg1 Bi4 O8'
_cell_volume   252.86798750
_cell_formula_units_Z   1
loop_
 _symmetry_equiv_pos_site_id
 _symmetry_equiv_pos_as_xyz
  1  'x, y, z'
loop_
 _atom_site_type_symbol
 _atom_site_label
 _atom_site_symmetry_multiplicity
 _atom_site_fract_x
 _atom_site_fract_y
 _atom_site_fract_z
 _atom_site_occupancy
  Ba  Ba0  1  0.00000000  0.00000000  0.00000000  1
  Mg  Mg1  1  0.00000000  0.00000000  0.50000000  1
  Bi  Bi2  1  0.33333300  0.66666700  0.71692400  1
  Bi  Bi3  1  0.66666700  0.33333300  0.71692400  1
  Bi  Bi4  1  0.33333300  0.66666700  0.28307600  1
  Bi  Bi5  1  0.66666700  0.33333300  0.28307600  1
  O  O6  1  0.27672900  0.27672900  0.69115500  1
  O  O7  1  0.72327100  0.00000000  0.69115500  1
  O  O8  1  0.00000000  0.72327100  0.69115500  1
  O  O9  1  0.72327100  0.72327100  0.30884500  1
  O  O10  1  0.00000000  0.27672900  0.30884500  1
  O  O11  1  0.27672900  0.00000000  0.30884500  1
  O  O12  1  0.33333300  0.66666700  0.00000000  1
  O  O13  1  0.66666700  0.33333300  0.00000000  1
