# generated using pymatgen
data_ZnCr2O4
_symmetry_space_group_name_H-M   'P 1'
_cell_length_a   6.00801532
_cell_length_b   6.00801532
_cell_length_c   20.23669712
_cell_angle_alpha   79.35020651
_cell_angle_beta   79.35020651
_cell_angle_gamma   60.17063275
_symmetry_Int_Tables_number   1
_chemical_formula_structural   ZnCr2O4
_chemical_formula_sum   'Zn8 Cr16 O32'
_cell_volume   619.06760710
_cell_formula_units_Z   8
loop_
 _symmetry_equiv_pos_site_id
 _symmetry_equiv_pos_as_xyz
  1  'x, y, z'
loop_
 _atom_site_type_symbol
 _atom_site_label
 _atom_site_symmetry_multiplicity
 _atom_site_fract_x
 _atom_site_fract_y
 _atom_site_fract_z
 _atom_site_occupancy
  Zn  Zn0  1  0.65460100  0.65460100  0.03038600  1
  Zn  Zn1  1  0.12267100  0.12267100  0.12488000  1
  Zn  Zn2  1  0.90235500  0.90235500  0.28107000  1
  Zn  Zn3  1  0.37292300  0.37292300  0.37425300  1
  Zn  Zn4  1  0.62583700  0.62583700  0.62418700  1
  Zn  Zn5  1  0.50004300  0.50004300  0.49890000  1
  Zn  Zn6  1  0.87711900  0.87711900  0.87459100  1
  Zn  Zn7  1  0.74939700  0.74939700  0.75074400  1
  Cr  Cr8  1  0.62783900  0.12386500  0.12507100  1
  Cr  Cr9  1  0.25005800  0.25005800  0.25079800  1
  Cr  Cr10  1  0.12386500  0.62783900  0.12507100  1
  Cr  Cr11  1  0.15432900  0.15432900  0.53128100  1
  Cr  Cr12  1  0.87507000  0.37323700  0.37384600  1
  Cr  Cr13  1  0.59666500  0.59666500  0.21955900  1
  Cr  Cr14  1  0.40800400  0.40800400  0.78044300  1
  Cr  Cr15  1  0.37323700  0.87507000  0.37384600  1
  Cr  Cr16  1  0.12484900  0.62487500  0.62453700  1
  Cr  Cr17  1  0.84440300  0.84440300  0.46689500  1
  Cr  Cr18  1  0.62487500  0.12484900  0.62453700  1
  Cr  Cr19  1  0.87628300  0.37799000  0.87633300  1
  Cr  Cr20  1  0.37799000  0.87628300  0.87633300  1
  Cr  Cr21  1  0.09423300  0.09423300  0.71865300  1
  Cr  Cr22  1  0.00025100  0.00025100  0.00204800  1
  Cr  Cr23  1  0.34720100  0.34720100  0.97131100  1
  O  O24  1  0.28241000  0.82194200  0.06265800  1
  O  O25  1  0.93119000  0.93119000  0.17973400  1
  O  O26  1  0.82194200  0.28241000  0.06265800  1
  O  O27  1  0.82407800  0.82407800  0.06727300  1
  O  O28  1  0.42730000  0.42730000  0.18193300  1
  O  O29  1  0.52763100  0.07619400  0.31248300  1
  O  O30  1  0.43121800  0.95979900  0.18850800  1
  O  O31  1  0.17000600  0.17000600  0.43287200  1
  O  O32  1  0.07619400  0.52763100  0.31248300  1
  O  O33  1  0.31903900  0.31903900  0.06935900  1
  O  O34  1  0.07407400  0.07407400  0.31581300  1
  O  O35  1  0.95979900  0.43121800  0.18850800  1
  O  O36  1  0.79496100  0.31990400  0.56378600  1
  O  O37  1  0.68550500  0.68550500  0.42725500  1
  O  O38  1  0.67834600  0.20265200  0.43452300  1
  O  O39  1  0.42470000  0.42470000  0.68190100  1
  O  O40  1  0.31990400  0.79496100  0.56378600  1
  O  O41  1  0.57343300  0.57343300  0.31713300  1
  O  O42  1  0.31410900  0.31410900  0.57093500  1
  O  O43  1  0.20265200  0.67834600  0.43452300  1
  O  O44  1  0.93613000  0.93613000  0.67872600  1
  O  O45  1  0.05110900  0.56536000  0.81419000  1
  O  O46  1  0.92929400  0.45389400  0.68616100  1
  O  O47  1  0.68718800  0.68718800  0.92888000  1
  O  O48  1  0.56536000  0.05110900  0.81419000  1
  O  O49  1  0.82583000  0.82583000  0.56685300  1
  O  O50  1  0.56438200  0.56438200  0.82296200  1
  O  O51  1  0.45389400  0.92929400  0.68616100  1
  O  O52  1  0.17702200  0.17702200  0.93402100  1
  O  O53  1  0.18370500  0.71144600  0.94014000  1
  O  O54  1  0.07199800  0.07199800  0.81987900  1
  O  O55  1  0.71144600  0.18370500  0.94014000  1
