# generated using pymatgen
data_Ca2YMoO5
_symmetry_space_group_name_H-M   'P 1'
_cell_length_a   8.73374657
_cell_length_b   8.73374657
_cell_length_c   8.73374657
_cell_angle_alpha   141.09311128
_cell_angle_beta   140.07863106
_cell_angle_gamma   56.96894621
_symmetry_Int_Tables_number   1
_chemical_formula_structural   Ca2YMoO5
_chemical_formula_sum   'Ca4 Y2 Mo2 O10'
_cell_volume   266.28924511
_cell_formula_units_Z   2
loop_
 _symmetry_equiv_pos_site_id
 _symmetry_equiv_pos_as_xyz
  1  'x, y, z'
loop_
 _atom_site_type_symbol
 _atom_site_label
 _atom_site_symmetry_multiplicity
 _atom_site_fract_x
 _atom_site_fract_y
 _atom_site_fract_z
 _atom_site_occupancy
  Ca  Ca0  1  0.91450800  0.91650700  0.04412700  1
  Ca  Ca1  1  0.62762000  0.62962000  0.04412700  1
  Ca  Ca2  1  0.08549200  0.12962000  0.00200000  1
  Ca  Ca3  1  0.37238000  0.41650700  0.00200000  1
  Y  Y4  1  0.29799800  0.80434400  0.60234200  1
  Y  Y5  1  0.70200200  0.30434400  0.50634700  1
  Mo  Mo6  1  0.00000000  0.48416300  0.48416300  1
  Mo  Mo7  1  0.50000000  0.98416300  0.48416300  1
  O  O8  1  0.35428700  0.18162800  0.03591500  1
  O  O9  1  0.64571300  0.68162800  0.82734000  1
  O  O10  1  0.97700400  0.29858400  0.54576000  1
  O  O11  1  0.02299600  0.56875600  0.32158100  1
  O  O12  1  0.25282500  0.79858400  0.32158100  1
  O  O13  1  0.74717500  0.06875600  0.54576000  1
  O  O14  1  0.30075500  0.28164000  0.50725500  1
  O  O15  1  0.69924500  0.20650000  0.98088500  1
  O  O16  1  0.72561500  0.70650000  0.50725500  1
  O  O17  1  0.27438500  0.78164000  0.98088500  1
