# generated using pymatgen
data_Zn(WO2)2
_symmetry_space_group_name_H-M   'P 1'
_cell_length_a   3.22274300
_cell_length_b   9.72653000
_cell_length_c   10.97761400
_cell_angle_alpha   90.00000000
_cell_angle_beta   90.00000000
_cell_angle_gamma   90.00000000
_symmetry_Int_Tables_number   1
_chemical_formula_structural   Zn(WO2)2
_chemical_formula_sum   'Zn4 W8 O16'
_cell_volume   344.10545725
_cell_formula_units_Z   4
loop_
 _symmetry_equiv_pos_site_id
 _symmetry_equiv_pos_as_xyz
  1  'x, y, z'
loop_
 _atom_site_type_symbol
 _atom_site_label
 _atom_site_symmetry_multiplicity
 _atom_site_fract_x
 _atom_site_fract_y
 _atom_site_fract_z
 _atom_site_occupancy
  Zn  Zn0  1  0.25000000  0.24682000  0.85169900  1
  Zn  Zn1  1  0.75000000  0.75318000  0.14830100  1
  Zn  Zn2  1  0.25000000  0.74682000  0.64830100  1
  Zn  Zn3  1  0.75000000  0.25318000  0.35169900  1
  W  W4  1  0.75000000  0.39110700  0.59624400  1
  W  W5  1  0.25000000  0.10889300  0.09624400  1
  W  W6  1  0.75000000  0.89110700  0.90375600  1
  W  W7  1  0.25000000  0.60889300  0.40375600  1
  W  W8  1  0.25000000  0.54493800  0.87416000  1
  W  W9  1  0.75000000  0.45506200  0.12584000  1
  W  W10  1  0.25000000  0.04493800  0.62584000  1
  W  W11  1  0.75000000  0.95506200  0.37416000  1
  O  O12  1  0.75000000  0.89912000  0.57054900  1
  O  O13  1  0.25000000  0.10088000  0.42945100  1
  O  O14  1  0.75000000  0.39912000  0.92945100  1
  O  O15  1  0.25000000  0.60088000  0.07054900  1
  O  O16  1  0.75000000  0.09302200  0.22352400  1
  O  O17  1  0.25000000  0.90697800  0.77647600  1
  O  O18  1  0.75000000  0.59302200  0.27647600  1
  O  O19  1  0.25000000  0.40697800  0.72352400  1
  O  O20  1  0.75000000  0.61306300  0.54720800  1
  O  O21  1  0.25000000  0.38693700  0.45279200  1
  O  O22  1  0.75000000  0.11306300  0.95279200  1
  O  O23  1  0.25000000  0.88693700  0.04720800  1
  O  O24  1  0.25000000  0.81937600  0.32709300  1
  O  O25  1  0.75000000  0.18062400  0.67290700  1
  O  O26  1  0.75000000  0.68062400  0.82709300  1
  O  O27  1  0.25000000  0.31937600  0.17290700  1
