# generated using pymatgen
data_VZn2IrO6
_symmetry_space_group_name_H-M   'P 1'
_cell_length_a   5.18679000
_cell_length_b   5.19876500
_cell_length_c   9.17081676
_cell_angle_alpha   56.21428481
_cell_angle_beta   90.00000000
_cell_angle_gamma   90.00000000
_symmetry_Int_Tables_number   1
_chemical_formula_structural   VZn2IrO6
_chemical_formula_sum   'V2 Zn4 Ir2 O12'
_cell_volume   205.52858870
_cell_formula_units_Z   2
loop_
 _symmetry_equiv_pos_site_id
 _symmetry_equiv_pos_as_xyz
  1  'x, y, z'
loop_
 _atom_site_type_symbol
 _atom_site_label
 _atom_site_symmetry_multiplicity
 _atom_site_fract_x
 _atom_site_fract_y
 _atom_site_fract_z
 _atom_site_occupancy
  V  V0  1  0.50000000  0.00000000  0.00000000  1
  V  V1  1  0.00000000  0.00000000  0.50000000  1
  Zn  Zn2  1  0.96363900  0.74481900  0.24986000  1
  Zn  Zn3  1  0.46363900  0.25518100  0.25014000  1
  Zn  Zn4  1  0.53636100  0.74481900  0.74986000  1
  Zn  Zn5  1  0.03636100  0.25518100  0.75014000  1
  Ir  Ir6  1  0.50000000  0.50000000  0.50000000  1
  Ir  Ir7  1  0.00000000  0.50000000  0.00000000  1
  O  O8  1  0.42783200  0.36521500  0.75561800  1
  O  O9  1  0.18731500  0.10309200  0.06460100  1
  O  O10  1  0.17100300  0.74918600  0.43791500  1
  O  O11  1  0.67100300  0.25081400  0.06208500  1
  O  O12  1  0.68731500  0.89690800  0.43539900  1
  O  O13  1  0.92783200  0.63478500  0.74438200  1
  O  O14  1  0.07216800  0.36521500  0.25561800  1
  O  O15  1  0.31268500  0.10309200  0.56460100  1
  O  O16  1  0.32899700  0.74918600  0.93791500  1
  O  O17  1  0.81268500  0.89690800  0.93539900  1
  O  O18  1  0.82899700  0.25081400  0.56208500  1
  O  O19  1  0.57216800  0.63478500  0.24438200  1
