# generated using pymatgen
data_Ca3Ni3(AsO4)4
_symmetry_space_group_name_H-M   'P 1'
_cell_length_a   5.12181900
_cell_length_b   9.19281600
_cell_length_c   17.23072410
_cell_angle_alpha   63.57698883
_cell_angle_beta   90.00000000
_cell_angle_gamma   90.00000000
_symmetry_Int_Tables_number   1
_chemical_formula_structural   Ca3Ni3(AsO4)4
_chemical_formula_sum   'Ca6 Ni6 As8 O32'
_cell_volume   726.53739425
_cell_formula_units_Z   2
loop_
 _symmetry_equiv_pos_site_id
 _symmetry_equiv_pos_as_xyz
  1  'x, y, z'
loop_
 _atom_site_type_symbol
 _atom_site_label
 _atom_site_symmetry_multiplicity
 _atom_site_fract_x
 _atom_site_fract_y
 _atom_site_fract_z
 _atom_site_occupancy
  Ca  Ca0  1  0.53548800  0.31066900  0.22963500  1
  Ca  Ca1  1  0.03548800  0.68933100  0.27036500  1
  Ca  Ca2  1  0.46451200  0.68933100  0.77036500  1
  Ca  Ca3  1  0.96451200  0.31066900  0.72963500  1
  Ca  Ca4  1  0.50000000  0.00000000  0.50000000  1
  Ca  Ca5  1  0.00000000  0.00000000  0.00000000  1
  Ni  Ni6  1  0.48225500  0.19740800  0.62192500  1
  Ni  Ni7  1  0.51774500  0.80259200  0.37807500  1
  Ni  Ni8  1  0.98225500  0.80259200  0.87807500  1
  Ni  Ni9  1  0.01774500  0.19740800  0.12192500  1
  Ni  Ni10  1  0.00000000  0.50000000  0.50000000  1
  Ni  Ni11  1  0.50000000  0.50000000  0.00000000  1
  As  As12  1  0.00969000  0.03926400  0.34118600  1
  As  As13  1  0.48820000  0.43587400  0.40542600  1
  As  As14  1  0.98820000  0.56412600  0.09457400  1
  As  As15  1  0.01180000  0.43587400  0.90542600  1
  As  As16  1  0.99031000  0.96073600  0.65881400  1
  As  As17  1  0.51180000  0.56412600  0.59457400  1
  As  As18  1  0.49031000  0.03926400  0.84118600  1
  As  As19  1  0.50969000  0.96073600  0.15881400  1
  O  O20  1  0.45222000  0.80785200  0.26231400  1
  O  O21  1  0.93674000  0.74654000  0.00599500  1
  O  O22  1  0.38810200  0.43584500  0.31216300  1
  O  O23  1  0.40016600  0.14422200  0.15178800  1
  O  O24  1  0.61189800  0.56415500  0.68783700  1
  O  O25  1  0.04778000  0.80785200  0.76231400  1
  O  O26  1  0.88810200  0.56415500  0.18783700  1
  O  O27  1  0.69526500  0.50830000  0.89902800  1
  O  O28  1  0.64671800  0.10129700  0.90728800  1
  O  O29  1  0.54778000  0.19214800  0.73768600  1
  O  O30  1  0.09983400  0.14422200  0.65178800  1
  O  O31  1  0.30473500  0.49170000  0.10097200  1
  O  O32  1  0.29856800  0.58271700  0.41836100  1
  O  O33  1  0.35328200  0.89870300  0.09271200  1
  O  O34  1  0.65301200  0.97696200  0.64189900  1
  O  O35  1  0.15301200  0.02303800  0.85810100  1
  O  O36  1  0.79856800  0.41728300  0.08163900  1
  O  O37  1  0.11189800  0.43584500  0.81216300  1
  O  O38  1  0.14671800  0.89870300  0.59271200  1
  O  O39  1  0.19526500  0.49170000  0.60097200  1
  O  O40  1  0.84698800  0.97696200  0.14189900  1
  O  O41  1  0.34698800  0.02303800  0.35810100  1
  O  O42  1  0.06326000  0.25346000  0.99400500  1
  O  O43  1  0.43674000  0.25346000  0.49400500  1
  O  O44  1  0.70143200  0.41728300  0.58163900  1
  O  O45  1  0.95222000  0.19214800  0.23768600  1
  O  O46  1  0.59983400  0.85577800  0.84821200  1
  O  O47  1  0.85328200  0.10129700  0.40728800  1
  O  O48  1  0.56326000  0.74654000  0.50599500  1
  O  O49  1  0.80473500  0.50830000  0.39902800  1
  O  O50  1  0.20143200  0.58271700  0.91836100  1
  O  O51  1  0.90016600  0.85577800  0.34821200  1
