# generated using pymatgen
data_MgP2WO7
_symmetry_space_group_name_H-M   'P 1'
_cell_length_a   6.45992600
_cell_length_b   6.84291796
_cell_length_c   7.31416774
_cell_angle_alpha   107.00170267
_cell_angle_beta   112.58715881
_cell_angle_gamma   84.40476837
_symmetry_Int_Tables_number   1
_chemical_formula_structural   MgP2WO7
_chemical_formula_sum   'Mg2 P4 W2 O14'
_cell_volume   285.43431746
_cell_formula_units_Z   2
loop_
 _symmetry_equiv_pos_site_id
 _symmetry_equiv_pos_as_xyz
  1  'x, y, z'
loop_
 _atom_site_type_symbol
 _atom_site_label
 _atom_site_symmetry_multiplicity
 _atom_site_fract_x
 _atom_site_fract_y
 _atom_site_fract_z
 _atom_site_occupancy
  Mg  Mg0  1  0.32995100  0.80203700  0.90534600  1
  Mg  Mg1  1  0.67004900  0.19796300  0.09465400  1
  P  P2  1  0.22728200  0.12960300  0.25035000  1
  P  P3  1  0.77271800  0.87039700  0.74965000  1
  P  P4  1  0.63303800  0.63236600  0.31684700  1
  P  P5  1  0.36696200  0.36763400  0.68315300  1
  W  W6  1  0.10437100  0.61908500  0.21379600  1
  W  W7  1  0.89562900  0.38091500  0.78620400  1
  O  O8  1  0.59125100  0.77984300  0.51816000  1
  O  O9  1  0.40874900  0.22015700  0.48184000  1
  O  O10  1  0.11243200  0.94269000  0.23993700  1
  O  O11  1  0.88756800  0.05731000  0.76006300  1
  O  O12  1  0.32584300  0.58182100  0.65779300  1
  O  O13  1  0.67415700  0.41817900  0.34220700  1
  O  O14  1  0.59534500  0.35392900  0.86032800  1
  O  O15  1  0.40465500  0.64607100  0.13967200  1
  O  O16  1  0.62946700  0.91891000  0.88575800  1
  O  O17  1  0.37053300  0.08109000  0.11424200  1
  O  O18  1  0.95068200  0.70284700  0.79005400  1
  O  O19  1  0.04931800  0.29715300  0.20994600  1
  O  O20  1  0.17655600  0.27547300  0.70467300  1
  O  O21  1  0.82344400  0.72452700  0.29532700  1
