# generated using pymatgen
data_CaCrAsO5
_symmetry_space_group_name_H-M   'P 1'
_cell_length_a   5.99220700
_cell_length_b   7.56100800
_cell_length_c   8.91824500
_cell_angle_alpha   90.00000000
_cell_angle_beta   90.00000000
_cell_angle_gamma   90.00000000
_symmetry_Int_Tables_number   1
_chemical_formula_structural   CaCrAsO5
_chemical_formula_sum   'Ca4 Cr4 As4 O20'
_cell_volume   404.06004157
_cell_formula_units_Z   4
loop_
 _symmetry_equiv_pos_site_id
 _symmetry_equiv_pos_as_xyz
  1  'x, y, z'
loop_
 _atom_site_type_symbol
 _atom_site_label
 _atom_site_symmetry_multiplicity
 _atom_site_fract_x
 _atom_site_fract_y
 _atom_site_fract_z
 _atom_site_occupancy
  Ca  Ca0  1  0.97276300  0.85118200  0.66996600  1
  Ca  Ca1  1  0.52723700  0.14881800  0.16996600  1
  Ca  Ca2  1  0.02723700  0.35118200  0.83003400  1
  Ca  Ca3  1  0.47276300  0.64881800  0.33003400  1
  Cr  Cr4  1  0.25505300  0.75595100  0.99555300  1
  Cr  Cr5  1  0.24494700  0.24404900  0.49555300  1
  Cr  Cr6  1  0.74494700  0.25595100  0.50444700  1
  Cr  Cr7  1  0.75505300  0.74404900  0.00444700  1
  As  As8  1  0.48084800  0.10726400  0.80879900  1
  As  As9  1  0.01915200  0.89273600  0.30879900  1
  As  As10  1  0.51915200  0.60726400  0.69120100  1
  As  As11  1  0.98084800  0.39273600  0.19120100  1
  O  O12  1  0.50811900  0.92052800  0.92681100  1
  O  O13  1  0.99188100  0.07947200  0.42681100  1
  O  O14  1  0.49188100  0.42052800  0.57318900  1
  O  O15  1  0.00811900  0.57947200  0.07318900  1
  O  O16  1  0.41500800  0.27203600  0.93024900  1
  O  O17  1  0.08499200  0.72796400  0.43024900  1
  O  O18  1  0.58499200  0.77203600  0.56975100  1
  O  O19  1  0.91500800  0.22796400  0.06975100  1
  O  O20  1  0.73183900  0.13369400  0.71570000  1
  O  O21  1  0.76816100  0.86630600  0.21570000  1
  O  O22  1  0.26816100  0.63369400  0.78430000  1
  O  O23  1  0.23183900  0.36630600  0.28430000  1
  O  O24  1  0.25193200  0.09492800  0.69102000  1
  O  O25  1  0.24806800  0.90507200  0.19102000  1
  O  O26  1  0.74806800  0.59492800  0.80898000  1
  O  O27  1  0.75193200  0.40507200  0.30898000  1
  O  O28  1  0.99767800  0.87619300  0.91643700  1
  O  O29  1  0.50232200  0.12380700  0.41643700  1
  O  O30  1  0.00232200  0.37619300  0.58356300  1
  O  O31  1  0.49767800  0.62380700  0.08356300  1
