# generated using pymatgen
data_TaF5
_symmetry_space_group_name_H-M   'P 1'
_cell_length_a   5.84881444
_cell_length_b   5.84881444
_cell_length_c   8.40437900
_cell_angle_alpha   90.00000000
_cell_angle_beta   90.00000000
_cell_angle_gamma   143.69689859
_symmetry_Int_Tables_number   1
_chemical_formula_structural   TaF5
_chemical_formula_sum   'Ta2 F10'
_cell_volume   170.21768942
_cell_formula_units_Z   2
loop_
 _symmetry_equiv_pos_site_id
 _symmetry_equiv_pos_as_xyz
  1  'x, y, z'
loop_
 _atom_site_type_symbol
 _atom_site_label
 _atom_site_symmetry_multiplicity
 _atom_site_fract_x
 _atom_site_fract_y
 _atom_site_fract_z
 _atom_site_occupancy
  Ta  Ta0  1  0.50000000  0.50000000  0.50000000  1
  Ta  Ta1  1  0.50000000  0.50000000  0.00000000  1
  F  F2  1  0.51596800  0.48403200  0.25000000  1
  F  F3  1  0.48403200  0.51596800  0.75000000  1
  F  F4  1  0.92890600  0.07109400  0.59057100  1
  F  F5  1  0.07109400  0.92890600  0.40942900  1
  F  F6  1  0.66196800  0.33803200  0.93085500  1
  F  F7  1  0.33803200  0.66196800  0.06914500  1
  F  F8  1  0.33803200  0.66196800  0.43085500  1
  F  F9  1  0.66196800  0.33803200  0.56914500  1
  F  F10  1  0.92890600  0.07109400  0.90942900  1
  F  F11  1  0.07109400  0.92890600  0.09057100  1
