# generated using pymatgen
data_Mg(SnO2)2
_symmetry_space_group_name_H-M   'P 1'
_cell_length_a   5.62023324
_cell_length_b   5.62023324
_cell_length_c   10.86941600
_cell_angle_alpha   90.00000000
_cell_angle_beta   90.00000000
_cell_angle_gamma   147.15264014
_symmetry_Int_Tables_number   1
_chemical_formula_structural   Mg(SnO2)2
_chemical_formula_sum   'Mg2 Sn4 O8'
_cell_volume   186.22450622
_cell_formula_units_Z   2
loop_
 _symmetry_equiv_pos_site_id
 _symmetry_equiv_pos_as_xyz
  1  'x, y, z'
loop_
 _atom_site_type_symbol
 _atom_site_label
 _atom_site_symmetry_multiplicity
 _atom_site_fract_x
 _atom_site_fract_y
 _atom_site_fract_z
 _atom_site_occupancy
  Mg  Mg0  1  0.60803200  0.39196800  0.75000000  1
  Mg  Mg1  1  0.39196800  0.60803200  0.25000000  1
  Sn  Sn2  1  0.13177600  0.86822400  0.07871000  1
  Sn  Sn3  1  0.86822400  0.13177600  0.92129000  1
  Sn  Sn4  1  0.13177600  0.86822400  0.42129000  1
  Sn  Sn5  1  0.86822400  0.13177600  0.57871000  1
  O  O6  1  0.77762300  0.22237700  0.38074500  1
  O  O7  1  0.22237700  0.77762300  0.61925500  1
  O  O8  1  0.22237700  0.77762300  0.88074500  1
  O  O9  1  0.77762300  0.22237700  0.11925500  1
  O  O10  1  0.01972400  0.98027600  0.25000000  1
  O  O11  1  0.98027600  0.01972400  0.75000000  1
  O  O12  1  0.50000000  0.50000000  0.00000000  1
  O  O13  1  0.50000000  0.50000000  0.50000000  1
