# generated using pymatgen
data_MoAsO5
_symmetry_space_group_name_H-M   'P 1'
_cell_length_a   6.63207200
_cell_length_b   7.69516600
_cell_length_c   7.84534500
_cell_angle_alpha   90.00000000
_cell_angle_beta   90.00000000
_cell_angle_gamma   90.00000000
_symmetry_Int_Tables_number   1
_chemical_formula_structural   MoAsO5
_chemical_formula_sum   'Mo4 As4 O20'
_cell_volume   400.38635803
_cell_formula_units_Z   4
loop_
 _symmetry_equiv_pos_site_id
 _symmetry_equiv_pos_as_xyz
  1  'x, y, z'
loop_
 _atom_site_type_symbol
 _atom_site_label
 _atom_site_symmetry_multiplicity
 _atom_site_fract_x
 _atom_site_fract_y
 _atom_site_fract_z
 _atom_site_occupancy
  Mo  Mo0  1  0.29818100  0.73259300  0.02598900  1
  Mo  Mo1  1  0.20181900  0.26740700  0.52598900  1
  Mo  Mo2  1  0.70181900  0.23259300  0.47401100  1
  Mo  Mo3  1  0.79818100  0.76740700  0.97401100  1
  As  As4  1  0.49491500  0.12678400  0.83756000  1
  As  As5  1  0.00508500  0.87321600  0.33756000  1
  As  As6  1  0.50508500  0.62678400  0.66244000  1
  As  As7  1  0.99491500  0.37321600  0.16244000  1
  O  O8  1  0.98309300  0.87555700  0.86679100  1
  O  O9  1  0.51690700  0.12444300  0.36679100  1
  O  O10  1  0.01690700  0.37555700  0.63320900  1
  O  O11  1  0.48309300  0.62444300  0.13320900  1
  O  O12  1  0.52490300  0.90537800  0.92485300  1
  O  O13  1  0.97509700  0.09462200  0.42485300  1
  O  O14  1  0.47509700  0.40537800  0.57514700  1
  O  O15  1  0.02490300  0.59462200  0.07514700  1
  O  O16  1  0.45712800  0.27503900  0.98431200  1
  O  O17  1  0.04287200  0.72496100  0.48431200  1
  O  O18  1  0.54287200  0.77503900  0.51568800  1
  O  O19  1  0.95712800  0.22496100  0.01568800  1
  O  O20  1  0.71081900  0.13361800  0.70852700  1
  O  O21  1  0.78918100  0.86638200  0.20852700  1
  O  O22  1  0.28918100  0.63361800  0.79147300  1
  O  O23  1  0.21081900  0.36638200  0.29147300  1
  O  O24  1  0.29666400  0.08908400  0.69232800  1
  O  O25  1  0.20333600  0.91091600  0.19232800  1
  O  O26  1  0.70333600  0.58908400  0.80767200  1
  O  O27  1  0.79666400  0.41091600  0.30767200  1
