# generated using pymatgen
data_SbF5
_symmetry_space_group_name_H-M   'P 1'
_cell_length_a   5.95535646
_cell_length_b   5.95535646
_cell_length_c   8.55096000
_cell_angle_alpha   90.00000000
_cell_angle_beta   90.00000000
_cell_angle_gamma   144.29177365
_symmetry_Int_Tables_number   1
_chemical_formula_structural   SbF5
_chemical_formula_sum   'Sb2 F10'
_cell_volume   177.00628725
_cell_formula_units_Z   2
loop_
 _symmetry_equiv_pos_site_id
 _symmetry_equiv_pos_as_xyz
  1  'x, y, z'
loop_
 _atom_site_type_symbol
 _atom_site_label
 _atom_site_symmetry_multiplicity
 _atom_site_fract_x
 _atom_site_fract_y
 _atom_site_fract_z
 _atom_site_occupancy
  Sb  Sb0  1  0.50000000  0.50000000  0.50000000  1
  Sb  Sb1  1  0.50000000  0.50000000  0.00000000  1
  F  F2  1  0.51629400  0.48370600  0.25000000  1
  F  F3  1  0.48370600  0.51629400  0.75000000  1
  F  F4  1  0.92837600  0.07162400  0.59035300  1
  F  F5  1  0.07162400  0.92837600  0.40964700  1
  F  F6  1  0.65787200  0.34212800  0.93150500  1
  F  F7  1  0.34212800  0.65787200  0.06849500  1
  F  F8  1  0.34212800  0.65787200  0.43150500  1
  F  F9  1  0.65787200  0.34212800  0.56849500  1
  F  F10  1  0.92837600  0.07162400  0.90964700  1
  F  F11  1  0.07162400  0.92837600  0.09035300  1
