# generated using pymatgen
data_Zn2CoIrO6
_symmetry_space_group_name_H-M   'P 1'
_cell_length_a   5.14932800
_cell_length_b   5.13321100
_cell_length_c   9.09076250
_cell_angle_alpha   55.89143644
_cell_angle_beta   90.00000000
_cell_angle_gamma   90.00000000
_symmetry_Int_Tables_number   1
_chemical_formula_structural   Zn2CoIrO6
_chemical_formula_sum   'Zn4 Co2 Ir2 O12'
_cell_volume   198.95644452
_cell_formula_units_Z   2
loop_
 _symmetry_equiv_pos_site_id
 _symmetry_equiv_pos_as_xyz
  1  'x, y, z'
loop_
 _atom_site_type_symbol
 _atom_site_label
 _atom_site_symmetry_multiplicity
 _atom_site_fract_x
 _atom_site_fract_y
 _atom_site_fract_z
 _atom_site_occupancy
  Zn  Zn0  1  0.53236500  0.75875900  0.74886100  1
  Zn  Zn1  1  0.03236500  0.24124100  0.75113900  1
  Zn  Zn2  1  0.96763500  0.75875900  0.24886100  1
  Zn  Zn3  1  0.46763500  0.24124100  0.25113900  1
  Co  Co4  1  0.00000000  0.00000000  0.50000000  1
  Co  Co5  1  0.50000000  0.00000000  0.00000000  1
  Ir  Ir6  1  0.00000000  0.50000000  0.00000000  1
  Ir  Ir7  1  0.50000000  0.50000000  0.50000000  1
  O  O8  1  0.08443300  0.13344400  0.25238500  1
  O  O9  1  0.31900500  0.76538200  0.56145900  1
  O  O10  1  0.32523900  0.38603800  0.93499700  1
  O  O11  1  0.82523900  0.61396200  0.56500300  1
  O  O12  1  0.81900500  0.23461800  0.93854100  1
  O  O13  1  0.58443300  0.86655600  0.24761500  1
  O  O14  1  0.41556700  0.13344400  0.75238500  1
  O  O15  1  0.18099500  0.76538200  0.06145900  1
  O  O16  1  0.17476100  0.38603800  0.43499700  1
  O  O17  1  0.68099500  0.23461800  0.43854100  1
  O  O18  1  0.67476100  0.61396200  0.06500300  1
  O  O19  1  0.91556700  0.86655600  0.74761500  1
