# generated using pymatgen
data_SnO2
_symmetry_space_group_name_H-M   'P 1'
_cell_length_a   5.31633243
_cell_length_b   5.31633243
_cell_length_c   10.45971000
_cell_angle_alpha   90.00000000
_cell_angle_beta   90.00000000
_cell_angle_gamma   144.72939166
_symmetry_Int_Tables_number   1
_chemical_formula_structural   SnO2
_chemical_formula_sum   'Sn4 O8'
_cell_volume   170.70644939
_cell_formula_units_Z   4
loop_
 _symmetry_equiv_pos_site_id
 _symmetry_equiv_pos_as_xyz
  1  'x, y, z'
loop_
 _atom_site_type_symbol
 _atom_site_label
 _atom_site_symmetry_multiplicity
 _atom_site_fract_x
 _atom_site_fract_y
 _atom_site_fract_z
 _atom_site_occupancy
  Sn  Sn0  1  0.13748000  0.86252000  0.08041400  1
  Sn  Sn1  1  0.86252000  0.13748000  0.91958600  1
  Sn  Sn2  1  0.13748000  0.86252000  0.41958600  1
  Sn  Sn3  1  0.86252000  0.13748000  0.58041400  1
  O  O4  1  0.76505400  0.23494600  0.39862500  1
  O  O5  1  0.23494600  0.76505400  0.60137500  1
  O  O6  1  0.23494600  0.76505400  0.89862500  1
  O  O7  1  0.76505400  0.23494600  0.10137500  1
  O  O8  1  0.05315500  0.94684500  0.25000000  1
  O  O9  1  0.94684500  0.05315500  0.75000000  1
  O  O10  1  0.50000000  0.50000000  0.00000000  1
  O  O11  1  0.50000000  0.50000000  0.50000000  1
