# generated using pymatgen
data_MgMn2O4
_symmetry_space_group_name_H-M   'P 1'
_cell_length_a   6.02880125
_cell_length_b   6.02880125
_cell_length_c   6.02880125
_cell_angle_alpha   118.64196875
_cell_angle_beta   118.64196875
_cell_angle_gamma   92.36872695
_symmetry_Int_Tables_number   1
_chemical_formula_structural   MgMn2O4
_chemical_formula_sum   'Mg2 Mn4 O8'
_cell_volume   157.97956401
_cell_formula_units_Z   2
loop_
 _symmetry_equiv_pos_site_id
 _symmetry_equiv_pos_as_xyz
  1  'x, y, z'
loop_
 _atom_site_type_symbol
 _atom_site_label
 _atom_site_symmetry_multiplicity
 _atom_site_fract_x
 _atom_site_fract_y
 _atom_site_fract_z
 _atom_site_occupancy
  Mg  Mg0  1  0.75000000  0.25000000  0.50000000  1
  Mg  Mg1  1  0.00000000  0.00000000  0.00000000  1
  Mn  Mn2  1  0.37500000  0.12500000  0.75000000  1
  Mn  Mn3  1  0.37500000  0.62500000  0.25000000  1
  Mn  Mn4  1  0.87500000  0.62500000  0.25000000  1
  Mn  Mn5  1  0.37500000  0.62500000  0.75000000  1
  O  O6  1  0.10806000  0.87510700  0.70296600  1
  O  O7  1  0.59490700  0.89194000  0.76704700  1
  O  O8  1  0.12489300  0.82786000  0.23295300  1
  O  O9  1  0.57786000  0.84490700  0.20296600  1
  O  O10  1  0.62510700  0.42214000  0.26704700  1
  O  O11  1  0.15509300  0.35806000  0.73295300  1
  O  O12  1  0.17214000  0.40509300  0.29703400  1
  O  O13  1  0.64194000  0.37489300  0.79703400  1
