# generated using pymatgen
data_BiO2
_symmetry_space_group_name_H-M   'P 1'
_cell_length_a   3.44719200
_cell_length_b   10.59486600
_cell_length_c   12.03641200
_cell_angle_alpha   90.00000000
_cell_angle_beta   90.00000000
_cell_angle_gamma   90.00000000
_symmetry_Int_Tables_number   1
_chemical_formula_structural   BiO2
_chemical_formula_sum   'Bi8 O16'
_cell_volume   439.60030642
_cell_formula_units_Z   8
loop_
 _symmetry_equiv_pos_site_id
 _symmetry_equiv_pos_as_xyz
  1  'x, y, z'
loop_
 _atom_site_type_symbol
 _atom_site_label
 _atom_site_symmetry_multiplicity
 _atom_site_fract_x
 _atom_site_fract_y
 _atom_site_fract_z
 _atom_site_occupancy
  Bi  Bi0  1  0.00000000  0.39872400  0.65630900  1
  Bi  Bi1  1  0.50000000  0.10112900  0.15972700  1
  Bi  Bi2  1  0.00000000  0.89872400  0.34369100  1
  Bi  Bi3  1  0.50000000  0.60112900  0.84027300  1
  Bi  Bi4  1  0.50000000  0.55123500  0.36264800  1
  Bi  Bi5  1  0.00000000  0.45873000  0.11992200  1
  Bi  Bi6  1  0.50000000  0.05123500  0.63735200  1
  Bi  Bi7  1  0.00000000  0.95873000  0.88007800  1
  O  O8  1  0.00000000  0.92635500  0.70342300  1
  O  O9  1  0.50000000  0.07823300  0.82738700  1
  O  O10  1  0.00000000  0.42635500  0.29657700  1
  O  O11  1  0.50000000  0.57823300  0.17261300  1
  O  O12  1  0.00000000  0.03573200  0.04112600  1
  O  O13  1  0.50000000  0.92550300  0.45580500  1
  O  O14  1  0.00000000  0.53573200  0.95887400  1
  O  O15  1  0.50000000  0.42550300  0.54419500  1
  O  O16  1  0.00000000  0.59301900  0.71058200  1
  O  O17  1  0.50000000  0.39759700  0.77491600  1
  O  O18  1  0.00000000  0.09301900  0.28941800  1
  O  O19  1  0.50000000  0.89759700  0.22508400  1
  O  O20  1  0.50000000  0.83158100  0.90527300  1
  O  O21  1  0.00000000  0.20204700  0.63863700  1
  O  O22  1  0.00000000  0.70204700  0.36136300  1
  O  O23  1  0.50000000  0.33158100  0.09472700  1
