# generated using pymatgen
data_CaAsWO5
_symmetry_space_group_name_H-M   'P 1'
_cell_length_a   9.74458200
_cell_length_b   6.02236200
_cell_length_c   8.37836822
_cell_angle_alpha   89.43302134
_cell_angle_beta   90.00000000
_cell_angle_gamma   90.00000000
_symmetry_Int_Tables_number   1
_chemical_formula_structural   CaAsWO5
_chemical_formula_sum   'Ca4 As4 W4 O20'
_cell_volume   491.66381928
_cell_formula_units_Z   4
loop_
 _symmetry_equiv_pos_site_id
 _symmetry_equiv_pos_as_xyz
  1  'x, y, z'
loop_
 _atom_site_type_symbol
 _atom_site_label
 _atom_site_symmetry_multiplicity
 _atom_site_fract_x
 _atom_site_fract_y
 _atom_site_fract_z
 _atom_site_occupancy
  Ca  Ca0  1  0.11524700  0.28448300  0.67083800  1
  Ca  Ca1  1  0.61524700  0.71551700  0.32916200  1
  Ca  Ca2  1  0.89301400  0.22540400  0.15306300  1
  Ca  Ca3  1  0.39301400  0.77459600  0.84693700  1
  As  As4  1  0.95541700  0.77093100  0.37129000  1
  As  As5  1  0.45541700  0.22906900  0.62871000  1
  As  As6  1  0.04643000  0.73206600  0.88054100  1
  As  As7  1  0.54643000  0.26793400  0.11945900  1
  W  W8  1  0.75650300  0.96568500  0.74378200  1
  W  W9  1  0.25650300  0.03431500  0.25621800  1
  W  W10  1  0.24318500  0.53112000  0.24020100  1
  W  W11  1  0.74318500  0.46888000  0.75979900  1
  O  O12  1  0.74106900  0.70001800  0.58586500  1
  O  O13  1  0.24106900  0.29998200  0.41413500  1
  O  O14  1  0.25852300  0.80326200  0.08498800  1
  O  O15  1  0.75852300  0.19673800  0.91501200  1
  O  O16  1  0.81704000  0.85969700  0.25270600  1
  O  O17  1  0.31704000  0.14030300  0.74729400  1
  O  O18  1  0.18552500  0.63966900  0.76550100  1
  O  O19  1  0.68552500  0.36033100  0.23449900  1
  O  O20  1  0.03713100  0.55407100  0.23876000  1
  O  O21  1  0.53713100  0.44592900  0.76124000  1
  O  O22  1  0.96258100  0.94819600  0.74457800  1
  O  O23  1  0.46258100  0.05180400  0.25542200  1
  O  O24  1  0.05613000  0.01583600  0.30935100  1
  O  O25  1  0.55613000  0.98416400  0.69064900  1
  O  O26  1  0.94196300  0.48561500  0.82467600  1
  O  O27  1  0.44196300  0.51438500  0.17532400  1
  O  O28  1  0.78783800  0.23643600  0.59996300  1
  O  O29  1  0.28783800  0.76356400  0.40003700  1
  O  O30  1  0.20295800  0.26631700  0.09570800  1
  O  O31  1  0.70295800  0.73368300  0.90429200  1
