# generated using pymatgen
data_CaMoAsO5
_symmetry_space_group_name_H-M   'P 1'
_cell_length_a   6.14430200
_cell_length_b   8.26134326
_cell_length_c   9.45534759
_cell_angle_alpha   94.93658632
_cell_angle_beta   91.14652564
_cell_angle_gamma   97.10582029
_symmetry_Int_Tables_number   1
_chemical_formula_structural   CaMoAsO5
_chemical_formula_sum   'Ca4 Mo4 As4 O20'
_cell_volume   474.27402012
_cell_formula_units_Z   4
loop_
 _symmetry_equiv_pos_site_id
 _symmetry_equiv_pos_as_xyz
  1  'x, y, z'
loop_
 _atom_site_type_symbol
 _atom_site_label
 _atom_site_symmetry_multiplicity
 _atom_site_fract_x
 _atom_site_fract_y
 _atom_site_fract_z
 _atom_site_occupancy
  Ca  Ca0  1  0.27652700  0.06306700  0.89793700  1
  Ca  Ca1  1  0.74241000  0.41641700  0.41593300  1
  Ca  Ca2  1  0.25330700  0.55624600  0.12877100  1
  Ca  Ca3  1  0.73403500  0.90443100  0.56461200  1
  Mo  Mo4  1  0.56028700  0.99749800  0.22941400  1
  Mo  Mo5  1  0.43571000  0.51681100  0.76140300  1
  Mo  Mo6  1  0.95860800  0.50371100  0.76869400  1
  Mo  Mo7  1  0.05268600  0.97554400  0.25024100  1
  As  As8  1  0.67282500  0.35003400  0.04772300  1
  As  As9  1  0.33522100  0.14637400  0.55159000  1
  As  As10  1  0.79343900  0.88049100  0.91467300  1
  As  As11  1  0.20512600  0.66596200  0.47203200  1
  O  O12  1  0.84666000  0.13964100  0.21707500  1
  O  O13  1  0.13670200  0.34572600  0.72849300  1
  O  O14  1  0.72481800  0.69230900  0.81644300  1
  O  O15  1  0.28859300  0.82172800  0.23961900  1
  O  O16  1  0.60985900  0.47028300  0.19981500  1
  O  O17  1  0.40765300  0.01510700  0.67722400  1
  O  O18  1  0.89443200  0.00801100  0.79195500  1
  O  O19  1  0.11000600  0.50125900  0.34477000  1
  O  O20  1  0.91389000  0.47741600  0.97865400  1
  O  O21  1  0.08714800  0.02054800  0.46221400  1
  O  O22  1  0.56111900  0.92121600  0.00279800  1
  O  O23  1  0.44665700  0.59393200  0.55768500  1
  O  O24  1  0.43122500  0.39751900  0.94275000  1
  O  O25  1  0.56395500  0.10483500  0.43157200  1
  O  O26  1  0.01475900  0.88508600  0.02937600  1
  O  O27  1  0.95892900  0.61313800  0.58502300  1
  O  O28  1  0.33717500  0.12020200  0.17100200  1
  O  O29  1  0.67832900  0.38498100  0.69020300  1
  O  O30  1  0.22493500  0.66534200  0.83044400  1
  O  O31  1  0.74297300  0.84513700  0.29986100  1
