# generated using pymatgen
data_Mg2SbWO6
_symmetry_space_group_name_H-M   'P 1'
_cell_length_a   7.19609045
_cell_length_b   7.83691917
_cell_length_c   7.27379519
_cell_angle_alpha   81.68216075
_cell_angle_beta   132.58977438
_cell_angle_gamma   135.92841216
_symmetry_Int_Tables_number   1
_chemical_formula_structural   Mg2SbWO6
_chemical_formula_sum   'Mg2 Sb1 W1 O6'
_cell_volume   156.50661745
_cell_formula_units_Z   1
loop_
 _symmetry_equiv_pos_site_id
 _symmetry_equiv_pos_as_xyz
  1  'x, y, z'
loop_
 _atom_site_type_symbol
 _atom_site_label
 _atom_site_symmetry_multiplicity
 _atom_site_fract_x
 _atom_site_fract_y
 _atom_site_fract_z
 _atom_site_occupancy
  Mg  Mg0  1  0.06217400  0.71051800  0.32265800  1
  Mg  Mg1  1  0.83905800  0.55938200  0.67496600  1
  Sb  Sb2  1  0.83585400  0.99634500  0.39253900  1
  W  W3  1  0.02348000  0.96365300  0.00036700  1
  O  O4  1  0.25977700  0.07717800  0.40368200  1
  O  O5  1  0.89291400  0.85030400  0.65145000  1
  O  O6  1  0.67690800  0.42517100  0.32301600  1
  O  O7  1  0.65151800  0.93748400  0.77094200  1
  O  O8  1  0.27671500  0.83490100  0.15598200  1
  O  O9  1  0.45850800  0.46772400  0.79506200  1
