# generated using pymatgen
data_Mg2VIrO6
_symmetry_space_group_name_H-M   'P 1'
_cell_length_a   5.27546900
_cell_length_b   5.11526100
_cell_length_c   9.03851202
_cell_angle_alpha   55.72667628
_cell_angle_beta   90.00000000
_cell_angle_gamma   90.00000000
_symmetry_Int_Tables_number   1
_chemical_formula_structural   Mg2VIrO6
_chemical_formula_sum   'Mg4 V2 Ir2 O12'
_cell_volume   201.55584780
_cell_formula_units_Z   2
loop_
 _symmetry_equiv_pos_site_id
 _symmetry_equiv_pos_as_xyz
  1  'x, y, z'
loop_
 _atom_site_type_symbol
 _atom_site_label
 _atom_site_symmetry_multiplicity
 _atom_site_fract_x
 _atom_site_fract_y
 _atom_site_fract_z
 _atom_site_occupancy
  Mg  Mg0  1  0.93776700  0.23854400  0.74998700  1
  Mg  Mg1  1  0.43776700  0.76145600  0.75001300  1
  Mg  Mg2  1  0.56223300  0.23854400  0.24998700  1
  Mg  Mg3  1  0.06223300  0.76145600  0.25001300  1
  V  V4  1  0.50000000  0.00000000  0.00000000  1
  V  V5  1  0.00000000  0.00000000  0.50000000  1
  Ir  Ir6  1  0.50000000  0.50000000  0.50000000  1
  Ir  Ir7  1  0.00000000  0.50000000  0.00000000  1
  O  O8  1  0.44138400  0.62372100  0.24251800  1
  O  O9  1  0.19371300  0.89861700  0.93086700  1
  O  O10  1  0.17727700  0.24243900  0.56600100  1
  O  O11  1  0.67727700  0.75756100  0.93399900  1
  O  O12  1  0.69371300  0.10138300  0.56913300  1
  O  O13  1  0.94138400  0.37627900  0.25748200  1
  O  O14  1  0.05861600  0.62372100  0.74251800  1
  O  O15  1  0.30628700  0.89861700  0.43086700  1
  O  O16  1  0.32272300  0.24243900  0.06600100  1
  O  O17  1  0.80628700  0.10138300  0.06913300  1
  O  O18  1  0.82272300  0.75756100  0.43399900  1
  O  O19  1  0.55861600  0.37627900  0.75748200  1
