# generated using pymatgen
data_MgBiAsO5
_symmetry_space_group_name_H-M   'P 1'
_cell_length_a   7.09421200
_cell_length_b   7.49625400
_cell_length_c   8.97062400
_cell_angle_alpha   90.00000000
_cell_angle_beta   90.00000000
_cell_angle_gamma   90.00000000
_symmetry_Int_Tables_number   1
_chemical_formula_structural   MgBiAsO5
_chemical_formula_sum   'Mg4 Bi4 As4 O20'
_cell_volume   477.05791961
_cell_formula_units_Z   4
loop_
 _symmetry_equiv_pos_site_id
 _symmetry_equiv_pos_as_xyz
  1  'x, y, z'
loop_
 _atom_site_type_symbol
 _atom_site_label
 _atom_site_symmetry_multiplicity
 _atom_site_fract_x
 _atom_site_fract_y
 _atom_site_fract_z
 _atom_site_occupancy
  Mg  Mg0  1  0.58557900  0.19603400  0.56258700  1
  Mg  Mg1  1  0.91442100  0.80396600  0.06258700  1
  Mg  Mg2  1  0.08557900  0.30396600  0.43741300  1
  Mg  Mg3  1  0.41442100  0.69603400  0.93741300  1
  Bi  Bi4  1  0.53158800  0.96242900  0.22652200  1
  Bi  Bi5  1  0.96841200  0.03757100  0.72652200  1
  Bi  Bi6  1  0.03158800  0.53757100  0.77347800  1
  Bi  Bi7  1  0.46841200  0.46242900  0.27347800  1
  As  As8  1  0.10525900  0.77781100  0.40095500  1
  As  As9  1  0.39474100  0.22218900  0.90095500  1
  As  As10  1  0.60525900  0.72218900  0.59904500  1
  As  As11  1  0.89474100  0.27781100  0.09904500  1
  O  O12  1  0.30528400  0.75728100  0.28716900  1
  O  O13  1  0.19471600  0.24271900  0.78716900  1
  O  O14  1  0.80528400  0.74271900  0.71283100  1
  O  O15  1  0.69471600  0.25728100  0.21283100  1
  O  O16  1  0.92605700  0.82867800  0.28206500  1
  O  O17  1  0.57394300  0.17132200  0.78206500  1
  O  O18  1  0.42605700  0.67132200  0.71793500  1
  O  O19  1  0.07394300  0.32867800  0.21793500  1
  O  O20  1  0.09299200  0.57548900  0.49007300  1
  O  O21  1  0.40700800  0.42451100  0.99007300  1
  O  O22  1  0.59299200  0.92451100  0.50992700  1
  O  O23  1  0.90700800  0.07548900  0.00992700  1
  O  O24  1  0.14395800  0.94930200  0.52562700  1
  O  O25  1  0.35604200  0.05069800  0.02562700  1
  O  O26  1  0.64395800  0.55069800  0.47437300  1
  O  O27  1  0.85604200  0.44930200  0.97437300  1
  O  O28  1  0.37266200  0.26635000  0.42830000  1
  O  O29  1  0.12733800  0.73365000  0.92830000  1
  O  O30  1  0.87266200  0.23365000  0.57170000  1
  O  O31  1  0.62733800  0.76635000  0.07170000  1
