# generated using pymatgen
data_Mg3Mn3(AsO4)4
_symmetry_space_group_name_H-M   'P 1'
_cell_length_a   5.26785800
_cell_length_b   8.71378800
_cell_length_c   16.45687690
_cell_angle_alpha   67.56233131
_cell_angle_beta   90.00000000
_cell_angle_gamma   90.00000000
_symmetry_Int_Tables_number   1
_chemical_formula_structural   Mg3Mn3(AsO4)4
_chemical_formula_sum   'Mg6 Mn6 As8 O32'
_cell_volume   698.23114257
_cell_formula_units_Z   2
loop_
 _symmetry_equiv_pos_site_id
 _symmetry_equiv_pos_as_xyz
  1  'x, y, z'
loop_
 _atom_site_type_symbol
 _atom_site_label
 _atom_site_symmetry_multiplicity
 _atom_site_fract_x
 _atom_site_fract_y
 _atom_site_fract_z
 _atom_site_occupancy
  Mg  Mg0  1  0.55163600  0.31672400  0.21036100  1
  Mg  Mg1  1  0.05163600  0.68327600  0.28963900  1
  Mg  Mg2  1  0.44836400  0.68327600  0.78963900  1
  Mg  Mg3  1  0.94836400  0.31672400  0.71036100  1
  Mg  Mg4  1  0.50000000  0.00000000  0.50000000  1
  Mg  Mg5  1  0.00000000  0.00000000  0.00000000  1
  Mn  Mn6  1  0.49689700  0.19532600  0.62543600  1
  Mn  Mn7  1  0.50310300  0.80467400  0.37456400  1
  Mn  Mn8  1  0.99689700  0.80467400  0.87456400  1
  Mn  Mn9  1  0.00310300  0.19532600  0.12543600  1
  Mn  Mn10  1  0.00000000  0.50000000  0.50000000  1
  Mn  Mn11  1  0.50000000  0.50000000  0.00000000  1
  As  As12  1  0.98231900  0.03192300  0.35281000  1
  As  As13  1  0.50397600  0.41707200  0.39254300  1
  As  As14  1  0.00397600  0.58292800  0.10745700  1
  As  As15  1  0.99602400  0.41707200  0.89254300  1
  As  As16  1  0.01768100  0.96807700  0.64719000  1
  As  As17  1  0.49602400  0.58292800  0.60745700  1
  As  As18  1  0.51768100  0.03192300  0.85281000  1
  As  As19  1  0.48231900  0.96807700  0.14719000  1
  O  O20  1  0.39053100  0.82009100  0.24813000  1
  O  O21  1  0.95424200  0.75196100  0.01224800  1
  O  O22  1  0.42112900  0.39492000  0.29919500  1
  O  O23  1  0.40113300  0.16257200  0.15030900  1
  O  O24  1  0.57887100  0.60508000  0.70080500  1
  O  O25  1  0.10946900  0.82009100  0.74813000  1
  O  O26  1  0.92112900  0.60508000  0.20080500  1
  O  O27  1  0.70041400  0.50468000  0.89013100  1
  O  O28  1  0.68710100  0.07241600  0.92846500  1
  O  O29  1  0.60946900  0.17990900  0.75187000  1
  O  O30  1  0.09886700  0.16257200  0.65030900  1
  O  O31  1  0.29958600  0.49532000  0.10986900  1
  O  O32  1  0.29432000  0.56935100  0.40188500  1
  O  O33  1  0.31289900  0.92758400  0.07153500  1
  O  O34  1  0.69392300  0.97745600  0.62921200  1
  O  O35  1  0.19392300  0.02254400  0.87078800  1
  O  O36  1  0.79432000  0.43064900  0.09811500  1
  O  O37  1  0.07887100  0.39492000  0.79919500  1
  O  O38  1  0.18710100  0.92758400  0.57153500  1
  O  O39  1  0.20041400  0.49532000  0.60986900  1
  O  O40  1  0.80607700  0.97745600  0.12921200  1
  O  O41  1  0.30607700  0.02254400  0.37078800  1
  O  O42  1  0.04575800  0.24803900  0.98775200  1
  O  O43  1  0.45424200  0.24803900  0.48775200  1
  O  O44  1  0.70568000  0.43064900  0.59811500  1
  O  O45  1  0.89053100  0.17990900  0.25187000  1
  O  O46  1  0.59886700  0.83742800  0.84969100  1
  O  O47  1  0.81289900  0.07241600  0.42846500  1
  O  O48  1  0.54575800  0.75196100  0.51224800  1
  O  O49  1  0.79958600  0.50468000  0.39013100  1
  O  O50  1  0.20568000  0.56935100  0.90188500  1
  O  O51  1  0.90113300  0.83742800  0.34969100  1
