# generated using pymatgen
data_Mg(SnO2)2
_symmetry_space_group_name_H-M   'P 1'
_cell_length_a   10.75709600
_cell_length_b   3.17652700
_cell_length_c   12.09013312
_cell_angle_alpha   76.53596299
_cell_angle_beta   90.00000000
_cell_angle_gamma   90.00000000
_symmetry_Int_Tables_number   1
_chemical_formula_structural   Mg(SnO2)2
_chemical_formula_sum   'Mg4 Sn8 O16'
_cell_volume   401.76818944
_cell_formula_units_Z   4
loop_
 _symmetry_equiv_pos_site_id
 _symmetry_equiv_pos_as_xyz
  1  'x, y, z'
loop_
 _atom_site_type_symbol
 _atom_site_label
 _atom_site_symmetry_multiplicity
 _atom_site_fract_x
 _atom_site_fract_y
 _atom_site_fract_z
 _atom_site_occupancy
  Mg  Mg0  1  0.16119500  0.55782700  0.69027100  1
  Mg  Mg1  1  0.33880500  0.55782700  0.19027100  1
  Mg  Mg2  1  0.66119500  0.44217300  0.80972900  1
  Mg  Mg3  1  0.83880500  0.44217300  0.30972900  1
  Sn  Sn4  1  0.39362600  0.17985000  0.57622700  1
  Sn  Sn5  1  0.10637400  0.17985000  0.07622700  1
  Sn  Sn6  1  0.61940300  0.91079500  0.11197800  1
  Sn  Sn7  1  0.11940300  0.08920500  0.38802200  1
  Sn  Sn8  1  0.60637400  0.82015000  0.42377300  1
  Sn  Sn9  1  0.38059700  0.08920500  0.88802200  1
  Sn  Sn10  1  0.89362600  0.82015000  0.92377300  1
  Sn  Sn11  1  0.88059700  0.91079500  0.61197800  1
  O  O12  1  0.55098900  0.91796300  0.83903800  1
  O  O13  1  0.44901100  0.08203700  0.16096200  1
  O  O14  1  0.22567100  0.71481600  0.03745400  1
  O  O15  1  0.02444900  0.33683600  0.90303700  1
  O  O16  1  0.05098900  0.08203700  0.66096200  1
  O  O17  1  0.20576800  0.04289000  0.23180500  1
  O  O18  1  0.97555100  0.66316400  0.09696300  1
  O  O19  1  0.70576800  0.95711000  0.26819500  1
  O  O20  1  0.27432900  0.71481600  0.53745400  1
  O  O21  1  0.77432900  0.28518400  0.96254600  1
  O  O22  1  0.52444900  0.66316400  0.59696300  1
  O  O23  1  0.79423200  0.95711000  0.76819500  1
  O  O24  1  0.29423200  0.04289000  0.73180500  1
  O  O25  1  0.72567100  0.28518400  0.46254600  1
  O  O26  1  0.94901100  0.91796300  0.33903800  1
  O  O27  1  0.47555100  0.33683600  0.40303700  1
