# generated using pymatgen
data_Mo3(AsO4)4
_symmetry_space_group_name_H-M   'P 1'
_cell_length_a   4.94292000
_cell_length_b   8.76611800
_cell_length_c   15.86774638
_cell_angle_alpha   81.06444099
_cell_angle_beta   90.00000000
_cell_angle_gamma   90.00000000
_symmetry_Int_Tables_number   1
_chemical_formula_structural   Mo3(AsO4)4
_chemical_formula_sum   'Mo6 As8 O32'
_cell_volume   679.20856440
_cell_formula_units_Z   2
loop_
 _symmetry_equiv_pos_site_id
 _symmetry_equiv_pos_as_xyz
  1  'x, y, z'
loop_
 _atom_site_type_symbol
 _atom_site_label
 _atom_site_symmetry_multiplicity
 _atom_site_fract_x
 _atom_site_fract_y
 _atom_site_fract_z
 _atom_site_occupancy
  Mo  Mo0  1  0.44788700  0.21865500  0.61449200  1
  Mo  Mo1  1  0.55211300  0.78134500  0.38550800  1
  Mo  Mo2  1  0.94788700  0.78134500  0.88550800  1
  Mo  Mo3  1  0.05211300  0.21865500  0.11449200  1
  Mo  Mo4  1  0.00000000  0.50000000  0.50000000  1
  Mo  Mo5  1  0.50000000  0.50000000  0.00000000  1
  As  As6  1  0.01449700  0.18769100  0.33418200  1
  As  As7  1  0.47338400  0.39290600  0.39494200  1
  As  As8  1  0.97338400  0.60709400  0.10505800  1
  As  As9  1  0.02661600  0.39290600  0.89494200  1
  As  As10  1  0.98550300  0.81230900  0.66581800  1
  As  As11  1  0.52661600  0.60709400  0.60505800  1
  As  As12  1  0.48550300  0.18769100  0.83418200  1
  As  As13  1  0.51449700  0.81230900  0.16581800  1
  O  O14  1  0.39938700  0.77473700  0.27366900  1
  O  O15  1  0.78090100  0.69280100  0.01265000  1
  O  O16  1  0.24161200  0.37336900  0.31417100  1
  O  O17  1  0.36155000  0.13527800  0.14477800  1
  O  O18  1  0.75838800  0.62663100  0.68582900  1
  O  O19  1  0.10061300  0.77473700  0.77366900  1
  O  O20  1  0.74161200  0.62663100  0.18582900  1
  O  O21  1  0.74869100  0.52400000  0.89127400  1
  O  O22  1  0.79721800  0.23479900  0.88783000  1
  O  O23  1  0.60061300  0.22526300  0.72633100  1
  O  O24  1  0.13845000  0.13527800  0.64477800  1
  O  O25  1  0.25130900  0.47600000  0.10872600  1
  O  O26  1  0.28821000  0.58556600  0.42179200  1
  O  O27  1  0.20278200  0.76520100  0.11217000  1
  O  O28  1  0.63047100  0.07789400  0.57667400  1
  O  O29  1  0.13047100  0.92210600  0.92332600  1
  O  O30  1  0.78821000  0.41443400  0.07820800  1
  O  O31  1  0.25838800  0.37336900  0.81417100  1
  O  O32  1  0.29721800  0.76520100  0.61217000  1
  O  O33  1  0.24869100  0.47600000  0.60872600  1
  O  O34  1  0.86952900  0.07789400  0.07667400  1
  O  O35  1  0.36952900  0.92210600  0.42332600  1
  O  O36  1  0.21909900  0.30719900  0.98735000  1
  O  O37  1  0.28090100  0.30719900  0.48735000  1
  O  O38  1  0.71179000  0.41443400  0.57820800  1
  O  O39  1  0.89938700  0.22526300  0.22633100  1
  O  O40  1  0.63845000  0.86472200  0.85522200  1
  O  O41  1  0.70278200  0.23479900  0.38783000  1
  O  O42  1  0.71909900  0.69280100  0.51265000  1
  O  O43  1  0.75130900  0.52400000  0.39127400  1
  O  O44  1  0.21179000  0.58556600  0.92179200  1
  O  O45  1  0.86155000  0.86472200  0.35522200  1
