# generated using pymatgen
data_WO2
_symmetry_space_group_name_H-M   'P 1'
_cell_length_a   5.31186150
_cell_length_b   5.31186150
_cell_length_c   10.58558200
_cell_angle_alpha   90.00000000
_cell_angle_beta   90.00000000
_cell_angle_gamma   144.53252390
_symmetry_Int_Tables_number   1
_chemical_formula_structural   WO2
_chemical_formula_sum   'W4 O8'
_cell_volume   173.30713270
_cell_formula_units_Z   4
loop_
 _symmetry_equiv_pos_site_id
 _symmetry_equiv_pos_as_xyz
  1  'x, y, z'
loop_
 _atom_site_type_symbol
 _atom_site_label
 _atom_site_symmetry_multiplicity
 _atom_site_fract_x
 _atom_site_fract_y
 _atom_site_fract_z
 _atom_site_occupancy
  W  W0  1  0.13301600  0.86698400  0.07509300  1
  W  W1  1  0.86698400  0.13301600  0.92490700  1
  W  W2  1  0.13301600  0.86698400  0.42490700  1
  W  W3  1  0.86698400  0.13301600  0.57509300  1
  O  O4  1  0.75868400  0.24131600  0.40365500  1
  O  O5  1  0.24131600  0.75868400  0.59634500  1
  O  O6  1  0.24131600  0.75868400  0.90365500  1
  O  O7  1  0.75868400  0.24131600  0.09634500  1
  O  O8  1  0.08300800  0.91699200  0.25000000  1
  O  O9  1  0.91699200  0.08300800  0.75000000  1
  O  O10  1  0.50000000  0.50000000  0.00000000  1
  O  O11  1  0.50000000  0.50000000  0.50000000  1
