# generated using pymatgen
data_Zn(MoO2)2
_symmetry_space_group_name_H-M   'P 1'
_cell_length_a   6.20684100
_cell_length_b   6.49658221
_cell_length_c   15.27811679
_cell_angle_alpha   91.16853538
_cell_angle_beta   91.85569893
_cell_angle_gamma   118.06707807
_symmetry_Int_Tables_number   1
_chemical_formula_structural   Zn(MoO2)2
_chemical_formula_sum   'Zn6 Mo12 O24'
_cell_volume   542.88403002
_cell_formula_units_Z   6
loop_
 _symmetry_equiv_pos_site_id
 _symmetry_equiv_pos_as_xyz
  1  'x, y, z'
loop_
 _atom_site_type_symbol
 _atom_site_label
 _atom_site_symmetry_multiplicity
 _atom_site_fract_x
 _atom_site_fract_y
 _atom_site_fract_z
 _atom_site_occupancy
  Zn  Zn0  1  0.83716500  0.66175500  0.95970500  1
  Zn  Zn1  1  0.16057000  0.33141200  0.66363600  1
  Zn  Zn2  1  0.32831500  0.16185000  0.83467000  1
  Zn  Zn3  1  0.83742400  0.67208600  0.33488000  1
  Zn  Zn4  1  0.00034700  0.48998300  0.49424300  1
  Zn  Zn5  1  0.67823700  0.83582900  0.16994600  1
  Mo  Mo6  1  0.82729700  0.16961300  0.83150600  1
  Mo  Mo7  1  0.49321500  0.97815400  0.60481700  1
  Mo  Mo8  1  0.50192600  0.00459000  0.99856000  1
  Mo  Mo9  1  0.33078000  0.67152200  0.83090000  1
  Mo  Mo10  1  0.49385600  0.49588100  0.50008200  1
  Mo  Mo11  1  0.18403200  0.31881900  0.28584200  1
  Mo  Mo12  1  0.99534700  0.99621900  0.50178700  1
  Mo  Mo13  1  0.17353200  0.83135500  0.16939300  1
  Mo  Mo14  1  0.82442400  0.67607600  0.71402200  1
  Mo  Mo15  1  0.67684600  0.33594000  0.16966000  1
  Mo  Mo16  1  0.49990900  0.01709100  0.39304400  1
  Mo  Mo17  1  0.17161200  0.35023000  0.04639800  1
  O  O18  1  0.65342800  0.31063300  0.91581300  1
  O  O19  1  0.48403000  0.98573600  0.75621600  1
  O  O20  1  0.17925200  0.84587500  0.91058300  1
  O  O21  1  0.66870700  0.85701900  0.91025600  1
  O  O22  1  0.30694100  0.61849000  0.58690900  1
  O  O23  1  0.98771800  0.48778300  0.75314000  1
  O  O24  1  0.15442400  0.29387400  0.42207200  1
  O  O25  1  0.48822400  0.49768000  0.75277300  1
  O  O26  1  0.86262100  0.20507400  0.57436000  1
  O  O27  1  0.17783700  0.35702700  0.90619300  1
  O  O28  1  0.33417600  0.19779100  0.58017400  1
  O  O29  1  0.00233900  0.01908100  0.74869200  1
  O  O30  1  0.99197700  0.95916300  0.25713300  1
  O  O31  1  0.65737700  0.79820300  0.42296500  1
  O  O32  1  0.13344000  0.79357100  0.42897300  1
  O  O33  1  0.52331800  0.52780300  0.23702000  1
  O  O34  1  0.83206400  0.64856000  0.09124800  1
  O  O35  1  0.82459400  0.69036800  0.58448100  1
  O  O36  1  0.02092900  0.52144900  0.24331300  1
  O  O37  1  0.68273400  0.37965000  0.41094400  1
  O  O38  1  0.33004600  0.13981700  0.08997400  1
  O  O39  1  0.81839100  0.13852000  0.09186700  1
  O  O40  1  0.51782900  0.02220700  0.24552100  1
  O  O41  1  0.35276900  0.70622100  0.07628700  1
