# generated using pymatgen
data_Mg(FeS2)4
_symmetry_space_group_name_H-M   'P 1'
_cell_length_a   6.77277848
_cell_length_b   6.77277848
_cell_length_c   6.77277875
_cell_angle_alpha   59.67809981
_cell_angle_beta   59.67809981
_cell_angle_gamma   59.67809289
_symmetry_Int_Tables_number   1
_chemical_formula_structural   Mg(FeS2)4
_chemical_formula_sum   'Mg1 Fe4 S8'
_cell_volume   218.07103322
_cell_formula_units_Z   1
loop_
 _symmetry_equiv_pos_site_id
 _symmetry_equiv_pos_as_xyz
  1  'x, y, z'
loop_
 _atom_site_type_symbol
 _atom_site_label
 _atom_site_symmetry_multiplicity
 _atom_site_fract_x
 _atom_site_fract_y
 _atom_site_fract_z
 _atom_site_occupancy
  Mg  Mg0  1  0.00000000  0.00000000  0.00000000  1
  Fe  Fe1  1  0.50000000  0.50000000  0.50000000  1
  Fe  Fe2  1  0.00000000  0.50000000  0.50000000  1
  Fe  Fe3  1  0.50000000  0.00000000  0.50000000  1
  Fe  Fe4  1  0.50000000  0.50000000  0.00000000  1
  S  S5  1  0.26222400  0.71755200  0.26222400  1
  S  S6  1  0.71755200  0.26222400  0.26222400  1
  S  S7  1  0.26222400  0.26222400  0.71755200  1
  S  S8  1  0.25935000  0.25935000  0.25935000  1
  S  S9  1  0.74065000  0.74065000  0.74065000  1
  S  S10  1  0.28244800  0.73777600  0.73777600  1
  S  S11  1  0.73777600  0.73777600  0.28244800  1
  S  S12  1  0.73777600  0.28244800  0.73777600  1
