# generated using pymatgen
data_Zn(WO2)2
_symmetry_space_group_name_H-M   'P 1'
_cell_length_a   6.39755615
_cell_length_b   6.39755615
_cell_length_c   21.04526950
_cell_angle_alpha   80.97601221
_cell_angle_beta   80.97601221
_cell_angle_gamma   58.40602120
_symmetry_Int_Tables_number   1
_chemical_formula_structural   Zn(WO2)2
_chemical_formula_sum   'Zn8 W16 O32'
_cell_volume   721.74597518
_cell_formula_units_Z   8
loop_
 _symmetry_equiv_pos_site_id
 _symmetry_equiv_pos_as_xyz
  1  'x, y, z'
loop_
 _atom_site_type_symbol
 _atom_site_label
 _atom_site_symmetry_multiplicity
 _atom_site_fract_x
 _atom_site_fract_y
 _atom_site_fract_z
 _atom_site_occupancy
  Zn  Zn0  1  0.64274400  0.64274400  0.02880400  1
  Zn  Zn1  1  0.12114900  0.12114900  0.12393100  1
  Zn  Zn2  1  0.90977100  0.90977100  0.27909600  1
  Zn  Zn3  1  0.39619900  0.39619900  0.37266200  1
  Zn  Zn4  1  0.60502800  0.60502800  0.63034500  1
  Zn  Zn5  1  0.52566400  0.52566400  0.48955100  1
  Zn  Zn6  1  0.86839500  0.86839500  0.87979700  1
  Zn  Zn7  1  0.74307500  0.74307500  0.75111900  1
  W  W8  1  0.61884200  0.11491000  0.12391600  1
  W  W9  1  0.25259000  0.25259000  0.25486700  1
  W  W10  1  0.11491000  0.61884200  0.12391600  1
  W  W11  1  0.12182700  0.12182700  0.55027200  1
  W  W12  1  0.91006500  0.38492900  0.37325500  1
  W  W13  1  0.59089100  0.59089100  0.21239000  1
  W  W14  1  0.38111800  0.38111800  0.82062100  1
  W  W15  1  0.38492900  0.91006500  0.37325500  1
  W  W16  1  0.10567200  0.64458000  0.61193300  1
  W  W17  1  0.88684500  0.88684500  0.47683100  1
  W  W18  1  0.64458000  0.10567200  0.61193300  1
  W  W19  1  0.92153100  0.33767600  0.87637200  1
  W  W20  1  0.33767600  0.92153100  0.87637200  1
  W  W21  1  0.10017900  0.10017900  0.68791300  1
  W  W22  1  0.98477300  0.98477300  0.01400200  1
  W  W23  1  0.34084800  0.34084800  0.95705300  1
  O  O24  1  0.29549600  0.80620400  0.07216600  1
  O  O25  1  0.93453300  0.93453300  0.18281300  1
  O  O26  1  0.80620400  0.29549600  0.07216600  1
  O  O27  1  0.79715300  0.79715300  0.06818900  1
  O  O28  1  0.42233700  0.42233700  0.18498700  1
  O  O29  1  0.55682300  0.09855500  0.31498900  1
  O  O30  1  0.41461000  0.96260800  0.19084500  1
  O  O31  1  0.20682600  0.20682600  0.43287100  1
  O  O32  1  0.09855500  0.55682300  0.31498900  1
  O  O33  1  0.30116200  0.30116200  0.06904700  1
  O  O34  1  0.07216600  0.07216600  0.31551600  1
  O  O35  1  0.96260800  0.41461000  0.19084500  1
  O  O36  1  0.75707900  0.34945700  0.55972000  1
  O  O37  1  0.69770400  0.69770400  0.42795300  1
  O  O38  1  0.70061600  0.22489400  0.43084500  1
  O  O39  1  0.42085600  0.42085600  0.66314300  1
  O  O40  1  0.34945700  0.75707900  0.55972000  1
  O  O41  1  0.59264100  0.59264100  0.32085300  1
  O  O42  1  0.30971200  0.30971200  0.55733200  1
  O  O43  1  0.22489400  0.70061600  0.43084500  1
  O  O44  1  0.91833600  0.91833600  0.68511500  1
  O  O45  1  0.01333500  0.57953100  0.81448100  1
  O  O46  1  0.92675800  0.47116100  0.67917700  1
  O  O47  1  0.68814900  0.68814900  0.92947700  1
  O  O48  1  0.57953100  0.01333500  0.81448100  1
  O  O49  1  0.77503100  0.77503100  0.56403100  1
  O  O50  1  0.56954600  0.56954600  0.81937700  1
  O  O51  1  0.47116100  0.92675800  0.67917700  1
  O  O52  1  0.16017800  0.16017800  0.95631700  1
  O  O53  1  0.19029300  0.73289600  0.94009500  1
  O  O54  1  0.04400100  0.04400100  0.81813400  1
  O  O55  1  0.73289600  0.19029300  0.94009500  1
