# generated using pymatgen
data_Zn(SnO2)2
_symmetry_space_group_name_H-M   'P 1'
_cell_length_a   6.52024415
_cell_length_b   6.52024415
_cell_length_c   6.52024415
_cell_angle_alpha   121.54452726
_cell_angle_beta   113.37282684
_cell_angle_gamma   94.59582983
_symmetry_Int_Tables_number   1
_chemical_formula_structural   Zn(SnO2)2
_chemical_formula_sum   'Zn2 Sn4 O8'
_cell_volume   201.65948580
_cell_formula_units_Z   2
loop_
 _symmetry_equiv_pos_site_id
 _symmetry_equiv_pos_as_xyz
  1  'x, y, z'
loop_
 _atom_site_type_symbol
 _atom_site_label
 _atom_site_symmetry_multiplicity
 _atom_site_fract_x
 _atom_site_fract_y
 _atom_site_fract_z
 _atom_site_occupancy
  Zn  Zn0  1  0.50000000  0.50000000  0.00000000  1
  Zn  Zn1  1  0.00000000  0.50000000  0.50000000  1
  Sn  Sn2  1  0.61120600  0.86120600  0.75000000  1
  Sn  Sn3  1  0.38879400  0.13879400  0.25000000  1
  Sn  Sn4  1  0.00000000  0.00000000  0.50000000  1
  Sn  Sn5  1  0.00000000  0.50000000  0.00000000  1
  O  O6  1  0.23493800  0.25220500  0.51726700  1
  O  O7  1  0.21008100  0.26509400  0.94498700  1
  O  O8  1  0.23493800  0.71767200  0.98273300  1
  O  O9  1  0.82010700  0.26509400  0.55501300  1
  O  O10  1  0.17989300  0.73490600  0.44498700  1
  O  O11  1  0.78991900  0.73490600  0.05501300  1
  O  O12  1  0.76506200  0.28232800  0.01726700  1
  O  O13  1  0.76506200  0.74779500  0.48273300  1
