# generated using pymatgen
data_YMo(WO4)2
_symmetry_space_group_name_H-M   'P 1'
_cell_length_a   5.19523100
_cell_length_b   5.98008115
_cell_length_c   6.41526732
_cell_angle_alpha   117.07548697
_cell_angle_beta   109.72885837
_cell_angle_gamma   88.18350163
_symmetry_Int_Tables_number   1
_chemical_formula_structural   YMo(WO4)2
_chemical_formula_sum   'Y1 Mo1 W2 O8'
_cell_volume   165.27128268
_cell_formula_units_Z   1
loop_
 _symmetry_equiv_pos_site_id
 _symmetry_equiv_pos_as_xyz
  1  'x, y, z'
loop_
 _atom_site_type_symbol
 _atom_site_label
 _atom_site_symmetry_multiplicity
 _atom_site_fract_x
 _atom_site_fract_y
 _atom_site_fract_z
 _atom_site_occupancy
  Y  Y0  1  0.48385400  0.33649900  0.88888400  1
  Mo  Mo1  1  0.03222700  0.78845000  0.90705600  1
  W  W2  1  0.29428900  0.59923500  0.40560900  1
  W  W3  1  0.78056000  0.93776600  0.39346600  1
  O  O4  1  0.30418800  0.28824200  0.15385800  1
  O  O5  1  0.26304500  0.54186900  0.67723900  1
  O  O6  1  0.39135800  0.75230400  0.19034200  1
  O  O7  1  0.17312000  0.97171200  0.58710400  1
  O  O8  1  0.80285800  0.01408800  0.15449200  1
  O  O9  1  0.72198800  0.23763900  0.62550400  1
  O  O10  1  0.67934300  0.77923500  0.60538900  1
  O  O11  1  0.87307300  0.57446400  0.21496300  1
