# generated using pymatgen
data_MgTa2CuO7
_symmetry_space_group_name_H-M   'P 1'
_cell_length_a   8.31430600
_cell_length_b   10.78756000
_cell_length_c   10.82389758
_cell_angle_alpha   84.36245479
_cell_angle_beta   90.00000000
_cell_angle_gamma   90.00000000
_symmetry_Int_Tables_number   1
_chemical_formula_structural   MgTa2CuO7
_chemical_formula_sum   'Mg6 Ta12 Cu6 O42'
_cell_volume   966.11144867
_cell_formula_units_Z   6
loop_
 _symmetry_equiv_pos_site_id
 _symmetry_equiv_pos_as_xyz
  1  'x, y, z'
loop_
 _atom_site_type_symbol
 _atom_site_label
 _atom_site_symmetry_multiplicity
 _atom_site_fract_x
 _atom_site_fract_y
 _atom_site_fract_z
 _atom_site_occupancy
  Mg  Mg0  1  0.44103100  0.57347000  0.87043600  1
  Mg  Mg1  1  0.94711300  0.75000000  0.50000000  1
  Mg  Mg2  1  0.44103100  0.92653000  0.12956400  1
  Mg  Mg3  1  0.05288700  0.25000000  0.50000000  1
  Mg  Mg4  1  0.55896900  0.42653000  0.12956400  1
  Mg  Mg5  1  0.55896900  0.07347000  0.87043600  1
  Ta  Ta6  1  0.20781800  0.29032200  0.82696200  1
  Ta  Ta7  1  0.75194100  0.37307400  0.83534300  1
  Ta  Ta8  1  0.24805900  0.87307400  0.83534300  1
  Ta  Ta9  1  0.79218200  0.79032200  0.82696200  1
  Ta  Ta10  1  0.29187900  0.97230200  0.51009400  1
  Ta  Ta11  1  0.75194100  0.12692600  0.16465700  1
  Ta  Ta12  1  0.70812100  0.47230200  0.51009400  1
  Ta  Ta13  1  0.24805900  0.62692600  0.16465700  1
  Ta  Ta14  1  0.29187900  0.52769800  0.48990600  1
  Ta  Ta15  1  0.70812100  0.02769800  0.48990600  1
  Ta  Ta16  1  0.79218200  0.70967800  0.17303800  1
  Ta  Ta17  1  0.20781800  0.20967800  0.17303800  1
  Cu  Cu18  1  0.90913700  0.41920800  0.21021300  1
  Cu  Cu19  1  0.09086300  0.58079200  0.78978700  1
  Cu  Cu20  1  0.41332000  0.25000000  0.50000000  1
  Cu  Cu21  1  0.90913700  0.08079200  0.78978700  1
  Cu  Cu22  1  0.58668000  0.75000000  0.50000000  1
  Cu  Cu23  1  0.09086300  0.91920800  0.21021300  1
  O  O24  1  0.72742700  0.96250500  0.79479700  1
  O  O25  1  0.74882000  0.30098200  0.15473100  1
  O  O26  1  0.84196300  0.75000000  0.00000000  1
  O  O27  1  0.89007000  0.11456600  0.50838600  1
  O  O28  1  0.39212100  0.56330300  0.05731800  1
  O  O29  1  0.93605600  0.70621700  0.72759000  1
  O  O30  1  0.33381400  0.94284200  0.68438500  1
  O  O31  1  0.10993000  0.61456600  0.50838600  1
  O  O32  1  0.75766600  0.85951600  0.54778100  1
  O  O33  1  0.39212100  0.93669700  0.94268200  1
  O  O34  1  0.75766600  0.64048400  0.45221900  1
  O  O35  1  0.46014400  0.89147700  0.43717700  1
  O  O36  1  0.96191400  0.06879800  0.15731300  1
  O  O37  1  0.06394400  0.20621700  0.72759000  1
  O  O38  1  0.66618600  0.05715800  0.31561500  1
  O  O39  1  0.33381400  0.55715800  0.31561500  1
  O  O40  1  0.93605600  0.79378300  0.27241000  1
  O  O41  1  0.60787900  0.43669700  0.94268200  1
  O  O42  1  0.27257300  0.46250500  0.79479700  1
  O  O43  1  0.53985600  0.10852300  0.56282300  1
  O  O44  1  0.39559000  0.29450700  0.18125100  1
  O  O45  1  0.24233400  0.14048400  0.45221900  1
  O  O46  1  0.03808600  0.56879800  0.15731300  1
  O  O47  1  0.24233400  0.35951600  0.54778100  1
  O  O48  1  0.89007000  0.38543400  0.49161400  1
  O  O49  1  0.53985600  0.39147700  0.43717700  1
  O  O50  1  0.10993000  0.88543400  0.49161400  1
  O  O51  1  0.60441000  0.79450700  0.18125100  1
  O  O52  1  0.60441000  0.70549300  0.81874900  1
  O  O53  1  0.03808600  0.93120200  0.84268700  1
  O  O54  1  0.06394400  0.29378300  0.27241000  1
  O  O55  1  0.72742700  0.53749500  0.20520300  1
  O  O56  1  0.15803700  0.25000000  0.00000000  1
  O  O57  1  0.25118000  0.80098200  0.15473100  1
  O  O58  1  0.60787900  0.06330300  0.05731800  1
  O  O59  1  0.96191400  0.43120200  0.84268700  1
  O  O60  1  0.27257300  0.03749500  0.20520300  1
  O  O61  1  0.74882000  0.19901800  0.84526900  1
  O  O62  1  0.46014400  0.60852300  0.56282300  1
  O  O63  1  0.66618600  0.44284200  0.68438500  1
  O  O64  1  0.25118000  0.69901800  0.84526900  1
  O  O65  1  0.39559000  0.20549300  0.81874900  1
