# generated using pymatgen
data_Ca(WO2)2
_symmetry_space_group_name_H-M   'P 1'
_cell_length_a   6.53619644
_cell_length_b   6.53619644
_cell_length_c   22.13376211
_cell_angle_alpha   79.85222796
_cell_angle_beta   79.85222796
_cell_angle_gamma   60.18051273
_symmetry_Int_Tables_number   1
_chemical_formula_structural   Ca(WO2)2
_chemical_formula_sum   'Ca8 W16 O32'
_cell_volume   803.20642213
_cell_formula_units_Z   8
loop_
 _symmetry_equiv_pos_site_id
 _symmetry_equiv_pos_as_xyz
  1  'x, y, z'
loop_
 _atom_site_type_symbol
 _atom_site_label
 _atom_site_symmetry_multiplicity
 _atom_site_fract_x
 _atom_site_fract_y
 _atom_site_fract_z
 _atom_site_occupancy
  Ca  Ca0  1  0.65167300  0.65167300  0.02892600  1
  Ca  Ca1  1  0.12225200  0.12225200  0.12521400  1
  Ca  Ca2  1  0.89855400  0.89855400  0.28123900  1
  Ca  Ca3  1  0.37006600  0.37006600  0.37485800  1
  Ca  Ca4  1  0.62405200  0.62405200  0.62609300  1
  Ca  Ca5  1  0.49822100  0.49822100  0.49881500  1
  Ca  Ca6  1  0.88409400  0.88409400  0.87346600  1
  Ca  Ca7  1  0.75231800  0.75231800  0.75127100  1
  W  W8  1  0.62753200  0.11948500  0.12482000  1
  W  W9  1  0.24669000  0.24669000  0.25166200  1
  W  W10  1  0.11948500  0.62753200  0.12482000  1
  W  W11  1  0.16077100  0.16077100  0.52880000  1
  W  W12  1  0.87083500  0.36651500  0.37492500  1
  W  W13  1  0.58799200  0.58799200  0.22082100  1
  W  W14  1  0.42218800  0.42218800  0.77717300  1
  W  W15  1  0.36651500  0.87083500  0.37492500  1
  W  W16  1  0.12379700  0.62434000  0.62506200  1
  W  W17  1  0.83155200  0.83155200  0.47063500  1
  W  W18  1  0.62434000  0.12379700  0.62506200  1
  W  W19  1  0.88548800  0.38560100  0.87426300  1
  W  W20  1  0.38560100  0.88548800  0.87426300  1
  W  W21  1  0.08567700  0.08567700  0.72319500  1
  W  W22  1  0.00249400  0.00249400  0.00136300  1
  W  W23  1  0.36139800  0.36139800  0.96940200  1
  O  O24  1  0.27262000  0.81823400  0.06298900  1
  O  O25  1  0.92443300  0.92443300  0.17754600  1
  O  O26  1  0.81823400  0.27262000  0.06298900  1
  O  O27  1  0.82851300  0.82851300  0.06711200  1
  O  O28  1  0.42759400  0.42759400  0.18269100  1
  O  O29  1  0.51539200  0.06709400  0.31427700  1
  O  O30  1  0.42644700  0.96303700  0.18974400  1
  O  O31  1  0.16549000  0.16549000  0.43690800  1
  O  O32  1  0.06709400  0.51539200  0.31427700  1
  O  O33  1  0.32124900  0.32124900  0.06618700  1
  O  O34  1  0.07636800  0.07636800  0.31783900  1
  O  O35  1  0.96303700  0.42644700  0.18974400  1
  O  O36  1  0.81273800  0.29594500  0.56557800  1
  O  O37  1  0.68033100  0.68033100  0.42504400  1
  O  O38  1  0.68486100  0.19434500  0.43572500  1
  O  O39  1  0.42122700  0.42122700  0.67815400  1
  O  O40  1  0.29594500  0.81273800  0.56557800  1
  O  O41  1  0.57432200  0.57432200  0.31615700  1
  O  O42  1  0.30691600  0.30691600  0.57166000  1
  O  O43  1  0.19434500  0.68486100  0.43572500  1
  O  O44  1  0.94096700  0.94096700  0.67762300  1
  O  O45  1  0.05895900  0.56572500  0.81449200  1
  O  O46  1  0.95206200  0.43791800  0.68455400  1
  O  O47  1  0.68849300  0.68849300  0.92586100  1
  O  O48  1  0.56572500  0.05895900  0.81449200  1
  O  O49  1  0.82660400  0.82660400  0.57069500  1
  O  O50  1  0.57070900  0.57070900  0.82551500  1
  O  O51  1  0.43791800  0.95206200  0.68455400  1
  O  O52  1  0.17618700  0.17618700  0.93402500  1
  O  O53  1  0.19689700  0.71926000  0.93801200  1
  O  O54  1  0.08542600  0.08542600  0.81516300  1
  O  O55  1  0.71926000  0.19689700  0.93801200  1
