# generated using pymatgen
data_Re(WO4)2
_symmetry_space_group_name_H-M   'P 1'
_cell_length_a   5.81731100
_cell_length_b   5.09010100
_cell_length_c   10.66090972
_cell_angle_alpha   61.74652989
_cell_angle_beta   90.00000000
_cell_angle_gamma   90.00000000
_symmetry_Int_Tables_number   1
_chemical_formula_structural   Re(WO4)2
_chemical_formula_sum   'Re2 W4 O16'
_cell_volume   278.06790012
_cell_formula_units_Z   2
loop_
 _symmetry_equiv_pos_site_id
 _symmetry_equiv_pos_as_xyz
  1  'x, y, z'
loop_
 _atom_site_type_symbol
 _atom_site_label
 _atom_site_symmetry_multiplicity
 _atom_site_fract_x
 _atom_site_fract_y
 _atom_site_fract_z
 _atom_site_occupancy
  Re  Re0  1  0.64850600  0.00000000  0.75000000  1
  Re  Re1  1  0.35149400  0.00000000  0.25000000  1
  W  W2  1  0.83328900  0.26140600  0.00365800  1
  W  W3  1  0.83328900  0.73859400  0.49634200  1
  W  W4  1  0.16671100  0.73859400  0.99634200  1
  W  W5  1  0.16671100  0.26140600  0.50365800  1
  O  O6  1  0.65686500  0.43969900  0.63626400  1
  O  O7  1  0.65686500  0.56030100  0.86373600  1
  O  O8  1  0.34313500  0.56030100  0.36373600  1
  O  O9  1  0.34313500  0.43969900  0.13626400  1
  O  O10  1  0.11144000  0.97315100  0.10822800  1
  O  O11  1  0.11144000  0.02684900  0.39177200  1
  O  O12  1  0.88856000  0.02684900  0.89177200  1
  O  O13  1  0.88856000  0.97315100  0.60822800  1
  O  O14  1  0.40254500  0.01910400  0.61939200  1
  O  O15  1  0.40254500  0.98089600  0.88060800  1
  O  O16  1  0.59745500  0.98089600  0.38060800  1
  O  O17  1  0.59745500  0.01910400  0.11939200  1
  O  O18  1  0.10670100  0.45386400  0.61150700  1
  O  O19  1  0.89329900  0.54613600  0.38849300  1
  O  O20  1  0.10670100  0.54613600  0.88849300  1
  O  O21  1  0.89329900  0.45386400  0.11150700  1
