# generated using pymatgen
data_V2ZnCuO7
_symmetry_space_group_name_H-M   'P 1'
_cell_length_a   8.32924500
_cell_length_b   10.19738200
_cell_length_c   10.85172202
_cell_angle_alpha   86.28808305
_cell_angle_beta   90.00000000
_cell_angle_gamma   90.00000000
_symmetry_Int_Tables_number   1
_chemical_formula_structural   V2ZnCuO7
_chemical_formula_sum   'V12 Zn6 Cu6 O42'
_cell_volume   919.77363082
_cell_formula_units_Z   6
loop_
 _symmetry_equiv_pos_site_id
 _symmetry_equiv_pos_as_xyz
  1  'x, y, z'
loop_
 _atom_site_type_symbol
 _atom_site_label
 _atom_site_symmetry_multiplicity
 _atom_site_fract_x
 _atom_site_fract_y
 _atom_site_fract_z
 _atom_site_occupancy
  V  V0  1  0.22224600  0.28264300  0.84064500  1
  V  V1  1  0.73723600  0.38038400  0.83056600  1
  V  V2  1  0.26276400  0.88038400  0.83056600  1
  V  V3  1  0.77775400  0.78264300  0.84064500  1
  V  V4  1  0.27952700  0.95579800  0.52635200  1
  V  V5  1  0.73723600  0.11961600  0.16943400  1
  V  V6  1  0.72047300  0.45579800  0.52635200  1
  V  V7  1  0.26276400  0.61961600  0.16943400  1
  V  V8  1  0.27952700  0.54420200  0.47364800  1
  V  V9  1  0.72047300  0.04420200  0.47364800  1
  V  V10  1  0.77775400  0.71735700  0.15935500  1
  V  V11  1  0.22224600  0.21735700  0.15935500  1
  Zn  Zn12  1  0.43067400  0.57486200  0.87333700  1
  Zn  Zn13  1  0.93284900  0.75000000  0.50000000  1
  Zn  Zn14  1  0.43067400  0.92513800  0.12666300  1
  Zn  Zn15  1  0.06715100  0.25000000  0.50000000  1
  Zn  Zn16  1  0.56932600  0.42513800  0.12666300  1
  Zn  Zn17  1  0.56932600  0.07486200  0.87333700  1
  Cu  Cu18  1  0.92694600  0.41392200  0.19591600  1
  Cu  Cu19  1  0.07305400  0.58607800  0.80408400  1
  Cu  Cu20  1  0.43202000  0.25000000  0.50000000  1
  Cu  Cu21  1  0.92694600  0.08607800  0.80408400  1
  Cu  Cu22  1  0.56798000  0.75000000  0.50000000  1
  Cu  Cu23  1  0.07305400  0.91392200  0.19591600  1
  O  O24  1  0.74923300  0.95587400  0.81277800  1
  O  O25  1  0.75844800  0.29176500  0.16469900  1
  O  O26  1  0.83582000  0.75000000  0.00000000  1
  O  O27  1  0.90106300  0.11391200  0.49059700  1
  O  O28  1  0.40180800  0.57296900  0.06130200  1
  O  O29  1  0.92171500  0.71971500  0.74480600  1
  O  O30  1  0.34414100  0.93353000  0.68526600  1
  O  O31  1  0.09893700  0.61391200  0.49059700  1
  O  O32  1  0.74215600  0.87322900  0.51300400  1
  O  O33  1  0.40180800  0.92703100  0.93869800  1
  O  O34  1  0.74215600  0.62677100  0.48699600  1
  O  O35  1  0.41961700  0.88099200  0.43922800  1
  O  O36  1  0.91603500  0.04329500  0.15183800  1
  O  O37  1  0.07828500  0.21971500  0.74480600  1
  O  O38  1  0.65585900  0.06647000  0.31473400  1
  O  O39  1  0.34414100  0.56647000  0.31473400  1
  O  O40  1  0.92171500  0.78028500  0.25519400  1
  O  O41  1  0.59819200  0.42703100  0.93869800  1
  O  O42  1  0.25076700  0.45587400  0.81277800  1
  O  O43  1  0.58038300  0.11900800  0.56077200  1
  O  O44  1  0.39787400  0.29635700  0.17963100  1
  O  O45  1  0.25784400  0.12677100  0.48699600  1
  O  O46  1  0.08396500  0.54329500  0.15183800  1
  O  O47  1  0.25784400  0.37322900  0.51300400  1
  O  O48  1  0.90106300  0.38608800  0.50940300  1
  O  O49  1  0.58038300  0.38099200  0.43922800  1
  O  O50  1  0.09893700  0.88608800  0.50940300  1
  O  O51  1  0.60212600  0.79635700  0.17963100  1
  O  O52  1  0.60212600  0.70364300  0.82036900  1
  O  O53  1  0.08396500  0.95670500  0.84816200  1
  O  O54  1  0.07828500  0.28028500  0.25519400  1
  O  O55  1  0.74923300  0.54412600  0.18722200  1
  O  O56  1  0.16418000  0.25000000  0.00000000  1
  O  O57  1  0.24155200  0.79176500  0.16469900  1
  O  O58  1  0.59819200  0.07296900  0.06130200  1
  O  O59  1  0.91603500  0.45670500  0.84816200  1
  O  O60  1  0.25076700  0.04412600  0.18722200  1
  O  O61  1  0.75844800  0.20823500  0.83530100  1
  O  O62  1  0.41961700  0.61900800  0.56077200  1
  O  O63  1  0.65585900  0.43353000  0.68526600  1
  O  O64  1  0.24155200  0.70823500  0.83530100  1
  O  O65  1  0.39787400  0.20364300  0.82036900  1
