# generated using pymatgen
data_Zn3Co3(AsO4)4
_symmetry_space_group_name_H-M   'P 1'
_cell_length_a   5.21234300
_cell_length_b   8.59575400
_cell_length_c   15.94207647
_cell_angle_alpha   69.10809976
_cell_angle_beta   90.00000000
_cell_angle_gamma   90.00000000
_symmetry_Int_Tables_number   1
_chemical_formula_structural   Zn3Co3(AsO4)4
_chemical_formula_sum   'Zn6 Co6 As8 O32'
_cell_volume   667.30938920
_cell_formula_units_Z   2
loop_
 _symmetry_equiv_pos_site_id
 _symmetry_equiv_pos_as_xyz
  1  'x, y, z'
loop_
 _atom_site_type_symbol
 _atom_site_label
 _atom_site_symmetry_multiplicity
 _atom_site_fract_x
 _atom_site_fract_y
 _atom_site_fract_z
 _atom_site_occupancy
  Zn  Zn0  1  0.55129800  0.29919400  0.21763900  1
  Zn  Zn1  1  0.05129800  0.70080600  0.28236100  1
  Zn  Zn2  1  0.44870200  0.70080600  0.78236100  1
  Zn  Zn3  1  0.94870200  0.29919400  0.71763900  1
  Zn  Zn4  1  0.50000000  0.00000000  0.50000000  1
  Zn  Zn5  1  0.00000000  0.00000000  0.00000000  1
  Co  Co6  1  0.49140700  0.20804100  0.62561200  1
  Co  Co7  1  0.50859300  0.79195900  0.37438800  1
  Co  Co8  1  0.99140700  0.79195900  0.87438800  1
  Co  Co9  1  0.00859300  0.20804100  0.12561200  1
  Co  Co10  1  0.00000000  0.50000000  0.50000000  1
  Co  Co11  1  0.50000000  0.50000000  0.00000000  1
  As  As12  1  0.99034300  0.03650500  0.35335200  1
  As  As13  1  0.49128600  0.41570900  0.39603700  1
  As  As14  1  0.99128600  0.58429100  0.10396300  1
  As  As15  1  0.00871400  0.41570900  0.89603700  1
  As  As16  1  0.00965700  0.96349500  0.64664800  1
  As  As17  1  0.50871400  0.58429100  0.60396300  1
  As  As18  1  0.50965700  0.03650500  0.85335200  1
  As  As19  1  0.49034300  0.96349500  0.14664800  1
  O  O20  1  0.40991800  0.81112400  0.25000500  1
  O  O21  1  0.92783600  0.75308300  0.00851800  1
  O  O22  1  0.40134800  0.39337300  0.29921100  1
  O  O23  1  0.38684700  0.15413400  0.15281900  1
  O  O24  1  0.59865200  0.60662700  0.70078900  1
  O  O25  1  0.09008200  0.81112400  0.75000500  1
  O  O26  1  0.90134800  0.60662700  0.20078900  1
  O  O27  1  0.71485400  0.50938100  0.89499600  1
  O  O28  1  0.67625300  0.09281100  0.92875900  1
  O  O29  1  0.59008200  0.18887600  0.74999500  1
  O  O30  1  0.11315300  0.15413400  0.65281900  1
  O  O31  1  0.28514600  0.49061900  0.10500400  1
  O  O32  1  0.27929900  0.57282600  0.40529800  1
  O  O33  1  0.32374700  0.90718900  0.07124100  1
  O  O34  1  0.68090400  0.98585400  0.63029200  1
  O  O35  1  0.18090400  0.01414600  0.86970800  1
  O  O36  1  0.77929900  0.42717400  0.09470200  1
  O  O37  1  0.09865200  0.39337300  0.79921100  1
  O  O38  1  0.17625300  0.90718900  0.57124100  1
  O  O39  1  0.21485400  0.49061900  0.60500400  1
  O  O40  1  0.81909600  0.98585400  0.13029200  1
  O  O41  1  0.31909600  0.01414600  0.36970800  1
  O  O42  1  0.07216400  0.24691700  0.99148200  1
  O  O43  1  0.42783600  0.24691700  0.49148200  1
  O  O44  1  0.72070100  0.42717400  0.59470200  1
  O  O45  1  0.90991800  0.18887600  0.24999500  1
  O  O46  1  0.61315300  0.84586600  0.84718100  1
  O  O47  1  0.82374700  0.09281100  0.42875900  1
  O  O48  1  0.57216400  0.75308300  0.50851800  1
  O  O49  1  0.78514600  0.50938100  0.39499600  1
  O  O50  1  0.22070100  0.57282600  0.90529800  1
  O  O51  1  0.88684700  0.84586600  0.34718100  1
