# generated using pymatgen
data_Mg(MoO2)2
_symmetry_space_group_name_H-M   'P 1'
_cell_length_a   6.28633900
_cell_length_b   6.28633900
_cell_length_c   20.98481204
_cell_angle_alpha   81.98145279
_cell_angle_beta   81.98145279
_cell_angle_gamma   61.45146173
_symmetry_Int_Tables_number   1
_chemical_formula_structural   Mg(MoO2)2
_chemical_formula_sum   'Mg8 Mo16 O32'
_cell_volume   718.79417020
_cell_formula_units_Z   8
loop_
 _symmetry_equiv_pos_site_id
 _symmetry_equiv_pos_as_xyz
  1  'x, y, z'
loop_
 _atom_site_type_symbol
 _atom_site_label
 _atom_site_symmetry_multiplicity
 _atom_site_fract_x
 _atom_site_fract_y
 _atom_site_fract_z
 _atom_site_occupancy
  Mg  Mg0  1  0.85430800  0.85430800  0.96702900  1
  Mg  Mg1  1  0.38251600  0.38251600  0.87566100  1
  Mg  Mg2  1  0.59470000  0.59470000  0.72102000  1
  Mg  Mg3  1  0.12142600  0.12142600  0.62676200  1
  Mg  Mg4  1  0.87324600  0.87324600  0.37696700  1
  Mg  Mg5  1  0.99414500  0.99414500  0.50242400  1
  Mg  Mg6  1  0.63209600  0.63209600  0.12393900  1
  Mg  Mg7  1  0.75068700  0.75068700  0.25186900  1
  Mo  Mo8  1  0.37988500  0.88242900  0.87617300  1
  Mo  Mo9  1  0.24842700  0.24842700  0.74889200  1
  Mo  Mo10  1  0.88242900  0.37988500  0.87617300  1
  Mo  Mo11  1  0.35757900  0.35757900  0.44799400  1
  Mo  Mo12  1  0.11944200  0.61281800  0.62333300  1
  Mo  Mo13  1  0.89671100  0.89671100  0.77980000  1
  Mo  Mo14  1  0.11029700  0.11029700  0.19012600  1
  Mo  Mo15  1  0.61281800  0.11944200  0.62333300  1
  Mo  Mo16  1  0.86889200  0.36316400  0.37788400  1
  Mo  Mo17  1  0.64021600  0.64021600  0.53299800  1
  Mo  Mo18  1  0.36316400  0.86889200  0.37788400  1
  Mo  Mo19  1  0.12841800  0.63239500  0.12356200  1
  Mo  Mo20  1  0.63239500  0.12841800  0.12356200  1
  Mo  Mo21  1  0.39141700  0.39141700  0.31161100  1
  Mo  Mo22  1  0.50646900  0.50646900  0.99439600  1
  Mo  Mo23  1  0.15269800  0.15269800  0.04619200  1
  O  O24  1  0.68274300  0.21271800  0.93460700  1
  O  O25  1  0.56622500  0.56622500  0.81913500  1
  O  O26  1  0.21271800  0.68274300  0.93460700  1
  O  O27  1  0.68738800  0.68738800  0.93503400  1
  O  O28  1  0.07565300  0.07565300  0.81854000  1
  O  O29  1  0.42031900  0.95344700  0.68635200  1
  O  O30  1  0.54011900  0.09081300  0.81349900  1
  O  O31  1  0.30110200  0.30110200  0.56950500  1
  O  O32  1  0.95344700  0.42031900  0.68635200  1
  O  O33  1  0.19738200  0.19738200  0.93283200  1
  O  O34  1  0.42740100  0.42740100  0.68363400  1
  O  O35  1  0.09081300  0.54011900  0.81349900  1
  O  O36  1  0.15202600  0.72328300  0.44107400  1
  O  O37  1  0.80916700  0.80916700  0.56413700  1
  O  O38  1  0.29141100  0.81633100  0.56523800  1
  O  O39  1  0.05471600  0.05471600  0.32423200  1
  O  O40  1  0.72328300  0.15202600  0.44107400  1
  O  O41  1  0.93390300  0.93390300  0.67681000  1
  O  O42  1  0.16324100  0.16324100  0.44075000  1
  O  O43  1  0.81633100  0.29141100  0.56523800  1
  O  O44  1  0.57718900  0.57718900  0.31115100  1
  O  O45  1  0.92561000  0.47264000  0.18437800  1
  O  O46  1  0.02619000  0.57541600  0.31685300  1
  O  O47  1  0.81171200  0.81171200  0.06660700  1
  O  O48  1  0.47264000  0.92561000  0.18437800  1
  O  O49  1  0.68498600  0.68498600  0.43672000  1
  O  O50  1  0.92589500  0.92589500  0.18677600  1
  O  O51  1  0.57541600  0.02619000  0.31685300  1
  O  O52  1  0.33112100  0.33112100  0.06033700  1
  O  O53  1  0.79299500  0.33109900  0.05963800  1
  O  O54  1  0.45132100  0.45132100  0.17094100  1
  O  O55  1  0.33109900  0.79299500  0.05963800  1
