# generated using pymatgen
data_WO2
_symmetry_space_group_name_H-M   'P 1'
_cell_length_a   5.70310300
_cell_length_b   5.72843733
_cell_length_c   20.31779682
_cell_angle_alpha   89.55588560
_cell_angle_beta   89.44336104
_cell_angle_gamma   70.02618134
_symmetry_Int_Tables_number   1
_chemical_formula_structural   WO2
_chemical_formula_sum   'W16 O32'
_cell_volume   623.81622074
_cell_formula_units_Z   16
loop_
 _symmetry_equiv_pos_site_id
 _symmetry_equiv_pos_as_xyz
  1  'x, y, z'
loop_
 _atom_site_type_symbol
 _atom_site_label
 _atom_site_symmetry_multiplicity
 _atom_site_fract_x
 _atom_site_fract_y
 _atom_site_fract_z
 _atom_site_occupancy
  W  W0  1  0.77327800  0.74748900  0.87657300  1
  W  W1  1  0.45740500  0.95405900  0.74685200  1
  W  W2  1  0.24895800  0.27155300  0.87649000  1
  W  W3  1  0.74650900  0.25324900  0.49460700  1
  W  W4  1  0.24963600  0.24149100  0.61437400  1
  W  W5  1  0.76732300  0.26627200  0.74435100  1
  W  W6  1  0.25960500  0.76024200  0.25677200  1
  W  W7  1  0.74946000  0.74932100  0.61527400  1
  W  W8  1  0.75566200  0.75416200  0.37581000  1
  W  W9  1  0.24932500  0.75371600  0.49611400  1
  W  W10  1  0.25549600  0.25540500  0.37600300  1
  W  W11  1  0.75642300  0.77592500  0.13763400  1
  W  W12  1  0.27606000  0.25663300  0.13761100  1
  W  W13  1  0.76045100  0.26054200  0.25614200  1
  W  W14  1  0.96506600  0.46335700  0.00909900  1
  W  W15  1  0.27729300  0.77680300  0.00474400  1
  O  O16  1  0.31422200  0.42708800  0.96458300  1
  O  O17  1  0.11359100  0.61002500  0.83917900  1
  O  O18  1  0.92842400  0.81211700  0.96462300  1
  O  O19  1  0.88044500  0.38105100  0.91527000  1
  O  O20  1  0.61204900  0.11011000  0.82523100  1
  O  O21  1  0.80771800  0.91435700  0.70173000  1
  O  O22  1  0.63960500  0.62159300  0.79096500  1
  O  O23  1  0.59282300  0.10351600  0.56796700  1
  O  O24  1  0.41757100  0.30212700  0.70188100  1
  O  O25  1  0.41404400  0.91380800  0.92251100  1
  O  O26  1  0.38193400  0.87121800  0.65157300  1
  O  O27  1  0.12199800  0.13704600  0.79079200  1
  O  O28  1  0.40013100  0.40152300  0.44934500  1
  O  O29  1  0.09535500  0.60668300  0.57243900  1
  O  O30  1  0.08841200  0.11075400  0.54188900  1
  O  O31  1  0.10660500  0.60690900  0.33020100  1
  O  O32  1  0.90574100  0.89816100  0.45020700  1
  O  O33  1  0.90183100  0.39314100  0.66457800  1
  O  O34  1  0.90176200  0.40226500  0.42220300  1
  O  O35  1  0.59392800  0.60356300  0.54101700  1
  O  O36  1  0.60920900  0.10834500  0.32971100  1
  O  O37  1  0.90937800  0.91001500  0.21211700  1
  O  O38  1  0.61036300  0.60895000  0.30255300  1
  O  O39  1  0.61581600  0.11429700  0.09924100  1
  O  O40  1  0.40938100  0.41023600  0.21206000  1
  O  O41  1  0.40307000  0.90249900  0.42249500  1
  O  O42  1  0.40478100  0.90657600  0.18421100  1
  O  O43  1  0.10890300  0.11011700  0.30267500  1
  O  O44  1  0.11885000  0.61720900  0.08656800  1
  O  O45  1  0.14597100  0.12344600  0.05129600  1
  O  O46  1  0.91041000  0.41162100  0.17946200  1
  O  O47  1  0.62391800  0.64559600  0.05135300  1
