# generated using pymatgen
data_Co(WO4)2
_symmetry_space_group_name_H-M   'P 1'
_cell_length_a   5.87033700
_cell_length_b   5.01178600
_cell_length_c   10.26594315
_cell_angle_alpha   63.98027834
_cell_angle_beta   90.00000000
_cell_angle_gamma   90.00000000
_symmetry_Int_Tables_number   1
_chemical_formula_structural   Co(WO4)2
_chemical_formula_sum   'Co2 W4 O16'
_cell_volume   271.41987885
_cell_formula_units_Z   2
loop_
 _symmetry_equiv_pos_site_id
 _symmetry_equiv_pos_as_xyz
  1  'x, y, z'
loop_
 _atom_site_type_symbol
 _atom_site_label
 _atom_site_symmetry_multiplicity
 _atom_site_fract_x
 _atom_site_fract_y
 _atom_site_fract_z
 _atom_site_occupancy
  Co  Co0  1  0.34343000  0.50000000  0.75000000  1
  Co  Co1  1  0.65657000  0.50000000  0.25000000  1
  W  W2  1  0.16963700  0.26750400  0.49083100  1
  W  W3  1  0.16963700  0.73249600  0.00916900  1
  W  W4  1  0.83036300  0.73249600  0.50916900  1
  W  W5  1  0.83036300  0.26750400  0.99083100  1
  O  O6  1  0.33950600  0.70579700  0.85561900  1
  O  O7  1  0.33950600  0.29420300  0.64438100  1
  O  O8  1  0.66049400  0.29420300  0.14438100  1
  O  O9  1  0.66049400  0.70579700  0.35561900  1
  O  O10  1  0.89535100  0.17817000  0.39338200  1
  O  O11  1  0.89535100  0.82183000  0.10661800  1
  O  O12  1  0.10464900  0.82183000  0.60661800  1
  O  O13  1  0.10464900  0.17817000  0.89338200  1
  O  O14  1  0.59537800  0.24736000  0.88206100  1
  O  O15  1  0.59537800  0.75264000  0.61793900  1
  O  O16  1  0.40462200  0.75264000  0.11793900  1
  O  O17  1  0.40462200  0.24736000  0.38206100  1
  O  O18  1  0.89180800  0.66797000  0.88741900  1
  O  O19  1  0.10819200  0.33203000  0.11258100  1
  O  O20  1  0.89180800  0.33203000  0.61258100  1
  O  O21  1  0.10819200  0.66797000  0.38741900  1
