# generated using pymatgen
data_Mn3(AsO4)4
_symmetry_space_group_name_H-M   'P 1'
_cell_length_a   5.10771100
_cell_length_b   8.50575900
_cell_length_c   15.82552072
_cell_angle_alpha   67.66452810
_cell_angle_beta   90.00000000
_cell_angle_gamma   90.00000000
_symmetry_Int_Tables_number   1
_chemical_formula_structural   Mn3(AsO4)4
_chemical_formula_sum   'Mn6 As8 O32'
_cell_volume   635.95621324
_cell_formula_units_Z   2
loop_
 _symmetry_equiv_pos_site_id
 _symmetry_equiv_pos_as_xyz
  1  'x, y, z'
loop_
 _atom_site_type_symbol
 _atom_site_label
 _atom_site_symmetry_multiplicity
 _atom_site_fract_x
 _atom_site_fract_y
 _atom_site_fract_z
 _atom_site_occupancy
  Mn  Mn0  1  0.44790600  0.22658100  0.62661700  1
  Mn  Mn1  1  0.55209400  0.77341900  0.37338300  1
  Mn  Mn2  1  0.94790600  0.77341900  0.87338300  1
  Mn  Mn3  1  0.05209400  0.22658100  0.12661700  1
  Mn  Mn4  1  0.00000000  0.50000000  0.50000000  1
  Mn  Mn5  1  0.50000000  0.50000000  0.00000000  1
  As  As6  1  0.04846700  0.04177700  0.35078500  1
  As  As7  1  0.45743000  0.41981100  0.39720400  1
  As  As8  1  0.95743000  0.58018900  0.10279600  1
  As  As9  1  0.04257000  0.41981100  0.89720400  1
  As  As10  1  0.95153300  0.95822300  0.64921500  1
  As  As11  1  0.54257000  0.58018900  0.60279600  1
  As  As12  1  0.45153300  0.04177700  0.85078500  1
  As  As13  1  0.54846700  0.95822300  0.14921500  1
  O  O14  1  0.48885500  0.79153500  0.25180900  1
  O  O15  1  0.85546000  0.72875500  0.99914900  1
  O  O16  1  0.42071900  0.36571600  0.30917500  1
  O  O17  1  0.38518200  0.13215900  0.15600100  1
  O  O18  1  0.57928100  0.63428400  0.69082500  1
  O  O19  1  0.01114500  0.79153500  0.75180900  1
  O  O20  1  0.92071900  0.63428400  0.19082500  1
  O  O21  1  0.74958500  0.53271800  0.90058300  1
  O  O22  1  0.55543700  0.11023300  0.93417900  1
  O  O23  1  0.51114500  0.20846500  0.74819100  1
  O  O24  1  0.11481800  0.13215900  0.65600100  1
  O  O25  1  0.25041500  0.46728200  0.09941700  1
  O  O26  1  0.26569100  0.59784900  0.40435700  1
  O  O27  1  0.44456300  0.88976700  0.06582100  1
  O  O28  1  0.62858600  0.02906500  0.63223300  1
  O  O29  1  0.12858600  0.97093500  0.86776700  1
  O  O30  1  0.76569100  0.40215100  0.09564300  1
  O  O31  1  0.07928100  0.36571600  0.80917500  1
  O  O32  1  0.05543700  0.88976700  0.56582100  1
  O  O33  1  0.24958500  0.46728200  0.59941700  1
  O  O34  1  0.87141400  0.02906500  0.13223300  1
  O  O35  1  0.37141400  0.97093500  0.36776700  1
  O  O36  1  0.14454000  0.27124500  0.00085100  1
  O  O37  1  0.35546000  0.27124500  0.50085100  1
  O  O38  1  0.73430900  0.40215100  0.59564300  1
  O  O39  1  0.98885500  0.20846500  0.24819100  1
  O  O40  1  0.61481800  0.86784100  0.84399900  1
  O  O41  1  0.94456300  0.11023300  0.43417900  1
  O  O42  1  0.64454000  0.72875500  0.49914900  1
  O  O43  1  0.75041500  0.53271800  0.40058300  1
  O  O44  1  0.23430900  0.59784900  0.90435700  1
  O  O45  1  0.88518200  0.86784100  0.34399900  1
