# generated using pymatgen
data_Ca(WO2)2
_symmetry_space_group_name_H-M   'P 1'
_cell_length_a   5.57331730
_cell_length_b   5.57331730
_cell_length_c   10.51292700
_cell_angle_alpha   90.00000000
_cell_angle_beta   90.00000000
_cell_angle_gamma   145.99579196
_symmetry_Int_Tables_number   1
_chemical_formula_structural   Ca(WO2)2
_chemical_formula_sum   'Ca2 W4 O8'
_cell_volume   182.62495536
_cell_formula_units_Z   2
loop_
 _symmetry_equiv_pos_site_id
 _symmetry_equiv_pos_as_xyz
  1  'x, y, z'
loop_
 _atom_site_type_symbol
 _atom_site_label
 _atom_site_symmetry_multiplicity
 _atom_site_fract_x
 _atom_site_fract_y
 _atom_site_fract_z
 _atom_site_occupancy
  Ca  Ca0  1  0.61515100  0.38484900  0.75000000  1
  Ca  Ca1  1  0.38484900  0.61515100  0.25000000  1
  W  W2  1  0.13235000  0.86765000  0.07145900  1
  W  W3  1  0.86765000  0.13235000  0.92854100  1
  W  W4  1  0.13235000  0.86765000  0.42854100  1
  W  W5  1  0.86765000  0.13235000  0.57145900  1
  O  O6  1  0.76332000  0.23668000  0.38959500  1
  O  O7  1  0.23668000  0.76332000  0.61040500  1
  O  O8  1  0.23668000  0.76332000  0.88959500  1
  O  O9  1  0.76332000  0.23668000  0.11040500  1
  O  O10  1  0.03412500  0.96587500  0.25000000  1
  O  O11  1  0.96587500  0.03412500  0.75000000  1
  O  O12  1  0.50000000  0.50000000  0.00000000  1
  O  O13  1  0.50000000  0.50000000  0.50000000  1
