# generated using pymatgen
data_CaCuSb2O7
_symmetry_space_group_name_H-M   'P 1'
_cell_length_a   9.21492300
_cell_length_b   10.51164100
_cell_length_c   10.85026743
_cell_angle_alpha   86.00896390
_cell_angle_beta   90.00000000
_cell_angle_gamma   90.00000000
_symmetry_Int_Tables_number   1
_chemical_formula_structural   CaCuSb2O7
_chemical_formula_sum   'Ca6 Cu6 Sb12 O42'
_cell_volume   1048.45117034
_cell_formula_units_Z   6
loop_
 _symmetry_equiv_pos_site_id
 _symmetry_equiv_pos_as_xyz
  1  'x, y, z'
loop_
 _atom_site_type_symbol
 _atom_site_label
 _atom_site_symmetry_multiplicity
 _atom_site_fract_x
 _atom_site_fract_y
 _atom_site_fract_z
 _atom_site_occupancy
  Ca  Ca0  1  0.44888500  0.83278400  0.57415300  1
  Ca  Ca1  1  0.94366000  0.50000000  0.75000000  1
  Ca  Ca2  1  0.44888500  0.16721600  0.92584700  1
  Ca  Ca3  1  0.05634000  0.50000000  0.25000000  1
  Ca  Ca4  1  0.55111500  0.16721600  0.42584700  1
  Ca  Ca5  1  0.55111500  0.83278400  0.07415300  1
  Cu  Cu6  1  0.92933700  0.19851600  0.40986300  1
  Cu  Cu7  1  0.07066300  0.80148400  0.59013700  1
  Cu  Cu8  1  0.43245700  0.50000000  0.25000000  1
  Cu  Cu9  1  0.92933700  0.80148400  0.09013700  1
  Cu  Cu10  1  0.56754300  0.50000000  0.75000000  1
  Cu  Cu11  1  0.07066300  0.19851600  0.90986300  1
  Sb  Sb12  1  0.20250300  0.82968500  0.29343200  1
  Sb  Sb13  1  0.75661200  0.84280300  0.38089600  1
  Sb  Sb14  1  0.24338800  0.84280300  0.88089600  1
  Sb  Sb15  1  0.79749700  0.82968500  0.79343200  1
  Sb  Sb16  1  0.29405200  0.51561900  0.96159900  1
  Sb  Sb17  1  0.75661200  0.15719700  0.11910400  1
  Sb  Sb18  1  0.70594800  0.51561900  0.46159900  1
  Sb  Sb19  1  0.24338800  0.15719700  0.61910400  1
  Sb  Sb20  1  0.29405200  0.48438100  0.53840100  1
  Sb  Sb21  1  0.70594800  0.48438100  0.03840100  1
  Sb  Sb22  1  0.79749700  0.17031500  0.70656800  1
  Sb  Sb23  1  0.20250300  0.17031500  0.20656800  1
  O  O24  1  0.77393600  0.79753500  0.96858300  1
  O  O25  1  0.76875400  0.16479300  0.29443600  1
  O  O26  1  0.87603700  0.00000000  0.75000000  1
  O  O27  1  0.89076300  0.48731500  0.10452300  1
  O  O28  1  0.39105800  0.04971100  0.56656200  1
  O  O29  1  0.93804700  0.72899700  0.71415700  1
  O  O30  1  0.35896000  0.69335600  0.94240200  1
  O  O31  1  0.10923700  0.48731500  0.60452300  1
  O  O32  1  0.72365900  0.52653200  0.86504700  1
  O  O33  1  0.39105800  0.95028900  0.93343800  1
  O  O34  1  0.72365900  0.47346800  0.63495300  1
  O  O35  1  0.44019100  0.42348000  0.87988600  1
  O  O36  1  0.94005000  0.14251200  0.04285400  1
  O  O37  1  0.06195300  0.72899700  0.21415700  1
  O  O38  1  0.64104000  0.30664400  0.05759800  1
  O  O39  1  0.35896000  0.30664400  0.55759800  1
  O  O40  1  0.93804700  0.27100300  0.78584300  1
  O  O41  1  0.60894200  0.95028900  0.43343800  1
  O  O42  1  0.22606400  0.79753500  0.46858300  1
  O  O43  1  0.55980900  0.57652000  0.12011400  1
  O  O44  1  0.38707400  0.18719200  0.27353100  1
  O  O45  1  0.27634100  0.47346800  0.13495300  1
  O  O46  1  0.05995000  0.14251200  0.54285400  1
  O  O47  1  0.27634100  0.52653200  0.36504700  1
  O  O48  1  0.89076300  0.51268500  0.39547700  1
  O  O49  1  0.55980900  0.42348000  0.37988600  1
  O  O50  1  0.10923700  0.51268500  0.89547700  1
  O  O51  1  0.61292600  0.18719200  0.77353100  1
  O  O52  1  0.61292600  0.81280800  0.72646900  1
  O  O53  1  0.05995000  0.85748800  0.95714600  1
  O  O54  1  0.06195300  0.27100300  0.28584300  1
  O  O55  1  0.77393600  0.20246500  0.53141700  1
  O  O56  1  0.12396300  0.00000000  0.25000000  1
  O  O57  1  0.23124600  0.16479300  0.79443600  1
  O  O58  1  0.60894200  0.04971100  0.06656200  1
  O  O59  1  0.94005000  0.85748800  0.45714600  1
  O  O60  1  0.22606400  0.20246500  0.03141700  1
  O  O61  1  0.76875400  0.83520700  0.20556400  1
  O  O62  1  0.44019100  0.57652000  0.62011400  1
  O  O63  1  0.64104000  0.69335600  0.44240200  1
  O  O64  1  0.23124600  0.83520700  0.70556400  1
  O  O65  1  0.38707400  0.81280800  0.22646900  1
