# generated using pymatgen
data_YMn3F15
_symmetry_space_group_name_H-M   'P 1'
_cell_length_a   11.60468900
_cell_length_b   6.08416300
_cell_length_c   9.16766630
_cell_angle_alpha   75.37619829
_cell_angle_beta   90.00000000
_cell_angle_gamma   90.00000000
_symmetry_Int_Tables_number   1
_chemical_formula_structural   YMn3F15
_chemical_formula_sum   'Y2 Mn6 F30'
_cell_volume   626.31233608
_cell_formula_units_Z   2
loop_
 _symmetry_equiv_pos_site_id
 _symmetry_equiv_pos_as_xyz
  1  'x, y, z'
loop_
 _atom_site_type_symbol
 _atom_site_label
 _atom_site_symmetry_multiplicity
 _atom_site_fract_x
 _atom_site_fract_y
 _atom_site_fract_z
 _atom_site_occupancy
  Y  Y0  1  0.75000000  0.47281500  0.74416100  1
  Y  Y1  1  0.25000000  0.52718500  0.25583900  1
  Mn  Mn2  1  0.50000000  0.00000000  0.50000000  1
  Mn  Mn3  1  0.49852500  0.01370900  0.16560300  1
  Mn  Mn4  1  0.50147500  0.98629100  0.83439700  1
  Mn  Mn5  1  0.00000000  0.00000000  0.50000000  1
  Mn  Mn6  1  0.00147500  0.01370900  0.16560300  1
  Mn  Mn7  1  0.99852500  0.98629100  0.83439700  1
  F  F8  1  0.75000000  0.65405600  0.52598500  1
  F  F9  1  0.75000000  0.64433300  0.22942200  1
  F  F10  1  0.75000000  0.66249000  0.89770100  1
  F  F11  1  0.25000000  0.34594400  0.47401500  1
  F  F12  1  0.25000000  0.33751000  0.10229900  1
  F  F13  1  0.25000000  0.35566700  0.77057800  1
  F  F14  1  0.41666700  0.10703600  0.64627800  1
  F  F15  1  0.41128300  0.13327800  0.32260400  1
  F  F16  1  0.41542300  0.11629900  0.97616500  1
  F  F17  1  0.58333300  0.89296400  0.35372200  1
  F  F18  1  0.58457700  0.88370100  0.02383500  1
  F  F19  1  0.58871700  0.86672200  0.67739600  1
  F  F20  1  0.08708800  0.75078500  0.53333700  1
  F  F21  1  0.10069600  0.75569800  0.21162800  1
  F  F22  1  0.08395800  0.74104400  0.87853300  1
  F  F23  1  0.91291200  0.24921500  0.46666300  1
  F  F24  1  0.91604200  0.25895600  0.12146700  1
  F  F25  1  0.89930400  0.24430200  0.78837200  1
  F  F26  1  0.58708800  0.24921500  0.46666300  1
  F  F27  1  0.58395800  0.25895600  0.12146700  1
  F  F28  1  0.60069600  0.24430200  0.78837200  1
  F  F29  1  0.41291200  0.75078500  0.53333700  1
  F  F30  1  0.39930400  0.75569800  0.21162800  1
  F  F31  1  0.41604200  0.74104400  0.87853300  1
  F  F32  1  0.08333300  0.10703600  0.64627800  1
  F  F33  1  0.08871700  0.13327800  0.32260400  1
  F  F34  1  0.08457700  0.11629900  0.97616500  1
  F  F35  1  0.91666700  0.89296400  0.35372200  1
  F  F36  1  0.91542300  0.88370100  0.02383500  1
  F  F37  1  0.91128300  0.86672200  0.67739600  1
