# generated using pymatgen
data_Ca2Nb2FeO8
_symmetry_space_group_name_H-M   'P 1'
_cell_length_a   10.07018412
_cell_length_b   10.07018412
_cell_length_c   5.53394394
_cell_angle_alpha   88.75213470
_cell_angle_beta   88.75213470
_cell_angle_gamma   36.71186816
_symmetry_Int_Tables_number   1
_chemical_formula_structural   Ca2Nb2FeO8
_chemical_formula_sum   'Ca4 Nb4 Fe2 O16'
_cell_volume   335.38586207
_cell_formula_units_Z   2
loop_
 _symmetry_equiv_pos_site_id
 _symmetry_equiv_pos_as_xyz
  1  'x, y, z'
loop_
 _atom_site_type_symbol
 _atom_site_label
 _atom_site_symmetry_multiplicity
 _atom_site_fract_x
 _atom_site_fract_y
 _atom_site_fract_z
 _atom_site_occupancy
  Ca  Ca0  1  0.47469700  0.10927800  0.74620000  1
  Ca  Ca1  1  0.89072200  0.52530300  0.75380000  1
  Ca  Ca2  1  0.52530300  0.89072200  0.25380000  1
  Ca  Ca3  1  0.10927800  0.47469700  0.24620000  1
  Nb  Nb4  1  0.26424400  0.96153700  0.74740600  1
  Nb  Nb5  1  0.03846300  0.73575600  0.75259400  1
  Nb  Nb6  1  0.73575600  0.03846300  0.25259400  1
  Nb  Nb7  1  0.96153700  0.26424400  0.24740600  1
  Fe  Fe8  1  0.64163700  0.35836300  0.75000000  1
  Fe  Fe9  1  0.35836300  0.64163700  0.25000000  1
  O  O10  1  0.19410700  0.94930000  0.41162300  1
  O  O11  1  0.05070000  0.80589300  0.08837700  1
  O  O12  1  0.80589300  0.05070000  0.58837700  1
  O  O13  1  0.94930000  0.19410700  0.91162300  1
  O  O14  1  0.41058300  0.70619700  0.91226300  1
  O  O15  1  0.29380300  0.58941700  0.58773700  1
  O  O16  1  0.58941700  0.29380300  0.08773700  1
  O  O17  1  0.70619700  0.41058300  0.41226300  1
  O  O18  1  0.24373800  0.12415800  0.99752100  1
  O  O19  1  0.87584200  0.75626200  0.50247900  1
  O  O20  1  0.83281000  0.53865900  0.15698900  1
  O  O21  1  0.46134100  0.16719000  0.34301100  1
  O  O22  1  0.16719000  0.46134100  0.84301100  1
  O  O23  1  0.53865900  0.83281000  0.65698900  1
  O  O24  1  0.12415800  0.24373800  0.49752100  1
  O  O25  1  0.75626200  0.87584200  0.00247900  1
