# generated using pymatgen
data_Sn3(AsO4)4
_symmetry_space_group_name_H-M   'P 1'
_cell_length_a   5.07283700
_cell_length_b   8.84226300
_cell_length_c   16.36331186
_cell_angle_alpha   69.98489055
_cell_angle_beta   90.00000000
_cell_angle_gamma   90.00000000
_symmetry_Int_Tables_number   1
_chemical_formula_structural   Sn3(AsO4)4
_chemical_formula_sum   'Sn6 As8 O32'
_cell_volume   689.65145723
_cell_formula_units_Z   2
loop_
 _symmetry_equiv_pos_site_id
 _symmetry_equiv_pos_as_xyz
  1  'x, y, z'
loop_
 _atom_site_type_symbol
 _atom_site_label
 _atom_site_symmetry_multiplicity
 _atom_site_fract_x
 _atom_site_fract_y
 _atom_site_fract_z
 _atom_site_occupancy
  Sn  Sn0  1  0.48129300  0.18165900  0.62900200  1
  Sn  Sn1  1  0.51870700  0.81834100  0.37099800  1
  Sn  Sn2  1  0.98129300  0.81834100  0.87099800  1
  Sn  Sn3  1  0.01870700  0.18165900  0.12900200  1
  Sn  Sn4  1  0.00000000  0.50000000  0.50000000  1
  Sn  Sn5  1  0.50000000  0.50000000  0.00000000  1
  As  As6  1  0.01119600  0.07229700  0.35527700  1
  As  As7  1  0.45502200  0.42521300  0.39466300  1
  As  As8  1  0.95502200  0.57478700  0.10533700  1
  As  As9  1  0.04497800  0.42521300  0.89466300  1
  As  As10  1  0.98880400  0.92770300  0.64472300  1
  As  As11  1  0.54497800  0.57478700  0.60533700  1
  As  As12  1  0.48880400  0.07229700  0.85527700  1
  As  As13  1  0.51119600  0.92770300  0.14472300  1
  O  O14  1  0.47143700  0.80278900  0.25236000  1
  O  O15  1  0.80564600  0.68630500  0.00213100  1
  O  O16  1  0.36983500  0.37829900  0.31058500  1
  O  O17  1  0.39763900  0.11724200  0.14613600  1
  O  O18  1  0.63016500  0.62170100  0.68941500  1
  O  O19  1  0.02856300  0.80278900  0.75236000  1
  O  O20  1  0.86983500  0.62170100  0.18941500  1
  O  O21  1  0.72097900  0.48609000  0.90002600  1
  O  O22  1  0.62987300  0.14778200  0.92362100  1
  O  O23  1  0.52856300  0.19721100  0.74764000  1
  O  O24  1  0.10236100  0.11724200  0.64613600  1
  O  O25  1  0.27902100  0.51391000  0.09997400  1
  O  O26  1  0.28552000  0.60934400  0.40463200  1
  O  O27  1  0.37012700  0.85221800  0.07637900  1
  O  O28  1  0.65508500  0.98509200  0.62303700  1
  O  O29  1  0.15508500  0.01490800  0.87696300  1
  O  O30  1  0.78552000  0.39065600  0.09536800  1
  O  O31  1  0.13016500  0.37829900  0.81058500  1
  O  O32  1  0.12987300  0.85221800  0.57637900  1
  O  O33  1  0.22097900  0.51391000  0.59997400  1
  O  O34  1  0.84491500  0.98509200  0.12303700  1
  O  O35  1  0.34491500  0.01490800  0.37696300  1
  O  O36  1  0.19435400  0.31369500  0.99786900  1
  O  O37  1  0.30564600  0.31369500  0.49786900  1
  O  O38  1  0.71448000  0.39065600  0.59536800  1
  O  O39  1  0.97143700  0.19721100  0.24764000  1
  O  O40  1  0.60236100  0.88275800  0.85386400  1
  O  O41  1  0.87012700  0.14778200  0.42362100  1
  O  O42  1  0.69435400  0.68630500  0.50213100  1
  O  O43  1  0.77902100  0.48609000  0.40002600  1
  O  O44  1  0.21448000  0.60934400  0.90463200  1
  O  O45  1  0.89763900  0.88275800  0.35386400  1
