# generated using pymatgen
data_CaTa2CuO7
_symmetry_space_group_name_H-M   'P 1'
_cell_length_a   8.98814100
_cell_length_b   10.83360200
_cell_length_c   10.92658149
_cell_angle_alpha   86.18562240
_cell_angle_beta   90.00000000
_cell_angle_gamma   90.00000000
_symmetry_Int_Tables_number   1
_chemical_formula_structural   CaTa2CuO7
_chemical_formula_sum   'Ca6 Ta12 Cu6 O42'
_cell_volume   1061.60742908
_cell_formula_units_Z   6
loop_
 _symmetry_equiv_pos_site_id
 _symmetry_equiv_pos_as_xyz
  1  'x, y, z'
loop_
 _atom_site_type_symbol
 _atom_site_label
 _atom_site_symmetry_multiplicity
 _atom_site_fract_x
 _atom_site_fract_y
 _atom_site_fract_z
 _atom_site_occupancy
  Ca  Ca0  1  0.44254800  0.57359800  0.84004300  1
  Ca  Ca1  1  0.94581700  0.75000000  0.50000000  1
  Ca  Ca2  1  0.44254800  0.92640200  0.15995700  1
  Ca  Ca3  1  0.05418300  0.25000000  0.50000000  1
  Ca  Ca4  1  0.55745200  0.42640200  0.15995700  1
  Ca  Ca5  1  0.55745200  0.07359800  0.84004300  1
  Ta  Ta6  1  0.19772300  0.29018100  0.83171200  1
  Ta  Ta7  1  0.75137500  0.38166700  0.83881500  1
  Ta  Ta8  1  0.24862500  0.88166700  0.83881500  1
  Ta  Ta9  1  0.80227700  0.79018100  0.83171200  1
  Ta  Ta10  1  0.30465700  0.96621900  0.52483000  1
  Ta  Ta11  1  0.75137500  0.11833300  0.16118500  1
  Ta  Ta12  1  0.69534300  0.46621900  0.52483000  1
  Ta  Ta13  1  0.24862500  0.61833300  0.16118500  1
  Ta  Ta14  1  0.30465700  0.53378100  0.47517000  1
  Ta  Ta15  1  0.69534300  0.03378100  0.47517000  1
  Ta  Ta16  1  0.80227700  0.70981900  0.16828800  1
  Ta  Ta17  1  0.19772300  0.20981900  0.16828800  1
  Cu  Cu18  1  0.92506100  0.41073200  0.19951300  1
  Cu  Cu19  1  0.07493900  0.58926800  0.80048700  1
  Cu  Cu20  1  0.42836600  0.25000000  0.50000000  1
  Cu  Cu21  1  0.92506100  0.08926800  0.80048700  1
  Cu  Cu22  1  0.57163400  0.75000000  0.50000000  1
  Cu  Cu23  1  0.07493900  0.91073200  0.19951300  1
  O  O24  1  0.77088600  0.96128300  0.79891700  1
  O  O25  1  0.77032200  0.29067000  0.16377800  1
  O  O26  1  0.85566900  0.75000000  0.00000000  1
  O  O27  1  0.87377900  0.10610300  0.48886800  1
  O  O28  1  0.38282300  0.57068500  0.04702600  1
  O  O29  1  0.93693000  0.71476000  0.72796500  1
  O  O30  1  0.35593500  0.94311000  0.69671100  1
  O  O31  1  0.12622100  0.60610300  0.48886800  1
  O  O32  1  0.72862900  0.86798500  0.52839700  1
  O  O33  1  0.38282300  0.92931500  0.95297400  1
  O  O34  1  0.72862900  0.63201500  0.47160300  1
  O  O35  1  0.44360900  0.88444400  0.43064900  1
  O  O36  1  0.92992100  0.03634800  0.15415400  1
  O  O37  1  0.06307000  0.21476000  0.72796500  1
  O  O38  1  0.64406500  0.05689000  0.30328900  1
  O  O39  1  0.35593500  0.55689000  0.30328900  1
  O  O40  1  0.93693000  0.78524000  0.27203500  1
  O  O41  1  0.61717700  0.42931500  0.95297400  1
  O  O42  1  0.22911400  0.46128300  0.79891700  1
  O  O43  1  0.55639100  0.11555600  0.56935100  1
  O  O44  1  0.37875000  0.27853100  0.18723300  1
  O  O45  1  0.27137100  0.13201500  0.47160300  1
  O  O46  1  0.07007900  0.53634800  0.15415400  1
  O  O47  1  0.27137100  0.36798500  0.52839700  1
  O  O48  1  0.87377900  0.39389700  0.51113200  1
  O  O49  1  0.55639100  0.38444400  0.43064900  1
  O  O50  1  0.12622100  0.89389700  0.51113200  1
  O  O51  1  0.62125000  0.77853100  0.18723300  1
  O  O52  1  0.62125000  0.72146900  0.81276700  1
  O  O53  1  0.07007900  0.96365200  0.84584600  1
  O  O54  1  0.06307000  0.28524000  0.27203500  1
  O  O55  1  0.77088600  0.53871700  0.20108300  1
  O  O56  1  0.14433100  0.25000000  0.00000000  1
  O  O57  1  0.22967800  0.79067000  0.16377800  1
  O  O58  1  0.61717700  0.07068500  0.04702600  1
  O  O59  1  0.92992100  0.46365200  0.84584600  1
  O  O60  1  0.22911400  0.03871700  0.20108300  1
  O  O61  1  0.77032200  0.20933000  0.83622200  1
  O  O62  1  0.44360900  0.61555600  0.56935100  1
  O  O63  1  0.64406500  0.44311000  0.69671100  1
  O  O64  1  0.22967800  0.70933000  0.83622200  1
  O  O65  1  0.37875000  0.22146900  0.81276700  1
