# generated using pymatgen
data_YSb3F15
_symmetry_space_group_name_H-M   'P 1'
_cell_length_a   11.36077600
_cell_length_b   5.84300900
_cell_length_c   10.57475852
_cell_angle_alpha   75.51735428
_cell_angle_beta   90.00000000
_cell_angle_gamma   90.00000000
_symmetry_Int_Tables_number   1
_chemical_formula_structural   YSb3F15
_chemical_formula_sum   'Y2 Sb6 F30'
_cell_volume   679.65826169
_cell_formula_units_Z   2
loop_
 _symmetry_equiv_pos_site_id
 _symmetry_equiv_pos_as_xyz
  1  'x, y, z'
loop_
 _atom_site_type_symbol
 _atom_site_label
 _atom_site_symmetry_multiplicity
 _atom_site_fract_x
 _atom_site_fract_y
 _atom_site_fract_z
 _atom_site_occupancy
  Y  Y0  1  0.25000000  0.75773000  0.71823100  1
  Y  Y1  1  0.75000000  0.24227000  0.28176900  1
  Sb  Sb2  1  0.50000000  0.00000000  0.00000000  1
  Sb  Sb3  1  0.43559200  0.62204400  0.34552200  1
  Sb  Sb4  1  0.56440800  0.37795600  0.65447800  1
  Sb  Sb5  1  0.00000000  0.00000000  0.00000000  1
  Sb  Sb6  1  0.06440800  0.62204400  0.34552200  1
  Sb  Sb7  1  0.93559200  0.37795600  0.65447800  1
  F  F8  1  0.25000000  0.66245500  0.91244600  1
  F  F9  1  0.25000000  0.54627000  0.32458100  1
  F  F10  1  0.25000000  0.11412700  0.65792400  1
  F  F11  1  0.75000000  0.33754500  0.08755400  1
  F  F12  1  0.75000000  0.88587300  0.34207600  1
  F  F13  1  0.75000000  0.45373000  0.67541900  1
  F  F14  1  0.61108900  0.22831400  0.89862800  1
  F  F15  1  0.56912300  0.97956700  0.17146700  1
  F  F16  1  0.58161600  0.63917400  0.48678200  1
  F  F17  1  0.38891100  0.77168600  0.10137200  1
  F  F18  1  0.41838400  0.36082600  0.51321800  1
  F  F19  1  0.43087700  0.02043300  0.82853300  1
  F  F20  1  0.90363500  0.74997200  0.97731400  1
  F  F21  1  0.92679600  0.39929400  0.30095100  1
  F  F22  1  0.87688000  0.13624000  0.57081600  1
  F  F23  1  0.09636500  0.25002800  0.02268600  1
  F  F24  1  0.12312000  0.86376000  0.42918400  1
  F  F25  1  0.07320400  0.60070600  0.69904900  1
  F  F26  1  0.40363500  0.25002800  0.02268600  1
  F  F27  1  0.37688000  0.86376000  0.42918400  1
  F  F28  1  0.42679600  0.60070600  0.69904900  1
  F  F29  1  0.59636500  0.74997200  0.97731400  1
  F  F30  1  0.57320400  0.39929400  0.30095100  1
  F  F31  1  0.62312000  0.13624000  0.57081600  1
  F  F32  1  0.88891100  0.22831400  0.89862800  1
  F  F33  1  0.93087700  0.97956700  0.17146700  1
  F  F34  1  0.91838400  0.63917400  0.48678200  1
  F  F35  1  0.11108900  0.77168600  0.10137200  1
  F  F36  1  0.08161600  0.36082600  0.51321800  1
  F  F37  1  0.06912300  0.02043300  0.82853300  1
