# generated using pymatgen
data_Ca2MnNb2O8
_symmetry_space_group_name_H-M   'P 1'
_cell_length_a   10.19729880
_cell_length_b   10.19729880
_cell_length_c   5.53661953
_cell_angle_alpha   88.18314973
_cell_angle_beta   88.18314973
_cell_angle_gamma   36.35449013
_symmetry_Int_Tables_number   1
_chemical_formula_structural   Ca2MnNb2O8
_chemical_formula_sum   'Ca4 Mn2 Nb4 O16'
_cell_volume   341.08774343
_cell_formula_units_Z   2
loop_
 _symmetry_equiv_pos_site_id
 _symmetry_equiv_pos_as_xyz
  1  'x, y, z'
loop_
 _atom_site_type_symbol
 _atom_site_label
 _atom_site_symmetry_multiplicity
 _atom_site_fract_x
 _atom_site_fract_y
 _atom_site_fract_z
 _atom_site_occupancy
  Ca  Ca0  1  0.89030500  0.52318200  0.75701700  1
  Ca  Ca1  1  0.47681800  0.10969500  0.74298300  1
  Ca  Ca2  1  0.10969500  0.47681800  0.24298300  1
  Ca  Ca3  1  0.52318200  0.89030500  0.25701700  1
  Mn  Mn4  1  0.65191000  0.34809000  0.75000000  1
  Mn  Mn5  1  0.34809000  0.65191000  0.25000000  1
  Nb  Nb6  1  0.03796700  0.73372200  0.75377600  1
  Nb  Nb7  1  0.26627800  0.96203300  0.74622400  1
  Nb  Nb8  1  0.96203300  0.26627800  0.24622400  1
  Nb  Nb9  1  0.73372200  0.03796700  0.25377600  1
  O  O10  1  0.05032500  0.80494200  0.08412500  1
  O  O11  1  0.19505800  0.94967500  0.41587500  1
  O  O12  1  0.94967500  0.19505800  0.91587500  1
  O  O13  1  0.80494200  0.05032500  0.58412500  1
  O  O14  1  0.29078400  0.59191100  0.59016500  1
  O  O15  1  0.40808900  0.70921600  0.90983500  1
  O  O16  1  0.70921600  0.40808900  0.40983500  1
  O  O17  1  0.59191100  0.29078400  0.09016500  1
  O  O18  1  0.87684500  0.75619800  0.50271600  1
  O  O19  1  0.24380200  0.12315500  0.99728400  1
  O  O20  1  0.46099600  0.17081100  0.34463000  1
  O  O21  1  0.82918900  0.53900400  0.15537000  1
  O  O22  1  0.53900400  0.82918900  0.65537000  1
  O  O23  1  0.17081100  0.46099600  0.84463000  1
  O  O24  1  0.75619800  0.87684500  0.00271600  1
  O  O25  1  0.12315500  0.24380200  0.49728400  1
