# generated using pymatgen
data_Ca3Ti3(AsO4)4
_symmetry_space_group_name_H-M   'P 1'
_cell_length_a   5.14458700
_cell_length_b   8.97802200
_cell_length_c   17.53705423
_cell_angle_alpha   69.95516649
_cell_angle_beta   90.00000000
_cell_angle_gamma   90.00000000
_symmetry_Int_Tables_number   1
_chemical_formula_structural   Ca3Ti3(AsO4)4
_chemical_formula_sum   'Ca6 Ti6 As8 O32'
_cell_volume   760.93892996
_cell_formula_units_Z   2
loop_
 _symmetry_equiv_pos_site_id
 _symmetry_equiv_pos_as_xyz
  1  'x, y, z'
loop_
 _atom_site_type_symbol
 _atom_site_label
 _atom_site_symmetry_multiplicity
 _atom_site_fract_x
 _atom_site_fract_y
 _atom_site_fract_z
 _atom_site_occupancy
  Ca  Ca0  1  0.56228900  0.33048600  0.22302900  1
  Ca  Ca1  1  0.06228900  0.66951400  0.27697100  1
  Ca  Ca2  1  0.43771100  0.66951400  0.77697100  1
  Ca  Ca3  1  0.93771100  0.33048600  0.72302900  1
  Ca  Ca4  1  0.50000000  0.00000000  0.50000000  1
  Ca  Ca5  1  0.00000000  0.00000000  0.00000000  1
  Ti  Ti6  1  0.43904700  0.22096900  0.61999400  1
  Ti  Ti7  1  0.56095300  0.77903100  0.38000600  1
  Ti  Ti8  1  0.93904700  0.77903100  0.88000600  1
  Ti  Ti9  1  0.06095300  0.22096900  0.11999400  1
  Ti  Ti10  1  0.00000000  0.50000000  0.50000000  1
  Ti  Ti11  1  0.50000000  0.50000000  0.00000000  1
  As  As12  1  0.01076300  0.04618500  0.33844400  1
  As  As13  1  0.49648100  0.43134700  0.39690700  1
  As  As14  1  0.99648100  0.56865300  0.10309300  1
  As  As15  1  0.00351900  0.43134700  0.89690700  1
  As  As16  1  0.98923700  0.95381500  0.66155600  1
  As  As17  1  0.50351900  0.56865300  0.60309300  1
  As  As18  1  0.48923700  0.04618500  0.83844400  1
  As  As19  1  0.51076300  0.95381500  0.16155600  1
  O  O20  1  0.46401700  0.80800400  0.25557400  1
  O  O21  1  0.83371400  0.78408900  0.97277600  1
  O  O22  1  0.38210800  0.46645000  0.29888400  1
  O  O23  1  0.38332100  0.12079900  0.17716200  1
  O  O24  1  0.61789200  0.53355000  0.70111600  1
  O  O25  1  0.03598300  0.80800400  0.75557400  1
  O  O26  1  0.88210800  0.53355000  0.20111600  1
  O  O27  1  0.72382500  0.57238800  0.89031700  1
  O  O28  1  0.64627200  0.11070600  0.90639500  1
  O  O29  1  0.53598300  0.19199600  0.74442600  1
  O  O30  1  0.11667900  0.12079900  0.67716200  1
  O  O31  1  0.27617500  0.42761200  0.10968300  1
  O  O32  1  0.29146600  0.59982100  0.41532500  1
  O  O33  1  0.35372800  0.88929400  0.09360500  1
  O  O34  1  0.66729100  0.00730900  0.63274500  1
  O  O35  1  0.16729100  0.99269100  0.86725500  1
  O  O36  1  0.79146600  0.40017900  0.08467500  1
  O  O37  1  0.11789200  0.46645000  0.79888400  1
  O  O38  1  0.14627200  0.88929400  0.59360500  1
  O  O39  1  0.22382500  0.42761200  0.60968300  1
  O  O40  1  0.83270900  0.00730900  0.13274500  1
  O  O41  1  0.33270900  0.99269100  0.36725500  1
  O  O42  1  0.16628600  0.21591100  0.02722400  1
  O  O43  1  0.33371400  0.21591100  0.52722400  1
  O  O44  1  0.70853400  0.40017900  0.58467500  1
  O  O45  1  0.96401700  0.19199600  0.24442600  1
  O  O46  1  0.61667900  0.87920100  0.82283800  1
  O  O47  1  0.85372800  0.11070600  0.40639500  1
  O  O48  1  0.66628600  0.78408900  0.47277600  1
  O  O49  1  0.77617500  0.57238800  0.39031700  1
  O  O50  1  0.20853400  0.59982100  0.91532500  1
  O  O51  1  0.88332100  0.87920100  0.32283800  1
