# generated using pymatgen
data_Zn(MoO2)2
_symmetry_space_group_name_H-M   'P 1'
_cell_length_a   3.15853300
_cell_length_b   10.30181500
_cell_length_c   10.44376300
_cell_angle_alpha   90.00000000
_cell_angle_beta   90.00000000
_cell_angle_gamma   90.00000000
_symmetry_Int_Tables_number   1
_chemical_formula_structural   Zn(MoO2)2
_chemical_formula_sum   'Zn4 Mo8 O16'
_cell_volume   339.82566317
_cell_formula_units_Z   4
loop_
 _symmetry_equiv_pos_site_id
 _symmetry_equiv_pos_as_xyz
  1  'x, y, z'
loop_
 _atom_site_type_symbol
 _atom_site_label
 _atom_site_symmetry_multiplicity
 _atom_site_fract_x
 _atom_site_fract_y
 _atom_site_fract_z
 _atom_site_occupancy
  Zn  Zn0  1  0.04667300  0.35352800  0.75000000  1
  Zn  Zn1  1  0.04667300  0.14647200  0.25000000  1
  Zn  Zn2  1  0.95332700  0.85352800  0.75000000  1
  Zn  Zn3  1  0.95332700  0.64647200  0.25000000  1
  Mo  Mo4  1  0.69969200  0.11773400  0.92698600  1
  Mo  Mo5  1  0.69969200  0.38226600  0.42698600  1
  Mo  Mo6  1  0.30030800  0.88226600  0.42698600  1
  Mo  Mo7  1  0.69969200  0.38226600  0.07301400  1
  Mo  Mo8  1  0.30030800  0.88226600  0.07301400  1
  Mo  Mo9  1  0.69969200  0.11773400  0.57301400  1
  Mo  Mo10  1  0.30030800  0.61773400  0.57301400  1
  Mo  Mo11  1  0.30030800  0.61773400  0.92698600  1
  O  O12  1  0.19903800  0.98113300  0.61207300  1
  O  O13  1  0.80096200  0.01886700  0.38792700  1
  O  O14  1  0.19410600  0.25000000  0.50000000  1
  O  O15  1  0.80096200  0.48113300  0.61207300  1
  O  O16  1  0.80096200  0.48113300  0.88792700  1
  O  O17  1  0.57584400  0.27471900  0.25000000  1
  O  O18  1  0.19903800  0.51886700  0.38792700  1
  O  O19  1  0.42415600  0.77471900  0.25000000  1
  O  O20  1  0.19410600  0.25000000  0.00000000  1
  O  O21  1  0.80589400  0.75000000  0.50000000  1
  O  O22  1  0.19903800  0.98113300  0.88792700  1
  O  O23  1  0.42415600  0.72528100  0.75000000  1
  O  O24  1  0.57584400  0.22528100  0.75000000  1
  O  O25  1  0.80589400  0.75000000  0.00000000  1
  O  O26  1  0.19903800  0.51886700  0.11207300  1
  O  O27  1  0.80096200  0.01886700  0.11207300  1
