# generated using pymatgen
data_Ti3(AsO4)4
_symmetry_space_group_name_H-M   'P 1'
_cell_length_a   4.94865700
_cell_length_b   9.11748600
_cell_length_c   16.41656199
_cell_angle_alpha   67.60515444
_cell_angle_beta   90.00000000
_cell_angle_gamma   90.00000000
_symmetry_Int_Tables_number   1
_chemical_formula_structural   Ti3(AsO4)4
_chemical_formula_sum   'Ti6 As8 O32'
_cell_volume   684.84030239
_cell_formula_units_Z   2
loop_
 _symmetry_equiv_pos_site_id
 _symmetry_equiv_pos_as_xyz
  1  'x, y, z'
loop_
 _atom_site_type_symbol
 _atom_site_label
 _atom_site_symmetry_multiplicity
 _atom_site_fract_x
 _atom_site_fract_y
 _atom_site_fract_z
 _atom_site_occupancy
  Ti  Ti0  1  0.47315800  0.18753900  0.62770500  1
  Ti  Ti1  1  0.52684200  0.81246100  0.37229500  1
  Ti  Ti2  1  0.97315800  0.81246100  0.87229500  1
  Ti  Ti3  1  0.02684200  0.18753900  0.12770500  1
  Ti  Ti4  1  0.00000000  0.50000000  0.50000000  1
  Ti  Ti5  1  0.50000000  0.50000000  0.00000000  1
  As  As6  1  0.01649500  0.07351500  0.35068300  1
  As  As7  1  0.43765300  0.43263900  0.39948900  1
  As  As8  1  0.93765300  0.56736100  0.10051100  1
  As  As9  1  0.06234700  0.43263900  0.89948900  1
  As  As10  1  0.98350500  0.92648500  0.64931700  1
  As  As11  1  0.56234700  0.56736100  0.60051100  1
  As  As12  1  0.48350500  0.07351500  0.85068300  1
  As  As13  1  0.51649500  0.92648500  0.14931700  1
  O  O14  1  0.49787200  0.80566800  0.26087800  1
  O  O15  1  0.78925600  0.67814800  0.99478400  1
  O  O16  1  0.35983000  0.38096800  0.31764500  1
  O  O17  1  0.35989800  0.09771800  0.15243100  1
  O  O18  1  0.64017000  0.61903200  0.68235500  1
  O  O19  1  0.00212800  0.80566800  0.76087800  1
  O  O20  1  0.85983000  0.61903200  0.18235500  1
  O  O21  1  0.72391600  0.46994300  0.91339500  1
  O  O22  1  0.60104100  0.14808300  0.91945100  1
  O  O23  1  0.50212800  0.19433200  0.73912200  1
  O  O24  1  0.14010200  0.09771800  0.65243100  1
  O  O25  1  0.27608400  0.53005700  0.08660500  1
  O  O26  1  0.27579500  0.61023400  0.40644400  1
  O  O27  1  0.39895900  0.85191700  0.08054900  1
  O  O28  1  0.66011700  0.01988500  0.62521300  1
  O  O29  1  0.16011700  0.98011500  0.87478700  1
  O  O30  1  0.77579500  0.38976600  0.09355600  1
  O  O31  1  0.14017000  0.38096800  0.81764500  1
  O  O32  1  0.10104100  0.85191700  0.58054900  1
  O  O33  1  0.22391600  0.53005700  0.58660500  1
  O  O34  1  0.83988300  0.01988500  0.12521300  1
  O  O35  1  0.33988300  0.98011500  0.37478700  1
  O  O36  1  0.21074400  0.32185200  0.00521600  1
  O  O37  1  0.28925600  0.32185200  0.50521600  1
  O  O38  1  0.72420500  0.38976600  0.59355600  1
  O  O39  1  0.99787200  0.19433200  0.23912200  1
  O  O40  1  0.64010200  0.90228200  0.84756900  1
  O  O41  1  0.89895900  0.14808300  0.41945100  1
  O  O42  1  0.71074400  0.67814800  0.49478400  1
  O  O43  1  0.77608400  0.46994300  0.41339500  1
  O  O44  1  0.22420500  0.61023400  0.90644400  1
  O  O45  1  0.85989800  0.90228200  0.34756900  1
