# generated using pymatgen
data_CrF5
_symmetry_space_group_name_H-M   'P 1'
_cell_length_a   5.95416382
_cell_length_b   5.95416382
_cell_length_c   11.88762400
_cell_angle_alpha   90.00000000
_cell_angle_beta   90.00000000
_cell_angle_gamma   150.85395736
_symmetry_Int_Tables_number   1
_chemical_formula_structural   CrF5
_chemical_formula_sum   'Cr2 F10'
_cell_volume   205.25744387
_cell_formula_units_Z   2
loop_
 _symmetry_equiv_pos_site_id
 _symmetry_equiv_pos_as_xyz
  1  'x, y, z'
loop_
 _atom_site_type_symbol
 _atom_site_label
 _atom_site_symmetry_multiplicity
 _atom_site_fract_x
 _atom_site_fract_y
 _atom_site_fract_z
 _atom_site_occupancy
  Cr  Cr0  1  0.50000000  0.50000000  0.50000000  1
  Cr  Cr1  1  0.50000000  0.50000000  0.00000000  1
  F  F2  1  0.70628900  0.29371100  0.25000000  1
  F  F3  1  0.29371100  0.70628900  0.75000000  1
  F  F4  1  0.94289400  0.05710600  0.58798100  1
  F  F5  1  0.05710600  0.94289400  0.41201900  1
  F  F6  1  0.62826300  0.37173700  0.91932200  1
  F  F7  1  0.37173700  0.62826300  0.08067800  1
  F  F8  1  0.37173700  0.62826300  0.41932200  1
  F  F9  1  0.62826300  0.37173700  0.58067800  1
  F  F10  1  0.94289400  0.05710600  0.91201900  1
  F  F11  1  0.05710600  0.94289400  0.08798100  1
