# generated using pymatgen
data_Mg(SbO2)2
_symmetry_space_group_name_H-M   'P 1'
_cell_length_a   3.39316100
_cell_length_b   10.71924700
_cell_length_c   10.96904700
_cell_angle_alpha   90.00000000
_cell_angle_beta   90.00000000
_cell_angle_gamma   90.00000000
_symmetry_Int_Tables_number   1
_chemical_formula_structural   Mg(SbO2)2
_chemical_formula_sum   'Mg4 Sb8 O16'
_cell_volume   398.96761300
_cell_formula_units_Z   4
loop_
 _symmetry_equiv_pos_site_id
 _symmetry_equiv_pos_as_xyz
  1  'x, y, z'
loop_
 _atom_site_type_symbol
 _atom_site_label
 _atom_site_symmetry_multiplicity
 _atom_site_fract_x
 _atom_site_fract_y
 _atom_site_fract_z
 _atom_site_occupancy
  Mg  Mg0  1  0.83401600  0.75000000  0.38335200  1
  Mg  Mg1  1  0.83401600  0.25000000  0.11664800  1
  Mg  Mg2  1  0.16598400  0.75000000  0.88335200  1
  Mg  Mg3  1  0.16598400  0.25000000  0.61664800  1
  Sb  Sb4  1  0.39157600  0.58844500  0.12395400  1
  Sb  Sb5  1  0.39157600  0.08844500  0.37604600  1
  Sb  Sb6  1  0.60842400  0.08844500  0.87604600  1
  Sb  Sb7  1  0.39157600  0.41155500  0.37604600  1
  Sb  Sb8  1  0.60842400  0.41155500  0.87604600  1
  Sb  Sb9  1  0.39157600  0.91155500  0.12395400  1
  Sb  Sb10  1  0.60842400  0.91155500  0.62395400  1
  Sb  Sb11  1  0.60842400  0.58844500  0.62395400  1
  O  O12  1  0.63161600  0.87741600  0.95204600  1
  O  O13  1  0.36838400  0.12258400  0.04795400  1
  O  O14  1  0.74451900  0.00000000  0.25000000  1
  O  O15  1  0.36838400  0.87741600  0.45204600  1
  O  O16  1  0.36838400  0.62258400  0.45204600  1
  O  O17  1  0.65020300  0.25000000  0.29516300  1
  O  O18  1  0.63161600  0.12258400  0.54795400  1
  O  O19  1  0.34979700  0.25000000  0.79516300  1
  O  O20  1  0.74451900  0.50000000  0.25000000  1
  O  O21  1  0.25548100  0.00000000  0.75000000  1
  O  O22  1  0.63161600  0.62258400  0.95204600  1
  O  O23  1  0.34979700  0.75000000  0.70483700  1
  O  O24  1  0.65020300  0.75000000  0.20483700  1
  O  O25  1  0.25548100  0.50000000  0.75000000  1
  O  O26  1  0.63161600  0.37741600  0.54795400  1
  O  O27  1  0.36838400  0.37741600  0.04795400  1
