# generated using pymatgen
data_Mg3Sn3(AsO4)4
_symmetry_space_group_name_H-M   'P 1'
_cell_length_a   5.54763400
_cell_length_b   9.18492400
_cell_length_c   17.80994659
_cell_angle_alpha   59.31280639
_cell_angle_beta   90.00000000
_cell_angle_gamma   90.00000000
_symmetry_Int_Tables_number   1
_chemical_formula_structural   Mg3Sn3(AsO4)4
_chemical_formula_sum   'Mg6 Sn6 As8 O32'
_cell_volume   780.41830964
_cell_formula_units_Z   2
loop_
 _symmetry_equiv_pos_site_id
 _symmetry_equiv_pos_as_xyz
  1  'x, y, z'
loop_
 _atom_site_type_symbol
 _atom_site_label
 _atom_site_symmetry_multiplicity
 _atom_site_fract_x
 _atom_site_fract_y
 _atom_site_fract_z
 _atom_site_occupancy
  Mg  Mg0  1  0.56567000  0.32494600  0.22133100  1
  Mg  Mg1  1  0.06567000  0.67505400  0.27866900  1
  Mg  Mg2  1  0.43433000  0.67505400  0.77866900  1
  Mg  Mg3  1  0.93433000  0.32494600  0.72133100  1
  Mg  Mg4  1  0.50000000  0.00000000  0.50000000  1
  Mg  Mg5  1  0.00000000  0.00000000  0.00000000  1
  Sn  Sn6  1  0.54111900  0.16987500  0.63527500  1
  Sn  Sn7  1  0.45888100  0.83012500  0.36472500  1
  Sn  Sn8  1  0.04111900  0.83012500  0.86472500  1
  Sn  Sn9  1  0.95888100  0.16987500  0.13527500  1
  Sn  Sn10  1  0.00000000  0.50000000  0.50000000  1
  Sn  Sn11  1  0.50000000  0.50000000  0.00000000  1
  As  As12  1  0.99399400  0.01784100  0.36682500  1
  As  As13  1  0.54023300  0.43630200  0.37981400  1
  As  As14  1  0.04023300  0.56369800  0.12018600  1
  As  As15  1  0.95976700  0.43630200  0.87981400  1
  As  As16  1  0.00600600  0.98215900  0.63317500  1
  As  As17  1  0.45976700  0.56369800  0.62018600  1
  As  As18  1  0.50600600  0.01784100  0.86682500  1
  As  As19  1  0.49399400  0.98215900  0.13317500  1
  O  O20  1  0.34272300  0.85140600  0.23077600  1
  O  O21  1  0.06239300  0.74974200  0.02243800  1
  O  O22  1  0.47391600  0.42325500  0.29134800  1
  O  O23  1  0.55201800  0.17609100  0.12992800  1
  O  O24  1  0.52608400  0.57674500  0.70865200  1
  O  O25  1  0.15727700  0.85140600  0.73077600  1
  O  O26  1  0.97391600  0.57674500  0.20865200  1
  O  O27  1  0.70891900  0.55959500  0.86669500  1
  O  O28  1  0.68731600  0.99259300  0.94734000  1
  O  O29  1  0.65727700  0.14859400  0.76922400  1
  O  O30  1  0.94798200  0.17609100  0.62992800  1
  O  O31  1  0.29108100  0.44040500  0.13330500  1
  O  O32  1  0.30319400  0.55537700  0.38861100  1
  O  O33  1  0.31268400  0.00740700  0.05266000  1
  O  O34  1  0.70746300  0.92415200  0.63334000  1
  O  O35  1  0.20746300  0.07584800  0.86666000  1
  O  O36  1  0.80319400  0.44462300  0.11138900  1
  O  O37  1  0.02608400  0.42325500  0.79134800  1
  O  O38  1  0.18731600  0.00740700  0.55266000  1
  O  O39  1  0.20891900  0.44040500  0.63330500  1
  O  O40  1  0.79253700  0.92415200  0.13334000  1
  O  O41  1  0.29253700  0.07584800  0.36666000  1
  O  O42  1  0.93760700  0.25025800  0.97756200  1
  O  O43  1  0.56239300  0.25025800  0.47756200  1
  O  O44  1  0.69680600  0.44462300  0.61138900  1
  O  O45  1  0.84272300  0.14859400  0.26922400  1
  O  O46  1  0.44798200  0.82390900  0.87007200  1
  O  O47  1  0.81268400  0.99259300  0.44734000  1
  O  O48  1  0.43760700  0.74974200  0.52243800  1
  O  O49  1  0.79108100  0.55959500  0.36669500  1
  O  O50  1  0.19680600  0.55537700  0.88861100  1
  O  O51  1  0.05201800  0.82390900  0.37007200  1
