# generated using pymatgen
data_Ca(CoO2)2
_symmetry_space_group_name_H-M   'P 1'
_cell_length_a   5.18801532
_cell_length_b   5.18801532
_cell_length_c   9.78481400
_cell_angle_alpha   90.00000000
_cell_angle_beta   90.00000000
_cell_angle_gamma   145.03886661
_symmetry_Int_Tables_number   1
_chemical_formula_structural   Ca(CoO2)2
_chemical_formula_sum   'Ca2 Co4 O8'
_cell_volume   150.91254163
_cell_formula_units_Z   2
loop_
 _symmetry_equiv_pos_site_id
 _symmetry_equiv_pos_as_xyz
  1  'x, y, z'
loop_
 _atom_site_type_symbol
 _atom_site_label
 _atom_site_symmetry_multiplicity
 _atom_site_fract_x
 _atom_site_fract_y
 _atom_site_fract_z
 _atom_site_occupancy
  Ca  Ca0  1  0.60748200  0.39251800  0.75000000  1
  Ca  Ca1  1  0.39251800  0.60748200  0.25000000  1
  Co  Co2  1  0.13544600  0.86455400  0.06725600  1
  Co  Co3  1  0.86455400  0.13544600  0.93274400  1
  Co  Co4  1  0.13544600  0.86455400  0.43274400  1
  Co  Co5  1  0.86455400  0.13544600  0.56725600  1
  O  O6  1  0.77261700  0.22738300  0.39298500  1
  O  O7  1  0.22738300  0.77261700  0.60701500  1
  O  O8  1  0.22738300  0.77261700  0.89298500  1
  O  O9  1  0.77261700  0.22738300  0.10701500  1
  O  O10  1  0.06760400  0.93239600  0.25000000  1
  O  O11  1  0.93239600  0.06760400  0.75000000  1
  O  O12  1  0.50000000  0.50000000  0.00000000  1
  O  O13  1  0.50000000  0.50000000  0.50000000  1
