# generated using pymatgen
data_Mg(MoO2)2
_symmetry_space_group_name_H-M   'P 1'
_cell_length_a   6.42934788
_cell_length_b   6.42934788
_cell_length_c   6.42934788
_cell_angle_alpha   123.72493082
_cell_angle_beta   123.10540722
_cell_angle_gamma   84.18093149
_symmetry_Int_Tables_number   1
_chemical_formula_structural   Mg(MoO2)2
_chemical_formula_sum   'Mg2 Mo4 O8'
_cell_volume   177.21742747
_cell_formula_units_Z   2
loop_
 _symmetry_equiv_pos_site_id
 _symmetry_equiv_pos_as_xyz
  1  'x, y, z'
loop_
 _atom_site_type_symbol
 _atom_site_label
 _atom_site_symmetry_multiplicity
 _atom_site_fract_x
 _atom_site_fract_y
 _atom_site_fract_z
 _atom_site_occupancy
  Mg  Mg0  1  0.00000000  0.50000000  0.00000000  1
  Mg  Mg1  1  0.00000000  0.00000000  0.50000000  1
  Mo  Mo2  1  0.62148900  0.87148900  0.75000000  1
  Mo  Mo3  1  0.37851100  0.12851100  0.25000000  1
  Mo  Mo4  1  0.00000000  0.50000000  0.50000000  1
  Mo  Mo5  1  0.50000000  0.50000000  0.00000000  1
  O  O6  1  0.77825000  0.27379500  0.50445500  1
  O  O7  1  0.22232700  0.72430800  0.00198100  1
  O  O8  1  0.26934000  0.27379500  0.99554500  1
  O  O9  1  0.22232700  0.22034700  0.49801900  1
  O  O10  1  0.77767300  0.77965300  0.50198100  1
  O  O11  1  0.77767300  0.27569200  0.99801900  1
  O  O12  1  0.73066000  0.72620500  0.00445500  1
  O  O13  1  0.22175000  0.72620500  0.49554500  1
