# generated using pymatgen
data_Mn2ZnO4
_symmetry_space_group_name_H-M   'P 1'
_cell_length_a   6.13032264
_cell_length_b   6.13032264
_cell_length_c   6.13032264
_cell_angle_alpha   121.18528927
_cell_angle_beta   121.07129734
_cell_angle_gamma   88.05663074
_symmetry_Int_Tables_number   1
_chemical_formula_structural   Mn2ZnO4
_chemical_formula_sum   'Mn4 Zn2 O8'
_cell_volume   160.02685639
_cell_formula_units_Z   2
loop_
 _symmetry_equiv_pos_site_id
 _symmetry_equiv_pos_as_xyz
  1  'x, y, z'
loop_
 _atom_site_type_symbol
 _atom_site_label
 _atom_site_symmetry_multiplicity
 _atom_site_fract_x
 _atom_site_fract_y
 _atom_site_fract_z
 _atom_site_occupancy
  Mn  Mn0  1  0.63816200  0.88816200  0.75000000  1
  Mn  Mn1  1  0.36183800  0.11183800  0.25000000  1
  Mn  Mn2  1  0.00000000  0.00000000  0.50000000  1
  Mn  Mn3  1  0.00000000  0.50000000  0.00000000  1
  Zn  Zn4  1  0.50000000  0.50000000  0.00000000  1
  Zn  Zn5  1  0.00000000  0.50000000  0.50000000  1
  O  O6  1  0.22093400  0.23694600  0.51601200  1
  O  O7  1  0.21713000  0.24810200  0.96902800  1
  O  O8  1  0.22093400  0.70492200  0.98398800  1
  O  O9  1  0.77907400  0.24810200  0.53097200  1
  O  O10  1  0.22092600  0.75189800  0.46902800  1
  O  O11  1  0.78287000  0.75189800  0.03097200  1
  O  O12  1  0.77906600  0.29507800  0.01601200  1
  O  O13  1  0.77906600  0.76305400  0.48398800  1
