# generated using pymatgen
data_MgBiSbO5
_symmetry_space_group_name_H-M   'P 1'
_cell_length_a   5.23060600
_cell_length_b   10.35825900
_cell_length_c   16.09411600
_cell_angle_alpha   90.00000000
_cell_angle_beta   90.00000000
_cell_angle_gamma   90.00000000
_symmetry_Int_Tables_number   1
_chemical_formula_structural   MgBiSbO5
_chemical_formula_sum   'Mg8 Bi8 Sb8 O40'
_cell_volume   871.97874901
_cell_formula_units_Z   8
loop_
 _symmetry_equiv_pos_site_id
 _symmetry_equiv_pos_as_xyz
  1  'x, y, z'
loop_
 _atom_site_type_symbol
 _atom_site_label
 _atom_site_symmetry_multiplicity
 _atom_site_fract_x
 _atom_site_fract_y
 _atom_site_fract_z
 _atom_site_occupancy
  Mg  Mg0  1  0.53366400  0.38253000  0.56084300  1
  Mg  Mg1  1  0.03366400  0.11747000  0.56084300  1
  Mg  Mg2  1  0.03366400  0.61747000  0.93915700  1
  Mg  Mg3  1  0.96633600  0.38253000  0.06084300  1
  Mg  Mg4  1  0.46633600  0.11747000  0.06084300  1
  Mg  Mg5  1  0.96633600  0.88253000  0.43915700  1
  Mg  Mg6  1  0.46633600  0.61747000  0.43915700  1
  Mg  Mg7  1  0.53366400  0.88253000  0.93915700  1
  Bi  Bi8  1  0.01341800  0.85990600  0.77577900  1
  Bi  Bi9  1  0.98658200  0.14009400  0.22422100  1
  Bi  Bi10  1  0.48658200  0.35990600  0.22422100  1
  Bi  Bi11  1  0.98658200  0.64009400  0.27577900  1
  Bi  Bi12  1  0.51341800  0.14009400  0.72422100  1
  Bi  Bi13  1  0.51341800  0.64009400  0.77577900  1
  Bi  Bi14  1  0.48658200  0.85990600  0.27577900  1
  Bi  Bi15  1  0.01341800  0.35990600  0.72422100  1
  Sb  Sb16  1  0.00880900  0.37277900  0.41595000  1
  Sb  Sb17  1  0.49119100  0.87277900  0.58405000  1
  Sb  Sb18  1  0.99119100  0.62722100  0.58405000  1
  Sb  Sb19  1  0.50880900  0.12722100  0.41595000  1
  Sb  Sb20  1  0.99119100  0.12722100  0.91595000  1
  Sb  Sb21  1  0.00880900  0.87277900  0.08405000  1
  Sb  Sb22  1  0.49119100  0.37277900  0.91595000  1
  Sb  Sb23  1  0.50880900  0.62722100  0.08405000  1
  O  O24  1  0.87208900  0.32231900  0.30768600  1
  O  O25  1  0.24814900  0.01929700  0.96595600  1
  O  O26  1  0.25185100  0.51929700  0.03404400  1
  O  O27  1  0.32595200  0.78263200  0.85274300  1
  O  O28  1  0.17404800  0.28263200  0.14725700  1
  O  O29  1  0.87208900  0.82231900  0.19231400  1
  O  O30  1  0.17404800  0.78263200  0.35274300  1
  O  O31  1  0.62791100  0.82231900  0.69231400  1
  O  O32  1  0.24814900  0.51929700  0.53404400  1
  O  O33  1  0.12791100  0.67768100  0.69231400  1
  O  O34  1  0.62791100  0.32231900  0.80768600  1
  O  O35  1  0.79993800  0.22052700  0.46994800  1
  O  O36  1  0.74814900  0.98070300  0.53404400  1
  O  O37  1  0.67404800  0.71736800  0.35274300  1
  O  O38  1  0.22837600  0.00404900  0.13589000  1
  O  O39  1  0.74814900  0.48070300  0.96595600  1
  O  O40  1  0.12791100  0.17768100  0.80768600  1
  O  O41  1  0.82595200  0.21736800  0.64725700  1
  O  O42  1  0.29993800  0.77947300  0.03005200  1
  O  O43  1  0.25185100  0.01929700  0.46595600  1
  O  O44  1  0.20006200  0.77947300  0.53005200  1
  O  O45  1  0.77162400  0.99595100  0.86411000  1
  O  O46  1  0.67404800  0.21736800  0.14725700  1
  O  O47  1  0.72837600  0.99595100  0.36411000  1
  O  O48  1  0.20006200  0.27947300  0.96994800  1
  O  O49  1  0.29993800  0.27947300  0.46994800  1
  O  O50  1  0.75185100  0.48070300  0.46595600  1
  O  O51  1  0.75185100  0.98070300  0.03404400  1
  O  O52  1  0.72837600  0.49595100  0.13589000  1
  O  O53  1  0.70006200  0.72052700  0.53005200  1
  O  O54  1  0.70006200  0.22052700  0.96994800  1
  O  O55  1  0.79993800  0.72052700  0.03005200  1
  O  O56  1  0.77162400  0.49595100  0.63589000  1
  O  O57  1  0.82595200  0.71736800  0.85274300  1
  O  O58  1  0.32595200  0.28263200  0.64725700  1
  O  O59  1  0.22837600  0.50404900  0.36411000  1
  O  O60  1  0.27162400  0.50404900  0.86411000  1
  O  O61  1  0.37208900  0.17768100  0.30768600  1
  O  O62  1  0.27162400  0.00404900  0.63589000  1
  O  O63  1  0.37208900  0.67768100  0.19231400  1
