# generated using pymatgen
data_MgTe2O7
_symmetry_space_group_name_H-M   'P 1'
_cell_length_a   6.60675600
_cell_length_b   6.84738100
_cell_length_c   7.85874645
_cell_angle_alpha   67.98185225
_cell_angle_beta   90.00000000
_cell_angle_gamma   90.00000000
_symmetry_Int_Tables_number   1
_chemical_formula_structural   MgTe2O7
_chemical_formula_sum   'Mg2 Te4 O14'
_cell_volume   329.59172278
_cell_formula_units_Z   2
loop_
 _symmetry_equiv_pos_site_id
 _symmetry_equiv_pos_as_xyz
  1  'x, y, z'
loop_
 _atom_site_type_symbol
 _atom_site_label
 _atom_site_symmetry_multiplicity
 _atom_site_fract_x
 _atom_site_fract_y
 _atom_site_fract_z
 _atom_site_occupancy
  Mg  Mg0  1  0.11454300  0.06117600  0.35290600  1
  Mg  Mg1  1  0.61454300  0.93882400  0.64709400  1
  Te  Te2  1  0.12142900  0.92498100  0.81987300  1
  Te  Te3  1  0.62142900  0.07501900  0.18012700  1
  Te  Te4  1  0.69902900  0.41728500  0.72901300  1
  Te  Te5  1  0.19902900  0.58271500  0.27098700  1
  O  O6  1  0.42636200  0.51195100  0.40605700  1
  O  O7  1  0.92636200  0.48804900  0.59394300  1
  O  O8  1  0.77255700  0.03290400  0.39258000  1
  O  O9  1  0.27255700  0.96709600  0.60742000  1
  O  O10  1  0.02810600  0.36386200  0.29217200  1
  O  O11  1  0.52810600  0.63613800  0.70782800  1
  O  O12  1  0.37999000  0.17742600  0.22560400  1
  O  O13  1  0.87999000  0.82257400  0.77439600  1
  O  O14  1  0.07188500  0.82183600  0.26779100  1
  O  O15  1  0.57188500  0.17816400  0.73220900  1
  O  O16  1  0.25125100  0.68095400  0.00022500  1
  O  O17  1  0.75125100  0.31904600  0.99977500  1
  O  O18  1  0.10979100  0.14701700  0.88939800  1
  O  O19  1  0.60979100  0.85298300  0.11060200  1
