# generated using pymatgen
data_CaTa2CoO7
_symmetry_space_group_name_H-M   'P 1'
_cell_length_a   15.14305300
_cell_length_b   7.16717000
_cell_length_c   11.80374187
_cell_angle_alpha   77.95663403
_cell_angle_beta   90.00000000
_cell_angle_gamma   90.00000000
_symmetry_Int_Tables_number   1
_chemical_formula_structural   CaTa2CoO7
_chemical_formula_sum   'Ca8 Ta16 Co8 O56'
_cell_volume   1252.89664577
_cell_formula_units_Z   8
loop_
 _symmetry_equiv_pos_site_id
 _symmetry_equiv_pos_as_xyz
  1  'x, y, z'
loop_
 _atom_site_type_symbol
 _atom_site_label
 _atom_site_symmetry_multiplicity
 _atom_site_fract_x
 _atom_site_fract_y
 _atom_site_fract_z
 _atom_site_occupancy
  Ca  Ca0  1  0.51031300  0.93993000  0.72936800  1
  Ca  Ca1  1  0.87132300  0.68668100  0.96069400  1
  Ca  Ca2  1  0.37132300  0.31331900  0.53930600  1
  Ca  Ca3  1  0.12867700  0.31331900  0.03930600  1
  Ca  Ca4  1  0.62867700  0.68668100  0.46069400  1
  Ca  Ca5  1  0.98968700  0.93993000  0.22936800  1
  Ca  Ca6  1  0.48968700  0.06007000  0.27063200  1
  Ca  Ca7  1  0.01031300  0.06007000  0.77063200  1
  Ta  Ta8  1  0.87483800  0.16513700  0.97714200  1
  Ta  Ta9  1  0.01579400  0.57727400  0.69168300  1
  Ta  Ta10  1  0.48420600  0.57727400  0.19168300  1
  Ta  Ta11  1  0.98420600  0.42272600  0.30831700  1
  Ta  Ta12  1  0.71738000  0.49371200  0.79868800  1
  Ta  Ta13  1  0.21738000  0.50628800  0.70131200  1
  Ta  Ta14  1  0.28262000  0.50628800  0.20131200  1
  Ta  Ta15  1  0.78262000  0.49371200  0.29868800  1
  Ta  Ta16  1  0.51579400  0.42272600  0.80831700  1
  Ta  Ta17  1  0.14046900  0.12870500  0.48412800  1
  Ta  Ta18  1  0.64046900  0.87129500  0.01587200  1
  Ta  Ta19  1  0.85953100  0.87129500  0.51587200  1
  Ta  Ta20  1  0.37483800  0.83486300  0.52285800  1
  Ta  Ta21  1  0.62516200  0.16513700  0.47714200  1
  Ta  Ta22  1  0.12516200  0.83486300  0.02285800  1
  Ta  Ta23  1  0.35953100  0.12870500  0.98412800  1
  Co  Co24  1  0.66871300  0.35706100  0.07923100  1
  Co  Co25  1  0.16871300  0.64293900  0.42076900  1
  Co  Co26  1  0.33128700  0.64293900  0.92076900  1
  Co  Co27  1  0.83128700  0.35706100  0.57923100  1
  Co  Co28  1  0.75454400  0.00811300  0.24357700  1
  Co  Co29  1  0.25454400  0.99188700  0.25642300  1
  Co  Co30  1  0.24545600  0.99188700  0.75642300  1
  Co  Co31  1  0.74545600  0.00811300  0.74357700  1
  O  O32  1  0.99158100  0.23199400  0.96107500  1
  O  O33  1  0.49158100  0.76800600  0.53892500  1
  O  O34  1  0.00841900  0.76800600  0.03892500  1
  O  O35  1  0.50841900  0.23199400  0.46107500  1
  O  O36  1  0.85876500  0.00863000  0.87104700  1
  O  O37  1  0.35876500  0.99137000  0.62895300  1
  O  O38  1  0.14123500  0.99137000  0.12895300  1
  O  O39  1  0.64123500  0.00863000  0.37104700  1
  O  O40  1  0.85986800  0.01149500  0.12267600  1
  O  O41  1  0.35986800  0.98850500  0.37732400  1
  O  O42  1  0.14013200  0.98850500  0.87732400  1
  O  O43  1  0.64013200  0.01149500  0.62267600  1
  O  O44  1  0.27932000  0.32873900  0.95667500  1
  O  O45  1  0.77932000  0.67126100  0.54332500  1
  O  O46  1  0.72068000  0.67126100  0.04332500  1
  O  O47  1  0.22068000  0.32873900  0.45667500  1
  O  O48  1  0.36421600  0.02708600  0.14197400  1
  O  O49  1  0.86421600  0.97291400  0.35802600  1
  O  O50  1  0.63578400  0.97291400  0.85802600  1
  O  O51  1  0.13578400  0.02708600  0.64197400  1
  O  O52  1  0.33304100  0.93931900  0.89955900  1
  O  O53  1  0.44298400  0.62880400  0.81448500  1
  O  O54  1  0.83304100  0.06068100  0.60044100  1
  O  O55  1  0.16695900  0.93931900  0.39955900  1
  O  O56  1  0.47839000  0.27591800  0.70548300  1
  O  O57  1  0.97839000  0.72408200  0.79451700  1
  O  O58  1  0.52161000  0.72408200  0.29451700  1
  O  O59  1  0.02161000  0.27591800  0.20548300  1
  O  O60  1  0.47272100  0.23192600  0.94564600  1
  O  O61  1  0.97272100  0.76807400  0.55435400  1
  O  O62  1  0.52727900  0.76807400  0.05435400  1
  O  O63  1  0.02727900  0.23192600  0.44564600  1
  O  O64  1  0.88950300  0.56367400  0.20677300  1
  O  O65  1  0.38950300  0.43632600  0.29322700  1
  O  O66  1  0.11049700  0.43632600  0.79322700  1
  O  O67  1  0.61049700  0.56367400  0.70677300  1
  O  O68  1  0.74459100  0.30605500  0.22095600  1
  O  O69  1  0.24459100  0.69394500  0.27904400  1
  O  O70  1  0.25540900  0.69394500  0.77904400  1
  O  O71  1  0.75540900  0.30605500  0.72095600  1
  O  O72  1  0.70082700  0.38565500  0.44479400  1
  O  O73  1  0.20082700  0.61434500  0.05520600  1
  O  O74  1  0.29917300  0.61434500  0.55520600  1
  O  O75  1  0.79917300  0.38565500  0.94479400  1
  O  O76  1  0.72501600  0.72400300  0.28514100  1
  O  O77  1  0.22501600  0.27599700  0.21485900  1
  O  O78  1  0.27498400  0.27599700  0.71485900  1
  O  O79  1  0.77498400  0.72400300  0.78514100  1
  O  O80  1  0.87589700  0.41131700  0.41540100  1
  O  O81  1  0.37589700  0.58868300  0.08459900  1
  O  O82  1  0.12410300  0.58868300  0.58459900  1
  O  O83  1  0.62410300  0.41131700  0.91540100  1
  O  O84  1  0.05701600  0.62880400  0.31448500  1
  O  O85  1  0.55701600  0.37119600  0.18551500  1
  O  O86  1  0.94298400  0.37119600  0.68551500  1
  O  O87  1  0.66695900  0.06068100  0.10044100  1
