# generated using pymatgen
data_CaP2WO7
_symmetry_space_group_name_H-M   'P 1'
_cell_length_a   6.00058800
_cell_length_b   6.79292758
_cell_length_c   7.91180006
_cell_angle_alpha   80.26216654
_cell_angle_beta   86.58688486
_cell_angle_gamma   69.76297338
_symmetry_Int_Tables_number   1
_chemical_formula_structural   CaP2WO7
_chemical_formula_sum   'Ca2 P4 W2 O14'
_cell_volume   298.22955502
_cell_formula_units_Z   2
loop_
 _symmetry_equiv_pos_site_id
 _symmetry_equiv_pos_as_xyz
  1  'x, y, z'
loop_
 _atom_site_type_symbol
 _atom_site_label
 _atom_site_symmetry_multiplicity
 _atom_site_fract_x
 _atom_site_fract_y
 _atom_site_fract_z
 _atom_site_occupancy
  Ca  Ca0  1  0.31076600  0.67697900  0.65335500  1
  Ca  Ca1  1  0.68923400  0.32302100  0.34664500  1
  P  P2  1  0.16338500  0.66014800  0.11900900  1
  P  P3  1  0.83661500  0.33985200  0.88099100  1
  P  P4  1  0.22059600  0.22017600  0.61691500  1
  P  P5  1  0.77940400  0.77982400  0.38308500  1
  W  W6  1  0.28418600  0.12682600  0.16578200  1
  W  W7  1  0.71581400  0.87317400  0.83421800  1
  O  O8  1  0.08232000  0.71659000  0.92975500  1
  O  O9  1  0.91768000  0.28341000  0.07024500  1
  O  O10  1  0.25741800  0.81554200  0.17895900  1
  O  O11  1  0.74258200  0.18445800  0.82104100  1
  O  O12  1  0.34341200  0.43153600  0.15734900  1
  O  O13  1  0.65658800  0.56846400  0.84265100  1
  O  O14  1  0.62397600  0.64632800  0.44940500  1
  O  O15  1  0.37602400  0.35367200  0.55059500  1
  O  O16  1  0.05150800  0.20646400  0.48892800  1
  O  O17  1  0.94849200  0.79353600  0.51107200  1
  O  O18  1  0.07302300  0.34567100  0.77101400  1
  O  O19  1  0.62981000  0.00677800  0.29471000  1
  O  O20  1  0.37019000  0.99322200  0.70529000  1
  O  O21  1  0.92697700  0.65432900  0.22898600  1
