# generated using pymatgen
data_Mg(SbO2)2
_symmetry_space_group_name_H-M   'P 1'
_cell_length_a   9.98432600
_cell_length_b   6.98177600
_cell_length_c   7.12570369
_cell_angle_alpha   88.49421011
_cell_angle_beta   90.00000000
_cell_angle_gamma   90.00000000
_symmetry_Int_Tables_number   1
_chemical_formula_structural   Mg(SbO2)2
_chemical_formula_sum   'Mg4 Sb8 O16'
_cell_volume   496.54935692
_cell_formula_units_Z   4
loop_
 _symmetry_equiv_pos_site_id
 _symmetry_equiv_pos_as_xyz
  1  'x, y, z'
loop_
 _atom_site_type_symbol
 _atom_site_label
 _atom_site_symmetry_multiplicity
 _atom_site_fract_x
 _atom_site_fract_y
 _atom_site_fract_z
 _atom_site_occupancy
  Mg  Mg0  1  0.75118300  0.69025500  0.79134200  1
  Mg  Mg1  1  0.25118300  0.30974500  0.20865800  1
  Mg  Mg2  1  0.23687800  0.02483300  0.63125200  1
  Mg  Mg3  1  0.73687800  0.97516700  0.36874800  1
  Sb  Sb4  1  0.44609900  0.95032400  0.21546300  1
  Sb  Sb5  1  0.06502500  0.93999300  0.23423000  1
  Sb  Sb6  1  0.56502500  0.06000700  0.76577000  1
  Sb  Sb7  1  0.94609900  0.04967600  0.78453700  1
  Sb  Sb8  1  0.56998000  0.39453800  0.10768200  1
  Sb  Sb9  1  0.94599600  0.36817600  0.41420200  1
  Sb  Sb10  1  0.44599600  0.63182400  0.58579800  1
  Sb  Sb11  1  0.06998000  0.60546200  0.89231800  1
  O  O12  1  0.40778200  0.48910800  0.22011200  1
  O  O13  1  0.09461200  0.46833900  0.26947400  1
  O  O14  1  0.59461200  0.53166100  0.73052600  1
  O  O15  1  0.90778200  0.51089200  0.77988800  1
  O  O16  1  0.59207800  0.14971300  0.27654800  1
  O  O17  1  0.90217700  0.11605300  0.26745300  1
  O  O18  1  0.40217700  0.88394700  0.73254700  1
  O  O19  1  0.09207800  0.85028700  0.72345200  1
  O  O20  1  0.65202500  0.88843400  0.95079300  1
  O  O21  1  0.81827700  0.90742600  0.61506100  1
  O  O22  1  0.31827700  0.09257400  0.38493900  1
  O  O23  1  0.15202500  0.11156600  0.04920700  1
  O  O24  1  0.45434600  0.20910000  0.95954100  1
  O  O25  1  0.06575700  0.19941200  0.58441700  1
  O  O26  1  0.56575700  0.80058800  0.41558300  1
  O  O27  1  0.95434600  0.79090000  0.04045900  1
