# generated using pymatgen
data_MgSnBiO5
_symmetry_space_group_name_H-M   'P 1'
_cell_length_a   5.30313500
_cell_length_b   10.37084500
_cell_length_c   15.42393600
_cell_angle_alpha   90.00000000
_cell_angle_beta   90.00000000
_cell_angle_gamma   90.00000000
_symmetry_Int_Tables_number   1
_chemical_formula_structural   MgSnBiO5
_chemical_formula_sum   'Mg8 Sn8 Bi8 O40'
_cell_volume   848.28549484
_cell_formula_units_Z   8
loop_
 _symmetry_equiv_pos_site_id
 _symmetry_equiv_pos_as_xyz
  1  'x, y, z'
loop_
 _atom_site_type_symbol
 _atom_site_label
 _atom_site_symmetry_multiplicity
 _atom_site_fract_x
 _atom_site_fract_y
 _atom_site_fract_z
 _atom_site_occupancy
  Mg  Mg0  1  0.53472000  0.37880000  0.56432300  1
  Mg  Mg1  1  0.03472000  0.12120000  0.56432300  1
  Mg  Mg2  1  0.03472000  0.62120000  0.93567700  1
  Mg  Mg3  1  0.96528000  0.37880000  0.06432300  1
  Mg  Mg4  1  0.46528000  0.12120000  0.06432300  1
  Mg  Mg5  1  0.96528000  0.87880000  0.43567700  1
  Mg  Mg6  1  0.46528000  0.62120000  0.43567700  1
  Mg  Mg7  1  0.53472000  0.87880000  0.93567700  1
  Sn  Sn8  1  0.04685100  0.37707400  0.43423500  1
  Sn  Sn9  1  0.45314900  0.87707400  0.56576500  1
  Sn  Sn10  1  0.95314900  0.62292600  0.56576500  1
  Sn  Sn11  1  0.54685100  0.12292600  0.43423500  1
  Sn  Sn12  1  0.95314900  0.12292600  0.93423500  1
  Sn  Sn13  1  0.04685100  0.87707400  0.06576500  1
  Sn  Sn14  1  0.45314900  0.37707400  0.93423500  1
  Sn  Sn15  1  0.54685100  0.62292600  0.06576500  1
  Bi  Bi16  1  0.98867300  0.85730900  0.75712400  1
  Bi  Bi17  1  0.01132700  0.14269100  0.24287600  1
  Bi  Bi18  1  0.51132700  0.35730900  0.24287600  1
  Bi  Bi19  1  0.01132700  0.64269100  0.25712400  1
  Bi  Bi20  1  0.48867300  0.14269100  0.74287600  1
  Bi  Bi21  1  0.48867300  0.64269100  0.75712400  1
  Bi  Bi22  1  0.51132700  0.85730900  0.25712400  1
  Bi  Bi23  1  0.98867300  0.35730900  0.74287600  1
  O  O24  1  0.85708300  0.30699000  0.32134100  1
  O  O25  1  0.24159100  0.00194700  0.97409100  1
  O  O26  1  0.25840900  0.50194700  0.02590900  1
  O  O27  1  0.31643400  0.79815200  0.83318400  1
  O  O28  1  0.18356600  0.29815200  0.16681600  1
  O  O29  1  0.85708300  0.80699000  0.17865900  1
  O  O30  1  0.18356600  0.79815200  0.33318400  1
  O  O31  1  0.64291700  0.80699000  0.67865900  1
  O  O32  1  0.24159100  0.50194700  0.52590900  1
  O  O33  1  0.14291700  0.69301000  0.67865900  1
  O  O34  1  0.64291700  0.30699000  0.82134100  1
  O  O35  1  0.81442800  0.24146000  0.49141200  1
  O  O36  1  0.74159100  0.99805300  0.52590900  1
  O  O37  1  0.68356600  0.70184800  0.33318400  1
  O  O38  1  0.25565300  0.99590500  0.15377600  1
  O  O39  1  0.74159100  0.49805300  0.97409100  1
  O  O40  1  0.14291700  0.19301000  0.82134100  1
  O  O41  1  0.81643400  0.20184800  0.66681600  1
  O  O42  1  0.31442800  0.75854000  0.00858800  1
  O  O43  1  0.25840900  0.00194700  0.47409100  1
  O  O44  1  0.18557200  0.75854000  0.50858800  1
  O  O45  1  0.74434700  0.00409500  0.84622400  1
  O  O46  1  0.68356600  0.20184800  0.16681600  1
  O  O47  1  0.75565300  0.00409500  0.34622400  1
  O  O48  1  0.18557200  0.25854000  0.99141200  1
  O  O49  1  0.31442800  0.25854000  0.49141200  1
  O  O50  1  0.75840900  0.49805300  0.47409100  1
  O  O51  1  0.75840900  0.99805300  0.02590900  1
  O  O52  1  0.75565300  0.50409500  0.15377600  1
  O  O53  1  0.68557200  0.74146000  0.50858800  1
  O  O54  1  0.68557200  0.24146000  0.99141200  1
  O  O55  1  0.81442800  0.74146000  0.00858800  1
  O  O56  1  0.74434700  0.50409500  0.65377600  1
  O  O57  1  0.81643400  0.70184800  0.83318400  1
  O  O58  1  0.31643400  0.29815200  0.66681600  1
  O  O59  1  0.25565300  0.49590500  0.34622400  1
  O  O60  1  0.24434700  0.49590500  0.84622400  1
  O  O61  1  0.35708300  0.19301000  0.32134100  1
  O  O62  1  0.24434700  0.99590500  0.65377600  1
  O  O63  1  0.35708300  0.69301000  0.17865900  1
