# generated using pymatgen
data_MgCuAs2O7
_symmetry_space_group_name_H-M   'P 1'
_cell_length_a   8.49696400
_cell_length_b   7.20986600
_cell_length_c   9.77614552
_cell_angle_alpha   67.65483780
_cell_angle_beta   90.00000000
_cell_angle_gamma   90.00000000
_symmetry_Int_Tables_number   1
_chemical_formula_structural   MgCuAs2O7
_chemical_formula_sum   'Mg4 Cu4 As8 O28'
_cell_volume   553.93430263
_cell_formula_units_Z   4
loop_
 _symmetry_equiv_pos_site_id
 _symmetry_equiv_pos_as_xyz
  1  'x, y, z'
loop_
 _atom_site_type_symbol
 _atom_site_label
 _atom_site_symmetry_multiplicity
 _atom_site_fract_x
 _atom_site_fract_y
 _atom_site_fract_z
 _atom_site_occupancy
  Mg  Mg0  1  0.07340900  0.73253400  0.89868800  1
  Mg  Mg1  1  0.57340900  0.26746600  0.60131200  1
  Mg  Mg2  1  0.92659100  0.26746600  0.10131200  1
  Mg  Mg3  1  0.42659100  0.73253400  0.39868800  1
  Cu  Cu4  1  0.94171400  0.20162100  0.66929600  1
  Cu  Cu5  1  0.44171400  0.79837900  0.83070400  1
  Cu  Cu6  1  0.05828600  0.79837900  0.33070400  1
  Cu  Cu7  1  0.55828600  0.20162100  0.16929600  1
  As  As8  1  0.77397200  0.56079600  0.75398100  1
  As  As9  1  0.27397200  0.43920400  0.74601900  1
  As  As10  1  0.22602800  0.43920400  0.24601900  1
  As  As11  1  0.72602800  0.56079600  0.25398100  1
  As  As12  1  0.72205700  0.96505100  0.96448800  1
  As  As13  1  0.22205700  0.03494900  0.53551200  1
  As  As14  1  0.27794300  0.03494900  0.03551200  1
  As  As15  1  0.77794300  0.96505100  0.46448800  1
  O  O16  1  0.72562200  0.14144300  0.04388000  1
  O  O17  1  0.22562200  0.85855700  0.45612000  1
  O  O18  1  0.27437800  0.85855700  0.95612000  1
  O  O19  1  0.77437800  0.14144300  0.54388000  1
  O  O20  1  0.58918800  0.63630000  0.77097600  1
  O  O21  1  0.08918800  0.36370000  0.72902400  1
  O  O22  1  0.41081200  0.36370000  0.22902400  1
  O  O23  1  0.91081200  0.63630000  0.27097600  1
  O  O24  1  0.90080600  0.52848200  0.89568400  1
  O  O25  1  0.40080600  0.47151800  0.60431600  1
  O  O26  1  0.09919400  0.47151800  0.10431600  1
  O  O27  1  0.59919400  0.52848200  0.39568400  1
  O  O28  1  0.86495300  0.74339700  0.59475000  1
  O  O29  1  0.36495300  0.25660300  0.90525000  1
  O  O30  1  0.13504700  0.25660300  0.40525000  1
  O  O31  1  0.63504700  0.74339700  0.09475000  1
  O  O32  1  0.91705000  0.01197500  0.32768700  1
  O  O33  1  0.41705000  0.98802500  0.17231300  1
  O  O34  1  0.08295000  0.98802500  0.67231300  1
  O  O35  1  0.58295000  0.01197500  0.82768700  1
  O  O36  1  0.73665300  0.35655600  0.20298300  1
  O  O37  1  0.23665300  0.64344400  0.29701700  1
  O  O38  1  0.26334700  0.64344400  0.79701700  1
  O  O39  1  0.76334700  0.35655600  0.70298300  1
  O  O40  1  0.59781400  0.92977300  0.40629100  1
  O  O41  1  0.09781400  0.07022700  0.09370900  1
  O  O42  1  0.40218600  0.07022700  0.59370900  1
  O  O43  1  0.90218600  0.92977300  0.90629100  1
