# generated using pymatgen
data_MgTiBiO5
_symmetry_space_group_name_H-M   'P 1'
_cell_length_a   5.26742100
_cell_length_b   10.45757200
_cell_length_c   15.22818100
_cell_angle_alpha   90.00000000
_cell_angle_beta   90.00000000
_cell_angle_gamma   90.00000000
_symmetry_Int_Tables_number   1
_chemical_formula_structural   MgTiBiO5
_chemical_formula_sum   'Mg8 Ti8 Bi8 O40'
_cell_volume   838.83573674
_cell_formula_units_Z   8
loop_
 _symmetry_equiv_pos_site_id
 _symmetry_equiv_pos_as_xyz
  1  'x, y, z'
loop_
 _atom_site_type_symbol
 _atom_site_label
 _atom_site_symmetry_multiplicity
 _atom_site_fract_x
 _atom_site_fract_y
 _atom_site_fract_z
 _atom_site_occupancy
  Mg  Mg0  1  0.49229700  0.36762400  0.54797300  1
  Mg  Mg1  1  0.99229700  0.13237600  0.54797300  1
  Mg  Mg2  1  0.99229700  0.63237600  0.95202700  1
  Mg  Mg3  1  0.00770300  0.36762400  0.04797300  1
  Mg  Mg4  1  0.50770300  0.13237600  0.04797300  1
  Mg  Mg5  1  0.00770300  0.86762400  0.45202700  1
  Mg  Mg6  1  0.50770300  0.63237600  0.45202700  1
  Mg  Mg7  1  0.49229700  0.86762400  0.95202700  1
  Ti  Ti8  1  0.99714000  0.38297600  0.41961700  1
  Ti  Ti9  1  0.50286000  0.88297600  0.58038300  1
  Ti  Ti10  1  0.00286000  0.61702400  0.58038300  1
  Ti  Ti11  1  0.49714000  0.11702400  0.41961700  1
  Ti  Ti12  1  0.00286000  0.11702400  0.91961700  1
  Ti  Ti13  1  0.99714000  0.88297600  0.08038300  1
  Ti  Ti14  1  0.50286000  0.38297600  0.91961700  1
  Ti  Ti15  1  0.49714000  0.61702400  0.08038300  1
  Bi  Bi16  1  0.01159100  0.85725700  0.76158700  1
  Bi  Bi17  1  0.98840900  0.14274300  0.23841300  1
  Bi  Bi18  1  0.48840900  0.35725700  0.23841300  1
  Bi  Bi19  1  0.98840900  0.64274300  0.26158700  1
  Bi  Bi20  1  0.51159100  0.14274300  0.73841300  1
  Bi  Bi21  1  0.51159100  0.64274300  0.76158700  1
  Bi  Bi22  1  0.48840900  0.85725700  0.26158700  1
  Bi  Bi23  1  0.01159100  0.35725700  0.73841300  1
  O  O24  1  0.82997000  0.30432700  0.31993600  1
  O  O25  1  0.25481800  0.02351100  0.96934500  1
  O  O26  1  0.24518200  0.52351100  0.03065500  1
  O  O27  1  0.34623700  0.79910200  0.83616900  1
  O  O28  1  0.15376300  0.29910200  0.16383100  1
  O  O29  1  0.82997000  0.80432700  0.18006400  1
  O  O30  1  0.15376300  0.79910200  0.33616900  1
  O  O31  1  0.67003000  0.80432700  0.68006400  1
  O  O32  1  0.25481800  0.52351100  0.53065500  1
  O  O33  1  0.17003000  0.69567300  0.68006400  1
  O  O34  1  0.67003000  0.30432700  0.81993600  1
  O  O35  1  0.68743600  0.22165200  0.48608000  1
  O  O36  1  0.75481800  0.97648900  0.53065500  1
  O  O37  1  0.65376300  0.70089800  0.33616900  1
  O  O38  1  0.20930900  0.99264900  0.15416700  1
  O  O39  1  0.75481800  0.47648900  0.96934500  1
  O  O40  1  0.17003000  0.19567300  0.81993600  1
  O  O41  1  0.84623700  0.20089800  0.66383100  1
  O  O42  1  0.18743600  0.77834800  0.01392000  1
  O  O43  1  0.24518200  0.02351100  0.46934500  1
  O  O44  1  0.31256400  0.77834800  0.51392000  1
  O  O45  1  0.79069100  0.00735100  0.84583300  1
  O  O46  1  0.65376300  0.20089800  0.16383100  1
  O  O47  1  0.70930900  0.00735100  0.34583300  1
  O  O48  1  0.31256400  0.27834800  0.98608000  1
  O  O49  1  0.18743600  0.27834800  0.48608000  1
  O  O50  1  0.74518200  0.47648900  0.46934500  1
  O  O51  1  0.74518200  0.97648900  0.03065500  1
  O  O52  1  0.70930900  0.50735100  0.15416700  1
  O  O53  1  0.81256400  0.72165200  0.51392000  1
  O  O54  1  0.81256400  0.22165200  0.98608000  1
  O  O55  1  0.68743600  0.72165200  0.01392000  1
  O  O56  1  0.79069100  0.50735100  0.65416700  1
  O  O57  1  0.84623700  0.70089800  0.83616900  1
  O  O58  1  0.34623700  0.29910200  0.66383100  1
  O  O59  1  0.20930900  0.49264900  0.34583300  1
  O  O60  1  0.29069100  0.49264900  0.84583300  1
  O  O61  1  0.32997000  0.19567300  0.31993600  1
  O  O62  1  0.29069100  0.99264900  0.65416700  1
  O  O63  1  0.32997000  0.69567300  0.18006400  1
