# generated using pymatgen
data_TaZnBiO5
_symmetry_space_group_name_H-M   'P 1'
_cell_length_a   5.34502700
_cell_length_b   10.70510500
_cell_length_c   16.12970100
_cell_angle_alpha   90.00000000
_cell_angle_beta   90.00000000
_cell_angle_gamma   90.00000000
_symmetry_Int_Tables_number   1
_chemical_formula_structural   TaZnBiO5
_chemical_formula_sum   'Ta8 Zn8 Bi8 O40'
_cell_volume   922.92657549
_cell_formula_units_Z   8
loop_
 _symmetry_equiv_pos_site_id
 _symmetry_equiv_pos_as_xyz
  1  'x, y, z'
loop_
 _atom_site_type_symbol
 _atom_site_label
 _atom_site_symmetry_multiplicity
 _atom_site_fract_x
 _atom_site_fract_y
 _atom_site_fract_z
 _atom_site_occupancy
  Ta  Ta0  1  0.97513000  0.37333700  0.41206800  1
  Ta  Ta1  1  0.52487000  0.87333700  0.58793200  1
  Ta  Ta2  1  0.02487000  0.62666300  0.58793200  1
  Ta  Ta3  1  0.47513000  0.12666300  0.41206800  1
  Ta  Ta4  1  0.02487000  0.12666300  0.91206800  1
  Ta  Ta5  1  0.97513000  0.87333700  0.08793200  1
  Ta  Ta6  1  0.52487000  0.37333700  0.91206800  1
  Ta  Ta7  1  0.47513000  0.62666300  0.08793200  1
  Zn  Zn8  1  0.49687400  0.37070800  0.54720100  1
  Zn  Zn9  1  0.99687400  0.12929200  0.54720100  1
  Zn  Zn10  1  0.99687400  0.62929200  0.95279900  1
  Zn  Zn11  1  0.00312600  0.37070800  0.04720100  1
  Zn  Zn12  1  0.50312600  0.12929200  0.04720100  1
  Zn  Zn13  1  0.00312600  0.87070800  0.45279900  1
  Zn  Zn14  1  0.50312600  0.62929200  0.45279900  1
  Zn  Zn15  1  0.49687400  0.87070800  0.95279900  1
  Bi  Bi16  1  0.01590300  0.85623700  0.77893700  1
  Bi  Bi17  1  0.98409700  0.14376300  0.22106300  1
  Bi  Bi18  1  0.48409700  0.35623700  0.22106300  1
  Bi  Bi19  1  0.98409700  0.64376300  0.27893700  1
  Bi  Bi20  1  0.51590300  0.14376300  0.72106300  1
  Bi  Bi21  1  0.51590300  0.64376300  0.77893700  1
  Bi  Bi22  1  0.48409700  0.85623700  0.27893700  1
  Bi  Bi23  1  0.01590300  0.35623700  0.72106300  1
  O  O24  1  0.84864200  0.31083100  0.31070200  1
  O  O25  1  0.27734100  0.02975700  0.96201900  1
  O  O26  1  0.22265900  0.52975700  0.03798100  1
  O  O27  1  0.35620400  0.79560300  0.84820300  1
  O  O28  1  0.14379600  0.29560300  0.15179700  1
  O  O29  1  0.84864200  0.81083100  0.18929800  1
  O  O30  1  0.14379600  0.79560300  0.34820300  1
  O  O31  1  0.65135800  0.81083100  0.68929800  1
  O  O32  1  0.27734100  0.52975700  0.53798100  1
  O  O33  1  0.15135800  0.68916900  0.68929800  1
  O  O34  1  0.65135800  0.31083100  0.81070200  1
  O  O35  1  0.71807000  0.22371600  0.47326700  1
  O  O36  1  0.77734100  0.97024300  0.53798100  1
  O  O37  1  0.64379600  0.70439700  0.34820300  1
  O  O38  1  0.17477400  0.00331600  0.13201100  1
  O  O39  1  0.77734100  0.47024300  0.96201900  1
  O  O40  1  0.15135800  0.18916900  0.81070200  1
  O  O41  1  0.85620400  0.20439700  0.65179700  1
  O  O42  1  0.21807000  0.77628400  0.02673300  1
  O  O43  1  0.22265900  0.02975700  0.46201900  1
  O  O44  1  0.28193000  0.77628400  0.52673300  1
  O  O45  1  0.82522600  0.99668400  0.86798900  1
  O  O46  1  0.64379600  0.20439700  0.15179700  1
  O  O47  1  0.67477400  0.99668400  0.36798900  1
  O  O48  1  0.28193000  0.27628400  0.97326700  1
  O  O49  1  0.21807000  0.27628400  0.47326700  1
  O  O50  1  0.72265900  0.47024300  0.46201900  1
  O  O51  1  0.72265900  0.97024300  0.03798100  1
  O  O52  1  0.67477400  0.49668400  0.13201100  1
  O  O53  1  0.78193000  0.72371600  0.52673300  1
  O  O54  1  0.78193000  0.22371600  0.97326700  1
  O  O55  1  0.71807000  0.72371600  0.02673300  1
  O  O56  1  0.82522600  0.49668400  0.63201100  1
  O  O57  1  0.85620400  0.70439700  0.84820300  1
  O  O58  1  0.35620400  0.29560300  0.65179700  1
  O  O59  1  0.17477400  0.50331600  0.36798900  1
  O  O60  1  0.32522600  0.50331600  0.86798900  1
  O  O61  1  0.34864200  0.18916900  0.31070200  1
  O  O62  1  0.32522600  0.00331600  0.63201100  1
  O  O63  1  0.34864200  0.68916900  0.18929800  1
