# generated using pymatgen
data_BiAs2O7
_symmetry_space_group_name_H-M   'P 1'
_cell_length_a   9.91637700
_cell_length_b   7.59761300
_cell_length_c   10.18655009
_cell_angle_alpha   70.56702603
_cell_angle_beta   90.00000000
_cell_angle_gamma   90.00000000
_symmetry_Int_Tables_number   1
_chemical_formula_structural   BiAs2O7
_chemical_formula_sum   'Bi4 As8 O28'
_cell_volume   723.74145535
_cell_formula_units_Z   4
loop_
 _symmetry_equiv_pos_site_id
 _symmetry_equiv_pos_as_xyz
  1  'x, y, z'
loop_
 _atom_site_type_symbol
 _atom_site_label
 _atom_site_symmetry_multiplicity
 _atom_site_fract_x
 _atom_site_fract_y
 _atom_site_fract_z
 _atom_site_occupancy
  Bi  Bi0  1  0.93370400  0.18691200  0.70989500  1
  Bi  Bi1  1  0.43370400  0.81308800  0.79010500  1
  Bi  Bi2  1  0.06629600  0.81308800  0.29010500  1
  Bi  Bi3  1  0.56629600  0.18691200  0.20989500  1
  As  As4  1  0.74919500  0.59045900  0.74504900  1
  As  As5  1  0.24919500  0.40954100  0.75495100  1
  As  As6  1  0.25080500  0.40954100  0.25495100  1
  As  As7  1  0.75080500  0.59045900  0.24504900  1
  As  As8  1  0.71034700  0.96660400  0.96653000  1
  As  As9  1  0.21034700  0.03339600  0.53347000  1
  As  As10  1  0.28965300  0.03339600  0.03347000  1
  As  As11  1  0.78965300  0.96660400  0.46653000  1
  O  O12  1  0.69224400  0.13707900  0.04136700  1
  O  O13  1  0.19224400  0.86292100  0.45863300  1
  O  O14  1  0.30775600  0.86292100  0.95863300  1
  O  O15  1  0.80775600  0.13707900  0.54136700  1
  O  O16  1  0.57624700  0.62719900  0.72798400  1
  O  O17  1  0.07624700  0.37280100  0.77201600  1
  O  O18  1  0.42375300  0.37280100  0.27201600  1
  O  O19  1  0.92375300  0.62719900  0.22798400  1
  O  O20  1  0.81959600  0.62166600  0.88372600  1
  O  O21  1  0.31959600  0.37833400  0.61627400  1
  O  O22  1  0.18040400  0.37833400  0.11627400  1
  O  O23  1  0.68040400  0.62166600  0.38372600  1
  O  O24  1  0.83072500  0.74862400  0.58900400  1
  O  O25  1  0.33072500  0.25137600  0.91099600  1
  O  O26  1  0.16927500  0.25137600  0.41099600  1
  O  O27  1  0.66927500  0.74862400  0.08900400  1
  O  O28  1  0.89808700  0.99366200  0.33080700  1
  O  O29  1  0.39808700  0.00633800  0.16919300  1
  O  O30  1  0.10191300  0.00633800  0.66919300  1
  O  O31  1  0.60191300  0.99366200  0.83080700  1
  O  O32  1  0.73235700  0.37917100  0.21796700  1
  O  O33  1  0.23235700  0.62082900  0.28203300  1
  O  O34  1  0.26764300  0.62082900  0.78203300  1
  O  O35  1  0.76764300  0.37917100  0.71796700  1
  O  O36  1  0.62439400  0.97964900  0.40923200  1
  O  O37  1  0.12439400  0.02035100  0.09076800  1
  O  O38  1  0.37560600  0.02035100  0.59076800  1
  O  O39  1  0.87560600  0.97964900  0.90923200  1
