# generated using pymatgen
data_Mg(SnO2)2
_symmetry_space_group_name_H-M   'P 1'
_cell_length_a   6.15129400
_cell_length_b   6.98835700
_cell_length_c   11.19908500
_cell_angle_alpha   90.00000000
_cell_angle_beta   90.00000000
_cell_angle_gamma   90.00000000
_symmetry_Int_Tables_number   1
_chemical_formula_structural   Mg(SnO2)2
_chemical_formula_sum   'Mg4 Sn8 O16'
_cell_volume   481.41997751
_cell_formula_units_Z   4
loop_
 _symmetry_equiv_pos_site_id
 _symmetry_equiv_pos_as_xyz
  1  'x, y, z'
loop_
 _atom_site_type_symbol
 _atom_site_label
 _atom_site_symmetry_multiplicity
 _atom_site_fract_x
 _atom_site_fract_y
 _atom_site_fract_z
 _atom_site_occupancy
  Mg  Mg0  1  0.50000000  0.42768900  0.00000000  1
  Mg  Mg1  1  0.00000000  0.57231100  0.50000000  1
  Mg  Mg2  1  0.50000000  0.74277300  0.50000000  1
  Mg  Mg3  1  0.00000000  0.25722700  0.00000000  1
  Sn  Sn4  1  0.00000000  0.90248600  0.29769600  1
  Sn  Sn5  1  0.00000000  0.90248600  0.70230400  1
  Sn  Sn6  1  0.50000000  0.09751400  0.20230400  1
  Sn  Sn7  1  0.50000000  0.09751400  0.79769600  1
  Sn  Sn8  1  0.25000000  0.50000000  0.25000000  1
  Sn  Sn9  1  0.75000000  0.50000000  0.75000000  1
  Sn  Sn10  1  0.75000000  0.50000000  0.25000000  1
  Sn  Sn11  1  0.25000000  0.50000000  0.75000000  1
  O  O12  1  0.00000000  0.38858400  0.35335700  1
  O  O13  1  0.00000000  0.38858400  0.64664300  1
  O  O14  1  0.50000000  0.61141600  0.14664300  1
  O  O15  1  0.50000000  0.61141600  0.85335700  1
  O  O16  1  0.00000000  0.66543300  0.17063800  1
  O  O17  1  0.00000000  0.66543300  0.82936200  1
  O  O18  1  0.50000000  0.33456700  0.32936200  1
  O  O19  1  0.50000000  0.33456700  0.67063800  1
  O  O20  1  0.25386600  0.27833000  0.11857100  1
  O  O21  1  0.74613400  0.27833000  0.88142900  1
  O  O22  1  0.75386600  0.72167000  0.38142900  1
  O  O23  1  0.24613400  0.72167000  0.61857100  1
  O  O24  1  0.24613400  0.72167000  0.38142900  1
  O  O25  1  0.75386600  0.72167000  0.61857100  1
  O  O26  1  0.74613400  0.27833000  0.11857100  1
  O  O27  1  0.25386600  0.27833000  0.88142900  1
