# generated using pymatgen
data_TiAs2O7
_symmetry_space_group_name_H-M   'P 1'
_cell_length_a   9.19430200
_cell_length_b   7.17855200
_cell_length_c   9.59153261
_cell_angle_alpha   74.54936694
_cell_angle_beta   90.00000000
_cell_angle_gamma   90.00000000
_symmetry_Int_Tables_number   1
_chemical_formula_structural   TiAs2O7
_chemical_formula_sum   'Ti4 As8 O28'
_cell_volume   610.17967779
_cell_formula_units_Z   4
loop_
 _symmetry_equiv_pos_site_id
 _symmetry_equiv_pos_as_xyz
  1  'x, y, z'
loop_
 _atom_site_type_symbol
 _atom_site_label
 _atom_site_symmetry_multiplicity
 _atom_site_fract_x
 _atom_site_fract_y
 _atom_site_fract_z
 _atom_site_occupancy
  Ti  Ti0  1  0.92426300  0.19036700  0.71729100  1
  Ti  Ti1  1  0.42426300  0.80963300  0.78270900  1
  Ti  Ti2  1  0.07573700  0.80963300  0.28270900  1
  Ti  Ti3  1  0.57573700  0.19036700  0.21729100  1
  As  As4  1  0.74897300  0.58911900  0.75650900  1
  As  As5  1  0.24897300  0.41088100  0.74349100  1
  As  As6  1  0.25102700  0.41088100  0.24349100  1
  As  As7  1  0.75102700  0.58911900  0.25650900  1
  As  As8  1  0.70335800  0.96564000  0.96719000  1
  As  As9  1  0.20335800  0.03436000  0.53281000  1
  As  As10  1  0.29664200  0.03436000  0.03281000  1
  As  As11  1  0.79664200  0.96564000  0.46719000  1
  O  O12  1  0.67596500  0.14491100  0.05132000  1
  O  O13  1  0.17596500  0.85508900  0.44868000  1
  O  O14  1  0.32403500  0.85508900  0.94868000  1
  O  O15  1  0.82403500  0.14491100  0.55132000  1
  O  O16  1  0.56319200  0.63701300  0.74201800  1
  O  O17  1  0.06319200  0.36298700  0.75798200  1
  O  O18  1  0.43680800  0.36298700  0.25798200  1
  O  O19  1  0.93680800  0.63701300  0.24201800  1
  O  O20  1  0.83134400  0.61729000  0.90092500  1
  O  O21  1  0.33134400  0.38271000  0.59907500  1
  O  O22  1  0.16865600  0.38271000  0.09907500  1
  O  O23  1  0.66865600  0.61729000  0.40092500  1
  O  O24  1  0.82992800  0.74850200  0.59599000  1
  O  O25  1  0.32992800  0.25149800  0.90401000  1
  O  O26  1  0.17007200  0.25149800  0.40401000  1
  O  O27  1  0.67007200  0.74850200  0.09599000  1
  O  O28  1  0.91543900  0.96558800  0.33156400  1
  O  O29  1  0.41543900  0.03441200  0.16843600  1
  O  O30  1  0.08456100  0.03441200  0.66843600  1
  O  O31  1  0.58456100  0.96558800  0.83156400  1
  O  O32  1  0.72593700  0.37078900  0.21566900  1
  O  O33  1  0.22593700  0.62921100  0.28433100  1
  O  O34  1  0.27406300  0.62921100  0.78433100  1
  O  O35  1  0.77406300  0.37078900  0.71566900  1
  O  O36  1  0.62542200  0.01187700  0.39064000  1
  O  O37  1  0.12542200  0.98812300  0.10936000  1
  O  O38  1  0.37457800  0.98812300  0.60936000  1
  O  O39  1  0.87457800  0.01187700  0.89064000  1
