# generated using pymatgen
data_SbS2
_symmetry_space_group_name_H-M   'P 1'
_cell_length_a   7.20989582
_cell_length_b   7.20989582
_cell_length_c   7.20989582
_cell_angle_alpha   130.28600900
_cell_angle_beta   130.28600900
_cell_angle_gamma   72.94994466
_symmetry_Int_Tables_number   1
_chemical_formula_structural   SbS2
_chemical_formula_sum   'Sb2 S4'
_cell_volume   213.00912668
_cell_formula_units_Z   2
loop_
 _symmetry_equiv_pos_site_id
 _symmetry_equiv_pos_as_xyz
  1  'x, y, z'
loop_
 _atom_site_type_symbol
 _atom_site_label
 _atom_site_symmetry_multiplicity
 _atom_site_fract_x
 _atom_site_fract_y
 _atom_site_fract_z
 _atom_site_occupancy
  Sb  Sb0  1  0.75000000  0.25000000  0.50000000  1
  Sb  Sb1  1  0.00000000  0.00000000  0.00000000  1
  S  S2  1  0.87500000  0.89902900  0.52402900  1
  S  S3  1  0.10097100  0.62500000  0.97597100  1
  S  S4  1  0.37500000  0.35097100  0.47597100  1
  S  S5  1  0.64902900  0.12500000  0.02402900  1
