# generated using pymatgen
data_CaTe2O7
_symmetry_space_group_name_H-M   'P 1'
_cell_length_a   7.46419400
_cell_length_b   7.26510300
_cell_length_c   7.61055452
_cell_angle_alpha   73.00931131
_cell_angle_beta   90.00000000
_cell_angle_gamma   90.00000000
_symmetry_Int_Tables_number   1
_chemical_formula_structural   CaTe2O7
_chemical_formula_sum   'Ca2 Te4 O14'
_cell_volume   394.69250862
_cell_formula_units_Z   2
loop_
 _symmetry_equiv_pos_site_id
 _symmetry_equiv_pos_as_xyz
  1  'x, y, z'
loop_
 _atom_site_type_symbol
 _atom_site_label
 _atom_site_symmetry_multiplicity
 _atom_site_fract_x
 _atom_site_fract_y
 _atom_site_fract_z
 _atom_site_occupancy
  Ca  Ca0  1  0.89832700  0.70631300  0.91402900  1
  Ca  Ca1  1  0.39832700  0.29368700  0.08597100  1
  Te  Te2  1  0.88034800  0.16691500  0.06939800  1
  Te  Te3  1  0.38034800  0.83308500  0.93060200  1
  Te  Te4  1  0.30700300  0.26211800  0.60179400  1
  Te  Te5  1  0.80700300  0.73788200  0.39820600  1
  O  O6  1  0.59526600  0.61405200  0.41632200  1
  O  O7  1  0.09526600  0.38594800  0.58367800  1
  O  O8  1  0.23953100  0.61514400  0.98237900  1
  O  O9  1  0.73953100  0.38485600  0.01762100  1
  O  O10  1  0.92377900  0.75177400  0.60404300  1
  O  O11  1  0.42377900  0.24822600  0.39595700  1
  O  O12  1  0.59858500  0.77458600  0.85662300  1
  O  O13  1  0.09858500  0.22541400  0.14337700  1
  O  O14  1  0.95453500  0.71297200  0.21433200  1
  O  O15  1  0.45453500  0.28702800  0.78566800  1
  O  O16  1  0.74780900  0.01700800  0.28292700  1
  O  O17  1  0.24780900  0.98299200  0.71707300  1
  O  O18  1  0.87987500  0.04605300  0.89089400  1
  O  O19  1  0.37987500  0.95394700  0.10910600  1
