# generated using pymatgen
data_MgW2O7
_symmetry_space_group_name_H-M   'P 1'
_cell_length_a   6.62295400
_cell_length_b   6.37691900
_cell_length_c   8.43116639
_cell_angle_alpha   73.08307102
_cell_angle_beta   90.00000000
_cell_angle_gamma   90.00000000
_symmetry_Int_Tables_number   1
_chemical_formula_structural   MgW2O7
_chemical_formula_sum   'Mg2 W4 O14'
_cell_volume   340.67371354
_cell_formula_units_Z   2
loop_
 _symmetry_equiv_pos_site_id
 _symmetry_equiv_pos_as_xyz
  1  'x, y, z'
loop_
 _atom_site_type_symbol
 _atom_site_label
 _atom_site_symmetry_multiplicity
 _atom_site_fract_x
 _atom_site_fract_y
 _atom_site_fract_z
 _atom_site_occupancy
  Mg  Mg0  1  0.13824500  0.10966200  0.36054500  1
  Mg  Mg1  1  0.63824500  0.89033800  0.63945500  1
  W  W2  1  0.15635500  0.89462900  0.78743200  1
  W  W3  1  0.65635500  0.10537100  0.21256800  1
  W  W4  1  0.68115600  0.34818400  0.78050800  1
  W  W5  1  0.18115600  0.65181600  0.21949200  1
  O  O6  1  0.36905900  0.59154400  0.37016900  1
  O  O7  1  0.86905900  0.40845600  0.62983100  1
  O  O8  1  0.77147100  0.03531800  0.42131500  1
  O  O9  1  0.27147100  0.96468200  0.57868500  1
  O  O10  1  0.01897200  0.41233300  0.26823400  1
  O  O11  1  0.51897200  0.58766700  0.73176600  1
  O  O12  1  0.40789300  0.20210500  0.24051300  1
  O  O13  1  0.90789300  0.79789500  0.75948700  1
  O  O14  1  0.05474200  0.89958300  0.23483800  1
  O  O15  1  0.55474200  0.10041700  0.76516200  1
  O  O16  1  0.26546400  0.70232800  0.99133400  1
  O  O17  1  0.76546400  0.29767200  0.00866600  1
  O  O18  1  0.11158500  0.13573900  0.83854800  1
  O  O19  1  0.61158500  0.86426100  0.16145200  1
