# generated using pymatgen
data_Ca(FeO2)2
_symmetry_space_group_name_H-M   'P 1'
_cell_length_a   6.32985181
_cell_length_b   6.32985181
_cell_length_c   20.71611990
_cell_angle_alpha   80.53512355
_cell_angle_beta   80.53512355
_cell_angle_gamma   59.23840055
_symmetry_Int_Tables_number   1
_chemical_formula_structural   Ca(FeO2)2
_chemical_formula_sum   'Ca8 Fe16 O32'
_cell_volume   700.37306876
_cell_formula_units_Z   8
loop_
 _symmetry_equiv_pos_site_id
 _symmetry_equiv_pos_as_xyz
  1  'x, y, z'
loop_
 _atom_site_type_symbol
 _atom_site_label
 _atom_site_symmetry_multiplicity
 _atom_site_fract_x
 _atom_site_fract_y
 _atom_site_fract_z
 _atom_site_occupancy
  Ca  Ca0  1  0.64716800  0.64716800  0.02823600  1
  Ca  Ca1  1  0.12464100  0.12464100  0.12604600  1
  Ca  Ca2  1  0.90325000  0.90325000  0.28461800  1
  Ca  Ca3  1  0.37510600  0.37510600  0.37540900  1
  Ca  Ca4  1  0.62522100  0.62522100  0.62532100  1
  Ca  Ca5  1  0.50468100  0.50468100  0.49706900  1
  Ca  Ca6  1  0.87702800  0.87702800  0.87525100  1
  Ca  Ca7  1  0.75082200  0.75082200  0.75147300  1
  Fe  Fe8  1  0.63387000  0.11665400  0.12517600  1
  Fe  Fe9  1  0.25097700  0.25097700  0.25185600  1
  Fe  Fe10  1  0.11665400  0.63387000  0.12517600  1
  Fe  Fe11  1  0.14803200  0.14803200  0.53482800  1
  Fe  Fe12  1  0.88872200  0.37298700  0.37342100  1
  Fe  Fe13  1  0.60177000  0.60177000  0.21973300  1
  Fe  Fe14  1  0.39711500  0.39711500  0.78291700  1
  Fe  Fe15  1  0.37298700  0.88872200  0.37342100  1
  Fe  Fe16  1  0.12753600  0.62418500  0.62446700  1
  Fe  Fe17  1  0.85451400  0.85451400  0.46544000  1
  Fe  Fe18  1  0.62418500  0.12753600  0.62446700  1
  Fe  Fe19  1  0.87512700  0.37208600  0.87491100  1
  Fe  Fe20  1  0.37208600  0.87512800  0.87491100  1
  Fe  Fe21  1  0.10369100  0.10369100  0.71575400  1
  Fe  Fe22  1  0.99496500  0.99496500  0.00499100  1
  Fe  Fe23  1  0.35052400  0.35052400  0.96960700  1
  O  O24  1  0.25997200  0.81058500  0.06434000  1
  O  O25  1  0.92346500  0.92346500  0.17707200  1
  O  O26  1  0.81058500  0.25997200  0.06434000  1
  O  O27  1  0.82546800  0.82546800  0.06697600  1
  O  O28  1  0.43276400  0.43276400  0.18629400  1
  O  O29  1  0.51007900  0.06866900  0.31247900  1
  O  O30  1  0.44590400  0.95407200  0.18953500  1
  O  O31  1  0.17727400  0.17727400  0.43822300  1
  O  O32  1  0.06866900  0.51007900  0.31247900  1
  O  O33  1  0.32214300  0.32214300  0.06505000  1
  O  O34  1  0.08635100  0.08635100  0.31595300  1
  O  O35  1  0.95407200  0.44590400  0.18953500  1
  O  O36  1  0.80740300  0.28999300  0.56644800  1
  O  O37  1  0.69805800  0.69805800  0.42658400  1
  O  O38  1  0.72030800  0.18876500  0.42946600  1
  O  O39  1  0.42549700  0.42549700  0.68391100  1
  O  O40  1  0.28999300  0.80740300  0.56644800  1
  O  O41  1  0.57527100  0.57527100  0.31489600  1
  O  O42  1  0.31266500  0.31266500  0.56821700  1
  O  O43  1  0.18876500  0.72030800  0.42946600  1
  O  O44  1  0.94183500  0.94183500  0.68179200  1
  O  O45  1  0.06273100  0.53377300  0.81890600  1
  O  O46  1  0.96262000  0.44354600  0.68345900  1
  O  O47  1  0.67521900  0.67521900  0.91993600  1
  O  O48  1  0.53377300  0.06273100  0.81890600  1
  O  O49  1  0.82494200  0.82494200  0.56487200  1
  O  O50  1  0.55361600  0.55361600  0.81850500  1
  O  O51  1  0.44354600  0.96262000  0.68345900  1
  O  O52  1  0.17596100  0.17596100  0.93972500  1
  O  O53  1  0.19437900  0.70500100  0.94145300  1
  O  O54  1  0.07491700  0.07491700  0.81586400  1
  O  O55  1  0.70500100  0.19437900  0.94145300  1
