# generated using pymatgen
data_Ca(AgO2)2
_symmetry_space_group_name_H-M   'P 1'
_cell_length_a   3.87659600
_cell_length_b   7.09777246
_cell_length_c   8.33415139
_cell_angle_alpha   97.08345233
_cell_angle_beta   98.16295178
_cell_angle_gamma   105.53423821
_symmetry_Int_Tables_number   1
_chemical_formula_structural   Ca(AgO2)2
_chemical_formula_sum   'Ca2 Ag4 O8'
_cell_volume   215.54828372
_cell_formula_units_Z   2
loop_
 _symmetry_equiv_pos_site_id
 _symmetry_equiv_pos_as_xyz
  1  'x, y, z'
loop_
 _atom_site_type_symbol
 _atom_site_label
 _atom_site_symmetry_multiplicity
 _atom_site_fract_x
 _atom_site_fract_y
 _atom_site_fract_z
 _atom_site_occupancy
  Ca  Ca0  1  0.30701600  0.35897600  0.68037800  1
  Ca  Ca1  1  0.69298400  0.64102400  0.31962200  1
  Ag  Ag2  1  0.65952300  0.95756200  0.67148500  1
  Ag  Ag3  1  0.09225900  0.30838400  0.02446400  1
  Ag  Ag4  1  0.90774100  0.69161600  0.97553600  1
  Ag  Ag5  1  0.34047700  0.04243800  0.32851500  1
  O  O6  1  0.87774500  0.90170300  0.16142300  1
  O  O7  1  0.56413400  0.71559000  0.77516200  1
  O  O8  1  0.43586600  0.28441000  0.22483800  1
  O  O9  1  0.12225500  0.09829700  0.83857700  1
  O  O10  1  0.29484400  0.80502900  0.46073300  1
  O  O11  1  0.87697200  0.42724300  0.83671600  1
  O  O12  1  0.70515600  0.19497100  0.53926700  1
  O  O13  1  0.12302800  0.57275700  0.16328400  1
