# generated using pymatgen
data_MgSnAs2O7
_symmetry_space_group_name_H-M   'P 1'
_cell_length_a   9.32886700
_cell_length_b   7.61175000
_cell_length_c   9.99900533
_cell_angle_alpha   61.57420743
_cell_angle_beta   90.00000000
_cell_angle_gamma   90.00000000
_symmetry_Int_Tables_number   1
_chemical_formula_structural   MgSnAs2O7
_chemical_formula_sum   'Mg4 Sn4 As8 O28'
_cell_volume   624.41547001
_cell_formula_units_Z   4
loop_
 _symmetry_equiv_pos_site_id
 _symmetry_equiv_pos_as_xyz
  1  'x, y, z'
loop_
 _atom_site_type_symbol
 _atom_site_label
 _atom_site_symmetry_multiplicity
 _atom_site_fract_x
 _atom_site_fract_y
 _atom_site_fract_z
 _atom_site_occupancy
  Mg  Mg0  1  0.06200600  0.73161400  0.90094100  1
  Mg  Mg1  1  0.56200600  0.26838600  0.59905900  1
  Mg  Mg2  1  0.93799400  0.26838600  0.09905900  1
  Mg  Mg3  1  0.43799400  0.73161400  0.40094100  1
  Sn  Sn4  1  0.96043200  0.23102400  0.62924200  1
  Sn  Sn5  1  0.46043200  0.76897600  0.87075800  1
  Sn  Sn6  1  0.03956800  0.76897600  0.37075800  1
  Sn  Sn7  1  0.53956800  0.23102400  0.12924200  1
  As  As8  1  0.78029000  0.57025100  0.75104500  1
  As  As9  1  0.28029000  0.42974900  0.74895500  1
  As  As10  1  0.21971000  0.42974900  0.24895500  1
  As  As11  1  0.71971000  0.57025100  0.25104500  1
  As  As12  1  0.74505000  0.00479700  0.94088900  1
  As  As13  1  0.24505000  0.99520300  0.55911100  1
  As  As14  1  0.25495000  0.99520300  0.05911100  1
  As  As15  1  0.75495000  0.00479700  0.44088900  1
  O  O16  1  0.77493200  0.13592900  0.03604200  1
  O  O17  1  0.27493200  0.86407100  0.46395800  1
  O  O18  1  0.22506800  0.86407100  0.96395800  1
  O  O19  1  0.72506800  0.13592900  0.53604200  1
  O  O20  1  0.61282200  0.63476000  0.77498300  1
  O  O21  1  0.11282200  0.36524000  0.72501700  1
  O  O22  1  0.38717800  0.36524000  0.22501700  1
  O  O23  1  0.88717800  0.63476000  0.27498300  1
  O  O24  1  0.90472400  0.54031300  0.88835600  1
  O  O25  1  0.40472400  0.45968700  0.61164400  1
  O  O26  1  0.09527600  0.45968700  0.11164400  1
  O  O27  1  0.59527600  0.54031300  0.38835600  1
  O  O28  1  0.84036300  0.77587300  0.57665000  1
  O  O29  1  0.34036300  0.22412700  0.92335000  1
  O  O30  1  0.15963700  0.22412700  0.42335000  1
  O  O31  1  0.65963700  0.77587300  0.07665000  1
  O  O32  1  0.89921700  0.06392000  0.32109900  1
  O  O33  1  0.39921700  0.93608000  0.17890100  1
  O  O34  1  0.10078300  0.93608000  0.67890100  1
  O  O35  1  0.60078300  0.06392000  0.82109900  1
  O  O36  1  0.72212300  0.37955500  0.20606100  1
  O  O37  1  0.22212300  0.62044500  0.29393900  1
  O  O38  1  0.27787700  0.62044500  0.79393900  1
  O  O39  1  0.77787700  0.37955500  0.70606100  1
  O  O40  1  0.60102900  0.95954300  0.36672900  1
  O  O41  1  0.10102900  0.04045700  0.13327100  1
  O  O42  1  0.39897100  0.04045700  0.63327100  1
  O  O43  1  0.89897100  0.95954300  0.86672900  1
