# generated using pymatgen
data_YCo(WO4)2
_symmetry_space_group_name_H-M   'P 1'
_cell_length_a   5.89878200
_cell_length_b   5.19026100
_cell_length_c   9.95496244
_cell_angle_alpha   86.55057399
_cell_angle_beta   90.00000000
_cell_angle_gamma   90.00000000
_symmetry_Int_Tables_number   1
_chemical_formula_structural   YCo(WO4)2
_chemical_formula_sum   'Y2 Co2 W4 O16'
_cell_volume   304.23112489
_cell_formula_units_Z   2
loop_
 _symmetry_equiv_pos_site_id
 _symmetry_equiv_pos_as_xyz
  1  'x, y, z'
loop_
 _atom_site_type_symbol
 _atom_site_label
 _atom_site_symmetry_multiplicity
 _atom_site_fract_x
 _atom_site_fract_y
 _atom_site_fract_z
 _atom_site_occupancy
  Y  Y0  1  0.32882200  0.00000000  0.00000000  1
  Y  Y1  1  0.65224600  0.50000000  0.50000000  1
  Co  Co2  1  0.67410600  0.50000000  0.00000000  1
  Co  Co3  1  0.26972100  0.00000000  0.50000000  1
  W  W4  1  0.83912500  0.00148800  0.24228000  1
  W  W5  1  0.83912500  0.99851200  0.75772000  1
  W  W6  1  0.16966600  0.50416800  0.25195300  1
  W  W7  1  0.16966600  0.49583200  0.74804700  1
  O  O8  1  0.65076200  0.84332900  0.88938700  1
  O  O9  1  0.65076200  0.15667100  0.11061300  1
  O  O10  1  0.35900600  0.67340200  0.60900000  1
  O  O11  1  0.35900600  0.32659800  0.39100000  1
  O  O12  1  0.08732700  0.80400700  0.36119300  1
  O  O13  1  0.08732700  0.19599300  0.63880700  1
  O  O14  1  0.90941200  0.70000700  0.13852600  1
  O  O15  1  0.90941200  0.29999300  0.86147400  1
  O  O16  1  0.39040100  0.37712500  0.87259300  1
  O  O17  1  0.39040100  0.62287500  0.12740700  1
  O  O18  1  0.62519000  0.14098100  0.64099600  1
  O  O19  1  0.62519000  0.85901900  0.35900400  1
  O  O20  1  0.11977400  0.82664700  0.84689600  1
  O  O21  1  0.88758600  0.69210300  0.65400100  1
  O  O22  1  0.11977400  0.17335300  0.15310400  1
  O  O23  1  0.88758600  0.30789700  0.34599900  1
