# generated using pymatgen
data_YNi(WO4)2
_symmetry_space_group_name_H-M   'P 1'
_cell_length_a   6.06150600
_cell_length_b   5.09206100
_cell_length_c   11.08833093
_cell_angle_alpha   65.40551346
_cell_angle_beta   90.00000000
_cell_angle_gamma   90.00000000
_symmetry_Int_Tables_number   1
_chemical_formula_structural   YNi(WO4)2
_chemical_formula_sum   'Y2 Ni2 W4 O16'
_cell_volume   311.19751609
_cell_formula_units_Z   2
loop_
 _symmetry_equiv_pos_site_id
 _symmetry_equiv_pos_as_xyz
  1  'x, y, z'
loop_
 _atom_site_type_symbol
 _atom_site_label
 _atom_site_symmetry_multiplicity
 _atom_site_fract_x
 _atom_site_fract_y
 _atom_site_fract_z
 _atom_site_occupancy
  Y  Y0  1  0.66306800  0.50000000  0.25000000  1
  Y  Y1  1  0.33693200  0.50000000  0.75000000  1
  Ni  Ni2  1  0.27728000  0.00000000  0.25000000  1
  Ni  Ni3  1  0.72272000  0.00000000  0.75000000  1
  W  W4  1  0.16659900  0.73693900  0.01215400  1
  W  W5  1  0.16659900  0.26306100  0.48784600  1
  W  W6  1  0.83340100  0.26306100  0.98784600  1
  W  W7  1  0.83340100  0.73693900  0.51215400  1
  O  O8  1  0.35617200  0.23296600  0.36371800  1
  O  O9  1  0.35617200  0.76703400  0.13628200  1
  O  O10  1  0.64382800  0.76703400  0.63628200  1
  O  O11  1  0.64382800  0.23296600  0.86371800  1
  O  O12  1  0.91147700  0.66065800  0.89093000  1
  O  O13  1  0.91147700  0.33934200  0.60907000  1
  O  O14  1  0.08852300  0.33934200  0.10907000  1
  O  O15  1  0.08852300  0.66065800  0.39093000  1
  O  O16  1  0.63943200  0.71457900  0.39060900  1
  O  O17  1  0.63943200  0.28542100  0.10939100  1
  O  O18  1  0.36056800  0.28542100  0.60939100  1
  O  O19  1  0.36056800  0.71457900  0.89060900  1
  O  O20  1  0.88588800  0.15918700  0.40396800  1
  O  O21  1  0.11411200  0.84081300  0.59603200  1
  O  O22  1  0.88588800  0.84081300  0.09603200  1
  O  O23  1  0.11411200  0.15918700  0.90396800  1
