# generated using pymatgen
data_BaCuSbO5
_symmetry_space_group_name_H-M   'P 1'
_cell_length_a   3.76798500
_cell_length_b   3.76798500
_cell_length_c   9.39331000
_cell_angle_alpha   90.00000000
_cell_angle_beta   90.00000000
_cell_angle_gamma   90.00000000
_symmetry_Int_Tables_number   1
_chemical_formula_structural   BaCuSbO5
_chemical_formula_sum   'Ba1 Cu1 Sb1 O5'
_cell_volume   133.36350034
_cell_formula_units_Z   1
loop_
 _symmetry_equiv_pos_site_id
 _symmetry_equiv_pos_as_xyz
  1  'x, y, z'
loop_
 _atom_site_type_symbol
 _atom_site_label
 _atom_site_symmetry_multiplicity
 _atom_site_fract_x
 _atom_site_fract_y
 _atom_site_fract_z
 _atom_site_occupancy
  Ba  Ba0  1  0.00000000  0.00000000  0.03197200  1
  Cu  Cu1  1  0.50000000  0.50000000  0.27750700  1
  Sb  Sb2  1  0.50000000  0.50000000  0.71186200  1
  O  O3  1  0.00000000  0.50000000  0.65582700  1
  O  O4  1  0.50000000  0.00000000  0.65582700  1
  O  O5  1  0.00000000  0.50000000  0.23636100  1
  O  O6  1  0.50000000  0.00000000  0.23636100  1
  O  O7  1  0.50000000  0.50000000  0.91758400  1
