# generated using pymatgen
data_CaMn2CoO7
_symmetry_space_group_name_H-M   'P 1'
_cell_length_a   6.79467057
_cell_length_b   11.09862405
_cell_length_c   14.50396600
_cell_angle_alpha   90.00000000
_cell_angle_beta   90.00000000
_cell_angle_gamma   101.18136083
_symmetry_Int_Tables_number   1
_chemical_formula_structural   CaMn2CoO7
_chemical_formula_sum   'Ca8 Mn16 Co8 O56'
_cell_volume   1073.00420406
_cell_formula_units_Z   8
loop_
 _symmetry_equiv_pos_site_id
 _symmetry_equiv_pos_as_xyz
  1  'x, y, z'
loop_
 _atom_site_type_symbol
 _atom_site_label
 _atom_site_symmetry_multiplicity
 _atom_site_fract_x
 _atom_site_fract_y
 _atom_site_fract_z
 _atom_site_occupancy
  Ca  Ca0  1  0.08321900  0.73728100  0.50793500  1
  Ca  Ca1  1  0.32272100  0.97711200  0.87388500  1
  Ca  Ca2  1  0.67727900  0.52288800  0.37388500  1
  Ca  Ca3  1  0.67727900  0.02288800  0.12611500  1
  Ca  Ca4  1  0.32272100  0.47711200  0.62611500  1
  Ca  Ca5  1  0.08321900  0.23728100  0.99206500  1
  Ca  Ca6  1  0.91678100  0.26271900  0.49206500  1
  Ca  Ca7  1  0.91678100  0.76271900  0.00793500  1
  Mn  Mn8  1  0.83427600  0.98035800  0.86902500  1
  Mn  Mn9  1  0.41415100  0.68519600  0.01559200  1
  Mn  Mn10  1  0.41415100  0.18519600  0.48440800  1
  Mn  Mn11  1  0.58584900  0.31480400  0.98440800  1
  Mn  Mn12  1  0.50340100  0.79722400  0.70973100  1
  Mn  Mn13  1  0.49659900  0.70277600  0.20973100  1
  Mn  Mn14  1  0.49659900  0.20277600  0.29026900  1
  Mn  Mn15  1  0.50340100  0.29722400  0.79026900  1
  Mn  Mn16  1  0.58584900  0.81480400  0.51559200  1
  Mn  Mn17  1  0.87193600  0.47725200  0.14139400  1
  Mn  Mn18  1  0.12806400  0.02274800  0.64139400  1
  Mn  Mn19  1  0.12806400  0.52274800  0.85860600  1
  Mn  Mn20  1  0.16572400  0.51964200  0.36902500  1
  Mn  Mn21  1  0.83427600  0.48035800  0.63097500  1
  Mn  Mn22  1  0.16572400  0.01964200  0.13097500  1
  Mn  Mn23  1  0.87193600  0.97725200  0.35860600  1
  Co  Co24  1  0.63006400  0.07538000  0.67459700  1
  Co  Co25  1  0.36993600  0.42462000  0.17459700  1
  Co  Co26  1  0.36993600  0.92462000  0.32540300  1
  Co  Co27  1  0.63006400  0.57538000  0.82540300  1
  Co  Co28  1  0.99348000  0.25282500  0.75383100  1
  Co  Co29  1  0.00652000  0.24717500  0.25383100  1
  Co  Co30  1  0.00652000  0.74717500  0.24616900  1
  Co  Co31  1  0.99348000  0.75282500  0.74616900  1
  O  O32  1  0.76043500  0.95774800  0.97898700  1
  O  O33  1  0.23956500  0.54225200  0.47898700  1
  O  O34  1  0.23956500  0.04225200  0.02101300  1
  O  O35  1  0.76043500  0.45774800  0.52101300  1
  O  O36  1  0.98540500  0.87157800  0.85626400  1
  O  O37  1  0.01459500  0.62842200  0.35626400  1
  O  O38  1  0.01459500  0.12842200  0.14373600  1
  O  O39  1  0.98540500  0.37157800  0.64373600  1
  O  O40  1  0.99930200  0.11686300  0.85527400  1
  O  O41  1  0.00069800  0.38313700  0.35527400  1
  O  O42  1  0.00069800  0.88313700  0.14472600  1
  O  O43  1  0.99930200  0.61686300  0.64472600  1
  O  O44  1  0.66820300  0.94954000  0.28615100  1
  O  O45  1  0.33179700  0.55046000  0.78615100  1
  O  O46  1  0.33179700  0.05046000  0.71384900  1
  O  O47  1  0.66820300  0.44954000  0.21384900  1
  O  O48  1  0.97679700  0.13302600  0.35902700  1
  O  O49  1  0.02320300  0.36697400  0.85902700  1
  O  O50  1  0.02320300  0.86697400  0.64097300  1
  O  O51  1  0.97679700  0.63302600  0.14097300  1
  O  O52  1  0.05002100  0.88333100  0.34084100  1
  O  O53  1  0.39132400  0.82754600  0.44103700  1
  O  O54  1  0.94997900  0.61666900  0.84084100  1
  O  O55  1  0.05002100  0.38333100  0.15915900  1
  O  O56  1  0.72426300  0.70992300  0.48225300  1
  O  O57  1  0.27573700  0.79007700  0.98225300  1
  O  O58  1  0.27573700  0.29007700  0.51774700  1
  O  O59  1  0.72426300  0.20992300  0.01774700  1
  O  O60  1  0.77407200  0.95420700  0.46763000  1
  O  O61  1  0.22592800  0.54579300  0.96763000  1
  O  O62  1  0.22592800  0.04579300  0.53237000  1
  O  O63  1  0.77407200  0.45420700  0.03237000  1
  O  O64  1  0.41550800  0.20768400  0.89691900  1
  O  O65  1  0.58449200  0.29231600  0.39691900  1
  O  O66  1  0.58449200  0.79231600  0.10308100  1
  O  O67  1  0.41550800  0.70768400  0.60308100  1
  O  O68  1  0.71040400  0.21603700  0.75824200  1
  O  O69  1  0.28959600  0.28396300  0.25824200  1
  O  O70  1  0.28959600  0.78396300  0.24175800  1
  O  O71  1  0.71040400  0.71603700  0.74175800  1
  O  O72  1  0.62567300  0.45091600  0.70586400  1
  O  O73  1  0.37432700  0.04908400  0.20586400  1
  O  O74  1  0.37432700  0.54908400  0.29413600  1
  O  O75  1  0.62567300  0.95091600  0.79413600  1
  O  O76  1  0.26985900  0.29481800  0.73331800  1
  O  O77  1  0.73014100  0.20518200  0.23331800  1
  O  O78  1  0.73014100  0.70518200  0.26668200  1
  O  O79  1  0.26985900  0.79481800  0.76668200  1
  O  O80  1  0.61715200  0.41070800  0.88063100  1
  O  O81  1  0.38284800  0.08929200  0.38063100  1
  O  O82  1  0.38284800  0.58929200  0.11936900  1
  O  O83  1  0.61715200  0.91070800  0.61936900  1
  O  O84  1  0.39132400  0.32754600  0.05896300  1
  O  O85  1  0.60867600  0.17245400  0.55896300  1
  O  O86  1  0.60867600  0.67245400  0.94103700  1
  O  O87  1  0.94997900  0.11666900  0.65915900  1
