# generated using pymatgen
data_ZnCoMo2O7
_symmetry_space_group_name_H-M   'P 1'
_cell_length_a   15.21317100
_cell_length_b   6.67981100
_cell_length_c   12.21221007
_cell_angle_alpha   75.56051007
_cell_angle_beta   90.00000000
_cell_angle_gamma   90.00000000
_symmetry_Int_Tables_number   1
_chemical_formula_structural   ZnCoMo2O7
_chemical_formula_sum   'Zn8 Co8 Mo16 O56'
_cell_volume   1201.81643266
_cell_formula_units_Z   8
loop_
 _symmetry_equiv_pos_site_id
 _symmetry_equiv_pos_as_xyz
  1  'x, y, z'
loop_
 _atom_site_type_symbol
 _atom_site_label
 _atom_site_symmetry_multiplicity
 _atom_site_fract_x
 _atom_site_fract_y
 _atom_site_fract_z
 _atom_site_occupancy
  Zn  Zn0  1  0.52279800  0.96396400  0.75484300  1
  Zn  Zn1  1  0.86317900  0.65050000  0.02476000  1
  Zn  Zn2  1  0.36317900  0.34950000  0.47524000  1
  Zn  Zn3  1  0.13682100  0.34950000  0.97524000  1
  Zn  Zn4  1  0.63682100  0.65050000  0.52476000  1
  Zn  Zn5  1  0.97720200  0.96396400  0.25484300  1
  Zn  Zn6  1  0.47720200  0.03603600  0.24515700  1
  Zn  Zn7  1  0.02279800  0.03603600  0.74515700  1
  Co  Co8  1  0.63953000  0.34668600  0.08834400  1
  Co  Co9  1  0.13953000  0.65331400  0.41165600  1
  Co  Co10  1  0.36047000  0.65331400  0.91165600  1
  Co  Co11  1  0.86047000  0.34668600  0.58834400  1
  Co  Co12  1  0.76455700  0.02138000  0.24793200  1
  Co  Co13  1  0.26455700  0.97862000  0.25206800  1
  Co  Co14  1  0.23544300  0.97862000  0.75206800  1
  Co  Co15  1  0.73544300  0.02138000  0.74793200  1
  Mo  Mo16  1  0.89680900  0.14271800  0.99486300  1
  Mo  Mo17  1  0.03626900  0.56060500  0.69607600  1
  Mo  Mo18  1  0.46373100  0.56060500  0.19607600  1
  Mo  Mo19  1  0.96373100  0.43939500  0.30392400  1
  Mo  Mo20  1  0.74045800  0.48521300  0.80798500  1
  Mo  Mo21  1  0.24045800  0.51478700  0.69201500  1
  Mo  Mo22  1  0.25954200  0.51478700  0.19201500  1
  Mo  Mo23  1  0.75954200  0.48521300  0.30798500  1
  Mo  Mo24  1  0.53626900  0.43939500  0.80392400  1
  Mo  Mo25  1  0.14126500  0.14257800  0.47974400  1
  Mo  Mo26  1  0.64126500  0.85742200  0.02025600  1
  Mo  Mo27  1  0.85873500  0.85742200  0.52025600  1
  Mo  Mo28  1  0.39680900  0.85728200  0.50513700  1
  Mo  Mo29  1  0.60319100  0.14271800  0.49486300  1
  Mo  Mo30  1  0.10319100  0.85728200  0.00513700  1
  Mo  Mo31  1  0.35873500  0.14257800  0.97974400  1
  O  O32  1  0.01067400  0.21955200  0.95188100  1
  O  O33  1  0.51067400  0.78044800  0.54811900  1
  O  O34  1  0.98932600  0.78044800  0.04811900  1
  O  O35  1  0.48932600  0.21955200  0.45188100  1
  O  O36  1  0.83332500  0.94889600  0.94097900  1
  O  O37  1  0.33332500  0.05110400  0.55902100  1
  O  O38  1  0.16667500  0.05110400  0.05902100  1
  O  O39  1  0.66667500  0.94889600  0.44097900  1
  O  O40  1  0.87068300  0.04437100  0.15036400  1
  O  O41  1  0.37068300  0.95562900  0.34963600  1
  O  O42  1  0.12931700  0.95562900  0.84963600  1
  O  O43  1  0.62931700  0.04437100  0.65036400  1
  O  O44  1  0.28881300  0.36685700  0.94403300  1
  O  O45  1  0.78881300  0.63314300  0.55596700  1
  O  O46  1  0.71118700  0.63314300  0.05596700  1
  O  O47  1  0.21118700  0.36685700  0.44403300  1
  O  O48  1  0.36268400  0.02444800  0.12979000  1
  O  O49  1  0.86268400  0.97555200  0.37021000  1
  O  O50  1  0.63731600  0.97555200  0.87021000  1
  O  O51  1  0.13731600  0.02444800  0.62979000  1
  O  O52  1  0.33098600  0.95455000  0.90086800  1
  O  O53  1  0.47152600  0.69263200  0.81622300  1
  O  O54  1  0.83098600  0.04545000  0.59913200  1
  O  O55  1  0.16901400  0.95455000  0.40086800  1
  O  O56  1  0.48941500  0.24965500  0.72838700  1
  O  O57  1  0.98941500  0.75034500  0.77161300  1
  O  O58  1  0.51058500  0.75034500  0.27161300  1
  O  O59  1  0.01058500  0.24965500  0.22838700  1
  O  O60  1  0.46606700  0.25013100  0.94902000  1
  O  O61  1  0.96606700  0.74986900  0.55098000  1
  O  O62  1  0.53393300  0.74986900  0.05098000  1
  O  O63  1  0.03393300  0.25013100  0.44902000  1
  O  O64  1  0.85986500  0.54975700  0.19683100  1
  O  O65  1  0.35986500  0.45024300  0.30316900  1
  O  O66  1  0.14013500  0.45024300  0.80316900  1
  O  O67  1  0.64013500  0.54975700  0.69683100  1
  O  O68  1  0.70946800  0.28857700  0.24012000  1
  O  O69  1  0.20946800  0.71142300  0.25988000  1
  O  O70  1  0.29053200  0.71142300  0.75988000  1
  O  O71  1  0.79053200  0.28857700  0.74012000  1
  O  O72  1  0.66562700  0.40592800  0.45071200  1
  O  O73  1  0.16562700  0.59407200  0.04928800  1
  O  O74  1  0.33437300  0.59407200  0.54928800  1
  O  O75  1  0.83437300  0.40592800  0.95071200  1
  O  O76  1  0.72041200  0.74181600  0.28451100  1
  O  O77  1  0.22041200  0.25818400  0.21548900  1
  O  O78  1  0.27958800  0.25818400  0.71548900  1
  O  O79  1  0.77958800  0.74181600  0.78451100  1
  O  O80  1  0.86093100  0.40552400  0.41356000  1
  O  O81  1  0.36093100  0.59447600  0.08644000  1
  O  O82  1  0.13906900  0.59447600  0.58644000  1
  O  O83  1  0.63906900  0.40552400  0.91356000  1
  O  O84  1  0.02847400  0.69263200  0.31622300  1
  O  O85  1  0.52847400  0.30736800  0.18377700  1
  O  O86  1  0.97152600  0.30736800  0.68377700  1
  O  O87  1  0.66901400  0.04545000  0.09913200  1
