# generated using pymatgen
data_Zn(WO2)2
_symmetry_space_group_name_H-M   'P 1'
_cell_length_a   3.29181200
_cell_length_b   7.59163996
_cell_length_c   7.86440010
_cell_angle_alpha   81.40510717
_cell_angle_beta   79.82901814
_cell_angle_gamma   79.44084880
_symmetry_Int_Tables_number   1
_chemical_formula_structural   Zn(WO2)2
_chemical_formula_sum   'Zn2 W4 O8'
_cell_volume   188.77169196
_cell_formula_units_Z   2
loop_
 _symmetry_equiv_pos_site_id
 _symmetry_equiv_pos_as_xyz
  1  'x, y, z'
loop_
 _atom_site_type_symbol
 _atom_site_label
 _atom_site_symmetry_multiplicity
 _atom_site_fract_x
 _atom_site_fract_y
 _atom_site_fract_z
 _atom_site_occupancy
  Zn  Zn0  1  0.31267500  0.94804900  0.87588300  1
  Zn  Zn1  1  0.68719000  0.06672100  0.09209600  1
  W  W2  1  0.35613800  0.82513400  0.45283900  1
  W  W3  1  0.85388500  0.50957400  0.79808600  1
  W  W4  1  0.16474300  0.51287500  0.16876500  1
  W  W5  1  0.65780300  0.19742600  0.51428000  1
  O  O6  1  0.16197000  0.32963200  0.37705200  1
  O  O7  1  0.58112800  0.65280200  0.24967700  1
  O  O8  1  0.43500000  0.37054000  0.71705800  1
  O  O9  1  0.85213400  0.69310900  0.58981600  1
  O  O10  1  0.82844000  0.99345300  0.33141900  1
  O  O11  1  0.25102700  0.65251000  0.91038200  1
  O  O12  1  0.18525900  0.02928500  0.63542100  1
  O  O13  1  0.76716400  0.37209100  0.05578300  1
