# generated using pymatgen
data_BaYVCuO5
_symmetry_space_group_name_H-M   'P 1'
_cell_length_a   3.91886900
_cell_length_b   3.91886900
_cell_length_c   8.00863200
_cell_angle_alpha   90.00000000
_cell_angle_beta   90.00000000
_cell_angle_gamma   90.00000000
_symmetry_Int_Tables_number   1
_chemical_formula_structural   BaYVCuO5
_chemical_formula_sum   'Ba1 Y1 V1 Cu1 O5'
_cell_volume   122.99284015
_cell_formula_units_Z   1
loop_
 _symmetry_equiv_pos_site_id
 _symmetry_equiv_pos_as_xyz
  1  'x, y, z'
loop_
 _atom_site_type_symbol
 _atom_site_label
 _atom_site_symmetry_multiplicity
 _atom_site_fract_x
 _atom_site_fract_y
 _atom_site_fract_z
 _atom_site_occupancy
  Ba  Ba0  1  0.00000000  0.00000000  0.00865800  1
  Y  Y1  1  0.00000000  0.00000000  0.45974500  1
  V  V2  1  0.50000000  0.50000000  0.70136400  1
  Cu  Cu3  1  0.50000000  0.50000000  0.26857000  1
  O  O4  1  0.00000000  0.50000000  0.63197600  1
  O  O5  1  0.50000000  0.00000000  0.63197600  1
  O  O6  1  0.00000000  0.50000000  0.27546900  1
  O  O7  1  0.50000000  0.00000000  0.27546900  1
  O  O8  1  0.50000000  0.50000000  0.92961100  1
