# generated using pymatgen
data_Mg2Cr3O8
_symmetry_space_group_name_H-M   'P 1'
_cell_length_a   5.85820804
_cell_length_b   5.85820804
_cell_length_c   9.49630900
_cell_angle_alpha   90.00000000
_cell_angle_beta   90.00000000
_cell_angle_gamma   120.00000050
_symmetry_Int_Tables_number   1
_chemical_formula_structural   Mg2Cr3O8
_chemical_formula_sum   'Mg4 Cr6 O16'
_cell_volume   282.23771596
_cell_formula_units_Z   2
loop_
 _symmetry_equiv_pos_site_id
 _symmetry_equiv_pos_as_xyz
  1  'x, y, z'
loop_
 _atom_site_type_symbol
 _atom_site_label
 _atom_site_symmetry_multiplicity
 _atom_site_fract_x
 _atom_site_fract_y
 _atom_site_fract_z
 _atom_site_occupancy
  Mg  Mg0  1  0.66666700  0.33333300  0.02024700  1
  Mg  Mg1  1  0.33333300  0.66666700  0.52024700  1
  Mg  Mg2  1  0.66666700  0.33333300  0.42248900  1
  Mg  Mg3  1  0.33333300  0.66666700  0.92248900  1
  Cr  Cr4  1  0.67280500  0.83640300  0.24379000  1
  Cr  Cr5  1  0.83640300  0.16359700  0.74379000  1
  Cr  Cr6  1  0.16359700  0.32719500  0.24379000  1
  Cr  Cr7  1  0.83640300  0.67280500  0.74379000  1
  Cr  Cr8  1  0.32719500  0.16359700  0.74379000  1
  Cr  Cr9  1  0.16359700  0.83640300  0.24379000  1
  O  O10  1  0.83654800  0.16345200  0.14875300  1
  O  O11  1  0.67309600  0.83654800  0.64875300  1
  O  O12  1  0.16345200  0.32690400  0.64875300  1
  O  O13  1  0.83654800  0.67309600  0.14875300  1
  O  O14  1  0.32690400  0.16345200  0.14875300  1
  O  O15  1  0.16345200  0.83654800  0.64875300  1
  O  O16  1  0.51913700  0.48086300  0.86303700  1
  O  O17  1  0.03827400  0.51913700  0.36303700  1
  O  O18  1  0.48086300  0.96172600  0.36303700  1
  O  O19  1  0.51913700  0.03827400  0.86303700  1
  O  O20  1  0.00000000  0.00000000  0.35252800  1
  O  O21  1  0.00000000  0.00000000  0.85252800  1
  O  O22  1  0.33333300  0.66666700  0.13150100  1
  O  O23  1  0.96172600  0.48086300  0.86303700  1
  O  O24  1  0.48086300  0.51913700  0.36303700  1
  O  O25  1  0.66666700  0.33333300  0.63150100  1
