# generated using pymatgen
data_ZnBiMoO5
_symmetry_space_group_name_H-M   'P 1'
_cell_length_a   5.31068500
_cell_length_b   10.48286600
_cell_length_c   16.05838200
_cell_angle_alpha   90.00000000
_cell_angle_beta   90.00000000
_cell_angle_gamma   90.00000000
_symmetry_Int_Tables_number   1
_chemical_formula_structural   ZnBiMoO5
_chemical_formula_sum   'Zn8 Bi8 Mo8 O40'
_cell_volume   893.98938352
_cell_formula_units_Z   8
loop_
 _symmetry_equiv_pos_site_id
 _symmetry_equiv_pos_as_xyz
  1  'x, y, z'
loop_
 _atom_site_type_symbol
 _atom_site_label
 _atom_site_symmetry_multiplicity
 _atom_site_fract_x
 _atom_site_fract_y
 _atom_site_fract_z
 _atom_site_occupancy
  Zn  Zn0  1  0.53929500  0.37614200  0.56237000  1
  Zn  Zn1  1  0.03929500  0.12385800  0.56237000  1
  Zn  Zn2  1  0.03929500  0.62385800  0.93763000  1
  Zn  Zn3  1  0.96070500  0.37614200  0.06237000  1
  Zn  Zn4  1  0.46070500  0.12385800  0.06237000  1
  Zn  Zn5  1  0.96070500  0.87614200  0.43763000  1
  Zn  Zn6  1  0.46070500  0.62385800  0.43763000  1
  Zn  Zn7  1  0.53929500  0.87614200  0.93763000  1
  Bi  Bi8  1  0.99892900  0.85871800  0.77637100  1
  Bi  Bi9  1  0.00107100  0.14128200  0.22362900  1
  Bi  Bi10  1  0.50107100  0.35871800  0.22362900  1
  Bi  Bi11  1  0.00107100  0.64128200  0.27637100  1
  Bi  Bi12  1  0.49892900  0.14128200  0.72362900  1
  Bi  Bi13  1  0.49892900  0.64128200  0.77637100  1
  Bi  Bi14  1  0.50107100  0.85871800  0.27637100  1
  Bi  Bi15  1  0.99892900  0.35871800  0.72362900  1
  Mo  Mo16  1  0.98266700  0.37584800  0.41598800  1
  Mo  Mo17  1  0.51733300  0.87584800  0.58401200  1
  Mo  Mo18  1  0.01733300  0.62415200  0.58401200  1
  Mo  Mo19  1  0.48266700  0.12415200  0.41598800  1
  Mo  Mo20  1  0.01733300  0.12415200  0.91598800  1
  Mo  Mo21  1  0.98266700  0.87584800  0.08401200  1
  Mo  Mo22  1  0.51733300  0.37584800  0.91598800  1
  Mo  Mo23  1  0.48266700  0.62415200  0.08401200  1
  O  O24  1  0.88629600  0.32698500  0.30544500  1
  O  O25  1  0.27847400  0.02648900  0.95698300  1
  O  O26  1  0.22152600  0.52648900  0.04301700  1
  O  O27  1  0.32314700  0.78703200  0.85172600  1
  O  O28  1  0.17685300  0.28703200  0.14827400  1
  O  O29  1  0.88629600  0.82698500  0.19455500  1
  O  O30  1  0.17685300  0.78703200  0.35172600  1
  O  O31  1  0.61370400  0.82698500  0.69455500  1
  O  O32  1  0.27847400  0.52648900  0.54301700  1
  O  O33  1  0.11370400  0.67301500  0.69455500  1
  O  O34  1  0.61370400  0.32698500  0.80544500  1
  O  O35  1  0.72639600  0.22472700  0.46904400  1
  O  O36  1  0.77847400  0.97351100  0.54301700  1
  O  O37  1  0.67685300  0.71296800  0.35172600  1
  O  O38  1  0.19559200  0.01499100  0.12683000  1
  O  O39  1  0.77847400  0.47351100  0.95698300  1
  O  O40  1  0.11370400  0.17301500  0.80544500  1
  O  O41  1  0.82314700  0.21296800  0.64827400  1
  O  O42  1  0.22639600  0.77527300  0.03095600  1
  O  O43  1  0.22152600  0.02648900  0.45698300  1
  O  O44  1  0.27360400  0.77527300  0.53095600  1
  O  O45  1  0.80440800  0.98500900  0.87317000  1
  O  O46  1  0.67685300  0.21296800  0.14827400  1
  O  O47  1  0.69559200  0.98500900  0.37317000  1
  O  O48  1  0.27360400  0.27527300  0.96904400  1
  O  O49  1  0.22639600  0.27527300  0.46904400  1
  O  O50  1  0.72152600  0.47351100  0.45698300  1
  O  O51  1  0.72152600  0.97351100  0.04301700  1
  O  O52  1  0.69559200  0.48500900  0.12683000  1
  O  O53  1  0.77360400  0.72472700  0.53095600  1
  O  O54  1  0.77360400  0.22472700  0.96904400  1
  O  O55  1  0.72639600  0.72472700  0.03095600  1
  O  O56  1  0.80440800  0.48500900  0.62683000  1
  O  O57  1  0.82314700  0.71296800  0.85172600  1
  O  O58  1  0.32314700  0.28703200  0.64827400  1
  O  O59  1  0.19559200  0.51499100  0.37317000  1
  O  O60  1  0.30440800  0.51499100  0.87317000  1
  O  O61  1  0.38629600  0.17301500  0.30544500  1
  O  O62  1  0.30440800  0.01499100  0.62683000  1
  O  O63  1  0.38629600  0.67301500  0.19455500  1
