# generated using pymatgen
data_Sr2YGaFe2O7
_symmetry_space_group_name_H-M   'P 1'
_cell_length_a   12.02379265
_cell_length_b   12.02379265
_cell_length_c   5.59828960
_cell_angle_alpha   76.56359417
_cell_angle_beta   76.56359417
_cell_angle_gamma   27.60240598
_symmetry_Int_Tables_number   1
_chemical_formula_structural   Sr2YGaFe2O7
_chemical_formula_sum   'Sr4 Y2 Ga2 Fe4 O14'
_cell_volume   364.10746699
_cell_formula_units_Z   2
loop_
 _symmetry_equiv_pos_site_id
 _symmetry_equiv_pos_as_xyz
  1  'x, y, z'
loop_
 _atom_site_type_symbol
 _atom_site_label
 _atom_site_symmetry_multiplicity
 _atom_site_fract_x
 _atom_site_fract_y
 _atom_site_fract_z
 _atom_site_occupancy
  Sr  Sr0  1  0.12578000  0.67327500  0.83970700  1
  Sr  Sr1  1  0.87308600  0.31787300  0.13981800  1
  Sr  Sr2  1  0.67327500  0.12578000  0.33970700  1
  Sr  Sr3  1  0.31787300  0.87308600  0.63981800  1
  Y  Y4  1  0.49919700  0.00090300  0.49113400  1
  Y  Y5  1  0.00090300  0.49919700  0.99113400  1
  Ga  Ga6  1  0.67484100  0.31863300  0.71244200  1
  Ga  Ga7  1  0.31863300  0.67484100  0.21244200  1
  Fe  Fe8  1  0.92278400  0.42928500  0.56619900  1
  Fe  Fe9  1  0.57405700  0.07997800  0.91598900  1
  Fe  Fe10  1  0.42928500  0.92278400  0.06619900  1
  Fe  Fe11  1  0.07997800  0.57405700  0.41598900  1
  O  O12  1  0.79654500  0.82543600  0.68531200  1
  O  O13  1  0.61887900  0.37555400  0.37118800  1
  O  O14  1  0.82543600  0.79654500  0.18531200  1
  O  O15  1  0.26081900  0.87665100  0.21225700  1
  O  O16  1  0.69037900  0.67609200  0.81675500  1
  O  O17  1  0.67609200  0.69037900  0.31675500  1
  O  O18  1  0.37555400  0.61887900  0.87118800  1
  O  O19  1  0.17818600  0.19238100  0.30457900  1
  O  O20  1  0.19238100  0.17818600  0.80457900  1
  O  O21  1  0.87665100  0.26081900  0.71225700  1
  O  O22  1  0.72830400  0.11905600  0.85249200  1
  O  O23  1  0.11905600  0.72830400  0.35249200  1
  O  O24  1  0.29996600  0.32435300  0.68322600  1
  O  O25  1  0.32435300  0.29996600  0.18322600  1
