# generated using pymatgen
data_VZnBiO5
_symmetry_space_group_name_H-M   'P 1'
_cell_length_a   5.66391900
_cell_length_b   10.95993500
_cell_length_c   15.31204600
_cell_angle_alpha   90.00000000
_cell_angle_beta   90.00000000
_cell_angle_gamma   90.00000000
_symmetry_Int_Tables_number   1
_chemical_formula_structural   VZnBiO5
_chemical_formula_sum   'V8 Zn8 Bi8 O40'
_cell_volume   950.51338622
_cell_formula_units_Z   8
loop_
 _symmetry_equiv_pos_site_id
 _symmetry_equiv_pos_as_xyz
  1  'x, y, z'
loop_
 _atom_site_type_symbol
 _atom_site_label
 _atom_site_symmetry_multiplicity
 _atom_site_fract_x
 _atom_site_fract_y
 _atom_site_fract_z
 _atom_site_occupancy
  V  V0  1  0.91931100  0.38935800  0.40698100  1
  V  V1  1  0.58068900  0.88935800  0.59301900  1
  V  V2  1  0.08068900  0.61064200  0.59301900  1
  V  V3  1  0.41931100  0.11064200  0.40698100  1
  V  V4  1  0.08068900  0.11064200  0.90698100  1
  V  V5  1  0.91931100  0.88935800  0.09301900  1
  V  V6  1  0.58068900  0.38935800  0.90698100  1
  V  V7  1  0.41931100  0.61064200  0.09301900  1
  Zn  Zn8  1  0.41788900  0.35859000  0.52799900  1
  Zn  Zn9  1  0.91788900  0.14141000  0.52799900  1
  Zn  Zn10  1  0.91788900  0.64141000  0.97200100  1
  Zn  Zn11  1  0.08211100  0.35859000  0.02799900  1
  Zn  Zn12  1  0.58211100  0.14141000  0.02799900  1
  Zn  Zn13  1  0.08211100  0.85859000  0.47200100  1
  Zn  Zn14  1  0.58211100  0.64141000  0.47200100  1
  Zn  Zn15  1  0.41788900  0.85859000  0.97200100  1
  Bi  Bi16  1  0.03307600  0.84492000  0.77661400  1
  Bi  Bi17  1  0.96692400  0.15508000  0.22338600  1
  Bi  Bi18  1  0.46692400  0.34492000  0.22338600  1
  Bi  Bi19  1  0.96692400  0.65508000  0.27661400  1
  Bi  Bi20  1  0.53307600  0.15508000  0.72338600  1
  Bi  Bi21  1  0.53307600  0.65508000  0.77661400  1
  Bi  Bi22  1  0.46692400  0.84492000  0.27661400  1
  Bi  Bi23  1  0.03307600  0.34492000  0.72338600  1
  O  O24  1  0.82777400  0.31112700  0.31192100  1
  O  O25  1  0.33300200  0.04369500  0.95249100  1
  O  O26  1  0.16699800  0.54369500  0.04750900  1
  O  O27  1  0.35451300  0.79566200  0.85047700  1
  O  O28  1  0.14548700  0.29566200  0.14952300  1
  O  O29  1  0.82777400  0.81112700  0.18807900  1
  O  O30  1  0.14548700  0.79566200  0.35047700  1
  O  O31  1  0.67222600  0.81112700  0.68807900  1
  O  O32  1  0.33300200  0.54369500  0.54750900  1
  O  O33  1  0.17222600  0.68887300  0.68807900  1
  O  O34  1  0.67222600  0.31112700  0.81192100  1
  O  O35  1  0.58705800  0.20136600  0.47916600  1
  O  O36  1  0.83300200  0.95630500  0.54750900  1
  O  O37  1  0.64548700  0.70433800  0.35047700  1
  O  O38  1  0.09925100  0.00475200  0.12832000  1
  O  O39  1  0.83300200  0.45630500  0.95249100  1
  O  O40  1  0.17222600  0.18887300  0.81192100  1
  O  O41  1  0.85451300  0.20433800  0.64952300  1
  O  O42  1  0.08705800  0.79863400  0.02083400  1
  O  O43  1  0.16699800  0.04369500  0.45249100  1
  O  O44  1  0.41294200  0.79863400  0.52083400  1
  O  O45  1  0.90074900  0.99524800  0.87168000  1
  O  O46  1  0.64548700  0.20433800  0.14952300  1
  O  O47  1  0.59925100  0.99524800  0.37168000  1
  O  O48  1  0.41294200  0.29863400  0.97916600  1
  O  O49  1  0.08705800  0.29863400  0.47916600  1
  O  O50  1  0.66699800  0.45630500  0.45249100  1
  O  O51  1  0.66699800  0.95630500  0.04750900  1
  O  O52  1  0.59925100  0.49524800  0.12832000  1
  O  O53  1  0.91294200  0.70136600  0.52083400  1
  O  O54  1  0.91294200  0.20136600  0.97916600  1
  O  O55  1  0.58705800  0.70136600  0.02083400  1
  O  O56  1  0.90074900  0.49524800  0.62832000  1
  O  O57  1  0.85451300  0.70433800  0.85047700  1
  O  O58  1  0.35451300  0.29566200  0.64952300  1
  O  O59  1  0.09925100  0.50475200  0.37168000  1
  O  O60  1  0.40074900  0.50475200  0.87168000  1
  O  O61  1  0.32777400  0.18887300  0.31192100  1
  O  O62  1  0.40074900  0.00475200  0.62832000  1
  O  O63  1  0.32777400  0.68887300  0.18807900  1
