# generated using pymatgen
data_MgV2CoO7
_symmetry_space_group_name_H-M   'P 1'
_cell_length_a   14.17250700
_cell_length_b   6.59104800
_cell_length_c   11.83939754
_cell_angle_alpha   78.99053204
_cell_angle_beta   90.00000000
_cell_angle_gamma   90.00000000
_symmetry_Int_Tables_number   1
_chemical_formula_structural   MgV2CoO7
_chemical_formula_sum   'Mg8 V16 Co8 O56'
_cell_volume   1085.58386184
_cell_formula_units_Z   8
loop_
 _symmetry_equiv_pos_site_id
 _symmetry_equiv_pos_as_xyz
  1  'x, y, z'
loop_
 _atom_site_type_symbol
 _atom_site_label
 _atom_site_symmetry_multiplicity
 _atom_site_fract_x
 _atom_site_fract_y
 _atom_site_fract_z
 _atom_site_occupancy
  Mg  Mg0  1  0.50628600  0.96490100  0.73545600  1
  Mg  Mg1  1  0.87051600  0.69687200  0.92625000  1
  Mg  Mg2  1  0.37051600  0.30312800  0.57375000  1
  Mg  Mg3  1  0.12948400  0.30312800  0.07375000  1
  Mg  Mg4  1  0.62948400  0.69687200  0.42625000  1
  Mg  Mg5  1  0.99371400  0.96490100  0.23545600  1
  Mg  Mg6  1  0.49371400  0.03509900  0.26454400  1
  Mg  Mg7  1  0.00628600  0.03509900  0.76454400  1
  V  V8  1  0.89803400  0.17789600  0.98444600  1
  V  V9  1  0.01373100  0.56450400  0.68440400  1
  V  V10  1  0.48626900  0.56450400  0.18440400  1
  V  V11  1  0.98626900  0.43549600  0.31559600  1
  V  V12  1  0.70991700  0.50013900  0.78794200  1
  V  V13  1  0.20991700  0.49986100  0.71205800  1
  V  V14  1  0.29008300  0.49986100  0.21205800  1
  V  V15  1  0.79008300  0.50013900  0.28794200  1
  V  V16  1  0.51373100  0.43549600  0.81559600  1
  V  V17  1  0.13992900  0.12994100  0.49610400  1
  V  V18  1  0.63992900  0.87005900  0.00389600  1
  V  V19  1  0.86007100  0.87005900  0.50389600  1
  V  V20  1  0.39803400  0.82210400  0.51555400  1
  V  V21  1  0.60196600  0.17789600  0.48444600  1
  V  V22  1  0.10196600  0.82210400  0.01555400  1
  V  V23  1  0.36007100  0.12994100  0.99610400  1
  Co  Co24  1  0.69128900  0.36807800  0.05927000  1
  Co  Co25  1  0.19128900  0.63192200  0.44073000  1
  Co  Co26  1  0.30871100  0.63192200  0.94073000  1
  Co  Co27  1  0.80871100  0.36807800  0.55927000  1
  Co  Co28  1  0.76480200  0.01064200  0.22681000  1
  Co  Co29  1  0.26480200  0.98935800  0.27319000  1
  Co  Co30  1  0.23519800  0.98935800  0.77319000  1
  Co  Co31  1  0.73519800  0.01064200  0.72681000  1
  O  O32  1  0.00708000  0.27956200  0.98080300  1
  O  O33  1  0.50708000  0.72043800  0.51919700  1
  O  O34  1  0.99292000  0.72043800  0.01919700  1
  O  O35  1  0.49292000  0.27956200  0.48080300  1
  O  O36  1  0.88873500  0.01933900  0.87935100  1
  O  O37  1  0.38873500  0.98066100  0.62064900  1
  O  O38  1  0.11126500  0.98066100  0.12064900  1
  O  O39  1  0.61126500  0.01933900  0.37935100  1
  O  O40  1  0.88076100  0.03282700  0.12454600  1
  O  O41  1  0.38076100  0.96717300  0.37545400  1
  O  O42  1  0.11923900  0.96717300  0.87545400  1
  O  O43  1  0.61923900  0.03282700  0.62454600  1
  O  O44  1  0.26904800  0.30745500  0.97490400  1
  O  O45  1  0.76904800  0.69254500  0.52509600  1
  O  O46  1  0.73095200  0.69254500  0.02509600  1
  O  O47  1  0.23095200  0.30745500  0.47490400  1
  O  O48  1  0.37645900  0.02963400  0.14242200  1
  O  O49  1  0.87645900  0.97036600  0.35757800  1
  O  O50  1  0.62354100  0.97036600  0.85757800  1
  O  O51  1  0.12354100  0.02963400  0.64242200  1
  O  O52  1  0.33252700  0.94485200  0.91054400  1
  O  O53  1  0.45582500  0.66195500  0.81231400  1
  O  O54  1  0.83252700  0.05514800  0.58945600  1
  O  O55  1  0.16747300  0.94485200  0.41054400  1
  O  O56  1  0.47168500  0.28425500  0.72274000  1
  O  O57  1  0.97168500  0.71574500  0.77726000  1
  O  O58  1  0.52831500  0.71574500  0.27726000  1
  O  O59  1  0.02831500  0.28425500  0.22274000  1
  O  O60  1  0.46393200  0.26629400  0.94818200  1
  O  O61  1  0.96393200  0.73370600  0.55181800  1
  O  O62  1  0.53606800  0.73370600  0.05181800  1
  O  O63  1  0.03606800  0.26629400  0.44818200  1
  O  O64  1  0.88954700  0.57008100  0.20544800  1
  O  O65  1  0.38954700  0.42991900  0.29455200  1
  O  O66  1  0.11045300  0.42991900  0.79455200  1
  O  O67  1  0.61045300  0.57008100  0.70544800  1
  O  O68  1  0.73955100  0.31176400  0.22119600  1
  O  O69  1  0.23955100  0.68823600  0.27880400  1
  O  O70  1  0.26044900  0.68823600  0.77880400  1
  O  O71  1  0.76044900  0.31176400  0.72119600  1
  O  O72  1  0.68321700  0.38893600  0.45384700  1
  O  O73  1  0.18321700  0.61106400  0.04615300  1
  O  O74  1  0.31678300  0.61106400  0.54615300  1
  O  O75  1  0.81678300  0.38893600  0.95384700  1
  O  O76  1  0.72485500  0.72354100  0.28668000  1
  O  O77  1  0.22485500  0.27645900  0.21332000  1
  O  O78  1  0.27514500  0.27645900  0.71332000  1
  O  O79  1  0.77514500  0.72354100  0.78668000  1
  O  O80  1  0.87056100  0.40664400  0.40601300  1
  O  O81  1  0.37056100  0.59335600  0.09398700  1
  O  O82  1  0.12943900  0.59335600  0.59398700  1
  O  O83  1  0.62943900  0.40664400  0.90601300  1
  O  O84  1  0.04417500  0.66195500  0.31231400  1
  O  O85  1  0.54417500  0.33804500  0.18768600  1
  O  O86  1  0.95582500  0.33804500  0.68768600  1
  O  O87  1  0.66747300  0.05514800  0.08945600  1
