# generated using pymatgen
data_Mg2Co3O8
_symmetry_space_group_name_H-M   'P 1'
_cell_length_a   5.83728740
_cell_length_b   5.83728740
_cell_length_c   9.44950700
_cell_angle_alpha   90.00000000
_cell_angle_beta   90.00000000
_cell_angle_gamma   119.99999316
_symmetry_Int_Tables_number   1
_chemical_formula_structural   Mg2Co3O8
_chemical_formula_sum   'Mg4 Co6 O16'
_cell_volume   278.84442436
_cell_formula_units_Z   2
loop_
 _symmetry_equiv_pos_site_id
 _symmetry_equiv_pos_as_xyz
  1  'x, y, z'
loop_
 _atom_site_type_symbol
 _atom_site_label
 _atom_site_symmetry_multiplicity
 _atom_site_fract_x
 _atom_site_fract_y
 _atom_site_fract_z
 _atom_site_occupancy
  Mg  Mg0  1  0.66666700  0.33333300  0.02146000  1
  Mg  Mg1  1  0.33333300  0.66666700  0.52146000  1
  Mg  Mg2  1  0.66666700  0.33333300  0.42306000  1
  Mg  Mg3  1  0.33333300  0.66666700  0.92306000  1
  Co  Co4  1  0.67280700  0.83640300  0.24451100  1
  Co  Co5  1  0.83640300  0.16359700  0.74451100  1
  Co  Co6  1  0.16359700  0.32719300  0.24451100  1
  Co  Co7  1  0.83640300  0.67280700  0.74451100  1
  Co  Co8  1  0.32719300  0.16359700  0.74451100  1
  Co  Co9  1  0.16359700  0.83640300  0.24451100  1
  O  O10  1  0.83994600  0.16005400  0.14630500  1
  O  O11  1  0.67989100  0.83994600  0.64630500  1
  O  O12  1  0.16005400  0.32010900  0.64630500  1
  O  O13  1  0.83994600  0.67989100  0.14630500  1
  O  O14  1  0.32010900  0.16005400  0.14630500  1
  O  O15  1  0.16005400  0.83994600  0.64630500  1
  O  O16  1  0.51858100  0.48141900  0.86246400  1
  O  O17  1  0.03716200  0.51858100  0.36246400  1
  O  O18  1  0.48141900  0.96283800  0.36246400  1
  O  O19  1  0.51858100  0.03716200  0.86246400  1
  O  O20  1  0.00000000  0.00000000  0.35718800  1
  O  O21  1  0.00000000  0.00000000  0.85718800  1
  O  O22  1  0.33333300  0.66666700  0.13195100  1
  O  O23  1  0.96283800  0.48141900  0.86246400  1
  O  O24  1  0.48141900  0.51858100  0.36246400  1
  O  O25  1  0.66666700  0.33333300  0.63195100  1
