# generated using pymatgen
data_CaCo3O7
_symmetry_space_group_name_H-M   'P 1'
_cell_length_a   14.25753600
_cell_length_b   6.73948600
_cell_length_c   10.99854836
_cell_angle_alpha   77.44045308
_cell_angle_beta   90.00000000
_cell_angle_gamma   90.00000000
_symmetry_Int_Tables_number   1
_chemical_formula_structural   CaCo3O7
_chemical_formula_sum   'Ca8 Co24 O56'
_cell_volume   1031.54415966
_cell_formula_units_Z   8
loop_
 _symmetry_equiv_pos_site_id
 _symmetry_equiv_pos_as_xyz
  1  'x, y, z'
loop_
 _atom_site_type_symbol
 _atom_site_label
 _atom_site_symmetry_multiplicity
 _atom_site_fract_x
 _atom_site_fract_y
 _atom_site_fract_z
 _atom_site_occupancy
  Ca  Ca0  1  0.50728200  0.91406900  0.73624600  1
  Ca  Ca1  1  0.87418800  0.66238000  0.97674300  1
  Ca  Ca2  1  0.37418800  0.33762000  0.52325700  1
  Ca  Ca3  1  0.12581200  0.33762000  0.02325700  1
  Ca  Ca4  1  0.62581200  0.66238000  0.47674300  1
  Ca  Ca5  1  0.99271800  0.91406900  0.23624600  1
  Ca  Ca6  1  0.49271800  0.08593100  0.26375400  1
  Ca  Ca7  1  0.00728200  0.08593100  0.76375400  1
  Co  Co8  1  0.86217700  0.15988600  0.97911300  1
  Co  Co9  1  0.01369200  0.60157900  0.68161800  1
  Co  Co10  1  0.48630800  0.60157900  0.18161800  1
  Co  Co11  1  0.98630800  0.39842100  0.31838200  1
  Co  Co12  1  0.70296100  0.50272400  0.80764200  1
  Co  Co13  1  0.20296100  0.49727600  0.69235800  1
  Co  Co14  1  0.29703900  0.49727600  0.19235800  1
  Co  Co15  1  0.79703900  0.50272400  0.30764200  1
  Co  Co16  1  0.51369200  0.39842100  0.81838200  1
  Co  Co17  1  0.14525700  0.12692100  0.47990300  1
  Co  Co18  1  0.64525700  0.87307900  0.02009700  1
  Co  Co19  1  0.85474300  0.87307900  0.52009700  1
  Co  Co20  1  0.36217700  0.84011400  0.52088700  1
  Co  Co21  1  0.63782300  0.15988600  0.47911300  1
  Co  Co22  1  0.13782300  0.84011400  0.02088700  1
  Co  Co23  1  0.35474300  0.12692100  0.97990300  1
  Co  Co24  1  0.67637700  0.36851800  0.08262600  1
  Co  Co25  1  0.17637700  0.63148200  0.41737400  1
  Co  Co26  1  0.32362300  0.63148200  0.91737400  1
  Co  Co27  1  0.82362300  0.36851800  0.58262600  1
  Co  Co28  1  0.75196900  0.01148000  0.24752000  1
  Co  Co29  1  0.25196900  0.98852000  0.25248000  1
  Co  Co30  1  0.24803100  0.98852000  0.75248000  1
  Co  Co31  1  0.74803100  0.01148000  0.74752000  1
  O  O32  1  0.97859600  0.23502000  0.95878700  1
  O  O33  1  0.47859600  0.76498000  0.54121300  1
  O  O34  1  0.02140400  0.76498000  0.04121300  1
  O  O35  1  0.52140400  0.23502000  0.45878700  1
  O  O36  1  0.84597300  0.00349000  0.86537300  1
  O  O37  1  0.34597300  0.99651000  0.63462700  1
  O  O38  1  0.15402700  0.99651000  0.13462700  1
  O  O39  1  0.65402700  0.00349000  0.36537300  1
  O  O40  1  0.84685700  0.99438300  0.12824000  1
  O  O41  1  0.34685700  0.00561700  0.37176000  1
  O  O42  1  0.15314300  0.00561700  0.87176000  1
  O  O43  1  0.65314300  0.99438300  0.62824000  1
  O  O44  1  0.28741300  0.35229300  0.94432700  1
  O  O45  1  0.78741300  0.64770700  0.55567300  1
  O  O46  1  0.71258700  0.64770700  0.05567300  1
  O  O47  1  0.21258700  0.35229300  0.44432700  1
  O  O48  1  0.35170400  0.00631300  0.14108100  1
  O  O49  1  0.85170400  0.99368700  0.35891900  1
  O  O50  1  0.64829600  0.99368700  0.85891900  1
  O  O51  1  0.14829600  0.00631300  0.64108100  1
  O  O52  1  0.33658300  0.92919500  0.88163200  1
  O  O53  1  0.43066200  0.61726100  0.83428700  1
  O  O54  1  0.83658300  0.07080500  0.61836800  1
  O  O55  1  0.16341700  0.92919500  0.38163200  1
  O  O56  1  0.47867700  0.27806500  0.70591900  1
  O  O57  1  0.97867700  0.72193500  0.79408100  1
  O  O58  1  0.52132300  0.72193500  0.29408100  1
  O  O59  1  0.02132300  0.27806500  0.20591900  1
  O  O60  1  0.47050700  0.20423000  0.94923000  1
  O  O61  1  0.97050700  0.79577000  0.55077000  1
  O  O62  1  0.52949300  0.79577000  0.05077000  1
  O  O63  1  0.02949300  0.20423000  0.44923000  1
  O  O64  1  0.90095300  0.58189600  0.21202200  1
  O  O65  1  0.40095300  0.41810400  0.28797800  1
  O  O66  1  0.09904700  0.41810400  0.78797800  1
  O  O67  1  0.59904700  0.58189600  0.71202200  1
  O  O68  1  0.75577700  0.30431700  0.21314100  1
  O  O69  1  0.25577700  0.69568300  0.28685900  1
  O  O70  1  0.24422300  0.69568300  0.78685900  1
  O  O71  1  0.74422300  0.30431700  0.71314100  1
  O  O72  1  0.71629300  0.37292000  0.45591700  1
  O  O73  1  0.21629300  0.62708000  0.04408300  1
  O  O74  1  0.28370700  0.62708000  0.54408300  1
  O  O75  1  0.78370700  0.37292000  0.95591700  1
  O  O76  1  0.73260300  0.72816700  0.28537400  1
  O  O77  1  0.23260300  0.27183300  0.21462600  1
  O  O78  1  0.26739700  0.27183300  0.71462600  1
  O  O79  1  0.76739700  0.72816700  0.78537400  1
  O  O80  1  0.88549900  0.41809300  0.42626300  1
  O  O81  1  0.38549900  0.58190700  0.07373700  1
  O  O82  1  0.11450100  0.58190700  0.57373700  1
  O  O83  1  0.61450100  0.41809300  0.92626300  1
  O  O84  1  0.06933800  0.61726100  0.33428700  1
  O  O85  1  0.56933800  0.38273900  0.16571300  1
  O  O86  1  0.93066200  0.38273900  0.66571300  1
  O  O87  1  0.66341700  0.07080500  0.11836800  1
