# generated using pymatgen
data_W3O8
_symmetry_space_group_name_H-M   'P 1'
_cell_length_a   6.22545596
_cell_length_b   6.22545596
_cell_length_c   10.00359900
_cell_angle_alpha   90.00000000
_cell_angle_beta   90.00000000
_cell_angle_gamma   119.99999958
_symmetry_Int_Tables_number   1
_chemical_formula_structural   W3O8
_chemical_formula_sum   'W6 O16'
_cell_volume   335.76021818
_cell_formula_units_Z   2
loop_
 _symmetry_equiv_pos_site_id
 _symmetry_equiv_pos_as_xyz
  1  'x, y, z'
loop_
 _atom_site_type_symbol
 _atom_site_label
 _atom_site_symmetry_multiplicity
 _atom_site_fract_x
 _atom_site_fract_y
 _atom_site_fract_z
 _atom_site_occupancy
  W  W0  1  0.66399300  0.83199700  0.24904700  1
  W  W1  1  0.83199700  0.16800300  0.74904700  1
  W  W2  1  0.16800300  0.33600700  0.24904700  1
  W  W3  1  0.83199700  0.66399300  0.74904700  1
  W  W4  1  0.33600700  0.16800300  0.74904700  1
  W  W5  1  0.16800300  0.83199700  0.24904700  1
  O  O6  1  0.85336100  0.14663900  0.15308000  1
  O  O7  1  0.70672300  0.85336100  0.65308000  1
  O  O8  1  0.14663900  0.29327700  0.65308000  1
  O  O9  1  0.85336100  0.70672300  0.15308000  1
  O  O10  1  0.29327700  0.14663900  0.15308000  1
  O  O11  1  0.14663900  0.85336100  0.65308000  1
  O  O12  1  0.52010900  0.47989100  0.85042900  1
  O  O13  1  0.04021800  0.52010900  0.35042900  1
  O  O14  1  0.47989100  0.95978200  0.35042900  1
  O  O15  1  0.52010900  0.04021800  0.85042900  1
  O  O16  1  0.00000000  0.00000000  0.35828100  1
  O  O17  1  0.00000000  0.00000000  0.85828100  1
  O  O18  1  0.33333300  0.66666700  0.13919800  1
  O  O19  1  0.95978200  0.47989100  0.85042900  1
  O  O20  1  0.47989100  0.52010900  0.35042900  1
  O  O21  1  0.66666700  0.33333300  0.63919800  1
