# generated using pymatgen
data_MgNiAs2O7
_symmetry_space_group_name_H-M   'P 1'
_cell_length_a   8.59864000
_cell_length_b   7.25854000
_cell_length_c   9.67994702
_cell_angle_alpha   66.62506370
_cell_angle_beta   90.00000000
_cell_angle_gamma   90.00000000
_symmetry_Int_Tables_number   1
_chemical_formula_structural   MgNiAs2O7
_chemical_formula_sum   'Mg4 Ni4 As8 O28'
_cell_volume   554.57561019
_cell_formula_units_Z   4
loop_
 _symmetry_equiv_pos_site_id
 _symmetry_equiv_pos_as_xyz
  1  'x, y, z'
loop_
 _atom_site_type_symbol
 _atom_site_label
 _atom_site_symmetry_multiplicity
 _atom_site_fract_x
 _atom_site_fract_y
 _atom_site_fract_z
 _atom_site_occupancy
  Mg  Mg0  1  0.07412200  0.73088400  0.89422900  1
  Mg  Mg1  1  0.57412200  0.26911600  0.60577100  1
  Mg  Mg2  1  0.92587800  0.26911600  0.10577100  1
  Mg  Mg3  1  0.42587800  0.73088400  0.39422900  1
  Ni  Ni4  1  0.93933400  0.18310600  0.68540400  1
  Ni  Ni5  1  0.43933400  0.81689400  0.81459600  1
  Ni  Ni6  1  0.06066600  0.81689400  0.31459600  1
  Ni  Ni7  1  0.56066600  0.18310600  0.18540400  1
  As  As8  1  0.77229700  0.56275400  0.75207500  1
  As  As9  1  0.27229700  0.43724600  0.74792500  1
  As  As10  1  0.22770300  0.43724600  0.24792500  1
  As  As11  1  0.72770300  0.56275400  0.25207500  1
  As  As12  1  0.71993700  0.97582100  0.95986600  1
  As  As13  1  0.21993700  0.02417900  0.54013400  1
  As  As14  1  0.28006300  0.02417900  0.04013400  1
  As  As15  1  0.78006300  0.97582100  0.45986600  1
  O  O16  1  0.73127800  0.13306100  0.05260100  1
  O  O17  1  0.23127800  0.86693900  0.44739900  1
  O  O18  1  0.26872200  0.86693900  0.94739900  1
  O  O19  1  0.76872200  0.13306100  0.55260100  1
  O  O20  1  0.59536000  0.64483200  0.77233300  1
  O  O21  1  0.09536000  0.35516800  0.72766700  1
  O  O22  1  0.40464000  0.35516800  0.22766700  1
  O  O23  1  0.90464000  0.64483200  0.27233300  1
  O  O24  1  0.90153600  0.53158000  0.89348200  1
  O  O25  1  0.40153600  0.46842000  0.60651800  1
  O  O26  1  0.09846400  0.46842000  0.10651800  1
  O  O27  1  0.59846400  0.53158000  0.39348200  1
  O  O28  1  0.85707700  0.73998800  0.58182600  1
  O  O29  1  0.35707700  0.26001200  0.91817400  1
  O  O30  1  0.14292300  0.26001200  0.41817400  1
  O  O31  1  0.64292300  0.73998800  0.08182600  1
  O  O32  1  0.92305900  0.03132100  0.32712900  1
  O  O33  1  0.42305900  0.96867900  0.17287100  1
  O  O34  1  0.07694100  0.96867900  0.67287100  1
  O  O35  1  0.57694100  0.03132100  0.82712900  1
  O  O36  1  0.73809900  0.35635400  0.20798200  1
  O  O37  1  0.23809900  0.64364600  0.29201800  1
  O  O38  1  0.26190100  0.64364600  0.79201800  1
  O  O39  1  0.76190100  0.35635400  0.70798200  1
  O  O40  1  0.60259400  0.94889800  0.39120500  1
  O  O41  1  0.10259400  0.05110200  0.10879500  1
  O  O42  1  0.39740600  0.05110200  0.60879500  1
  O  O43  1  0.89740600  0.94889800  0.89120500  1
