# generated using pymatgen
data_Mg3Fe4(WO4)6
_symmetry_space_group_name_H-M   'P 1'
_cell_length_a   7.13646200
_cell_length_b   8.46430028
_cell_length_c   10.32983148
_cell_angle_alpha   103.84381022
_cell_angle_beta   104.48958329
_cell_angle_gamma   101.46313512
_symmetry_Int_Tables_number   1
_chemical_formula_structural   Mg3Fe4(WO4)6
_chemical_formula_sum   'Mg3 Fe4 W6 O24'
_cell_volume   563.94801921
_cell_formula_units_Z   1
loop_
 _symmetry_equiv_pos_site_id
 _symmetry_equiv_pos_as_xyz
  1  'x, y, z'
loop_
 _atom_site_type_symbol
 _atom_site_label
 _atom_site_symmetry_multiplicity
 _atom_site_fract_x
 _atom_site_fract_y
 _atom_site_fract_z
 _atom_site_occupancy
  Mg  Mg0  1  0.00000000  0.50000000  0.50000000  1
  Mg  Mg1  1  0.27061300  0.27249700  0.78454000  1
  Mg  Mg2  1  0.72938700  0.72750300  0.21546000  1
  Fe  Fe3  1  0.38232100  0.95950900  0.60637800  1
  Fe  Fe4  1  0.61767900  0.04049100  0.39362200  1
  Fe  Fe5  1  0.04694200  0.20032000  0.01386400  1
  Fe  Fe6  1  0.95305800  0.79968000  0.98613600  1
  W  W7  1  0.77718100  0.34382100  0.73036600  1
  W  W8  1  0.22281900  0.65617900  0.26963400  1
  W  W9  1  0.90011600  0.90308300  0.66551500  1
  W  W10  1  0.40596100  0.71894800  0.87790800  1
  W  W11  1  0.09988400  0.09691700  0.33448500  1
  W  W12  1  0.59403900  0.28105200  0.12209200  1
  O  O13  1  0.89565600  0.69078100  0.56633500  1
  O  O14  1  0.10434400  0.30921900  0.43366500  1
  O  O15  1  0.28522100  0.50320700  0.76074100  1
  O  O16  1  0.71477900  0.49679300  0.23925900  1
  O  O17  1  0.79041400  0.32720800  0.55338100  1
  O  O18  1  0.20958600  0.67279200  0.44661900  1
  O  O19  1  0.67148800  0.97646600  0.58565900  1
  O  O20  1  0.32851200  0.02353400  0.41434100  1
  O  O21  1  0.64060200  0.73121800  0.01249100  1
  O  O22  1  0.35939800  0.26878200  0.98750900  1
  O  O23  1  0.47363100  0.75915400  0.26796400  1
  O  O24  1  0.52636900  0.24084600  0.73203600  1
  O  O25  1  0.14610700  0.03750200  0.65853900  1
  O  O26  1  0.06729300  0.04566000  0.14027900  1
  O  O27  1  0.93270700  0.95434000  0.85972100  1
  O  O28  1  0.55328100  0.14572400  0.22824600  1
  O  O29  1  0.44671900  0.85427600  0.77175400  1
  O  O30  1  0.17398900  0.43704100  0.17866900  1
  O  O31  1  0.82601100  0.56295900  0.82133100  1
  O  O32  1  0.98846700  0.27746800  0.82545900  1
  O  O33  1  0.01153300  0.72253200  0.17454100  1
  O  O34  1  0.23341500  0.77793800  0.96653800  1
  O  O35  1  0.76658500  0.22206200  0.03346200  1
  O  O36  1  0.85389300  0.96249800  0.34146100  1
