# generated using pymatgen
data_MgAs2WO7
_symmetry_space_group_name_H-M   'P 1'
_cell_length_a   10.22149900
_cell_length_b   7.23914600
_cell_length_c   10.67771503
_cell_angle_alpha   61.99931669
_cell_angle_beta   90.00000000
_cell_angle_gamma   90.00000000
_symmetry_Int_Tables_number   1
_chemical_formula_structural   MgAs2WO7
_chemical_formula_sum   'Mg4 As8 W4 O28'
_cell_volume   697.60956270
_cell_formula_units_Z   4
loop_
 _symmetry_equiv_pos_site_id
 _symmetry_equiv_pos_as_xyz
  1  'x, y, z'
loop_
 _atom_site_type_symbol
 _atom_site_label
 _atom_site_symmetry_multiplicity
 _atom_site_fract_x
 _atom_site_fract_y
 _atom_site_fract_z
 _atom_site_occupancy
  Mg  Mg0  1  0.08617900  0.65926300  0.87905300  1
  Mg  Mg1  1  0.58617900  0.34073700  0.62094700  1
  Mg  Mg2  1  0.91382100  0.34073700  0.12094700  1
  Mg  Mg3  1  0.41382100  0.65926300  0.37905300  1
  As  As4  1  0.77208800  0.57864400  0.79370300  1
  As  As5  1  0.27208800  0.42135600  0.70629700  1
  As  As6  1  0.22791200  0.42135600  0.20629700  1
  As  As7  1  0.72791200  0.57864400  0.29370300  1
  As  As8  1  0.66787800  0.02378000  0.99540700  1
  As  As9  1  0.16787800  0.97622000  0.50459300  1
  As  As10  1  0.33212200  0.97622000  0.00459300  1
  As  As11  1  0.83212200  0.02378000  0.49540700  1
  W  W12  1  0.89838900  0.15782800  0.75584100  1
  W  W13  1  0.39838900  0.84217200  0.74415900  1
  W  W14  1  0.10161100  0.84217200  0.24415900  1
  W  W15  1  0.60161100  0.15782800  0.25584100  1
  O  O16  1  0.70775200  0.15438900  0.10670600  1
  O  O17  1  0.20775200  0.84561100  0.39329400  1
  O  O18  1  0.29224800  0.84561100  0.89329400  1
  O  O19  1  0.79224800  0.15438900  0.60670600  1
  O  O20  1  0.50654600  0.63114900  0.80019500  1
  O  O21  1  0.00654600  0.36885100  0.69980500  1
  O  O22  1  0.49345400  0.36885100  0.19980500  1
  O  O23  1  0.99345400  0.63114900  0.30019500  1
  O  O24  1  0.91402400  0.49575300  0.90440700  1
  O  O25  1  0.41402400  0.50424700  0.59559300  1
  O  O26  1  0.08597600  0.50424700  0.09559300  1
  O  O27  1  0.58597600  0.49575300  0.40440700  1
  O  O28  1  0.85361600  0.75739000  0.62294400  1
  O  O29  1  0.35361600  0.24261000  0.87705600  1
  O  O30  1  0.14638400  0.24261000  0.37705600  1
  O  O31  1  0.64638400  0.75739000  0.12294400  1
  O  O32  1  0.99114700  0.05331800  0.22220100  1
  O  O33  1  0.49114700  0.94668200  0.27779900  1
  O  O34  1  0.00885300  0.94668200  0.77779900  1
  O  O35  1  0.50885300  0.05331800  0.72220100  1
  O  O36  1  0.75841600  0.36660300  0.23987600  1
  O  O37  1  0.25841600  0.63339700  0.26012400  1
  O  O38  1  0.24158400  0.63339700  0.76012400  1
  O  O39  1  0.74158400  0.36660300  0.73987600  1
  O  O40  1  0.65912300  0.01396500  0.45189400  1
  O  O41  1  0.15912300  0.98603500  0.04810600  1
  O  O42  1  0.34087700  0.98603500  0.54810600  1
  O  O43  1  0.84087700  0.01396500  0.95189400  1
