# generated using pymatgen
data_MgCoBiO5
_symmetry_space_group_name_H-M   'P 1'
_cell_length_a   5.31021400
_cell_length_b   10.56424900
_cell_length_c   15.35079800
_cell_angle_alpha   90.00000000
_cell_angle_beta   90.00000000
_cell_angle_gamma   90.00000000
_symmetry_Int_Tables_number   1
_chemical_formula_structural   MgCoBiO5
_chemical_formula_sum   'Mg8 Co8 Bi8 O40'
_cell_volume   861.15555866
_cell_formula_units_Z   8
loop_
 _symmetry_equiv_pos_site_id
 _symmetry_equiv_pos_as_xyz
  1  'x, y, z'
loop_
 _atom_site_type_symbol
 _atom_site_label
 _atom_site_symmetry_multiplicity
 _atom_site_fract_x
 _atom_site_fract_y
 _atom_site_fract_z
 _atom_site_occupancy
  Mg  Mg0  1  0.49398700  0.36398500  0.54767300  1
  Mg  Mg1  1  0.99398700  0.13601500  0.54767300  1
  Mg  Mg2  1  0.99398700  0.63601500  0.95232700  1
  Mg  Mg3  1  0.00601300  0.36398500  0.04767300  1
  Mg  Mg4  1  0.50601300  0.13601500  0.04767300  1
  Mg  Mg5  1  0.00601300  0.86398500  0.45232700  1
  Mg  Mg6  1  0.50601300  0.63601500  0.45232700  1
  Mg  Mg7  1  0.49398700  0.86398500  0.95232700  1
  Co  Co8  1  0.98209000  0.39913500  0.41038200  1
  Co  Co9  1  0.51791000  0.89913500  0.58961800  1
  Co  Co10  1  0.01791000  0.60086500  0.58961800  1
  Co  Co11  1  0.48209000  0.10086500  0.41038200  1
  Co  Co12  1  0.01791000  0.10086500  0.91038200  1
  Co  Co13  1  0.98209000  0.89913500  0.08961800  1
  Co  Co14  1  0.51791000  0.39913500  0.91038200  1
  Co  Co15  1  0.48209000  0.60086500  0.08961800  1
  Bi  Bi16  1  0.97370800  0.85381700  0.76941300  1
  Bi  Bi17  1  0.02629200  0.14618300  0.23058700  1
  Bi  Bi18  1  0.52629200  0.35381700  0.23058700  1
  Bi  Bi19  1  0.02629200  0.64618300  0.26941300  1
  Bi  Bi20  1  0.47370800  0.14618300  0.73058700  1
  Bi  Bi21  1  0.47370800  0.64618300  0.76941300  1
  Bi  Bi22  1  0.52629200  0.85381700  0.26941300  1
  Bi  Bi23  1  0.97370800  0.35381700  0.73058700  1
  O  O24  1  0.90292600  0.32370100  0.30798000  1
  O  O25  1  0.31116000  0.04435700  0.94643600  1
  O  O26  1  0.18884000  0.54435700  0.05356400  1
  O  O27  1  0.30188300  0.79242400  0.84600000  1
  O  O28  1  0.19811700  0.29242400  0.15400000  1
  O  O29  1  0.90292600  0.82370100  0.19202000  1
  O  O30  1  0.19811700  0.79242400  0.34600000  1
  O  O31  1  0.59707400  0.82370100  0.69202000  1
  O  O32  1  0.31116000  0.54435700  0.55356400  1
  O  O33  1  0.09707400  0.67629900  0.69202000  1
  O  O34  1  0.59707400  0.32370100  0.80798000  1
  O  O35  1  0.63667800  0.19510400  0.48541500  1
  O  O36  1  0.81116000  0.95564300  0.55356400  1
  O  O37  1  0.69811700  0.70757600  0.34600000  1
  O  O38  1  0.19399000  0.02520800  0.12593000  1
  O  O39  1  0.81116000  0.45564300  0.94643600  1
  O  O40  1  0.09707400  0.17629900  0.80798000  1
  O  O41  1  0.80188300  0.20757600  0.65400000  1
  O  O42  1  0.13667800  0.80489600  0.01458500  1
  O  O43  1  0.18884000  0.04435700  0.44643600  1
  O  O44  1  0.36332200  0.80489600  0.51458500  1
  O  O45  1  0.80601000  0.97479200  0.87407000  1
  O  O46  1  0.69811700  0.20757600  0.15400000  1
  O  O47  1  0.69399000  0.97479200  0.37407000  1
  O  O48  1  0.36332200  0.30489600  0.98541500  1
  O  O49  1  0.13667800  0.30489600  0.48541500  1
  O  O50  1  0.68884000  0.45564300  0.44643600  1
  O  O51  1  0.68884000  0.95564300  0.05356400  1
  O  O52  1  0.69399000  0.47479200  0.12593000  1
  O  O53  1  0.86332200  0.69510400  0.51458500  1
  O  O54  1  0.86332200  0.19510400  0.98541500  1
  O  O55  1  0.63667800  0.69510400  0.01458500  1
  O  O56  1  0.80601000  0.47479200  0.62593000  1
  O  O57  1  0.80188300  0.70757600  0.84600000  1
  O  O58  1  0.30188300  0.29242400  0.65400000  1
  O  O59  1  0.19399000  0.52520800  0.37407000  1
  O  O60  1  0.30601000  0.52520800  0.87407000  1
  O  O61  1  0.40292600  0.17629900  0.30798000  1
  O  O62  1  0.30601000  0.02520800  0.62593000  1
  O  O63  1  0.40292600  0.67629900  0.19202000  1
