# generated using pymatgen
data_Mg3Fe4(SbO4)6
_symmetry_space_group_name_H-M   'P 1'
_cell_length_a   6.92737900
_cell_length_b   8.31897397
_cell_length_c   10.27783922
_cell_angle_alpha   104.12441013
_cell_angle_beta   105.75514754
_cell_angle_gamma   102.66139235
_symmetry_Int_Tables_number   1
_chemical_formula_structural   Mg3Fe4(SbO4)6
_chemical_formula_sum   'Mg3 Fe4 Sb6 O24'
_cell_volume   526.32388647
_cell_formula_units_Z   1
loop_
 _symmetry_equiv_pos_site_id
 _symmetry_equiv_pos_as_xyz
  1  'x, y, z'
loop_
 _atom_site_type_symbol
 _atom_site_label
 _atom_site_symmetry_multiplicity
 _atom_site_fract_x
 _atom_site_fract_y
 _atom_site_fract_z
 _atom_site_occupancy
  Mg  Mg0  1  0.00000000  0.50000000  0.50000000  1
  Mg  Mg1  1  0.27755400  0.28387700  0.78674600  1
  Mg  Mg2  1  0.72244600  0.71612300  0.21325400  1
  Fe  Fe3  1  0.37628300  0.95708200  0.60941400  1
  Fe  Fe4  1  0.62371700  0.04291800  0.39058600  1
  Fe  Fe5  1  0.04371200  0.21069500  0.01320600  1
  Fe  Fe6  1  0.95628800  0.78930500  0.98679400  1
  Sb  Sb7  1  0.78129200  0.34685000  0.72563600  1
  Sb  Sb8  1  0.21870800  0.65315000  0.27436400  1
  Sb  Sb9  1  0.89092300  0.89410500  0.66730000  1
  Sb  Sb10  1  0.39627000  0.72584800  0.87401700  1
  Sb  Sb11  1  0.10907700  0.10589500  0.33270000  1
  Sb  Sb12  1  0.60373000  0.27415200  0.12598300  1
  O  O13  1  0.85681000  0.66117600  0.58010000  1
  O  O14  1  0.14319000  0.33882400  0.41990000  1
  O  O15  1  0.24436600  0.50038100  0.73808900  1
  O  O16  1  0.75563400  0.49961900  0.26191100  1
  O  O17  1  0.78924800  0.29630800  0.53399100  1
  O  O18  1  0.21075200  0.70369200  0.46600900  1
  O  O19  1  0.66162200  0.97141700  0.57729600  1
  O  O20  1  0.33837800  0.02858300  0.42270400  1
  O  O21  1  0.65559700  0.74922000  0.01576500  1
  O  O22  1  0.34440300  0.25078000  0.98423500  1
  O  O23  1  0.48971800  0.77808000  0.28087700  1
  O  O24  1  0.51028200  0.22192000  0.71912300  1
  O  O25  1  0.13563300  0.03418500  0.64839000  1
  O  O26  1  0.06864800  0.05132700  0.13321600  1
  O  O27  1  0.93135200  0.94867300  0.86678400  1
  O  O28  1  0.54967200  0.12565000  0.23327300  1
  O  O29  1  0.45032800  0.87435000  0.76672700  1
  O  O30  1  0.19844000  0.42574100  0.17234200  1
  O  O31  1  0.80156000  0.57425900  0.82765800  1
  O  O32  1  0.99585300  0.26731100  0.82865200  1
  O  O33  1  0.00414700  0.73268900  0.17134800  1
  O  O34  1  0.23426100  0.78989300  0.98698200  1
  O  O35  1  0.76573900  0.21010700  0.01301800  1
  O  O36  1  0.86436700  0.96581500  0.35161000  1
