# generated using pymatgen
data_CoTe2O7
_symmetry_space_group_name_H-M   'P 1'
_cell_length_a   15.66469100
_cell_length_b   7.03466600
_cell_length_c   11.88887672
_cell_angle_alpha   76.94493628
_cell_angle_beta   90.00000000
_cell_angle_gamma   90.00000000
_symmetry_Int_Tables_number   1
_chemical_formula_structural   CoTe2O7
_chemical_formula_sum   'Co8 Te16 O56'
_cell_volume   1276.24337652
_cell_formula_units_Z   8
loop_
 _symmetry_equiv_pos_site_id
 _symmetry_equiv_pos_as_xyz
  1  'x, y, z'
loop_
 _atom_site_type_symbol
 _atom_site_label
 _atom_site_symmetry_multiplicity
 _atom_site_fract_x
 _atom_site_fract_y
 _atom_site_fract_z
 _atom_site_occupancy
  Co  Co0  1  0.66140900  0.36254100  0.08220200  1
  Co  Co1  1  0.16140900  0.63745900  0.41779800  1
  Co  Co2  1  0.33859100  0.63745900  0.91779800  1
  Co  Co3  1  0.83859100  0.36254100  0.58220200  1
  Co  Co4  1  0.75965300  0.00528500  0.25415200  1
  Co  Co5  1  0.25965300  0.99471500  0.24584800  1
  Co  Co6  1  0.24034700  0.99471500  0.74584800  1
  Co  Co7  1  0.74034700  0.00528500  0.75415200  1
  Te  Te8  1  0.86155100  0.14925300  0.97746800  1
  Te  Te9  1  0.00673100  0.58130900  0.69639000  1
  Te  Te10  1  0.49326900  0.58130900  0.19639000  1
  Te  Te11  1  0.99326900  0.41869100  0.30361000  1
  Te  Te12  1  0.70607700  0.47657700  0.80390100  1
  Te  Te13  1  0.20607700  0.52342300  0.69609900  1
  Te  Te14  1  0.29392300  0.52342300  0.19609900  1
  Te  Te15  1  0.79392300  0.47657700  0.30390100  1
  Te  Te16  1  0.50673100  0.41869100  0.80361000  1
  Te  Te17  1  0.13881300  0.11964500  0.47854900  1
  Te  Te18  1  0.63881300  0.88035500  0.02145100  1
  Te  Te19  1  0.86118700  0.88035500  0.52145100  1
  Te  Te20  1  0.36155100  0.85074700  0.52253200  1
  Te  Te21  1  0.63844900  0.14925300  0.47746800  1
  Te  Te22  1  0.13844900  0.85074700  0.02253200  1
  Te  Te23  1  0.36118700  0.11964500  0.97854900  1
  O  O24  1  0.96179200  0.27000900  0.93570600  1
  O  O25  1  0.46179200  0.72999100  0.56429400  1
  O  O26  1  0.03820800  0.72999100  0.06429400  1
  O  O27  1  0.53820800  0.27000900  0.43570600  1
  O  O28  1  0.81628500  0.97408300  0.89894700  1
  O  O29  1  0.31628500  0.02591700  0.60105300  1
  O  O30  1  0.18371500  0.02591700  0.10105300  1
  O  O31  1  0.68371500  0.97408300  0.39894700  1
  O  O32  1  0.85185500  0.03482100  0.13232800  1
  O  O33  1  0.35185500  0.96517900  0.36767200  1
  O  O34  1  0.14814500  0.96517900  0.86767200  1
  O  O35  1  0.64814500  0.03482100  0.63232800  1
  O  O36  1  0.29981600  0.34796900  0.94341300  1
  O  O37  1  0.79981600  0.65203100  0.55658700  1
  O  O38  1  0.70018400  0.65203100  0.05658700  1
  O  O39  1  0.20018400  0.34796900  0.44341300  1
  O  O40  1  0.36349100  0.98892800  0.13114200  1
  O  O41  1  0.86349100  0.01107200  0.36885800  1
  O  O42  1  0.63650900  0.01107200  0.86885800  1
  O  O43  1  0.13650900  0.98892800  0.63114200  1
  O  O44  1  0.33692900  0.94860800  0.88255600  1
  O  O45  1  0.44607700  0.63025800  0.82848900  1
  O  O46  1  0.83692900  0.05139200  0.61744400  1
  O  O47  1  0.16307100  0.94860800  0.38255600  1
  O  O48  1  0.46078800  0.27060600  0.71415500  1
  O  O49  1  0.96078800  0.72939400  0.78584500  1
  O  O50  1  0.53921200  0.72939400  0.28584500  1
  O  O51  1  0.03921200  0.27060600  0.21415500  1
  O  O52  1  0.47503800  0.21730200  0.95518300  1
  O  O53  1  0.97503800  0.78269800  0.54481700  1
  O  O54  1  0.52496200  0.78269800  0.04481700  1
  O  O55  1  0.02496200  0.21730200  0.45518300  1
  O  O56  1  0.89504200  0.52737000  0.20246500  1
  O  O57  1  0.39504200  0.47263000  0.29753500  1
  O  O58  1  0.10495800  0.47263000  0.79753500  1
  O  O59  1  0.60495800  0.52737000  0.70246500  1
  O  O60  1  0.74338500  0.30766600  0.22125200  1
  O  O61  1  0.24338500  0.69233400  0.27874800  1
  O  O62  1  0.25661500  0.69233400  0.77874800  1
  O  O63  1  0.75661500  0.30766600  0.72125200  1
  O  O64  1  0.73270800  0.34835600  0.45250100  1
  O  O65  1  0.23270800  0.65164400  0.04749900  1
  O  O66  1  0.26729200  0.65164400  0.54749900  1
  O  O67  1  0.76729200  0.34835600  0.95250100  1
  O  O68  1  0.74345300  0.71292000  0.28562600  1
  O  O69  1  0.24345300  0.28708000  0.21437400  1
  O  O70  1  0.25654700  0.28708000  0.71437400  1
  O  O71  1  0.75654700  0.71292000  0.78562600  1
  O  O72  1  0.88952200  0.42092700  0.41527200  1
  O  O73  1  0.38952200  0.57907300  0.08472800  1
  O  O74  1  0.11047800  0.57907300  0.58472800  1
  O  O75  1  0.61047800  0.42092700  0.91527200  1
  O  O76  1  0.05392300  0.63025800  0.32848900  1
  O  O77  1  0.55392300  0.36974200  0.17151100  1
  O  O78  1  0.94607700  0.36974200  0.67151100  1
  O  O79  1  0.66307100  0.05139200  0.11744400  1
