# generated using pymatgen
data_MgTi2CoO7
_symmetry_space_group_name_H-M   'P 1'
_cell_length_a   6.48716400
_cell_length_b   12.16435630
_cell_length_c   14.77582300
_cell_angle_alpha   90.00000000
_cell_angle_beta   90.00000000
_cell_angle_gamma   104.69808910
_symmetry_Int_Tables_number   1
_chemical_formula_structural   MgTi2CoO7
_chemical_formula_sum   'Mg8 Ti16 Co8 O56'
_cell_volume   1127.83663872
_cell_formula_units_Z   8
loop_
 _symmetry_equiv_pos_site_id
 _symmetry_equiv_pos_as_xyz
  1  'x, y, z'
loop_
 _atom_site_type_symbol
 _atom_site_label
 _atom_site_symmetry_multiplicity
 _atom_site_fract_x
 _atom_site_fract_y
 _atom_site_fract_z
 _atom_site_occupancy
  Mg  Mg0  1  0.04848600  0.74770300  0.52300100  1
  Mg  Mg1  1  0.30623500  0.88306400  0.89486900  1
  Mg  Mg2  1  0.69376500  0.61693600  0.39486900  1
  Mg  Mg3  1  0.69376500  0.11693600  0.10513100  1
  Mg  Mg4  1  0.30623500  0.38306400  0.60513100  1
  Mg  Mg5  1  0.04848600  0.24770300  0.97699900  1
  Mg  Mg6  1  0.95151400  0.25229700  0.47699900  1
  Mg  Mg7  1  0.95151400  0.75229700  0.02300100  1
  Ti  Ti8  1  0.82445800  0.98415800  0.90884200  1
  Ti  Ti9  1  0.41184500  0.66340800  0.02627300  1
  Ti  Ti10  1  0.41184500  0.16340800  0.47372700  1
  Ti  Ti11  1  0.58815500  0.33659200  0.97372700  1
  Ti  Ti12  1  0.53315300  0.81329400  0.72111700  1
  Ti  Ti13  1  0.46684700  0.68670600  0.22111700  1
  Ti  Ti14  1  0.46684700  0.18670600  0.27888300  1
  Ti  Ti15  1  0.53315300  0.31329400  0.77888300  1
  Ti  Ti16  1  0.58815500  0.83659200  0.52627300  1
  Ti  Ti17  1  0.86625900  0.49349200  0.14169900  1
  Ti  Ti18  1  0.13374100  0.00650800  0.64169900  1
  Ti  Ti19  1  0.13374100  0.50650800  0.85830100  1
  Ti  Ti20  1  0.17554200  0.51584200  0.40884200  1
  Ti  Ti21  1  0.82445800  0.48415800  0.59115800  1
  Ti  Ti22  1  0.17554200  0.01584200  0.09115800  1
  Ti  Ti23  1  0.86625900  0.99349200  0.35830100  1
  Co  Co24  1  0.66353400  0.09914700  0.65372200  1
  Co  Co25  1  0.33646600  0.40085300  0.15372200  1
  Co  Co26  1  0.33646600  0.90085300  0.34627800  1
  Co  Co27  1  0.66353400  0.59914700  0.84627800  1
  Co  Co28  1  0.00817600  0.22586100  0.77470400  1
  Co  Co29  1  0.99182400  0.27413900  0.27470400  1
  Co  Co30  1  0.99182400  0.77413900  0.22529600  1
  Co  Co31  1  0.00817600  0.72586100  0.72529600  1
  O  O32  1  0.71393000  0.99168800  0.02105900  1
  O  O33  1  0.28607000  0.50831200  0.52105900  1
  O  O34  1  0.28607000  0.00831100  0.97894100  1
  O  O35  1  0.71393000  0.49168800  0.47894100  1
  O  O36  1  0.99230800  0.88027500  0.92088800  1
  O  O37  1  0.00769200  0.61972500  0.42088800  1
  O  O38  1  0.00769200  0.11972500  0.07911200  1
  O  O39  1  0.99230800  0.38027500  0.57911200  1
  O  O40  1  0.97201900  0.12843000  0.87491900  1
  O  O41  1  0.02798100  0.37157000  0.37491900  1
  O  O42  1  0.02798100  0.87157000  0.12508100  1
  O  O43  1  0.97201900  0.62843000  0.62508100  1
  O  O44  1  0.62503000  0.94628800  0.29761600  1
  O  O45  1  0.37497000  0.55371200  0.79761600  1
  O  O46  1  0.37497000  0.05371200  0.70238400  1
  O  O47  1  0.62503000  0.44628800  0.20238400  1
  O  O48  1  0.96068800  0.15445700  0.36014400  1
  O  O49  1  0.03931200  0.34554300  0.86014400  1
  O  O50  1  0.03931200  0.84554300  0.63985600  1
  O  O51  1  0.96068800  0.65445700  0.13985600  1
  O  O52  1  0.04438700  0.89726700  0.31002200  1
  O  O53  1  0.33477500  0.83137100  0.45688100  1
  O  O54  1  0.95561300  0.60273300  0.81002100  1
  O  O55  1  0.04438700  0.39726700  0.18997800  1
  O  O56  1  0.74157100  0.74560100  0.48364100  1
  O  O57  1  0.25842900  0.75439900  0.98364100  1
  O  O58  1  0.25842900  0.25439900  0.51635900  1
  O  O59  1  0.74157100  0.24560100  0.01635900  1
  O  O60  1  0.77823300  0.96842800  0.47234100  1
  O  O61  1  0.22176700  0.53157200  0.97234100  1
  O  O62  1  0.22176700  0.03157200  0.52765900  1
  O  O63  1  0.77823300  0.46842800  0.02765900  1
  O  O64  1  0.43570700  0.23614600  0.88084000  1
  O  O65  1  0.56429300  0.26385400  0.38084000  1
  O  O66  1  0.56429300  0.76385400  0.11916000  1
  O  O67  1  0.43570700  0.73614600  0.61916000  1
  O  O68  1  0.73339000  0.23408400  0.73667200  1
  O  O69  1  0.26661000  0.26591600  0.23667200  1
  O  O70  1  0.26661000  0.76591600  0.26332800  1
  O  O71  1  0.73339000  0.73408400  0.76332800  1
  O  O72  1  0.60159700  0.42156100  0.66266200  1
  O  O73  1  0.39840300  0.07843900  0.16266200  1
  O  O74  1  0.39840300  0.57843900  0.33733800  1
  O  O75  1  0.60159700  0.92156100  0.83733800  1
  O  O76  1  0.25637700  0.29280100  0.72236000  1
  O  O77  1  0.74362300  0.20719900  0.22236000  1
  O  O78  1  0.74362300  0.70719900  0.27764000  1
  O  O79  1  0.25637700  0.79280100  0.77764000  1
  O  O80  1  0.64865700  0.43276600  0.85909000  1
  O  O81  1  0.35134300  0.06723400  0.35909000  1
  O  O82  1  0.35134300  0.56723400  0.14091000  1
  O  O83  1  0.64865700  0.93276600  0.64091000  1
  O  O84  1  0.33477500  0.33137100  0.04311900  1
  O  O85  1  0.66522500  0.16862900  0.54311900  1
  O  O86  1  0.66522500  0.66862900  0.95688100  1
  O  O87  1  0.95561300  0.10273300  0.68997900  1
