# generated using pymatgen
data_Ca(FeO2)2
_symmetry_space_group_name_H-M   'P 1'
_cell_length_a   7.16228418
_cell_length_b   7.16228418
_cell_length_c   9.43644020
_cell_angle_alpha   55.75028850
_cell_angle_beta   55.75028850
_cell_angle_gamma   25.13847837
_symmetry_Int_Tables_number   1
_chemical_formula_structural   Ca(FeO2)2
_chemical_formula_sum   'Ca2 Fe4 O8'
_cell_volume   168.00881159
_cell_formula_units_Z   2
loop_
 _symmetry_equiv_pos_site_id
 _symmetry_equiv_pos_as_xyz
  1  'x, y, z'
loop_
 _atom_site_type_symbol
 _atom_site_label
 _atom_site_symmetry_multiplicity
 _atom_site_fract_x
 _atom_site_fract_y
 _atom_site_fract_z
 _atom_site_occupancy
  Ca  Ca0  1  0.65536000  0.65536000  0.82930300  1
  Ca  Ca1  1  0.34464000  0.34464000  0.17069700  1
  Fe  Fe2  1  0.36967600  0.36967600  0.81816800  1
  Fe  Fe3  1  0.86331500  0.86331500  0.46942900  1
  Fe  Fe4  1  0.13668500  0.13668500  0.53057100  1
  Fe  Fe5  1  0.63032400  0.63032400  0.18183200  1
  O  O6  1  0.13427400  0.13427400  0.31374600  1
  O  O7  1  0.54402000  0.54402000  0.69282500  1
  O  O8  1  0.45598000  0.45598000  0.30717500  1
  O  O9  1  0.86572600  0.86572600  0.68625400  1
  O  O10  1  0.84260000  0.84260000  0.99215300  1
  O  O11  1  0.23913800  0.23913800  0.61919900  1
  O  O12  1  0.15740000  0.15740000  0.00784700  1
  O  O13  1  0.76086200  0.76086200  0.38080100  1
