# generated using pymatgen
data_MgMn3(P2O7)2
_symmetry_space_group_name_H-M   'P 1'
_cell_length_a   7.63282900
_cell_length_b   7.53893000
_cell_length_c   9.74597385
_cell_angle_alpha   67.66051488
_cell_angle_beta   90.00000000
_cell_angle_gamma   90.00000000
_symmetry_Int_Tables_number   1
_chemical_formula_structural   MgMn3(P2O7)2
_chemical_formula_sum   'Mg2 Mn6 P8 O28'
_cell_volume   518.72574389
_cell_formula_units_Z   2
loop_
 _symmetry_equiv_pos_site_id
 _symmetry_equiv_pos_as_xyz
  1  'x, y, z'
loop_
 _atom_site_type_symbol
 _atom_site_label
 _atom_site_symmetry_multiplicity
 _atom_site_fract_x
 _atom_site_fract_y
 _atom_site_fract_z
 _atom_site_occupancy
  Mg  Mg0  1  0.00000000  0.50000000  0.00000000  1
  Mg  Mg1  1  0.50000000  0.50000000  0.50000000  1
  Mn  Mn2  1  0.12096000  0.80680400  0.52724200  1
  Mn  Mn3  1  0.62096000  0.19319600  0.97275800  1
  Mn  Mn4  1  0.87904000  0.19319600  0.47275800  1
  Mn  Mn5  1  0.37904000  0.80680400  0.02724200  1
  Mn  Mn6  1  0.00000000  0.00000000  0.00000000  1
  Mn  Mn7  1  0.50000000  0.00000000  0.50000000  1
  P  P8  1  0.91870000  0.40763200  0.70628100  1
  P  P9  1  0.41870000  0.59236800  0.79371900  1
  P  P10  1  0.08130000  0.59236800  0.29371900  1
  P  P11  1  0.58130000  0.40763200  0.20628100  1
  P  P12  1  0.20895300  0.14185900  0.68475800  1
  P  P13  1  0.70895300  0.85814100  0.81524200  1
  P  P14  1  0.79104700  0.85814100  0.31524200  1
  P  P15  1  0.29104700  0.14185900  0.18475800  1
  O  O16  1  0.38099700  0.21219600  0.59989700  1
  O  O17  1  0.88099700  0.78780400  0.90010300  1
  O  O18  1  0.61900300  0.78780400  0.40010300  1
  O  O19  1  0.11900300  0.21219600  0.09989700  1
  O  O20  1  0.38096500  0.71937000  0.62787500  1
  O  O21  1  0.88096500  0.28063000  0.87212500  1
  O  O22  1  0.61903500  0.28063000  0.37212500  1
  O  O23  1  0.11903500  0.71937000  0.12787500  1
  O  O24  1  0.78143400  0.38522400  0.59988900  1
  O  O25  1  0.28143400  0.61477600  0.90011100  1
  O  O26  1  0.21856600  0.61477600  0.40011100  1
  O  O27  1  0.71856600  0.38522400  0.09988900  1
  O  O28  1  0.10408600  0.33490500  0.66633900  1
  O  O29  1  0.60408600  0.66509500  0.83366100  1
  O  O30  1  0.89591400  0.66509500  0.33366100  1
  O  O31  1  0.39591400  0.33490500  0.16633900  1
  O  O32  1  0.53703600  0.60825900  0.19664100  1
  O  O33  1  0.03703600  0.39174100  0.30335900  1
  O  O34  1  0.46296400  0.39174100  0.80335900  1
  O  O35  1  0.96296400  0.60825900  0.69664100  1
  O  O36  1  0.77989000  0.97253700  0.14794600  1
  O  O37  1  0.27989000  0.02746300  0.35205400  1
  O  O38  1  0.22011000  0.02746300  0.85205400  1
  O  O39  1  0.72011000  0.97253700  0.64794600  1
  O  O40  1  0.40448300  0.03819300  0.10846000  1
  O  O41  1  0.90448300  0.96180700  0.39154000  1
  O  O42  1  0.59551700  0.96180700  0.89154000  1
  O  O43  1  0.09551700  0.03819300  0.60846000  1
