# generated using pymatgen
data_CaSb2O5
_symmetry_space_group_name_H-M   'P 1'
_cell_length_a   5.95791703
_cell_length_b   5.95791703
_cell_length_c   12.91309600
_cell_angle_alpha   90.00000000
_cell_angle_beta   90.00000000
_cell_angle_gamma   139.80589734
_symmetry_Int_Tables_number   1
_chemical_formula_structural   CaSb2O5
_chemical_formula_sum   'Ca2 Sb4 O10'
_cell_volume   295.82451216
_cell_formula_units_Z   2
loop_
 _symmetry_equiv_pos_site_id
 _symmetry_equiv_pos_as_xyz
  1  'x, y, z'
loop_
 _atom_site_type_symbol
 _atom_site_label
 _atom_site_symmetry_multiplicity
 _atom_site_fract_x
 _atom_site_fract_y
 _atom_site_fract_z
 _atom_site_occupancy
  Ca  Ca0  1  0.09360600  0.90639400  0.75000000  1
  Ca  Ca1  1  0.90639400  0.09360600  0.25000000  1
  Sb  Sb2  1  0.79437100  0.20562900  0.60165500  1
  Sb  Sb3  1  0.20562900  0.79437100  0.39834500  1
  Sb  Sb4  1  0.20562900  0.79437100  0.10165500  1
  Sb  Sb5  1  0.79437100  0.20562900  0.89834500  1
  O  O6  1  0.28721800  0.71278200  0.25000000  1
  O  O7  1  0.71278200  0.28721800  0.75000000  1
  O  O8  1  0.75707100  0.24292900  0.08296100  1
  O  O9  1  0.24292900  0.75707100  0.91703900  1
  O  O10  1  0.24292900  0.75707100  0.58296100  1
  O  O11  1  0.75707100  0.24292900  0.41703900  1
  O  O12  1  0.95916600  0.04083400  0.62679100  1
  O  O13  1  0.04083400  0.95916600  0.37320900  1
  O  O14  1  0.95916600  0.04083400  0.87320900  1
  O  O15  1  0.04083400  0.95916600  0.12679100  1
