# generated using pymatgen
data_Mg(SbO2)4
_symmetry_space_group_name_H-M   'P 1'
_cell_length_a   6.37370160
_cell_length_b   6.37370160
_cell_length_c   6.37370125
_cell_angle_alpha   65.37875733
_cell_angle_beta   65.37875733
_cell_angle_gamma   65.37875188
_symmetry_Int_Tables_number   1
_chemical_formula_structural   Mg(SbO2)4
_chemical_formula_sum   'Mg1 Sb4 O8'
_cell_volume   204.52077201
_cell_formula_units_Z   1
loop_
 _symmetry_equiv_pos_site_id
 _symmetry_equiv_pos_as_xyz
  1  'x, y, z'
loop_
 _atom_site_type_symbol
 _atom_site_label
 _atom_site_symmetry_multiplicity
 _atom_site_fract_x
 _atom_site_fract_y
 _atom_site_fract_z
 _atom_site_occupancy
  Mg  Mg0  1  0.50000000  0.50000000  0.50000000  1
  Sb  Sb1  1  0.00000000  0.50000000  0.50000000  1
  Sb  Sb2  1  0.50000000  0.00000000  0.50000000  1
  Sb  Sb3  1  0.50000000  0.50000000  0.00000000  1
  Sb  Sb4  1  0.00000000  0.00000000  0.00000000  1
  O  O5  1  0.28681800  0.74076900  0.74076900  1
  O  O6  1  0.25923100  0.25923100  0.71318200  1
  O  O7  1  0.71318200  0.25923100  0.25923100  1
  O  O8  1  0.25923100  0.71318200  0.25923100  1
  O  O9  1  0.26753500  0.26753500  0.26753500  1
  O  O10  1  0.73246500  0.73246500  0.73246500  1
  O  O11  1  0.74076900  0.28681800  0.74076900  1
  O  O12  1  0.74076900  0.74076900  0.28681800  1
