# generated using pymatgen
data_Cr(GeO3)2
_symmetry_space_group_name_H-M   'P 1'
_cell_length_a   8.96791400
_cell_length_b   5.41001700
_cell_length_c   10.15100980
_cell_angle_alpha   74.98355393
_cell_angle_beta   90.00000000
_cell_angle_gamma   90.00000000
_symmetry_Int_Tables_number   1
_chemical_formula_structural   Cr(GeO3)2
_chemical_formula_sum   'Cr4 Ge8 O24'
_cell_volume   475.67427887
_cell_formula_units_Z   4
loop_
 _symmetry_equiv_pos_site_id
 _symmetry_equiv_pos_as_xyz
  1  'x, y, z'
loop_
 _atom_site_type_symbol
 _atom_site_label
 _atom_site_symmetry_multiplicity
 _atom_site_fract_x
 _atom_site_fract_y
 _atom_site_fract_z
 _atom_site_occupancy
  Cr  Cr0  1  0.34100000  0.72206800  0.23698200  1
  Cr  Cr1  1  0.84100000  0.77793200  0.76301800  1
  Cr  Cr2  1  0.65900000  0.27793200  0.76301800  1
  Cr  Cr3  1  0.15900000  0.22206800  0.23698200  1
  Ge  Ge4  1  0.66455700  0.80462000  0.05364200  1
  Ge  Ge5  1  0.16455700  0.69538000  0.94635800  1
  Ge  Ge6  1  0.33544300  0.19538000  0.94635800  1
  Ge  Ge7  1  0.83544300  0.30462000  0.05364200  1
  Ge  Ge8  1  0.65201400  0.61946200  0.47595600  1
  Ge  Ge9  1  0.15201400  0.88053800  0.52404400  1
  Ge  Ge10  1  0.34798600  0.38053800  0.52404400  1
  Ge  Ge11  1  0.84798600  0.11946200  0.47595600  1
  O  O12  1  0.72090300  0.93799600  0.40753400  1
  O  O13  1  0.22090300  0.56200400  0.59246600  1
  O  O14  1  0.27909700  0.06200400  0.59246600  1
  O  O15  1  0.77909700  0.43799600  0.40753400  1
  O  O16  1  0.69968800  0.07143700  0.11635900  1
  O  O17  1  0.19968800  0.42856300  0.88364100  1
  O  O18  1  0.30031200  0.92856300  0.88364100  1
  O  O19  1  0.80031200  0.57143700  0.11635900  1
  O  O20  1  0.03549800  0.18297500  0.40622300  1
  O  O21  1  0.53549800  0.31702500  0.59377700  1
  O  O22  1  0.96450200  0.81702500  0.59377700  1
  O  O23  1  0.46450200  0.68297500  0.40622300  1
  O  O24  1  0.01141500  0.19316800  0.11906500  1
  O  O25  1  0.51141500  0.30683200  0.88093500  1
  O  O26  1  0.98858500  0.80683200  0.88093500  1
  O  O27  1  0.48858500  0.69316800  0.11906500  1
  O  O28  1  0.67618600  0.89204400  0.87119900  1
  O  O29  1  0.17618600  0.60795600  0.12880100  1
  O  O30  1  0.32381400  0.10795600  0.12880100  1
  O  O31  1  0.82381400  0.39204400  0.87119900  1
  O  O32  1  0.70264700  0.60740200  0.66222500  1
  O  O33  1  0.20264700  0.89259800  0.33777500  1
  O  O34  1  0.29735300  0.39259800  0.33777500  1
  O  O35  1  0.79735300  0.10740200  0.66222500  1
