# generated using pymatgen
data_ZnCrNiP2O9
_symmetry_space_group_name_H-M   'P 1'
_cell_length_a   6.25211700
_cell_length_b   7.41924400
_cell_length_c   14.11134700
_cell_angle_alpha   90.00000000
_cell_angle_beta   90.00000000
_cell_angle_gamma   90.00000000
_symmetry_Int_Tables_number   1
_chemical_formula_structural   ZnCrNiP2O9
_chemical_formula_sum   'Zn4 Cr4 Ni4 P8 O36'
_cell_volume   654.56868144
_cell_formula_units_Z   4
loop_
 _symmetry_equiv_pos_site_id
 _symmetry_equiv_pos_as_xyz
  1  'x, y, z'
loop_
 _atom_site_type_symbol
 _atom_site_label
 _atom_site_symmetry_multiplicity
 _atom_site_fract_x
 _atom_site_fract_y
 _atom_site_fract_z
 _atom_site_occupancy
  Zn  Zn0  1  0.25000000  0.38791500  0.77694600  1
  Zn  Zn1  1  0.25000000  0.11208500  0.27694600  1
  Zn  Zn2  1  0.75000000  0.61208500  0.22305400  1
  Zn  Zn3  1  0.75000000  0.88791500  0.72305400  1
  Cr  Cr4  1  0.25000000  0.85496100  0.88410400  1
  Cr  Cr5  1  0.75000000  0.14503900  0.11589600  1
  Cr  Cr6  1  0.75000000  0.35496100  0.61589600  1
  Cr  Cr7  1  0.25000000  0.64503900  0.38410400  1
  Ni  Ni8  1  0.00000000  0.50000000  0.00000000  1
  Ni  Ni9  1  0.00000000  0.00000000  0.50000000  1
  Ni  Ni10  1  0.50000000  0.00000000  0.50000000  1
  Ni  Ni11  1  0.50000000  0.50000000  0.00000000  1
  P  P12  1  0.75000000  0.85596300  0.93348300  1
  P  P13  1  0.25000000  0.14403700  0.06651700  1
  P  P14  1  0.25000000  0.35596300  0.56651700  1
  P  P15  1  0.75000000  0.64403700  0.43348300  1
  P  P16  1  0.25000000  0.89140500  0.69920100  1
  P  P17  1  0.75000000  0.10859500  0.30079900  1
  P  P18  1  0.75000000  0.39140500  0.80079900  1
  P  P19  1  0.25000000  0.60859500  0.19920100  1
  O  O20  1  0.53794600  0.11254900  0.35933500  1
  O  O21  1  0.03794600  0.88745100  0.64066500  1
  O  O22  1  0.46205400  0.61254900  0.14066500  1
  O  O23  1  0.96205400  0.38745100  0.85933500  1
  O  O24  1  0.46205400  0.88745100  0.64066500  1
  O  O25  1  0.96205400  0.11254900  0.35933500  1
  O  O26  1  0.53794600  0.38745100  0.85933500  1
  O  O27  1  0.03794600  0.61254900  0.14066500  1
  O  O28  1  0.75000000  0.83830300  0.47966000  1
  O  O29  1  0.25000000  0.16169700  0.52034000  1
  O  O30  1  0.25000000  0.33830300  0.02034000  1
  O  O31  1  0.75000000  0.66169700  0.97966000  1
  O  O32  1  0.25000000  0.65280400  0.94856700  1
  O  O33  1  0.75000000  0.34719600  0.05143300  1
  O  O34  1  0.75000000  0.15280400  0.55143300  1
  O  O35  1  0.25000000  0.84719600  0.44856700  1
  O  O36  1  0.25000000  0.71653000  0.76244200  1
  O  O37  1  0.75000000  0.28347000  0.23755800  1
  O  O38  1  0.75000000  0.21653000  0.73755800  1
  O  O39  1  0.25000000  0.78347000  0.26244200  1
  O  O40  1  0.93839700  0.63128000  0.36270800  1
  O  O41  1  0.43839700  0.36872000  0.63729200  1
  O  O42  1  0.06160300  0.13128000  0.13729200  1
  O  O43  1  0.56160300  0.86872000  0.86270800  1
  O  O44  1  0.06160300  0.36872000  0.63729200  1
  O  O45  1  0.56160300  0.63128000  0.36270800  1
  O  O46  1  0.93839700  0.86872000  0.86270800  1
  O  O47  1  0.43839700  0.13128000  0.13729200  1
  O  O48  1  0.25000000  0.46576000  0.27475000  1
  O  O49  1  0.75000000  0.53424000  0.72525000  1
  O  O50  1  0.75000000  0.96576000  0.22525000  1
  O  O51  1  0.25000000  0.03424000  0.77475000  1
  O  O52  1  0.25000000  0.49931500  0.48960800  1
  O  O53  1  0.75000000  0.50068500  0.51039200  1
  O  O54  1  0.75000000  0.99931500  0.01039200  1
  O  O55  1  0.25000000  0.00068500  0.98960800  1
