# generated using pymatgen
data_MgMn(Si2O5)2
_symmetry_space_group_name_H-M   'P 1'
_cell_length_a   7.39268600
_cell_length_b   7.39268600
_cell_length_c   14.88024700
_cell_angle_alpha   90.00000000
_cell_angle_beta   90.00000000
_cell_angle_gamma   90.00000000
_symmetry_Int_Tables_number   1
_chemical_formula_structural   MgMn(Si2O5)2
_chemical_formula_sum   'Mg4 Mn4 Si16 O40'
_cell_volume   813.23237666
_cell_formula_units_Z   4
loop_
 _symmetry_equiv_pos_site_id
 _symmetry_equiv_pos_as_xyz
  1  'x, y, z'
loop_
 _atom_site_type_symbol
 _atom_site_label
 _atom_site_symmetry_multiplicity
 _atom_site_fract_x
 _atom_site_fract_y
 _atom_site_fract_z
 _atom_site_occupancy
  Mg  Mg0  1  0.50000000  0.50000000  0.50000000  1
  Mg  Mg1  1  0.00000000  0.00000000  0.50000000  1
  Mg  Mg2  1  0.00000000  0.00000000  0.00000000  1
  Mg  Mg3  1  0.50000000  0.50000000  0.00000000  1
  Mn  Mn4  1  0.50000000  0.00000000  0.56299700  1
  Mn  Mn5  1  0.00000000  0.50000000  0.93700300  1
  Mn  Mn6  1  0.00000000  0.50000000  0.43700300  1
  Mn  Mn7  1  0.50000000  0.00000000  0.06299700  1
  Si  Si8  1  0.15800000  0.24051900  0.64505700  1
  Si  Si9  1  0.84200000  0.75948100  0.64505700  1
  Si  Si10  1  0.24051900  0.15800000  0.85494300  1
  Si  Si11  1  0.74051900  0.34200000  0.64505700  1
  Si  Si12  1  0.25948100  0.65800000  0.64505700  1
  Si  Si13  1  0.34200000  0.74051900  0.85494300  1
  Si  Si14  1  0.65800000  0.25948100  0.85494300  1
  Si  Si15  1  0.75948100  0.84200000  0.85494300  1
  Si  Si16  1  0.34200000  0.25948100  0.35494300  1
  Si  Si17  1  0.65800000  0.74051900  0.35494300  1
  Si  Si18  1  0.25948100  0.34200000  0.14505700  1
  Si  Si19  1  0.75948100  0.15800000  0.35494300  1
  Si  Si20  1  0.24051900  0.84200000  0.35494300  1
  Si  Si21  1  0.15800000  0.75948100  0.14505700  1
  Si  Si22  1  0.84200000  0.24051900  0.14505700  1
  Si  Si23  1  0.74051900  0.65800000  0.14505700  1
  O  O24  1  0.22551700  0.08736000  0.57527600  1
  O  O25  1  0.77448300  0.91264000  0.57527600  1
  O  O26  1  0.08736000  0.22551700  0.92472400  1
  O  O27  1  0.58736000  0.27448300  0.57527600  1
  O  O28  1  0.41264000  0.72551700  0.57527600  1
  O  O29  1  0.27448300  0.58736000  0.92472400  1
  O  O30  1  0.72551700  0.41264000  0.92472400  1
  O  O31  1  0.91264000  0.77448300  0.92472400  1
  O  O32  1  0.27448300  0.41264000  0.42472400  1
  O  O33  1  0.72551700  0.58736000  0.42472400  1
  O  O34  1  0.41264000  0.27448300  0.07527600  1
  O  O35  1  0.91264000  0.22551700  0.42472400  1
  O  O36  1  0.08736000  0.77448300  0.42472400  1
  O  O37  1  0.22551700  0.91264000  0.07527600  1
  O  O38  1  0.77448300  0.08736000  0.07527600  1
  O  O39  1  0.25503400  0.06044800  0.37445000  1
  O  O40  1  0.58736000  0.72551700  0.07527600  1
  O  O41  1  0.75503400  0.56044800  0.62555000  1
  O  O42  1  0.43955200  0.24496600  0.87445000  1
  O  O43  1  0.93955200  0.25503400  0.62555000  1
  O  O44  1  0.06044800  0.74496600  0.62555000  1
  O  O45  1  0.25503400  0.93955200  0.87445000  1
  O  O46  1  0.74496600  0.06044800  0.87445000  1
  O  O47  1  0.56044800  0.75503400  0.87445000  1
  O  O48  1  0.69286600  0.69286600  0.25000000  1
  O  O49  1  0.80713400  0.19286600  0.25000000  1
  O  O50  1  0.19286600  0.80713400  0.25000000  1
  O  O51  1  0.30713400  0.30713400  0.25000000  1
  O  O52  1  0.80713400  0.80713400  0.75000000  1
  O  O53  1  0.69286600  0.30713400  0.75000000  1
  O  O54  1  0.30713400  0.69286600  0.75000000  1
  O  O55  1  0.19286600  0.19286600  0.75000000  1
  O  O56  1  0.93955200  0.74496600  0.12555000  1
  O  O57  1  0.75503400  0.43955200  0.12555000  1
  O  O58  1  0.24496600  0.56044800  0.12555000  1
  O  O59  1  0.43955200  0.75503400  0.37445000  1
  O  O60  1  0.56044800  0.24496600  0.37445000  1
  O  O61  1  0.06044800  0.25503400  0.12555000  1
  O  O62  1  0.74496600  0.93955200  0.37445000  1
  O  O63  1  0.24496600  0.43955200  0.62555000  1
