# generated using pymatgen
data_Cr2O3
_symmetry_space_group_name_H-M   'P 1'
_cell_length_a   5.17022715
_cell_length_b   5.17022715
_cell_length_c   15.62666700
_cell_angle_alpha   90.00000000
_cell_angle_beta   90.00000000
_cell_angle_gamma   146.18349228
_symmetry_Int_Tables_number   1
_chemical_formula_structural   Cr2O3
_chemical_formula_sum   'Cr8 O12'
_cell_volume   232.47598445
_cell_formula_units_Z   4
loop_
 _symmetry_equiv_pos_site_id
 _symmetry_equiv_pos_as_xyz
  1  'x, y, z'
loop_
 _atom_site_type_symbol
 _atom_site_label
 _atom_site_symmetry_multiplicity
 _atom_site_fract_x
 _atom_site_fract_y
 _atom_site_fract_z
 _atom_site_occupancy
  Cr  Cr0  1  0.63361500  0.36638500  0.04434300  1
  Cr  Cr1  1  0.36638500  0.63361500  0.95565700  1
  Cr  Cr2  1  0.63361500  0.36638500  0.45565700  1
  Cr  Cr3  1  0.36638500  0.63361500  0.54434300  1
  Cr  Cr4  1  0.09472100  0.90527900  0.64442700  1
  Cr  Cr5  1  0.90527900  0.09472100  0.35557300  1
  Cr  Cr6  1  0.90527900  0.09472100  0.14442700  1
  Cr  Cr7  1  0.09472100  0.90527900  0.85557300  1
  O  O8  1  0.00000000  0.00000000  0.50000000  1
  O  O9  1  0.00000000  0.00000000  0.00000000  1
  O  O10  1  0.47194600  0.52805400  0.85202700  1
  O  O11  1  0.52805400  0.47194600  0.14797300  1
  O  O12  1  0.52805400  0.47194600  0.35202700  1
  O  O13  1  0.47194600  0.52805400  0.64797300  1
  O  O14  1  0.73515400  0.26484600  0.92725300  1
  O  O15  1  0.26484600  0.73515400  0.07274700  1
  O  O16  1  0.26484600  0.73515400  0.42725300  1
  O  O17  1  0.73515400  0.26484600  0.57274700  1
  O  O18  1  0.17245200  0.82754800  0.75000000  1
  O  O19  1  0.82754800  0.17245200  0.25000000  1
