# generated using pymatgen
data_MgTi2(PO4)3
_symmetry_space_group_name_H-M   'P 1'
_cell_length_a   8.53041461
_cell_length_b   8.53041461
_cell_length_c   8.53041494
_cell_angle_alpha   61.00976073
_cell_angle_beta   61.00976073
_cell_angle_gamma   61.00976517
_symmetry_Int_Tables_number   1
_chemical_formula_structural   MgTi2(PO4)3
_chemical_formula_sum   'Mg2 Ti4 P6 O24'
_cell_volume   448.91288019
_cell_formula_units_Z   2
loop_
 _symmetry_equiv_pos_site_id
 _symmetry_equiv_pos_as_xyz
  1  'x, y, z'
loop_
 _atom_site_type_symbol
 _atom_site_label
 _atom_site_symmetry_multiplicity
 _atom_site_fract_x
 _atom_site_fract_y
 _atom_site_fract_z
 _atom_site_occupancy
  Mg  Mg0  1  0.00000000  0.00000000  0.00000000  1
  Mg  Mg1  1  0.50000000  0.50000000  0.50000000  1
  Ti  Ti2  1  0.35534200  0.35534200  0.35534200  1
  Ti  Ti3  1  0.85534200  0.85534200  0.85534200  1
  Ti  Ti4  1  0.14465800  0.14465800  0.14465800  1
  Ti  Ti5  1  0.64465800  0.64465800  0.64465800  1
  P  P6  1  0.45381200  0.04618800  0.75000000  1
  P  P7  1  0.75000000  0.45381200  0.04618800  1
  P  P8  1  0.04618800  0.75000000  0.45381200  1
  P  P9  1  0.95381200  0.25000000  0.54618800  1
  P  P10  1  0.25000000  0.54618800  0.95381200  1
  P  P11  1  0.54618800  0.95381200  0.25000000  1
  O  O12  1  0.50069100  0.11325300  0.31764000  1
  O  O13  1  0.11325300  0.31764000  0.50069100  1
  O  O14  1  0.25825700  0.05781500  0.91001000  1
  O  O15  1  0.31764000  0.50069100  0.11325300  1
  O  O16  1  0.61325300  0.00069100  0.81764000  1
  O  O17  1  0.44218500  0.24174300  0.58999000  1
  O  O18  1  0.91001000  0.25825700  0.05781500  1
  O  O19  1  0.58999000  0.44218500  0.24174300  1
  O  O20  1  0.99930900  0.18236000  0.38674700  1
  O  O21  1  0.24174300  0.58999000  0.44218500  1
  O  O22  1  0.94218500  0.08999000  0.74174300  1
  O  O23  1  0.18236000  0.38674700  0.99930900  1
  O  O24  1  0.81764000  0.61325300  0.00069100  1
  O  O25  1  0.05781500  0.91001000  0.25825700  1
  O  O26  1  0.75825700  0.41001000  0.55781500  1
  O  O27  1  0.00069100  0.81764000  0.61325300  1
  O  O28  1  0.41001000  0.55781500  0.75825700  1
  O  O29  1  0.08999000  0.74174300  0.94218500  1
  O  O30  1  0.55781500  0.75825700  0.41001000  1
  O  O31  1  0.38674700  0.99930900  0.18236000  1
  O  O32  1  0.68236000  0.49930900  0.88674700  1
  O  O33  1  0.74174300  0.94218500  0.08999000  1
  O  O34  1  0.88674700  0.68236000  0.49930900  1
  O  O35  1  0.49930900  0.88674700  0.68236000  1
