# generated using pymatgen
data_CaMnNiP2O9
_symmetry_space_group_name_H-M   'P 1'
_cell_length_a   6.42624500
_cell_length_b   7.40052300
_cell_length_c   14.25661600
_cell_angle_alpha   90.00000000
_cell_angle_beta   90.00000000
_cell_angle_gamma   90.00000000
_symmetry_Int_Tables_number   1
_chemical_formula_structural   CaMnNiP2O9
_chemical_formula_sum   'Ca4 Mn4 Ni4 P8 O36'
_cell_volume   678.01006936
_cell_formula_units_Z   4
loop_
 _symmetry_equiv_pos_site_id
 _symmetry_equiv_pos_as_xyz
  1  'x, y, z'
loop_
 _atom_site_type_symbol
 _atom_site_label
 _atom_site_symmetry_multiplicity
 _atom_site_fract_x
 _atom_site_fract_y
 _atom_site_fract_z
 _atom_site_occupancy
  Ca  Ca0  1  0.25000000  0.88263400  0.78177300  1
  Ca  Ca1  1  0.25000000  0.61736600  0.28177300  1
  Ca  Ca2  1  0.75000000  0.11736600  0.21822700  1
  Ca  Ca3  1  0.75000000  0.38263400  0.71822700  1
  Mn  Mn4  1  0.25000000  0.34833100  0.87999300  1
  Mn  Mn5  1  0.75000000  0.65166900  0.12000700  1
  Mn  Mn6  1  0.75000000  0.84833100  0.62000700  1
  Mn  Mn7  1  0.25000000  0.15166900  0.37999300  1
  Ni  Ni8  1  0.00000000  0.00000000  0.00000000  1
  Ni  Ni9  1  0.00000000  0.50000000  0.50000000  1
  Ni  Ni10  1  0.50000000  0.50000000  0.50000000  1
  Ni  Ni11  1  0.50000000  0.00000000  0.00000000  1
  P  P12  1  0.75000000  0.35566900  0.93865700  1
  P  P13  1  0.25000000  0.64433100  0.06134300  1
  P  P14  1  0.25000000  0.85566900  0.56134300  1
  P  P15  1  0.75000000  0.14433100  0.43865700  1
  P  P16  1  0.25000000  0.39225200  0.69334300  1
  P  P17  1  0.75000000  0.60774800  0.30665700  1
  P  P18  1  0.75000000  0.89225200  0.80665700  1
  P  P19  1  0.25000000  0.10774800  0.19334300  1
  O  O20  1  0.55203700  0.60702000  0.36618900  1
  O  O21  1  0.05203700  0.39298000  0.63381100  1
  O  O22  1  0.44796300  0.10702000  0.13381100  1
  O  O23  1  0.94796300  0.89298000  0.86618900  1
  O  O24  1  0.44796300  0.39298000  0.63381100  1
  O  O25  1  0.94796300  0.60702000  0.36618900  1
  O  O26  1  0.55203700  0.89298000  0.86618900  1
  O  O27  1  0.05203700  0.10702000  0.13381100  1
  O  O28  1  0.75000000  0.33092400  0.48687800  1
  O  O29  1  0.25000000  0.66907600  0.51312200  1
  O  O30  1  0.25000000  0.83092400  0.01312200  1
  O  O31  1  0.75000000  0.16907600  0.98687800  1
  O  O32  1  0.25000000  0.13595100  0.94301400  1
  O  O33  1  0.75000000  0.86404900  0.05698600  1
  O  O34  1  0.75000000  0.63595100  0.55698600  1
  O  O35  1  0.25000000  0.36404900  0.44301400  1
  O  O36  1  0.25000000  0.21903900  0.75969600  1
  O  O37  1  0.75000000  0.78096100  0.24030400  1
  O  O38  1  0.75000000  0.71903900  0.74030400  1
  O  O39  1  0.25000000  0.28096100  0.25969600  1
  O  O40  1  0.93816200  0.13050500  0.36927700  1
  O  O41  1  0.43816200  0.86949500  0.63072300  1
  O  O42  1  0.06183800  0.63050500  0.13072300  1
  O  O43  1  0.56183800  0.36949500  0.86927700  1
  O  O44  1  0.06183800  0.86949500  0.63072300  1
  O  O45  1  0.56183800  0.13050500  0.36927700  1
  O  O46  1  0.93816200  0.36949500  0.86927700  1
  O  O47  1  0.43816200  0.63050500  0.13072300  1
  O  O48  1  0.25000000  0.95625900  0.27056600  1
  O  O49  1  0.75000000  0.04374100  0.72943400  1
  O  O50  1  0.75000000  0.45625900  0.22943400  1
  O  O51  1  0.25000000  0.54374100  0.77056600  1
  O  O52  1  0.25000000  0.00560000  0.48916100  1
  O  O53  1  0.75000000  0.99440000  0.51083900  1
  O  O54  1  0.75000000  0.50560000  0.01083900  1
  O  O55  1  0.25000000  0.49440000  0.98916100  1
