# generated using pymatgen
data_ZnBiSbO5
_symmetry_space_group_name_H-M   'P 1'
_cell_length_a   5.43404811
_cell_length_b   8.04703208
_cell_length_c   12.16763700
_cell_angle_alpha   90.00000000
_cell_angle_beta   90.00000000
_cell_angle_gamma   106.88091827
_symmetry_Int_Tables_number   1
_chemical_formula_structural   ZnBiSbO5
_chemical_formula_sum   'Zn4 Bi4 Sb4 O20'
_cell_volume   509.13940041
_cell_formula_units_Z   4
loop_
 _symmetry_equiv_pos_site_id
 _symmetry_equiv_pos_as_xyz
  1  'x, y, z'
loop_
 _atom_site_type_symbol
 _atom_site_label
 _atom_site_symmetry_multiplicity
 _atom_site_fract_x
 _atom_site_fract_y
 _atom_site_fract_z
 _atom_site_occupancy
  Zn  Zn0  1  0.61663400  0.17013500  0.91937900  1
  Zn  Zn1  1  0.38336600  0.82986500  0.08062100  1
  Zn  Zn2  1  0.88336600  0.32986500  0.41937900  1
  Zn  Zn3  1  0.11663400  0.67013500  0.58062100  1
  Bi  Bi4  1  0.10845500  0.16553300  0.09696600  1
  Bi  Bi5  1  0.89154500  0.83446700  0.90303400  1
  Bi  Bi6  1  0.60845500  0.66553300  0.40303400  1
  Bi  Bi7  1  0.39154500  0.33446700  0.59696600  1
  Sb  Sb8  1  0.78847400  0.96533300  0.64371700  1
  Sb  Sb9  1  0.21152600  0.03466700  0.35628300  1
  Sb  Sb10  1  0.71152600  0.53466700  0.14371700  1
  Sb  Sb11  1  0.28847400  0.46533300  0.85628300  1
  O  O12  1  0.55148700  0.32278200  0.06755300  1
  O  O13  1  0.01570700  0.31874100  0.94135100  1
  O  O14  1  0.46816300  0.65484100  0.18247000  1
  O  O15  1  0.75758300  0.51445800  0.52179400  1
  O  O16  1  0.79586700  0.48760000  0.29245900  1
  O  O17  1  0.29586700  0.98760000  0.20754100  1
  O  O18  1  0.51570700  0.81874100  0.55864900  1
  O  O19  1  0.48429300  0.18125900  0.44135100  1
  O  O20  1  0.24241700  0.48554200  0.47820600  1
  O  O21  1  0.94851300  0.17721800  0.56755300  1
  O  O22  1  0.20413300  0.51240000  0.70754100  1
  O  O23  1  0.44851300  0.67721800  0.93244700  1
  O  O24  1  0.05148700  0.82278200  0.43244700  1
  O  O25  1  0.70413300  0.01240000  0.79245900  1
  O  O26  1  0.74241700  0.98554200  0.02179400  1
  O  O27  1  0.25758300  0.01445800  0.97820600  1
  O  O28  1  0.53183700  0.34515900  0.81753000  1
  O  O29  1  0.98429300  0.68125900  0.05864900  1
  O  O30  1  0.03183700  0.84515900  0.68247000  1
  O  O31  1  0.96816300  0.15484100  0.31753000  1
