# generated using pymatgen
data_CaBiSbO5
_symmetry_space_group_name_H-M   'P 1'
_cell_length_a   12.20180000
_cell_length_b   5.94312800
_cell_length_c   8.57510356
_cell_angle_alpha   70.40316292
_cell_angle_beta   90.00000000
_cell_angle_gamma   90.00000000
_symmetry_Int_Tables_number   1
_chemical_formula_structural   CaBiSbO5
_chemical_formula_sum   'Ca4 Bi4 Sb4 O20'
_cell_volume   585.82012309
_cell_formula_units_Z   4
loop_
 _symmetry_equiv_pos_site_id
 _symmetry_equiv_pos_as_xyz
  1  'x, y, z'
loop_
 _atom_site_type_symbol
 _atom_site_label
 _atom_site_symmetry_multiplicity
 _atom_site_fract_x
 _atom_site_fract_y
 _atom_site_fract_z
 _atom_site_occupancy
  Ca  Ca0  1  0.08587000  0.55056800  0.81661800  1
  Ca  Ca1  1  0.91413000  0.44943200  0.18338200  1
  Ca  Ca2  1  0.58587000  0.44943200  0.68338200  1
  Ca  Ca3  1  0.41413000  0.55056800  0.31661800  1
  Bi  Bi4  1  0.90742000  0.03315800  0.84252800  1
  Bi  Bi5  1  0.09258000  0.96684200  0.15747200  1
  Bi  Bi6  1  0.59258000  0.03315800  0.34252800  1
  Bi  Bi7  1  0.40742000  0.96684200  0.65747200  1
  Sb  Sb8  1  0.35587100  0.16205400  0.03183600  1
  Sb  Sb9  1  0.64412900  0.83794600  0.96816400  1
  Sb  Sb10  1  0.85587100  0.83794600  0.46816400  1
  Sb  Sb11  1  0.14412900  0.16205400  0.53183600  1
  O  O12  1  0.93133700  0.78273900  0.67303600  1
  O  O13  1  0.05530700  0.27044300  0.67614500  1
  O  O14  1  0.81080800  0.16016500  0.36776100  1
  O  O15  1  0.47606400  0.77310900  0.48687400  1
  O  O16  1  0.71236100  0.69788100  0.50223700  1
  O  O17  1  0.78763900  0.69788100  0.00223700  1
  O  O18  1  0.44469300  0.27044300  0.17614500  1
  O  O19  1  0.55530700  0.72955700  0.82385500  1
  O  O20  1  0.52393600  0.22689100  0.51312600  1
  O  O21  1  0.43133700  0.21726100  0.82696400  1
  O  O22  1  0.28763900  0.30211900  0.49776300  1
  O  O23  1  0.06866300  0.21726100  0.32696400  1
  O  O24  1  0.56866300  0.78273900  0.17303600  1
  O  O25  1  0.21236100  0.30211900  0.99776300  1
  O  O26  1  0.97606400  0.22689100  0.01312600  1
  O  O27  1  0.02393600  0.77310900  0.98687400  1
  O  O28  1  0.18919200  0.83983500  0.63223900  1
  O  O29  1  0.94469300  0.72955700  0.32385500  1
  O  O30  1  0.31080800  0.83983500  0.13223900  1
  O  O31  1  0.68919200  0.16016500  0.86776100  1
