# generated using pymatgen
data_Co(GeO3)2
_symmetry_space_group_name_H-M   'P 1'
_cell_length_a   8.95063600
_cell_length_b   5.49960500
_cell_length_c   10.14978077
_cell_angle_alpha   75.87589048
_cell_angle_beta   90.00000000
_cell_angle_gamma   90.00000000
_symmetry_Int_Tables_number   1
_chemical_formula_structural   Co(GeO3)2
_chemical_formula_sum   'Co4 Ge8 O24'
_cell_volume   484.51869695
_cell_formula_units_Z   4
loop_
 _symmetry_equiv_pos_site_id
 _symmetry_equiv_pos_as_xyz
  1  'x, y, z'
loop_
 _atom_site_type_symbol
 _atom_site_label
 _atom_site_symmetry_multiplicity
 _atom_site_fract_x
 _atom_site_fract_y
 _atom_site_fract_z
 _atom_site_occupancy
  Co  Co0  1  0.35060000  0.74024900  0.24131100  1
  Co  Co1  1  0.85060000  0.75975100  0.75868900  1
  Co  Co2  1  0.64940000  0.25975100  0.75868900  1
  Co  Co3  1  0.14940000  0.24024900  0.24131100  1
  Ge  Ge4  1  0.66691800  0.80899700  0.04837700  1
  Ge  Ge5  1  0.16691800  0.69100300  0.95162300  1
  Ge  Ge6  1  0.33308200  0.19100300  0.95162300  1
  Ge  Ge7  1  0.83308200  0.30899700  0.04837700  1
  Ge  Ge8  1  0.65789300  0.63254200  0.47898300  1
  Ge  Ge9  1  0.15789300  0.86745800  0.52101700  1
  Ge  Ge10  1  0.34210700  0.36745800  0.52101700  1
  Ge  Ge11  1  0.84210700  0.13254200  0.47898300  1
  O  O12  1  0.72083800  0.94791000  0.40684800  1
  O  O13  1  0.22083800  0.55209000  0.59315200  1
  O  O14  1  0.27916200  0.05209000  0.59315200  1
  O  O15  1  0.77916200  0.44791000  0.40684800  1
  O  O16  1  0.70191300  0.07140000  0.11470400  1
  O  O17  1  0.20191300  0.42860000  0.88529600  1
  O  O18  1  0.29808700  0.92860000  0.88529600  1
  O  O19  1  0.79808700  0.57140000  0.11470400  1
  O  O20  1  0.03106200  0.18787700  0.40681200  1
  O  O21  1  0.53106200  0.31212300  0.59318800  1
  O  O22  1  0.96893800  0.81212300  0.59318800  1
  O  O23  1  0.46893800  0.68787700  0.40681200  1
  O  O24  1  0.00898000  0.19891100  0.11910700  1
  O  O25  1  0.50898000  0.30108900  0.88089300  1
  O  O26  1  0.99102000  0.80108900  0.88089300  1
  O  O27  1  0.49102000  0.69891100  0.11910700  1
  O  O28  1  0.67929800  0.89552000  0.86704200  1
  O  O29  1  0.17929800  0.60448000  0.13295800  1
  O  O30  1  0.32070200  0.10448000  0.13295800  1
  O  O31  1  0.82070200  0.39552000  0.86704200  1
  O  O32  1  0.70024000  0.60929000  0.65878900  1
  O  O33  1  0.20024000  0.89071000  0.34121100  1
  O  O34  1  0.29976000  0.39071000  0.34121100  1
  O  O35  1  0.79976000  0.10929000  0.65878900  1
