# generated using pymatgen
data_ZnSn2(PO5)2
_symmetry_space_group_name_H-M   'P 1'
_cell_length_a   10.24839978
_cell_length_b   9.27111548
_cell_length_c   6.86359102
_cell_angle_alpha   77.27519116
_cell_angle_beta   61.93588181
_cell_angle_gamma   40.78892703
_symmetry_Int_Tables_number   1
_chemical_formula_structural   ZnSn2(PO5)2
_chemical_formula_sum   'Zn2 Sn4 P4 O20'
_cell_volume   365.33351505
_cell_formula_units_Z   2
loop_
 _symmetry_equiv_pos_site_id
 _symmetry_equiv_pos_as_xyz
  1  'x, y, z'
loop_
 _atom_site_type_symbol
 _atom_site_label
 _atom_site_symmetry_multiplicity
 _atom_site_fract_x
 _atom_site_fract_y
 _atom_site_fract_z
 _atom_site_occupancy
  Zn  Zn0  1  0.50679200  0.99320800  0.99320800  1
  Zn  Zn1  1  0.25679200  0.74320800  0.74320800  1
  Sn  Sn2  1  0.87617800  0.37963900  0.38030700  1
  Sn  Sn3  1  0.36387700  0.38030700  0.37963900  1
  Sn  Sn4  1  0.87036100  0.37382200  0.88612300  1
  Sn  Sn5  1  0.86969300  0.88612300  0.37382200  1
  P  P6  1  0.03735300  0.55134600  0.96080600  1
  P  P7  1  0.69865400  0.21264700  0.79950500  1
  P  P8  1  0.45049500  0.96080600  0.55134600  1
  P  P9  1  0.28919400  0.79950500  0.21264700  1
  O  O10  1  0.57421200  0.73010600  0.45176500  1
  O  O11  1  0.66331400  0.18727200  0.32759700  1
  O  O12  1  0.30375700  0.67338900  0.41265100  1
  O  O13  1  0.79823500  0.00608400  0.67578800  1
  O  O14  1  0.22373500  0.07345600  0.75736300  1
  O  O15  1  0.42968700  0.09088300  0.35441200  1
  O  O16  1  0.06272800  0.58668600  0.42818300  1
  O  O17  1  0.82181700  0.32759700  0.18727200  1
  O  O18  1  0.92240300  0.42818300  0.58668600  1
  O  O19  1  0.17654400  0.02626500  0.30455400  1
  O  O20  1  0.24391600  0.45176500  0.73010600  1
  O  O21  1  0.49263700  0.30455400  0.02626500  1
  O  O22  1  0.94544600  0.75736300  0.07345600  1
  O  O23  1  0.15911700  0.82031300  0.12498300  1
  O  O24  1  0.12501700  0.35441200  0.09088300  1
  O  O25  1  0.89558800  0.12498300  0.82031300  1
  O  O26  1  0.83734900  0.63979700  0.94624300  1
  O  O27  1  0.61020300  0.41265100  0.67338900  1
  O  O28  1  0.51989400  0.67578800  0.00608400  1
  O  O29  1  0.57661100  0.94624300  0.63979700  1
