# generated using pymatgen
data_CaCo(GeO3)2
_symmetry_space_group_name_H-M   'P 1'
_cell_length_a   9.11333700
_cell_length_b   5.34203500
_cell_length_c   10.36411411
_cell_angle_alpha   75.06945885
_cell_angle_beta   90.00000000
_cell_angle_gamma   90.00000000
_symmetry_Int_Tables_number   1
_chemical_formula_structural   CaCo(GeO3)2
_chemical_formula_sum   'Ca4 Co4 Ge8 O24'
_cell_volume   487.52944851
_cell_formula_units_Z   4
loop_
 _symmetry_equiv_pos_site_id
 _symmetry_equiv_pos_as_xyz
  1  'x, y, z'
loop_
 _atom_site_type_symbol
 _atom_site_label
 _atom_site_symmetry_multiplicity
 _atom_site_fract_x
 _atom_site_fract_y
 _atom_site_fract_z
 _atom_site_occupancy
  Ca  Ca0  1  0.54783900  0.19314400  0.27580100  1
  Ca  Ca1  1  0.04783900  0.30685600  0.72419900  1
  Ca  Ca2  1  0.45216100  0.80685600  0.72419900  1
  Ca  Ca3  1  0.95216100  0.69314400  0.27580100  1
  Co  Co4  1  0.33631800  0.72800200  0.23378400  1
  Co  Co5  1  0.83631800  0.77199800  0.76621600  1
  Co  Co6  1  0.66368200  0.27199800  0.76621600  1
  Co  Co7  1  0.16368200  0.22800200  0.23378400  1
  Ge  Ge8  1  0.65229000  0.78116900  0.04456800  1
  Ge  Ge9  1  0.15229000  0.71883100  0.95543200  1
  Ge  Ge10  1  0.34771000  0.21883100  0.95543200  1
  Ge  Ge11  1  0.84771000  0.28116900  0.04456800  1
  Ge  Ge12  1  0.64926500  0.60831000  0.48722500  1
  Ge  Ge13  1  0.14926500  0.89169000  0.51277500  1
  Ge  Ge14  1  0.35073500  0.39169000  0.51277500  1
  Ge  Ge15  1  0.85073500  0.10831000  0.48722500  1
  O  O16  1  0.75425800  0.91442900  0.39483700  1
  O  O17  1  0.25425800  0.58557100  0.60516300  1
  O  O18  1  0.24574200  0.08557100  0.60516300  1
  O  O19  1  0.74574200  0.41442900  0.39483700  1
  O  O20  1  0.69124400  0.06818700  0.10272100  1
  O  O21  1  0.19124400  0.43181300  0.89727900  1
  O  O22  1  0.30875600  0.93181300  0.89727900  1
  O  O23  1  0.80875600  0.56818700  0.10272100  1
  O  O24  1  0.02540100  0.22988800  0.41676300  1
  O  O25  1  0.52540100  0.27011200  0.58323700  1
  O  O26  1  0.97459900  0.77011200  0.58323700  1
  O  O27  1  0.47459900  0.72988800  0.41676300  1
  O  O28  1  0.99163500  0.12066800  0.13919000  1
  O  O29  1  0.49163500  0.37933200  0.86081000  1
  O  O30  1  0.00836500  0.87933200  0.86081000  1
  O  O31  1  0.50836500  0.62066800  0.13919000  1
  O  O32  1  0.65320700  0.87112900  0.86905400  1
  O  O33  1  0.15320700  0.62887100  0.13094600  1
  O  O34  1  0.34679300  0.12887100  0.13094600  1
  O  O35  1  0.84679300  0.37112900  0.86905400  1
  O  O36  1  0.67308000  0.65704600  0.64922200  1
  O  O37  1  0.17308000  0.84295400  0.35077800  1
  O  O38  1  0.32692000  0.34295400  0.35077800  1
  O  O39  1  0.82692000  0.15704600  0.64922200  1
