# generated using pymatgen
data_Ca3Ta6(FeO6)4
_symmetry_space_group_name_H-M   'P 1'
_cell_length_a   7.02682229
_cell_length_b   8.68606176
_cell_length_c   10.64760470
_cell_angle_alpha   107.41974291
_cell_angle_beta   103.48660181
_cell_angle_gamma   107.24554369
_symmetry_Int_Tables_number   1
_chemical_formula_structural   Ca3Ta6(FeO6)4
_chemical_formula_sum   'Ca3 Ta6 Fe4 O24'
_cell_volume   554.00078443
_cell_formula_units_Z   1
loop_
 _symmetry_equiv_pos_site_id
 _symmetry_equiv_pos_as_xyz
  1  'x, y, z'
loop_
 _atom_site_type_symbol
 _atom_site_label
 _atom_site_symmetry_multiplicity
 _atom_site_fract_x
 _atom_site_fract_y
 _atom_site_fract_z
 _atom_site_occupancy
  Ca  Ca0  1  0.00000000  0.50000000  0.50000000  1
  Ca  Ca1  1  0.31565400  0.31003600  0.80917400  1
  Ca  Ca2  1  0.68434600  0.68996400  0.19082600  1
  Ta  Ta3  1  0.82212600  0.34156000  0.74303600  1
  Ta  Ta4  1  0.17787400  0.65844000  0.25696400  1
  Ta  Ta5  1  0.87699300  0.90615500  0.66823600  1
  Ta  Ta6  1  0.39830200  0.75564800  0.86901700  1
  Ta  Ta7  1  0.12300700  0.09384500  0.33176400  1
  Ta  Ta8  1  0.60169800  0.24435200  0.13098300  1
  Fe  Fe9  1  0.37477300  0.95740800  0.60011300  1
  Fe  Fe10  1  0.62522700  0.04259200  0.39988700  1
  Fe  Fe11  1  0.03473500  0.19277200  0.01501200  1
  Fe  Fe12  1  0.96526500  0.80722800  0.98498800  1
  O  O13  1  0.82549600  0.67951300  0.57483200  1
  O  O14  1  0.17450400  0.32048700  0.42516800  1
  O  O15  1  0.20759000  0.52167200  0.75921200  1
  O  O16  1  0.79241000  0.47832800  0.24078800  1
  O  O17  1  0.79765900  0.28527100  0.55307100  1
  O  O18  1  0.20234100  0.71472900  0.44692900  1
  O  O19  1  0.65744800  0.96238500  0.56914600  1
  O  O20  1  0.34255200  0.03761500  0.43085400  1
  O  O21  1  0.63925600  0.73913800  0.98226700  1
  O  O22  1  0.36074400  0.26086200  0.01773300  1
  O  O23  1  0.45284100  0.78345100  0.26895300  1
  O  O24  1  0.54715900  0.21654900  0.73104700  1
  O  O25  1  0.13548900  0.02008800  0.64940100  1
  O  O26  1  0.07996000  0.06424000  0.13969700  1
  O  O27  1  0.92004000  0.93576000  0.86030300  1
  O  O28  1  0.57755100  0.14757700  0.26368800  1
  O  O29  1  0.42244900  0.85242300  0.73631200  1
  O  O30  1  0.14288400  0.43421600  0.15152400  1
  O  O31  1  0.85711600  0.56578400  0.84847600  1
  O  O32  1  0.98829700  0.24412700  0.83688300  1
  O  O33  1  0.01170300  0.75587300  0.16311700  1
  O  O34  1  0.25841600  0.84792800  0.97893400  1
  O  O35  1  0.74158400  0.15207200  0.02106600  1
  O  O36  1  0.86451100  0.97991200  0.35059900  1
