data_image0
_chemical_formula_structural       As3Cd4K
_chemical_formula_sum              "As3 Cd4 K1"
_cell_length_a       4.511
_cell_length_b       4.511
_cell_length_c       12.3405
_cell_angle_alpha    100.531
_cell_angle_beta     100.531
_cell_angle_gamma    60

_space_group_name_H-M_alt    "P 1"
_space_group_IT_number       1

loop_
  _space_group_symop_operation_xyz
  'x, y, z'

loop_
  _atom_site_type_symbol
  _atom_site_label
  _atom_site_symmetry_multiplicity
  _atom_site_fract_x
  _atom_site_fract_y
  _atom_site_fract_z
  _atom_site_occupancy
  As  As1       1.0  0.00000  0.00000  0.00000  1.0000
  As  As2       1.0  0.77200  0.77200  0.31700  1.0000
  As  As3       1.0  0.22800  0.22800  0.68300  1.0000
  Cd  Cd1       1.0  0.69900  0.69900  0.09560  1.0000
  Cd  Cd2       1.0  0.08910  0.08910  0.26700  1.0000
  Cd  Cd3       1.0  0.91100  0.91100  0.73300  1.0000
  Cd  Cd4       1.0  0.30100  0.30100  0.90400  1.0000
  K   K1        1.0  0.50000  0.50000  0.50000  1.0000
