# generated using pymatgen
data_ZnCoBiO5
_symmetry_space_group_name_H-M   'P 1'
_cell_length_a   10.59500500
_cell_length_b   5.33071000
_cell_length_c   8.37402783
_cell_angle_alpha   69.88222044
_cell_angle_beta   90.00000000
_cell_angle_gamma   90.00000000
_symmetry_Int_Tables_number   1
_chemical_formula_structural   ZnCoBiO5
_chemical_formula_sum   'Zn4 Co4 Bi4 O20'
_cell_volume   444.09968337
_cell_formula_units_Z   4
loop_
 _symmetry_equiv_pos_site_id
 _symmetry_equiv_pos_as_xyz
  1  'x, y, z'
loop_
 _atom_site_type_symbol
 _atom_site_label
 _atom_site_symmetry_multiplicity
 _atom_site_fract_x
 _atom_site_fract_y
 _atom_site_fract_z
 _atom_site_occupancy
  Zn  Zn0  1  0.09125800  0.53916200  0.82549200  1
  Zn  Zn1  1  0.90874200  0.46083800  0.17450800  1
  Zn  Zn2  1  0.59125800  0.46083800  0.67450800  1
  Zn  Zn3  1  0.40874200  0.53916200  0.32549200  1
  Co  Co4  1  0.37960200  0.15176400  0.04644200  1
  Co  Co5  1  0.62039800  0.84823600  0.95355800  1
  Co  Co6  1  0.87960200  0.84823600  0.45355800  1
  Co  Co7  1  0.12039800  0.15176400  0.54644200  1
  Bi  Bi8  1  0.89472400  0.02815200  0.84305500  1
  Bi  Bi9  1  0.10527600  0.97184800  0.15694500  1
  Bi  Bi10  1  0.60527600  0.02815200  0.34305500  1
  Bi  Bi11  1  0.39472400  0.97184800  0.65694500  1
  O  O12  1  0.94286100  0.83273600  0.66308700  1
  O  O13  1  0.03548600  0.30527100  0.68422600  1
  O  O14  1  0.79599900  0.17129300  0.32152300  1
  O  O15  1  0.45691800  0.75544600  0.49062400  1
  O  O16  1  0.71816800  0.69613800  0.50466200  1
  O  O17  1  0.78183200  0.69613800  0.00466200  1
  O  O18  1  0.46451400  0.30527100  0.18422600  1
  O  O19  1  0.53548600  0.69472900  0.81577400  1
  O  O20  1  0.54308200  0.24455400  0.50937600  1
  O  O21  1  0.44286100  0.16726400  0.83691300  1
  O  O22  1  0.28183200  0.30386200  0.49533800  1
  O  O23  1  0.05713900  0.16726400  0.33691300  1
  O  O24  1  0.55713900  0.83273600  0.16308700  1
  O  O25  1  0.21816800  0.30386200  0.99533800  1
  O  O26  1  0.95691800  0.24455400  0.00937600  1
  O  O27  1  0.04308200  0.75544600  0.99062400  1
  O  O28  1  0.20400100  0.82870700  0.67847700  1
  O  O29  1  0.96451400  0.69472900  0.31577400  1
  O  O30  1  0.29599900  0.82870700  0.17847700  1
  O  O31  1  0.70400100  0.17129300  0.82152300  1
