# generated using pymatgen
data_MgTiCo(PO4)3
_symmetry_space_group_name_H-M   'P 1'
_cell_length_a   8.48200108
_cell_length_b   8.48200108
_cell_length_c   8.48200188
_cell_angle_alpha   61.18715145
_cell_angle_beta   61.18715145
_cell_angle_gamma   61.18714817
_symmetry_Int_Tables_number   1
_chemical_formula_structural   MgTiCo(PO4)3
_chemical_formula_sum   'Mg2 Ti2 Co2 P6 O24'
_cell_volume   443.02298285
_cell_formula_units_Z   2
loop_
 _symmetry_equiv_pos_site_id
 _symmetry_equiv_pos_as_xyz
  1  'x, y, z'
loop_
 _atom_site_type_symbol
 _atom_site_label
 _atom_site_symmetry_multiplicity
 _atom_site_fract_x
 _atom_site_fract_y
 _atom_site_fract_z
 _atom_site_occupancy
  Mg  Mg0  1  0.99631600  0.99631600  0.99631600  1
  Mg  Mg1  1  0.49631600  0.49631600  0.49631600  1
  Ti  Ti2  1  0.14409600  0.14409600  0.14409600  1
  Ti  Ti3  1  0.64409600  0.64409600  0.64409600  1
  Co  Co4  1  0.35407700  0.35407700  0.35407700  1
  Co  Co5  1  0.85407700  0.85407700  0.85407700  1
  P  P6  1  0.45647800  0.04628600  0.75013500  1
  P  P7  1  0.75013500  0.45647800  0.04628600  1
  P  P8  1  0.04628600  0.75013500  0.45647800  1
  P  P9  1  0.95647800  0.25013500  0.54628600  1
  P  P10  1  0.25013500  0.54628600  0.95647800  1
  P  P11  1  0.54628600  0.95647800  0.25013500  1
  O  O12  1  0.50414600  0.11232500  0.32006600  1
  O  O13  1  0.11232500  0.32006600  0.50414600  1
  O  O14  1  0.25886700  0.05423200  0.91104100  1
  O  O15  1  0.32006600  0.50414600  0.11232500  1
  O  O16  1  0.61232500  0.00414600  0.82006600  1
  O  O17  1  0.44271600  0.24022700  0.58962400  1
  O  O18  1  0.91104100  0.25886700  0.05423200  1
  O  O19  1  0.58962400  0.44271600  0.24022700  1
  O  O20  1  0.00463800  0.18419000  0.38053500  1
  O  O21  1  0.24022700  0.58962400  0.44271600  1
  O  O22  1  0.94271600  0.08962400  0.74022700  1
  O  O23  1  0.18419000  0.38053500  0.00463800  1
  O  O24  1  0.82006600  0.61232500  0.00414600  1
  O  O25  1  0.05423200  0.91104100  0.25886700  1
  O  O26  1  0.75886700  0.41104100  0.55423200  1
  O  O27  1  0.00414600  0.82006600  0.61232500  1
  O  O28  1  0.41104100  0.55423200  0.75886700  1
  O  O29  1  0.08962400  0.74022700  0.94271600  1
  O  O30  1  0.55423200  0.75886700  0.41104100  1
  O  O31  1  0.38053500  0.00463800  0.18419000  1
  O  O32  1  0.68419000  0.50463800  0.88053500  1
  O  O33  1  0.74022700  0.94271600  0.08962400  1
  O  O34  1  0.88053500  0.68419000  0.50463800  1
  O  O35  1  0.50463800  0.88053500  0.68419000  1
