# generated using pymatgen
data_MgCr3O7
_symmetry_space_group_name_H-M   'P 1'
_cell_length_a   5.34047200
_cell_length_b   10.00771200
_cell_length_c   10.26146300
_cell_angle_alpha   90.00000000
_cell_angle_beta   90.00000000
_cell_angle_gamma   90.00000000
_symmetry_Int_Tables_number   1
_chemical_formula_structural   MgCr3O7
_chemical_formula_sum   'Mg4 Cr12 O28'
_cell_volume   548.43318405
_cell_formula_units_Z   4
loop_
 _symmetry_equiv_pos_site_id
 _symmetry_equiv_pos_as_xyz
  1  'x, y, z'
loop_
 _atom_site_type_symbol
 _atom_site_label
 _atom_site_symmetry_multiplicity
 _atom_site_fract_x
 _atom_site_fract_y
 _atom_site_fract_z
 _atom_site_occupancy
  Mg  Mg0  1  0.34750700  0.06680600  0.25000000  1
  Mg  Mg1  1  0.84750700  0.43319400  0.75000000  1
  Mg  Mg2  1  0.65249300  0.93319400  0.75000000  1
  Mg  Mg3  1  0.15249300  0.56680600  0.25000000  1
  Cr  Cr4  1  0.70155900  0.69047200  0.97706000  1
  Cr  Cr5  1  0.20155900  0.80952800  0.02294000  1
  Cr  Cr6  1  0.29844100  0.30952800  0.47706000  1
  Cr  Cr7  1  0.79844100  0.19047200  0.52294000  1
  Cr  Cr8  1  0.69262300  0.77525200  0.25000000  1
  Cr  Cr9  1  0.19262300  0.72474800  0.75000000  1
  Cr  Cr10  1  0.30737700  0.22474800  0.75000000  1
  Cr  Cr11  1  0.80737700  0.27525200  0.25000000  1
  Cr  Cr12  1  0.20155900  0.80952800  0.47706000  1
  Cr  Cr13  1  0.70155900  0.69047200  0.52294000  1
  Cr  Cr14  1  0.79844100  0.19047200  0.97706000  1
  Cr  Cr15  1  0.29844100  0.30952800  0.02294000  1
  O  O16  1  0.05712200  0.28515000  0.87997900  1
  O  O17  1  0.55712200  0.21485000  0.12002100  1
  O  O18  1  0.94287800  0.71485000  0.37997900  1
  O  O19  1  0.44287800  0.78515000  0.62002100  1
  O  O20  1  0.94287800  0.71485000  0.12002100  1
  O  O21  1  0.44287800  0.78515000  0.87997900  1
  O  O22  1  0.05712200  0.28515000  0.62002100  1
  O  O23  1  0.55712200  0.21485000  0.37997900  1
  O  O24  1  0.54057800  0.28655500  0.88122500  1
  O  O25  1  0.04057800  0.21344500  0.11877500  1
  O  O26  1  0.45942200  0.71344500  0.38122500  1
  O  O27  1  0.95942200  0.78655500  0.61877500  1
  O  O28  1  0.45942200  0.71344500  0.11877500  1
  O  O29  1  0.95942200  0.78655500  0.88122500  1
  O  O30  1  0.54057800  0.28655500  0.61877500  1
  O  O31  1  0.04057800  0.21344500  0.38122500  1
  O  O32  1  0.84422800  0.44480700  0.25000000  1
  O  O33  1  0.34422800  0.05519300  0.75000000  1
  O  O34  1  0.15577200  0.55519300  0.75000000  1
  O  O35  1  0.65577200  0.94480700  0.25000000  1
  O  O36  1  0.77341000  0.03917200  0.59258000  1
  O  O37  1  0.27341000  0.46082800  0.40742000  1
  O  O38  1  0.22659000  0.96082800  0.09258000  1
  O  O39  1  0.72659000  0.53917200  0.90742000  1
  O  O40  1  0.22659000  0.96082800  0.40742000  1
  O  O41  1  0.72659000  0.53917200  0.59258000  1
  O  O42  1  0.77341000  0.03917200  0.90742000  1
  O  O43  1  0.27341000  0.46082800  0.09258000  1
