# generated using pymatgen
data_MgMo3O7
_symmetry_space_group_name_H-M   'P 1'
_cell_length_a   5.76511200
_cell_length_b   9.95270900
_cell_length_c   11.03042100
_cell_angle_alpha   90.00000000
_cell_angle_beta   90.00000000
_cell_angle_gamma   90.00000000
_symmetry_Int_Tables_number   1
_chemical_formula_structural   MgMo3O7
_chemical_formula_sum   'Mg4 Mo12 O28'
_cell_volume   632.90881378
_cell_formula_units_Z   4
loop_
 _symmetry_equiv_pos_site_id
 _symmetry_equiv_pos_as_xyz
  1  'x, y, z'
loop_
 _atom_site_type_symbol
 _atom_site_label
 _atom_site_symmetry_multiplicity
 _atom_site_fract_x
 _atom_site_fract_y
 _atom_site_fract_z
 _atom_site_occupancy
  Mg  Mg0  1  0.37793500  0.06653900  0.25000000  1
  Mg  Mg1  1  0.87793500  0.43346100  0.75000000  1
  Mg  Mg2  1  0.62206500  0.93346100  0.75000000  1
  Mg  Mg3  1  0.12206500  0.56653900  0.25000000  1
  Mo  Mo4  1  0.69715900  0.67284300  0.98019500  1
  Mo  Mo5  1  0.19715900  0.82715700  0.01980500  1
  Mo  Mo6  1  0.30284100  0.32715700  0.48019500  1
  Mo  Mo7  1  0.80284100  0.17284300  0.51980500  1
  Mo  Mo8  1  0.70942900  0.79569800  0.25000000  1
  Mo  Mo9  1  0.20942900  0.70430200  0.75000000  1
  Mo  Mo10  1  0.29057100  0.20430200  0.75000000  1
  Mo  Mo11  1  0.79057100  0.29569800  0.25000000  1
  Mo  Mo12  1  0.19715900  0.82715700  0.48019500  1
  Mo  Mo13  1  0.69715900  0.67284300  0.51980500  1
  Mo  Mo14  1  0.80284100  0.17284300  0.98019500  1
  Mo  Mo15  1  0.30284100  0.32715700  0.01980500  1
  O  O16  1  0.05444400  0.27758600  0.88256700  1
  O  O17  1  0.55444400  0.22241400  0.11743300  1
  O  O18  1  0.94555600  0.72241400  0.38256700  1
  O  O19  1  0.44555600  0.77758600  0.61743300  1
  O  O20  1  0.94555600  0.72241400  0.11743300  1
  O  O21  1  0.44555600  0.77758600  0.88256700  1
  O  O22  1  0.05444400  0.27758600  0.61743300  1
  O  O23  1  0.55444400  0.22241400  0.38256700  1
  O  O24  1  0.52027700  0.25423200  0.88327300  1
  O  O25  1  0.02027700  0.24576800  0.11672700  1
  O  O26  1  0.47972300  0.74576800  0.38327300  1
  O  O27  1  0.97972300  0.75423200  0.61672700  1
  O  O28  1  0.47972300  0.74576800  0.11672700  1
  O  O29  1  0.97972300  0.75423200  0.88327300  1
  O  O30  1  0.52027700  0.25423200  0.61672700  1
  O  O31  1  0.02027700  0.24576800  0.38327300  1
  O  O32  1  0.80399800  0.48040400  0.25000000  1
  O  O33  1  0.30399800  0.01959600  0.75000000  1
  O  O34  1  0.19600200  0.51959600  0.75000000  1
  O  O35  1  0.69600200  0.98040400  0.25000000  1
  O  O36  1  0.77009400  0.01348700  0.60115100  1
  O  O37  1  0.27009400  0.48651300  0.39884900  1
  O  O38  1  0.22990600  0.98651300  0.10115100  1
  O  O39  1  0.72990600  0.51348700  0.89884900  1
  O  O40  1  0.22990600  0.98651300  0.39884900  1
  O  O41  1  0.72990600  0.51348700  0.60115100  1
  O  O42  1  0.77009400  0.01348700  0.89884900  1
  O  O43  1  0.27009400  0.48651300  0.10115100  1
