# generated using pymatgen
data_MgTi3O7
_symmetry_space_group_name_H-M   'P 1'
_cell_length_a   5.43926300
_cell_length_b   10.14529900
_cell_length_c   10.40194100
_cell_angle_alpha   90.00000000
_cell_angle_beta   90.00000000
_cell_angle_gamma   90.00000000
_symmetry_Int_Tables_number   1
_chemical_formula_structural   MgTi3O7
_chemical_formula_sum   'Mg4 Ti12 O28'
_cell_volume   574.00978464
_cell_formula_units_Z   4
loop_
 _symmetry_equiv_pos_site_id
 _symmetry_equiv_pos_as_xyz
  1  'x, y, z'
loop_
 _atom_site_type_symbol
 _atom_site_label
 _atom_site_symmetry_multiplicity
 _atom_site_fract_x
 _atom_site_fract_y
 _atom_site_fract_z
 _atom_site_occupancy
  Mg  Mg0  1  0.37313700  0.06079000  0.25000000  1
  Mg  Mg1  1  0.87313700  0.43921000  0.75000000  1
  Mg  Mg2  1  0.62686300  0.93921000  0.75000000  1
  Mg  Mg3  1  0.12686300  0.56079000  0.25000000  1
  Ti  Ti4  1  0.71077100  0.68736700  0.96939300  1
  Ti  Ti5  1  0.21077100  0.81263300  0.03060700  1
  Ti  Ti6  1  0.28922900  0.31263300  0.46939300  1
  Ti  Ti7  1  0.78922900  0.18736700  0.53060700  1
  Ti  Ti8  1  0.69958300  0.77940700  0.25000000  1
  Ti  Ti9  1  0.19958300  0.72059300  0.75000000  1
  Ti  Ti10  1  0.30041700  0.22059300  0.75000000  1
  Ti  Ti11  1  0.80041700  0.27940700  0.25000000  1
  Ti  Ti12  1  0.21077100  0.81263300  0.46939300  1
  Ti  Ti13  1  0.71077100  0.68736700  0.53060700  1
  Ti  Ti14  1  0.78922900  0.18736700  0.96939300  1
  Ti  Ti15  1  0.28922900  0.31263300  0.03060700  1
  O  O16  1  0.05015500  0.28688300  0.87843600  1
  O  O17  1  0.55015500  0.21311700  0.12156400  1
  O  O18  1  0.94984500  0.71311700  0.37843600  1
  O  O19  1  0.44984500  0.78688300  0.62156400  1
  O  O20  1  0.94984500  0.71311700  0.12156400  1
  O  O21  1  0.44984500  0.78688300  0.87843600  1
  O  O22  1  0.05015500  0.28688300  0.62156400  1
  O  O23  1  0.55015500  0.21311700  0.37843600  1
  O  O24  1  0.52712100  0.28081300  0.88325200  1
  O  O25  1  0.02712100  0.21918700  0.11674800  1
  O  O26  1  0.47287900  0.71918700  0.38325200  1
  O  O27  1  0.97287900  0.78081300  0.61674800  1
  O  O28  1  0.47287900  0.71918700  0.11674800  1
  O  O29  1  0.97287900  0.78081300  0.88325200  1
  O  O30  1  0.52712100  0.28081300  0.61674800  1
  O  O31  1  0.02712100  0.21918700  0.38325200  1
  O  O32  1  0.82000200  0.44646900  0.25000000  1
  O  O33  1  0.32000200  0.05353100  0.75000000  1
  O  O34  1  0.17999800  0.55353100  0.75000000  1
  O  O35  1  0.67999800  0.94646900  0.25000000  1
  O  O36  1  0.77671200  0.03510600  0.59759600  1
  O  O37  1  0.27671200  0.46489400  0.40240400  1
  O  O38  1  0.22328800  0.96489400  0.09759600  1
  O  O39  1  0.72328800  0.53510600  0.90240400  1
  O  O40  1  0.22328800  0.96489400  0.40240400  1
  O  O41  1  0.72328800  0.53510600  0.59759600  1
  O  O42  1  0.77671200  0.03510600  0.90240400  1
  O  O43  1  0.27671200  0.46489400  0.09759600  1
