# generated using pymatgen
data_LaZnFeSnO6
_symmetry_space_group_name_H-M   'P 1'
_cell_length_a   5.65379700
_cell_length_b   5.44502200
_cell_length_c   9.58988471
_cell_angle_alpha   55.98006022
_cell_angle_beta   90.00000000
_cell_angle_gamma   90.00000000
_symmetry_Int_Tables_number   1
_chemical_formula_structural   LaZnFeSnO6
_chemical_formula_sum   'La2 Zn2 Fe2 Sn2 O12'
_cell_volume   244.69520864
_cell_formula_units_Z   2
loop_
 _symmetry_equiv_pos_site_id
 _symmetry_equiv_pos_as_xyz
  1  'x, y, z'
loop_
 _atom_site_type_symbol
 _atom_site_label
 _atom_site_symmetry_multiplicity
 _atom_site_fract_x
 _atom_site_fract_y
 _atom_site_fract_z
 _atom_site_occupancy
  La  La0  1  0.29083200  0.23641200  0.75060500  1
  La  La1  1  0.70916800  0.23641200  0.25060500  1
  Zn  Zn2  1  0.78157100  0.76651300  0.75584200  1
  Zn  Zn3  1  0.21842900  0.76651300  0.25584200  1
  Fe  Fe4  1  0.75509600  0.99758400  0.00201700  1
  Fe  Fe5  1  0.24490400  0.99758400  0.50201700  1
  Sn  Sn6  1  0.75785700  0.49933400  0.50214700  1
  Sn  Sn7  1  0.24214300  0.49933400  0.00214700  1
  O  O8  1  0.27853700  0.39407900  0.25065100  1
  O  O9  1  0.44205400  0.12338100  0.06398600  1
  O  O10  1  0.44762500  0.75503900  0.43816200  1
  O  O11  1  0.55237500  0.75503900  0.93816200  1
  O  O12  1  0.55794600  0.12338100  0.56398600  1
  O  O13  1  0.72146300  0.39407900  0.75065100  1
  O  O14  1  0.79694000  0.65712200  0.24686800  1
  O  O15  1  0.98342600  0.85021900  0.43039500  1
  O  O16  1  0.96175100  0.22031800  0.05932600  1
  O  O17  1  0.03824900  0.22031800  0.55932600  1
  O  O18  1  0.01657400  0.85021900  0.93039500  1
  O  O19  1  0.20306000  0.65712200  0.74686800  1
