# generated using pymatgen
data_TaBiO5
_symmetry_space_group_name_H-M   'P 1'
_cell_length_a   9.81865700
_cell_length_b   5.48394900
_cell_length_c   9.17405737
_cell_angle_alpha   62.14833305
_cell_angle_beta   90.00000000
_cell_angle_gamma   90.00000000
_symmetry_Int_Tables_number   1
_chemical_formula_structural   TaBiO5
_chemical_formula_sum   'Ta4 Bi4 O20'
_cell_volume   436.75494855
_cell_formula_units_Z   4
loop_
 _symmetry_equiv_pos_site_id
 _symmetry_equiv_pos_as_xyz
  1  'x, y, z'
loop_
 _atom_site_type_symbol
 _atom_site_label
 _atom_site_symmetry_multiplicity
 _atom_site_fract_x
 _atom_site_fract_y
 _atom_site_fract_z
 _atom_site_occupancy
  Ta  Ta0  1  0.41095500  0.23742500  0.00952500  1
  Ta  Ta1  1  0.58904500  0.76257500  0.99047500  1
  Ta  Ta2  1  0.91095500  0.76257500  0.49047500  1
  Ta  Ta3  1  0.08904500  0.23742500  0.50952500  1
  Bi  Bi4  1  0.89437400  0.98786600  0.86978800  1
  Bi  Bi5  1  0.10562600  0.01213400  0.13021200  1
  Bi  Bi6  1  0.60562600  0.98786600  0.36978800  1
  Bi  Bi7  1  0.39437400  0.01213400  0.63021200  1
  O  O8  1  0.94463100  0.90847700  0.64519300  1
  O  O9  1  0.98477800  0.36731100  0.65165000  1
  O  O10  1  0.80951800  0.09942000  0.32110300  1
  O  O11  1  0.42125300  0.80957900  0.48003200  1
  O  O12  1  0.73321200  0.62766200  0.52469700  1
  O  O13  1  0.76678800  0.62766200  0.02469700  1
  O  O14  1  0.51522200  0.36731100  0.15165000  1
  O  O15  1  0.48477800  0.63268900  0.84835000  1
  O  O16  1  0.57874700  0.19042100  0.51996800  1
  O  O17  1  0.44463100  0.09152300  0.85480700  1
  O  O18  1  0.26678800  0.37233800  0.47530300  1
  O  O19  1  0.05536900  0.09152300  0.35480700  1
  O  O20  1  0.55536900  0.90847700  0.14519300  1
  O  O21  1  0.23321200  0.37233800  0.97530300  1
  O  O22  1  0.92125300  0.19042100  0.01996800  1
  O  O23  1  0.07874700  0.80957900  0.98003200  1
  O  O24  1  0.19048200  0.90058000  0.67889700  1
  O  O25  1  0.01522200  0.63268900  0.34835000  1
  O  O26  1  0.30951800  0.90058000  0.17889700  1
  O  O27  1  0.69048200  0.09942000  0.82110300  1
