# generated using pymatgen
data_ZnSn3O7
_symmetry_space_group_name_H-M   'P 1'
_cell_length_a   5.26311800
_cell_length_b   10.29611400
_cell_length_c   10.43574400
_cell_angle_alpha   90.00000000
_cell_angle_beta   90.00000000
_cell_angle_gamma   90.00000000
_symmetry_Int_Tables_number   1
_chemical_formula_structural   ZnSn3O7
_chemical_formula_sum   'Zn4 Sn12 O28'
_cell_volume   565.50944972
_cell_formula_units_Z   4
loop_
 _symmetry_equiv_pos_site_id
 _symmetry_equiv_pos_as_xyz
  1  'x, y, z'
loop_
 _atom_site_type_symbol
 _atom_site_label
 _atom_site_symmetry_multiplicity
 _atom_site_fract_x
 _atom_site_fract_y
 _atom_site_fract_z
 _atom_site_occupancy
  Zn  Zn0  1  0.33770300  0.11946700  0.25000000  1
  Zn  Zn1  1  0.83770300  0.38053300  0.75000000  1
  Zn  Zn2  1  0.66229700  0.88053300  0.75000000  1
  Zn  Zn3  1  0.16229700  0.61946700  0.25000000  1
  Sn  Sn4  1  0.63771300  0.64190700  0.01167600  1
  Sn  Sn5  1  0.13771300  0.85809300  0.98832400  1
  Sn  Sn6  1  0.36228700  0.35809300  0.51167600  1
  Sn  Sn7  1  0.86228700  0.14190700  0.48832400  1
  Sn  Sn8  1  0.67828500  0.85044600  0.25000000  1
  Sn  Sn9  1  0.17828500  0.64955400  0.75000000  1
  Sn  Sn10  1  0.32171500  0.14955400  0.75000000  1
  Sn  Sn11  1  0.82171500  0.35044600  0.25000000  1
  Sn  Sn12  1  0.13771300  0.85809300  0.51167600  1
  Sn  Sn13  1  0.63771300  0.64190700  0.48832400  1
  Sn  Sn14  1  0.86228700  0.14190700  0.01167600  1
  Sn  Sn15  1  0.36228700  0.35809300  0.98832400  1
  O  O16  1  0.08568900  0.24676700  0.87880700  1
  O  O17  1  0.58568900  0.25323300  0.12119300  1
  O  O18  1  0.91431100  0.75323300  0.37880700  1
  O  O19  1  0.41431100  0.74676700  0.62119300  1
  O  O20  1  0.91431100  0.75323300  0.12119300  1
  O  O21  1  0.41431100  0.74676700  0.87880700  1
  O  O22  1  0.08568900  0.24676700  0.62119300  1
  O  O23  1  0.58568900  0.25323300  0.37880700  1
  O  O24  1  0.57894800  0.21761700  0.88034500  1
  O  O25  1  0.07894800  0.28238300  0.11965500  1
  O  O26  1  0.42105200  0.78238300  0.38034500  1
  O  O27  1  0.92105200  0.71761700  0.61965500  1
  O  O28  1  0.42105200  0.78238300  0.11965500  1
  O  O29  1  0.92105200  0.71761700  0.88034500  1
  O  O30  1  0.57894800  0.21761700  0.61965500  1
  O  O31  1  0.07894800  0.28238300  0.38034500  1
  O  O32  1  0.80515900  0.53928600  0.25000000  1
  O  O33  1  0.30515900  0.96071400  0.75000000  1
  O  O34  1  0.19484100  0.46071400  0.75000000  1
  O  O35  1  0.69484100  0.03928600  0.25000000  1
  O  O36  1  0.82674300  0.96838000  0.58545900  1
  O  O37  1  0.32674300  0.53162000  0.41454100  1
  O  O38  1  0.17325700  0.03162000  0.08545900  1
  O  O39  1  0.67325700  0.46838000  0.91454100  1
  O  O40  1  0.17325700  0.03162000  0.41454100  1
  O  O41  1  0.67325700  0.46838000  0.58545900  1
  O  O42  1  0.82674300  0.96838000  0.91454100  1
  O  O43  1  0.32674300  0.53162000  0.08545900  1
