# generated using pymatgen
data_MgMn2(PO5)2
_symmetry_space_group_name_H-M   'P 1'
_cell_length_a   6.63688390
_cell_length_b   6.63688332
_cell_length_c   8.98748850
_cell_angle_alpha   102.40351444
_cell_angle_beta   102.40351836
_cell_angle_gamma   114.72478121
_symmetry_Int_Tables_number   1
_chemical_formula_structural   MgMn2(PO5)2
_chemical_formula_sum   'Mg2 Mn4 P4 O20'
_cell_volume   329.84199135
_cell_formula_units_Z   2
loop_
 _symmetry_equiv_pos_site_id
 _symmetry_equiv_pos_as_xyz
  1  'x, y, z'
loop_
 _atom_site_type_symbol
 _atom_site_label
 _atom_site_symmetry_multiplicity
 _atom_site_fract_x
 _atom_site_fract_y
 _atom_site_fract_z
 _atom_site_occupancy
  Mg  Mg0  1  0.49491100  0.99491100  0.50000000  1
  Mg  Mg1  1  0.24491100  0.24491100  0.00000000  1
  Mn  Mn2  1  0.87228900  0.61871600  0.25119600  1
  Mn  Mn3  1  0.36752000  0.62109200  0.74880400  1
  Mn  Mn4  1  0.87109200  0.11752000  0.24880400  1
  Mn  Mn5  1  0.86871600  0.62228900  0.75119600  1
  P  P6  1  0.03679600  0.03781000  0.58496600  1
  P  P7  1  0.70182900  0.20284400  0.91503400  1
  P  P8  1  0.45284400  0.45182900  0.41503400  1
  P  P9  1  0.28781000  0.78679600  0.08496600  1
  O  O10  1  0.58105800  0.55310400  0.30201400  1
  O  O11  1  0.66236500  0.66687500  0.83933500  1
  O  O12  1  0.30881500  0.58506800  0.97538000  1
  O  O13  1  0.80310400  0.33105800  0.80201400  1
  O  O14  1  0.21425300  0.23756000  0.29739000  1
  O  O15  1  0.42730500  0.65188600  0.52273000  1
  O  O16  1  0.07303000  0.57754000  0.66066500  1
  O  O17  1  0.82754000  0.82303000  0.16066500  1
  O  O18  1  0.91687500  0.41236500  0.33933500  1
  O  O19  1  0.16686200  0.69017000  0.20261000  1
  O  O20  1  0.25109200  0.27904700  0.69798600  1
  O  O21  1  0.48756000  0.96425300  0.79739000  1
  O  O22  1  0.94017000  0.91686200  0.70261000  1
  O  O23  1  0.15457600  0.87915600  0.97727000  1
  O  O24  1  0.12915600  0.90457600  0.47727000  1
  O  O25  1  0.90188600  0.17730500  0.02273000  1
  O  O26  1  0.83506800  0.05881500  0.47538000  1
  O  O27  1  0.60968800  0.33343400  0.02462000  1
  O  O28  1  0.52904700  0.00109200  0.19798600  1
  O  O29  1  0.58343400  0.35968800  0.52462000  1
