# generated using pymatgen
data_Ca2Nb2CuO8
_symmetry_space_group_name_H-M   'P 1'
_cell_length_a   10.13253595
_cell_length_b   10.13253595
_cell_length_c   5.46923153
_cell_angle_alpha   86.98301197
_cell_angle_beta   86.98301197
_cell_angle_gamma   38.82302634
_symmetry_Int_Tables_number   1
_chemical_formula_structural   Ca2Nb2CuO8
_chemical_formula_sum   'Ca4 Nb4 Cu2 O16'
_cell_volume   351.47574740
_cell_formula_units_Z   2
loop_
 _symmetry_equiv_pos_site_id
 _symmetry_equiv_pos_as_xyz
  1  'x, y, z'
loop_
 _atom_site_type_symbol
 _atom_site_label
 _atom_site_symmetry_multiplicity
 _atom_site_fract_x
 _atom_site_fract_y
 _atom_site_fract_z
 _atom_site_occupancy
  Ca  Ca0  1  0.46555900  0.12061900  0.74398100  1
  Ca  Ca1  1  0.87938100  0.53444100  0.75601900  1
  Ca  Ca2  1  0.53444100  0.87938100  0.25601900  1
  Ca  Ca3  1  0.12061900  0.46555900  0.24398100  1
  Nb  Nb4  1  0.26121800  0.97411400  0.76507100  1
  Nb  Nb5  1  0.02588600  0.73878200  0.73492900  1
  Nb  Nb6  1  0.73878200  0.02588600  0.23492900  1
  Nb  Nb7  1  0.97411400  0.26121800  0.26507100  1
  Cu  Cu8  1  0.73567200  0.26432800  0.75000000  1
  Cu  Cu9  1  0.26432800  0.73567200  0.25000000  1
  O  O10  1  0.19826100  0.95373000  0.43392900  1
  O  O11  1  0.04627000  0.80173900  0.06607100  1
  O  O12  1  0.80173900  0.04627000  0.56607100  1
  O  O13  1  0.95373000  0.19826100  0.93392900  1
  O  O14  1  0.35994800  0.75928600  0.96902500  1
  O  O15  1  0.24071400  0.64005200  0.53097500  1
  O  O16  1  0.64005200  0.24071400  0.03097500  1
  O  O17  1  0.75928600  0.35994800  0.46902500  1
  O  O18  1  0.24819700  0.12795300  0.01151600  1
  O  O19  1  0.87204700  0.75180300  0.48848400  1
  O  O20  1  0.83834300  0.53310900  0.17086800  1
  O  O21  1  0.46689100  0.16165700  0.32913200  1
  O  O22  1  0.16165700  0.46689100  0.82913200  1
  O  O23  1  0.53310900  0.83834300  0.67086800  1
  O  O24  1  0.12795300  0.24819700  0.51151600  1
  O  O25  1  0.75180300  0.87204700  0.98848400  1
