# generated using pymatgen
data_PrTi2O6
_symmetry_space_group_name_H-M   'P 1'
_cell_length_a   5.44742000
_cell_length_b   5.55001000
_cell_length_c   7.72455900
_cell_angle_alpha   90.00000000
_cell_angle_beta   90.00000000
_cell_angle_gamma   90.00000000
_symmetry_Int_Tables_number   1
_chemical_formula_structural   PrTi2O6
_chemical_formula_sum   'Pr2 Ti4 O12'
_cell_volume   233.53841118
_cell_formula_units_Z   2
loop_
 _symmetry_equiv_pos_site_id
 _symmetry_equiv_pos_as_xyz
  1  'x, y, z'
loop_
 _atom_site_type_symbol
 _atom_site_label
 _atom_site_symmetry_multiplicity
 _atom_site_fract_x
 _atom_site_fract_y
 _atom_site_fract_z
 _atom_site_occupancy
  Pr  Pr0  1  0.01111900  0.70290500  0.00000000  1
  Pr  Pr1  1  0.51111900  0.29709500  0.50000000  1
  Ti  Ti2  1  0.00724300  0.23361000  0.74939900  1
  Ti  Ti3  1  0.00724300  0.23361000  0.25060100  1
  Ti  Ti4  1  0.50724300  0.76639000  0.24939900  1
  Ti  Ti5  1  0.50724300  0.76639000  0.75060100  1
  O  O6  1  0.06423500  0.24319200  0.50000000  1
  O  O7  1  0.21721700  0.96700200  0.78514000  1
  O  O8  1  0.21721700  0.96700200  0.21486000  1
  O  O9  1  0.26230200  0.48526100  0.23119200  1
  O  O10  1  0.26230200  0.48526100  0.76880800  1
  O  O11  1  0.46165900  0.73734000  0.50000000  1
  O  O12  1  0.56423500  0.75680800  0.00000000  1
  O  O13  1  0.71721700  0.03299800  0.71486000  1
  O  O14  1  0.71721700  0.03299800  0.28514000  1
  O  O15  1  0.76230200  0.51473900  0.73119200  1
  O  O16  1  0.76230200  0.51473900  0.26880800  1
  O  O17  1  0.96165900  0.26266000  0.00000000  1
