# generated using pymatgen
data_MgMn3O7
_symmetry_space_group_name_H-M   'P 1'
_cell_length_a   5.45648600
_cell_length_b   9.61065600
_cell_length_c   10.39044100
_cell_angle_alpha   90.00000000
_cell_angle_beta   90.00000000
_cell_angle_gamma   90.00000000
_symmetry_Int_Tables_number   1
_chemical_formula_structural   MgMn3O7
_chemical_formula_sum   'Mg4 Mn12 O28'
_cell_volume   544.87898524
_cell_formula_units_Z   4
loop_
 _symmetry_equiv_pos_site_id
 _symmetry_equiv_pos_as_xyz
  1  'x, y, z'
loop_
 _atom_site_type_symbol
 _atom_site_label
 _atom_site_symmetry_multiplicity
 _atom_site_fract_x
 _atom_site_fract_y
 _atom_site_fract_z
 _atom_site_occupancy
  Mg  Mg0  1  0.37427900  0.04439200  0.25000000  1
  Mg  Mg1  1  0.87427900  0.45560800  0.75000000  1
  Mg  Mg2  1  0.62572100  0.95560800  0.75000000  1
  Mg  Mg3  1  0.12572100  0.54439200  0.25000000  1
  Mn  Mn4  1  0.71043700  0.70125800  0.97170200  1
  Mn  Mn5  1  0.21043700  0.79874200  0.02829800  1
  Mn  Mn6  1  0.28956300  0.29874200  0.47170200  1
  Mn  Mn7  1  0.78956300  0.20125800  0.52829800  1
  Mn  Mn8  1  0.70812600  0.76474800  0.25000000  1
  Mn  Mn9  1  0.20812600  0.73525200  0.75000000  1
  Mn  Mn10  1  0.29187400  0.23525200  0.75000000  1
  Mn  Mn11  1  0.79187400  0.26474800  0.25000000  1
  Mn  Mn12  1  0.21043700  0.79874200  0.47170200  1
  Mn  Mn13  1  0.71043700  0.70125800  0.52829800  1
  Mn  Mn14  1  0.78956300  0.20125800  0.97170200  1
  Mn  Mn15  1  0.28956300  0.29874200  0.02829800  1
  O  O16  1  0.04483400  0.29058100  0.87791400  1
  O  O17  1  0.54483400  0.20941900  0.12208600  1
  O  O18  1  0.95516600  0.70941900  0.37791400  1
  O  O19  1  0.45516600  0.79058100  0.62208600  1
  O  O20  1  0.95516600  0.70941900  0.12208600  1
  O  O21  1  0.45516600  0.79058100  0.87791400  1
  O  O22  1  0.04483400  0.29058100  0.62208600  1
  O  O23  1  0.54483400  0.20941900  0.37791400  1
  O  O24  1  0.52005100  0.28115900  0.88222800  1
  O  O25  1  0.02005100  0.21884100  0.11777200  1
  O  O26  1  0.47994900  0.71884100  0.38222800  1
  O  O27  1  0.97994900  0.78115900  0.61777200  1
  O  O28  1  0.47994900  0.71884100  0.11777200  1
  O  O29  1  0.97994900  0.78115900  0.88222800  1
  O  O30  1  0.52005100  0.28115900  0.61777200  1
  O  O31  1  0.02005100  0.21884100  0.38222800  1
  O  O32  1  0.80207400  0.44324700  0.25000000  1
  O  O33  1  0.30207400  0.05675300  0.75000000  1
  O  O34  1  0.19792600  0.55675300  0.75000000  1
  O  O35  1  0.69792600  0.94324700  0.25000000  1
  O  O36  1  0.77437500  0.03593900  0.59019500  1
  O  O37  1  0.27437500  0.46406100  0.40980500  1
  O  O38  1  0.22562500  0.96406100  0.09019500  1
  O  O39  1  0.72562500  0.53593900  0.90980500  1
  O  O40  1  0.22562500  0.96406100  0.40980500  1
  O  O41  1  0.72562500  0.53593900  0.59019500  1
  O  O42  1  0.77437500  0.03593900  0.90980500  1
  O  O43  1  0.27437500  0.46406100  0.09019500  1
