# generated using pymatgen
data_BaMgMn4O8
_symmetry_space_group_name_H-M   'P 1'
_cell_length_a   5.48806550
_cell_length_b   5.48806550
_cell_length_c   7.25706600
_cell_angle_alpha   90.00000000
_cell_angle_beta   90.00000000
_cell_angle_gamma   119.99999401
_symmetry_Int_Tables_number   1
_chemical_formula_structural   BaMgMn4O8
_chemical_formula_sum   'Ba1 Mg1 Mn4 O8'
_cell_volume   189.29114721
_cell_formula_units_Z   1
loop_
 _symmetry_equiv_pos_site_id
 _symmetry_equiv_pos_as_xyz
  1  'x, y, z'
loop_
 _atom_site_type_symbol
 _atom_site_label
 _atom_site_symmetry_multiplicity
 _atom_site_fract_x
 _atom_site_fract_y
 _atom_site_fract_z
 _atom_site_occupancy
  Ba  Ba0  1  0.00000000  0.00000000  0.00000000  1
  Mg  Mg1  1  0.00000000  0.00000000  0.50000000  1
  Mn  Mn2  1  0.33333300  0.66666700  0.73891800  1
  Mn  Mn3  1  0.66666700  0.33333300  0.73891800  1
  Mn  Mn4  1  0.33333300  0.66666700  0.26108200  1
  Mn  Mn5  1  0.66666700  0.33333300  0.26108200  1
  O  O6  1  0.31037900  0.31037900  0.68111400  1
  O  O7  1  0.68962100  0.00000000  0.68111400  1
  O  O8  1  0.00000000  0.68962100  0.68111400  1
  O  O9  1  0.68962100  0.68962100  0.31888600  1
  O  O10  1  0.00000000  0.31037900  0.31888600  1
  O  O11  1  0.31037900  0.00000000  0.31888600  1
  O  O12  1  0.33333300  0.66666700  0.00000000  1
  O  O13  1  0.66666700  0.33333300  0.00000000  1
