# generated using pymatgen
data_ZnW4O9
_symmetry_space_group_name_H-M   'P 1'
_cell_length_a   9.78948000
_cell_length_b   9.78948000
_cell_length_c   3.87883000
_cell_angle_alpha   90.00000000
_cell_angle_beta   90.00000000
_cell_angle_gamma   90.00000000
_symmetry_Int_Tables_number   1
_chemical_formula_structural   ZnW4O9
_chemical_formula_sum   'Zn2 W8 O18'
_cell_volume   371.72347876
_cell_formula_units_Z   2
loop_
 _symmetry_equiv_pos_site_id
 _symmetry_equiv_pos_as_xyz
  1  'x, y, z'
loop_
 _atom_site_type_symbol
 _atom_site_label
 _atom_site_symmetry_multiplicity
 _atom_site_fract_x
 _atom_site_fract_y
 _atom_site_fract_z
 _atom_site_occupancy
  Zn  Zn0  1  0.00000000  0.50000000  0.01923500  1
  Zn  Zn1  1  0.50000000  0.00000000  0.98076500  1
  W  W2  1  0.08539100  0.78261900  0.50157400  1
  W  W3  1  0.21738100  0.08539100  0.49842600  1
  W  W4  1  0.71738100  0.58539100  0.50157400  1
  W  W5  1  0.58539100  0.28261900  0.49842600  1
  W  W6  1  0.91460900  0.21738100  0.50157400  1
  W  W7  1  0.28261900  0.41460900  0.50157400  1
  W  W8  1  0.41460900  0.71738100  0.49842600  1
  W  W9  1  0.78261900  0.91460900  0.49842600  1
  O  O10  1  0.00000000  0.00000000  0.50000000  1
  O  O11  1  0.50000000  0.50000000  0.50000000  1
  O  O12  1  0.78619600  0.91676400  0.00022600  1
  O  O13  1  0.41676400  0.71380400  0.00022600  1
  O  O14  1  0.58323600  0.28619600  0.00022600  1
  O  O15  1  0.21380400  0.08323600  0.00022600  1
  O  O16  1  0.71380400  0.58323600  0.99977400  1
  O  O17  1  0.08323600  0.78619600  0.99977400  1
  O  O18  1  0.91676400  0.21380400  0.99977400  1
  O  O19  1  0.28619600  0.41676400  0.99977400  1
  O  O20  1  0.11812900  0.27464800  0.50150900  1
  O  O21  1  0.77464800  0.38187100  0.50150900  1
  O  O22  1  0.22535200  0.61812900  0.50150900  1
  O  O23  1  0.88187100  0.72535200  0.50150900  1
  O  O24  1  0.61812900  0.77464800  0.49849100  1
  O  O25  1  0.72535200  0.11812900  0.49849100  1
  O  O26  1  0.27464800  0.88187100  0.49849100  1
  O  O27  1  0.38187100  0.22535200  0.49849100  1
