# generated using pymatgen
data_MgFeBiO5
_symmetry_space_group_name_H-M   'P 1'
_cell_length_a   10.46518900
_cell_length_b   5.38991700
_cell_length_c   8.47729615
_cell_angle_alpha   69.53177954
_cell_angle_beta   90.00000000
_cell_angle_gamma   90.00000000
_symmetry_Int_Tables_number   1
_chemical_formula_structural   MgFeBiO5
_chemical_formula_sum   'Mg4 Fe4 Bi4 O20'
_cell_volume   447.98566959
_cell_formula_units_Z   4
loop_
 _symmetry_equiv_pos_site_id
 _symmetry_equiv_pos_as_xyz
  1  'x, y, z'
loop_
 _atom_site_type_symbol
 _atom_site_label
 _atom_site_symmetry_multiplicity
 _atom_site_fract_x
 _atom_site_fract_y
 _atom_site_fract_z
 _atom_site_occupancy
  Mg  Mg0  1  0.08954300  0.53737900  0.83226800  1
  Mg  Mg1  1  0.91045700  0.46262100  0.16773200  1
  Mg  Mg2  1  0.58954300  0.46262100  0.66773200  1
  Mg  Mg3  1  0.41045700  0.53737900  0.33226800  1
  Fe  Fe4  1  0.38548900  0.13891500  0.05355100  1
  Fe  Fe5  1  0.61451100  0.86108500  0.94644900  1
  Fe  Fe6  1  0.88548900  0.86108500  0.44644900  1
  Fe  Fe7  1  0.11451100  0.13891500  0.55355100  1
  Bi  Bi8  1  0.89678800  0.03346300  0.84331300  1
  Bi  Bi9  1  0.10321200  0.96653700  0.15668700  1
  Bi  Bi10  1  0.60321200  0.03346300  0.34331300  1
  Bi  Bi11  1  0.39678800  0.96653700  0.65668700  1
  O  O12  1  0.95630400  0.85078400  0.66223000  1
  O  O13  1  0.02890100  0.31815300  0.68543600  1
  O  O14  1  0.78958500  0.18288300  0.30634600  1
  O  O15  1  0.45706600  0.75590600  0.49144100  1
  O  O16  1  0.71710800  0.71029900  0.50390400  1
  O  O17  1  0.78289200  0.71029900  0.00390400  1
  O  O18  1  0.47109900  0.31815300  0.18543600  1
  O  O19  1  0.52890100  0.68184700  0.81456400  1
  O  O20  1  0.54293400  0.24409400  0.50855900  1
  O  O21  1  0.45630400  0.14921600  0.83777000  1
  O  O22  1  0.28289200  0.28970100  0.49609600  1
  O  O23  1  0.04369600  0.14921600  0.33777000  1
  O  O24  1  0.54369600  0.85078400  0.16223000  1
  O  O25  1  0.21710800  0.28970100  0.99609600  1
  O  O26  1  0.95706600  0.24409400  0.00855900  1
  O  O27  1  0.04293400  0.75590600  0.99144100  1
  O  O28  1  0.21041500  0.81711700  0.69365400  1
  O  O29  1  0.97109900  0.68184700  0.31456400  1
  O  O30  1  0.28958500  0.81711700  0.19365400  1
  O  O31  1  0.71041500  0.18288300  0.80634600  1
