# generated using pymatgen
data_MgTiP2O7
_symmetry_space_group_name_H-M   'P 1'
_cell_length_a   8.63115700
_cell_length_b   7.04935100
_cell_length_c   9.23377178
_cell_angle_alpha   66.35873966
_cell_angle_beta   90.00000000
_cell_angle_gamma   90.00000000
_symmetry_Int_Tables_number   1
_chemical_formula_structural   MgTiP2O7
_chemical_formula_sum   'Mg4 Ti4 P8 O28'
_cell_volume   514.66891125
_cell_formula_units_Z   4
loop_
 _symmetry_equiv_pos_site_id
 _symmetry_equiv_pos_as_xyz
  1  'x, y, z'
loop_
 _atom_site_type_symbol
 _atom_site_label
 _atom_site_symmetry_multiplicity
 _atom_site_fract_x
 _atom_site_fract_y
 _atom_site_fract_z
 _atom_site_occupancy
  Mg  Mg0  1  0.93984200  0.69639600  0.18210900  1
  Mg  Mg1  1  0.43984200  0.30360400  0.31789100  1
  Mg  Mg2  1  0.56015800  0.69639600  0.68210900  1
  Mg  Mg3  1  0.06015800  0.30360400  0.81789100  1
  Ti  Ti4  1  0.06945500  0.22288300  0.40147400  1
  Ti  Ti5  1  0.93054500  0.77711700  0.59852600  1
  Ti  Ti6  1  0.56945500  0.77711700  0.09852600  1
  Ti  Ti7  1  0.43054500  0.22288300  0.90147400  1
  P  P8  1  0.73881600  0.06326900  0.75176400  1
  P  P9  1  0.22135200  0.52687100  0.03581100  1
  P  P10  1  0.76118400  0.06326900  0.25176400  1
  P  P11  1  0.27864800  0.52687100  0.53581100  1
  P  P12  1  0.23881600  0.93673100  0.74823600  1
  P  P13  1  0.72135200  0.47312900  0.46418900  1
  P  P14  1  0.77864800  0.47312900  0.96418900  1
  P  P15  1  0.26118400  0.93673100  0.24823600  1
  O  O16  1  0.17457000  0.74814300  0.90439400  1
  O  O17  1  0.60712900  0.11773300  0.30197700  1
  O  O18  1  0.89287100  0.11773300  0.80197700  1
  O  O19  1  0.38163200  0.54256400  0.10404700  1
  O  O20  1  0.82543000  0.25185700  0.09560600  1
  O  O21  1  0.10935100  0.97181500  0.62563900  1
  O  O22  1  0.61836800  0.45743600  0.89595300  1
  O  O23  1  0.09051900  0.48468400  0.15855800  1
  O  O24  1  0.27682200  0.37306500  0.45505400  1
  O  O25  1  0.89064900  0.02818500  0.37436100  1
  O  O26  1  0.39064900  0.97181500  0.12563900  1
  O  O27  1  0.75900300  0.88082200  0.19971000  1
  O  O28  1  0.25900300  0.11917800  0.30029000  1
  O  O29  1  0.32543000  0.74814300  0.40439400  1
  O  O30  1  0.60935100  0.02818500  0.87436100  1
  O  O31  1  0.10712900  0.88226700  0.19802300  1
  O  O32  1  0.24099700  0.11917800  0.80029000  1
  O  O33  1  0.90948100  0.51531600  0.84144200  1
  O  O34  1  0.22317800  0.37306500  0.95505400  1
  O  O35  1  0.77682200  0.62693500  0.04494600  1
  O  O36  1  0.88163200  0.45743600  0.39595300  1
  O  O37  1  0.40948100  0.48468400  0.65855800  1
  O  O38  1  0.59051900  0.51531600  0.34144200  1
  O  O39  1  0.39287100  0.88226700  0.69802300  1
  O  O40  1  0.74099700  0.88082200  0.69971000  1
  O  O41  1  0.11836800  0.54256400  0.60404700  1
  O  O42  1  0.72317800  0.62693500  0.54494600  1
  O  O43  1  0.67457000  0.25185700  0.59560600  1
