# generated using pymatgen
data_ZnFe3O7
_symmetry_space_group_name_H-M   'P 1'
_cell_length_a   5.44893700
_cell_length_b   10.00070800
_cell_length_c   10.34257400
_cell_angle_alpha   90.00000000
_cell_angle_beta   90.00000000
_cell_angle_gamma   90.00000000
_symmetry_Int_Tables_number   1
_chemical_formula_structural   ZnFe3O7
_chemical_formula_sum   'Zn4 Fe12 O28'
_cell_volume   563.60024151
_cell_formula_units_Z   4
loop_
 _symmetry_equiv_pos_site_id
 _symmetry_equiv_pos_as_xyz
  1  'x, y, z'
loop_
 _atom_site_type_symbol
 _atom_site_label
 _atom_site_symmetry_multiplicity
 _atom_site_fract_x
 _atom_site_fract_y
 _atom_site_fract_z
 _atom_site_occupancy
  Zn  Zn0  1  0.39242400  0.05334700  0.25000000  1
  Zn  Zn1  1  0.89242400  0.44665300  0.75000000  1
  Zn  Zn2  1  0.60757600  0.94665300  0.75000000  1
  Zn  Zn3  1  0.10757600  0.55334700  0.25000000  1
  Fe  Fe4  1  0.70782400  0.68446000  0.96947100  1
  Fe  Fe5  1  0.20782400  0.81554000  0.03052900  1
  Fe  Fe6  1  0.29217600  0.31554000  0.46947100  1
  Fe  Fe7  1  0.79217600  0.18446000  0.53052900  1
  Fe  Fe8  1  0.70591100  0.76810100  0.25000000  1
  Fe  Fe9  1  0.20591100  0.73189900  0.75000000  1
  Fe  Fe10  1  0.29408900  0.23189900  0.75000000  1
  Fe  Fe11  1  0.79408900  0.26810100  0.25000000  1
  Fe  Fe12  1  0.20782400  0.81554000  0.46947100  1
  Fe  Fe13  1  0.70782400  0.68446000  0.53052900  1
  Fe  Fe14  1  0.79217600  0.18446000  0.96947100  1
  Fe  Fe15  1  0.29217600  0.31554000  0.03052900  1
  O  O16  1  0.05077700  0.29141900  0.87638400  1
  O  O17  1  0.55077700  0.20858100  0.12361600  1
  O  O18  1  0.94922300  0.70858100  0.37638400  1
  O  O19  1  0.44922300  0.79141900  0.62361600  1
  O  O20  1  0.94922300  0.70858100  0.12361600  1
  O  O21  1  0.44922300  0.79141900  0.87638400  1
  O  O22  1  0.05077700  0.29141900  0.62361600  1
  O  O23  1  0.55077700  0.20858100  0.37638400  1
  O  O24  1  0.52340900  0.27945200  0.88486300  1
  O  O25  1  0.02340900  0.22054800  0.11513700  1
  O  O26  1  0.47659100  0.72054800  0.38486300  1
  O  O27  1  0.97659100  0.77945200  0.61513700  1
  O  O28  1  0.47659100  0.72054800  0.11513700  1
  O  O29  1  0.97659100  0.77945200  0.88486300  1
  O  O30  1  0.52340900  0.27945200  0.61513700  1
  O  O31  1  0.02340900  0.22054800  0.38486300  1
  O  O32  1  0.80848800  0.44603600  0.25000000  1
  O  O33  1  0.30848800  0.05396400  0.75000000  1
  O  O34  1  0.19151200  0.55396400  0.75000000  1
  O  O35  1  0.69151200  0.94603600  0.25000000  1
  O  O36  1  0.77830400  0.01943400  0.59920500  1
  O  O37  1  0.27830400  0.48056600  0.40079500  1
  O  O38  1  0.22169600  0.98056600  0.09920500  1
  O  O39  1  0.72169600  0.51943400  0.90079500  1
  O  O40  1  0.22169600  0.98056600  0.40079500  1
  O  O41  1  0.72169600  0.51943400  0.59920500  1
  O  O42  1  0.77830400  0.01943400  0.90079500  1
  O  O43  1  0.27830400  0.48056600  0.09920500  1
