# generated using pymatgen
data_CaP2(WO5)2
_symmetry_space_group_name_H-M   'P 1'
_cell_length_a   10.17744512
_cell_length_b   8.93182692
_cell_length_c   7.26197280
_cell_angle_alpha   77.11260130
_cell_angle_beta   58.81536799
_cell_angle_gamma   44.07203071
_symmetry_Int_Tables_number   1
_chemical_formula_structural   CaP2(WO5)2
_chemical_formula_sum   'Ca2 P4 W4 O20'
_cell_volume   380.30671085
_cell_formula_units_Z   2
loop_
 _symmetry_equiv_pos_site_id
 _symmetry_equiv_pos_as_xyz
  1  'x, y, z'
loop_
 _atom_site_type_symbol
 _atom_site_label
 _atom_site_symmetry_multiplicity
 _atom_site_fract_x
 _atom_site_fract_y
 _atom_site_fract_z
 _atom_site_occupancy
  Ca  Ca0  1  0.25000000  0.25000000  0.25000000  1
  Ca  Ca1  1  0.00000000  0.00000000  0.00000000  1
  P  P2  1  0.79537800  0.79537800  0.20462200  1
  P  P3  1  0.45462100  0.45462100  0.04537900  1
  P  P4  1  0.20462200  0.20462100  0.79537800  1
  P  P5  1  0.04537800  0.04537800  0.45462200  1
  W  W6  1  0.62500000  0.62500000  0.12500000  1
  W  W7  1  0.62500000  0.12500000  0.62500000  1
  W  W8  1  0.62500000  0.62500000  0.62500000  1
  W  W9  1  0.12500000  0.62500000  0.62500000  1
  O  O10  1  0.97233700  0.32101900  0.99464800  1
  O  O11  1  0.41461000  0.41461000  0.58539000  1
  O  O12  1  0.91542100  0.06166200  0.38264500  1
  O  O13  1  0.25535200  0.53800400  0.27766300  1
  O  O14  1  0.32101900  0.97233700  0.71199600  1
  O  O15  1  0.33457900  0.18833800  0.86735500  1
  O  O16  1  0.83539000  0.83539000  0.66461000  1
  O  O17  1  0.58539000  0.58539000  0.41461000  1
  O  O18  1  0.66461000  0.66461000  0.83539000  1
  O  O19  1  0.27766300  0.92898100  0.25535200  1
  O  O20  1  0.71199600  0.99464800  0.32101900  1
  O  O21  1  0.53800400  0.25535200  0.92898100  1
  O  O22  1  0.99464800  0.71199600  0.97233700  1
  O  O23  1  0.06166200  0.91542100  0.64027200  1
  O  O24  1  0.60972800  0.86735500  0.18833800  1
  O  O25  1  0.38264500  0.64027200  0.91542100  1
  O  O26  1  0.86735500  0.60972800  0.33457900  1
  O  O27  1  0.64027200  0.38264500  0.06166200  1
  O  O28  1  0.92898100  0.27766300  0.53800400  1
  O  O29  1  0.18833800  0.33457900  0.60972800  1
