# generated using pymatgen
data_Al4Cu13Si2(SbO14)2
_symmetry_space_group_name_H-M   'P 1'
_cell_length_a   11.81623633
_cell_length_b   11.81623633
_cell_length_c   8.55388429
_cell_angle_alpha   87.66156110
_cell_angle_beta   87.66156110
_cell_angle_gamma   153.20373840
_symmetry_Int_Tables_number   1
_chemical_formula_structural   Al4Cu13Si2(SbO14)2
_chemical_formula_sum   'Al4 Cu13 Si2 Sb2 O28'
_cell_volume   530.01070035
_cell_formula_units_Z   1
loop_
 _symmetry_equiv_pos_site_id
 _symmetry_equiv_pos_as_xyz
  1  'x, y, z'
loop_
 _atom_site_type_symbol
 _atom_site_label
 _atom_site_symmetry_multiplicity
 _atom_site_fract_x
 _atom_site_fract_y
 _atom_site_fract_z
 _atom_site_occupancy
  Al  Al0  1  0.49943400  0.93097000  0.33208500  1
  Al  Al1  1  0.06903000  0.50056600  0.66791500  1
  Al  Al2  1  0.50056600  0.06903000  0.66791500  1
  Al  Al3  1  0.93097000  0.49943400  0.33208500  1
  Cu  Cu4  1  0.36491500  0.08001500  0.36036500  1
  Cu  Cu5  1  0.20037900  0.34203900  0.64504000  1
  Cu  Cu6  1  0.91998500  0.63508500  0.63963500  1
  Cu  Cu7  1  0.63508500  0.91998500  0.63963500  1
  Cu  Cu8  1  0.79962100  0.65796100  0.35496000  1
  Cu  Cu9  1  0.28939200  0.71060800  0.00000000  1
  Cu  Cu10  1  0.65796100  0.79962100  0.35496000  1
  Cu  Cu11  1  0.00000000  0.00000000  0.00000000  1
  Cu  Cu12  1  0.42610200  0.57389800  0.00000000  1
  Cu  Cu13  1  0.34203900  0.20037900  0.64504000  1
  Cu  Cu14  1  0.08001500  0.36491500  0.36036500  1
  Cu  Cu15  1  0.57389800  0.42610200  0.00000000  1
  Cu  Cu16  1  0.71060800  0.28939200  0.00000000  1
  Si  Si17  1  0.77202100  0.77202100  0.68564800  1
  Si  Si18  1  0.22797900  0.22797900  0.31435200  1
  Sb  Sb19  1  0.85840400  0.14159600  0.00000000  1
  Sb  Sb20  1  0.14159600  0.85840400  0.00000000  1
  O  O21  1  0.02710700  0.32786700  0.59603700  1
  O  O22  1  0.38389800  0.83575200  0.63359900  1
  O  O23  1  0.07511800  0.07511800  0.64852100  1
  O  O24  1  0.69567800  0.69567800  0.88349700  1
  O  O25  1  0.61610200  0.16424800  0.36640100  1
  O  O26  1  0.97289300  0.67213300  0.40396300  1
  O  O27  1  0.41439700  0.00623200  0.88196600  1
  O  O28  1  0.58560300  0.99376800  0.11803400  1
  O  O29  1  0.30432200  0.30432200  0.11650300  1
  O  O30  1  0.72116200  0.87368800  0.11943100  1
  O  O31  1  0.59961200  0.72078900  0.61358500  1
  O  O32  1  0.67213300  0.97289300  0.40396300  1
  O  O33  1  0.99376800  0.58560300  0.11803400  1
  O  O34  1  0.12631200  0.27883800  0.88056900  1
  O  O35  1  0.27921100  0.40038800  0.38641500  1
  O  O36  1  0.92488200  0.92488200  0.35147900  1
  O  O37  1  0.87368800  0.72116200  0.11943100  1
  O  O38  1  0.27883800  0.12631200  0.88056900  1
  O  O39  1  0.00623200  0.41439700  0.88196600  1
  O  O40  1  0.58284700  0.86737800  0.87065600  1
  O  O41  1  0.41715300  0.13262200  0.12934400  1
  O  O42  1  0.72078900  0.59961200  0.61358500  1
  O  O43  1  0.86737800  0.58284700  0.87065600  1
  O  O44  1  0.83575200  0.38389800  0.63359900  1
  O  O45  1  0.40038800  0.27921100  0.38641500  1
  O  O46  1  0.13262200  0.41715300  0.12934400  1
  O  O47  1  0.32786700  0.02710700  0.59603700  1
  O  O48  1  0.16424800  0.61610200  0.36640100  1
