# generated using pymatgen
data_MgV2(PO5)2
_symmetry_space_group_name_H-M   'P 1'
_cell_length_a   9.85348129
_cell_length_b   8.82526478
_cell_length_c   6.72799012
_cell_angle_alpha   77.32336782
_cell_angle_beta   60.90529690
_cell_angle_gamma   41.77133528
_symmetry_Int_Tables_number   1
_chemical_formula_structural   MgV2(PO5)2
_chemical_formula_sum   'Mg2 V4 P4 O20'
_cell_volume   330.09936451
_cell_formula_units_Z   2
loop_
 _symmetry_equiv_pos_site_id
 _symmetry_equiv_pos_as_xyz
  1  'x, y, z'
loop_
 _atom_site_type_symbol
 _atom_site_label
 _atom_site_symmetry_multiplicity
 _atom_site_fract_x
 _atom_site_fract_y
 _atom_site_fract_z
 _atom_site_occupancy
  Mg  Mg0  1  0.99786700  0.50213300  0.50213300  1
  Mg  Mg1  1  0.74786700  0.25213300  0.25213300  1
  V  V2  1  0.39031500  0.35010700  0.87757500  1
  V  V3  1  0.38200300  0.87757500  0.35010700  1
  V  V4  1  0.89989300  0.85968500  0.86799700  1
  V  V5  1  0.37242500  0.86799700  0.85968500  1
  P  P6  1  0.96228200  0.45336500  0.03716300  1
  P  P7  1  0.79663500  0.28771800  0.70281000  1
  P  P8  1  0.54719000  0.03716300  0.45336500  1
  P  P9  1  0.21283700  0.70281000  0.28771800  1
  O  O10  1  0.44699600  0.24980900  0.58301100  1
  O  O11  1  0.33750000  0.82766200  0.65761400  1
  O  O12  1  0.41224200  0.61761900  0.30745700  1
  O  O13  1  0.66698900  0.52981700  0.80300400  1
  O  O14  1  0.75760800  0.94752500  0.21522100  1
  O  O15  1  0.35028900  0.12268100  0.42685700  1
  O  O16  1  0.42233800  0.91250000  0.07277600  1
  O  O17  1  0.17722400  0.65761400  0.82766200  1
  O  O18  1  0.59238600  0.07277600  0.91250000  1
  O  O19  1  0.30247500  0.49239200  0.17035300  1
  O  O20  1  0.72018300  0.58301100  0.24980900  1
  O  O21  1  0.03477900  0.17035300  0.49239200  1
  O  O22  1  0.07964700  0.21522100  0.94752500  1
  O  O23  1  0.12731900  0.89971100  0.14982700  1
  O  O24  1  0.10017300  0.42685700  0.12268100  1
  O  O25  1  0.82314300  0.14982700  0.89971100  1
  O  O26  1  0.94254300  0.58731800  0.83775800  1
  O  O27  1  0.66268200  0.30745700  0.61761900  1
  O  O28  1  0.00019100  0.80300400  0.52981700  1
  O  O29  1  0.63238100  0.83775800  0.58731800  1
