# generated using pymatgen
data_CaTiAg(PO4)3
_symmetry_space_group_name_H-M   'P 1'
_cell_length_a   8.90133471
_cell_length_b   8.90133418
_cell_length_c   8.90133497
_cell_angle_alpha   59.63220990
_cell_angle_beta   59.63221420
_cell_angle_gamma   59.63221405
_symmetry_Int_Tables_number   1
_chemical_formula_structural   CaTiAg(PO4)3
_chemical_formula_sum   'Ca2 Ti2 Ag2 P6 O24'
_cell_volume   494.54454465
_cell_formula_units_Z   2
loop_
 _symmetry_equiv_pos_site_id
 _symmetry_equiv_pos_as_xyz
  1  'x, y, z'
loop_
 _atom_site_type_symbol
 _atom_site_label
 _atom_site_symmetry_multiplicity
 _atom_site_fract_x
 _atom_site_fract_y
 _atom_site_fract_z
 _atom_site_occupancy
  Ca  Ca0  1  0.99508600  0.99508600  0.99508600  1
  Ca  Ca1  1  0.49508600  0.49508600  0.49508600  1
  Ti  Ti2  1  0.14772400  0.14772400  0.14772400  1
  Ti  Ti3  1  0.64772400  0.64772400  0.64772400  1
  Ag  Ag4  1  0.34940900  0.34940900  0.34940900  1
  Ag  Ag5  1  0.84940900  0.84940900  0.84940900  1
  P  P6  1  0.04084300  0.45054500  0.75824500  1
  P  P7  1  0.45054500  0.75824500  0.04084300  1
  P  P8  1  0.75824500  0.04084300  0.45054500  1
  P  P9  1  0.25824500  0.95054500  0.54084300  1
  P  P10  1  0.54084300  0.25824500  0.95054500  1
  P  P11  1  0.95054500  0.54084300  0.25824500  1
  O  O12  1  0.10258400  0.53412700  0.29672300  1
  O  O13  1  0.29672300  0.10258400  0.53412700  1
  O  O14  1  0.04712300  0.26829200  0.92884900  1
  O  O15  1  0.53412700  0.29672300  0.10258400  1
  O  O16  1  0.03412700  0.60258400  0.79672300  1
  O  O17  1  0.22609300  0.42461200  0.59736800  1
  O  O18  1  0.26829200  0.92884900  0.04712300  1
  O  O19  1  0.42461200  0.59736800  0.22609300  1
  O  O20  1  0.20949000  0.00311700  0.36976700  1
  O  O21  1  0.59736800  0.22609300  0.42461200  1
  O  O22  1  0.09736800  0.92461200  0.72609300  1
  O  O23  1  0.36976700  0.20949000  0.00311700  1
  O  O24  1  0.60258400  0.79672300  0.03412700  1
  O  O25  1  0.92884900  0.04712300  0.26829200  1
  O  O26  1  0.42884900  0.76829200  0.54712300  1
  O  O27  1  0.79672300  0.03412700  0.60258400  1
  O  O28  1  0.54712300  0.42884900  0.76829200  1
  O  O29  1  0.72609300  0.09736800  0.92461200  1
  O  O30  1  0.76829200  0.54712300  0.42884900  1
  O  O31  1  0.00311700  0.36976700  0.20949000  1
  O  O32  1  0.50311700  0.70949000  0.86976700  1
  O  O33  1  0.92461200  0.72609300  0.09736800  1
  O  O34  1  0.70949000  0.86976700  0.50311700  1
  O  O35  1  0.86976700  0.50311700  0.70949000  1
