# generated using pymatgen
data_CaMn3O7
_symmetry_space_group_name_H-M   'P 1'
_cell_length_a   5.43735000
_cell_length_b   10.43496700
_cell_length_c   10.58881600
_cell_angle_alpha   90.00000000
_cell_angle_beta   90.00000000
_cell_angle_gamma   90.00000000
_symmetry_Int_Tables_number   1
_chemical_formula_structural   CaMn3O7
_chemical_formula_sum   'Ca4 Mn12 O28'
_cell_volume   600.79425472
_cell_formula_units_Z   4
loop_
 _symmetry_equiv_pos_site_id
 _symmetry_equiv_pos_as_xyz
  1  'x, y, z'
loop_
 _atom_site_type_symbol
 _atom_site_label
 _atom_site_symmetry_multiplicity
 _atom_site_fract_x
 _atom_site_fract_y
 _atom_site_fract_z
 _atom_site_occupancy
  Ca  Ca0  1  0.31864500  0.05618500  0.25000000  1
  Ca  Ca1  1  0.81864500  0.44381500  0.75000000  1
  Ca  Ca2  1  0.68135500  0.94381500  0.75000000  1
  Ca  Ca3  1  0.18135500  0.55618500  0.25000000  1
  Mn  Mn4  1  0.69763600  0.70565700  0.97532200  1
  Mn  Mn5  1  0.19763600  0.79434300  0.02467800  1
  Mn  Mn6  1  0.30236400  0.29434300  0.47532200  1
  Mn  Mn7  1  0.80236400  0.20565600  0.52467800  1
  Mn  Mn8  1  0.69357700  0.77180500  0.25000000  1
  Mn  Mn9  1  0.19357700  0.72819500  0.75000000  1
  Mn  Mn10  1  0.30642300  0.22819500  0.75000000  1
  Mn  Mn11  1  0.80642300  0.27180500  0.25000000  1
  Mn  Mn12  1  0.19763600  0.79434300  0.47532200  1
  Mn  Mn13  1  0.69763600  0.70565700  0.52467800  1
  Mn  Mn14  1  0.80236400  0.20565600  0.97532200  1
  Mn  Mn15  1  0.30236400  0.29434300  0.02467800  1
  O  O16  1  0.06199500  0.27848300  0.88022300  1
  O  O17  1  0.56199500  0.22151700  0.11977700  1
  O  O18  1  0.93800500  0.72151700  0.38022300  1
  O  O19  1  0.43800500  0.77848300  0.61977700  1
  O  O20  1  0.93800500  0.72151700  0.11977700  1
  O  O21  1  0.43800500  0.77848300  0.88022300  1
  O  O22  1  0.06199500  0.27848300  0.61977700  1
  O  O23  1  0.56199500  0.22151700  0.38022300  1
  O  O24  1  0.53895200  0.28129900  0.88106800  1
  O  O25  1  0.03895200  0.21870100  0.11893200  1
  O  O26  1  0.46104800  0.71870100  0.38106800  1
  O  O27  1  0.96104800  0.78129900  0.61893200  1
  O  O28  1  0.46104800  0.71870100  0.11893200  1
  O  O29  1  0.96104800  0.78129900  0.88106800  1
  O  O30  1  0.53895200  0.28129900  0.61893200  1
  O  O31  1  0.03895200  0.21870100  0.38106800  1
  O  O32  1  0.82290900  0.43557800  0.25000000  1
  O  O33  1  0.32290900  0.06442200  0.75000000  1
  O  O34  1  0.17709100  0.56442200  0.75000000  1
  O  O35  1  0.67709100  0.93557800  0.25000000  1
  O  O36  1  0.78409100  0.05077900  0.57237700  1
  O  O37  1  0.28409100  0.44922100  0.42762300  1
  O  O38  1  0.21590900  0.94922100  0.07237700  1
  O  O39  1  0.71590900  0.55077900  0.92762300  1
  O  O40  1  0.21590900  0.94922100  0.42762300  1
  O  O41  1  0.71590900  0.55077900  0.57237700  1
  O  O42  1  0.78409100  0.05077900  0.92762300  1
  O  O43  1  0.28409100  0.44922100  0.07237700  1
