# generated using pymatgen
data_LaMgTaCrO6
_symmetry_space_group_name_H-M   'P 1'
_cell_length_a   5.53781600
_cell_length_b   5.34092800
_cell_length_c   10.07655280
_cell_angle_alpha   58.50299674
_cell_angle_beta   90.00000000
_cell_angle_gamma   90.00000000
_symmetry_Int_Tables_number   1
_chemical_formula_structural   LaMgTaCrO6
_chemical_formula_sum   'La2 Mg2 Ta2 Cr2 O12'
_cell_volume   254.12473314
_cell_formula_units_Z   2
loop_
 _symmetry_equiv_pos_site_id
 _symmetry_equiv_pos_as_xyz
  1  'x, y, z'
loop_
 _atom_site_type_symbol
 _atom_site_label
 _atom_site_symmetry_multiplicity
 _atom_site_fract_x
 _atom_site_fract_y
 _atom_site_fract_z
 _atom_site_occupancy
  La  La0  1  0.29704200  0.77586600  0.24504900  1
  La  La1  1  0.70295800  0.77586600  0.74504900  1
  Mg  Mg2  1  0.80275900  0.21242100  0.26045800  1
  Mg  Mg3  1  0.19724100  0.21242100  0.76045800  1
  Ta  Ta4  1  0.24316800  0.50161700  0.99750700  1
  Ta  Ta5  1  0.75683200  0.50161700  0.49750700  1
  Cr  Cr6  1  0.25475600  0.01380800  0.49464000  1
  Cr  Cr7  1  0.74524400  0.01380800  0.99464000  1
  O  O8  1  0.83007500  0.39039500  0.71628700  1
  O  O9  1  0.03511300  0.15757600  0.05506700  1
  O  O10  1  0.02703500  0.79712000  0.41909400  1
  O  O11  1  0.54674800  0.23926200  0.08211300  1
  O  O12  1  0.55788400  0.86233700  0.43874700  1
  O  O13  1  0.29828800  0.54959400  0.79103900  1
  O  O14  1  0.16992500  0.39039500  0.21628700  1
  O  O15  1  0.96488700  0.15757600  0.55506700  1
  O  O16  1  0.97296500  0.79712000  0.91909400  1
  O  O17  1  0.45325200  0.23926200  0.58211300  1
  O  O18  1  0.44211600  0.86233700  0.93874700  1
  O  O19  1  0.70171200  0.54959400  0.29103900  1
