# generated using pymatgen
data_BaCa(CoO2)4
_symmetry_space_group_name_H-M   'P 1'
_cell_length_a   5.41940886
_cell_length_b   5.41940886
_cell_length_c   7.83758000
_cell_angle_alpha   90.00000000
_cell_angle_beta   90.00000000
_cell_angle_gamma   120.00001056
_symmetry_Int_Tables_number   1
_chemical_formula_structural   BaCa(CoO2)4
_chemical_formula_sum   'Ba1 Ca1 Co4 O8'
_cell_volume   199.35007670
_cell_formula_units_Z   1
loop_
 _symmetry_equiv_pos_site_id
 _symmetry_equiv_pos_as_xyz
  1  'x, y, z'
loop_
 _atom_site_type_symbol
 _atom_site_label
 _atom_site_symmetry_multiplicity
 _atom_site_fract_x
 _atom_site_fract_y
 _atom_site_fract_z
 _atom_site_occupancy
  Ba  Ba0  1  0.00000000  0.00000000  0.00000000  1
  Ca  Ca1  1  0.00000000  0.00000000  0.50000000  1
  Co  Co2  1  0.33333300  0.66666700  0.76510300  1
  Co  Co3  1  0.66666700  0.33333300  0.76510300  1
  Co  Co4  1  0.33333300  0.66666700  0.23489700  1
  Co  Co5  1  0.66666700  0.33333300  0.23489700  1
  O  O6  1  0.33287700  0.33287700  0.69910700  1
  O  O7  1  0.66712300  0.00000000  0.69910700  1
  O  O8  1  0.00000000  0.66712300  0.69910700  1
  O  O9  1  0.66712300  0.66712300  0.30089300  1
  O  O10  1  0.00000000  0.33287700  0.30089300  1
  O  O11  1  0.33287700  0.00000000  0.30089300  1
  O  O12  1  0.33333300  0.66666700  0.00000000  1
  O  O13  1  0.66666700  0.33333300  0.00000000  1
