# generated using pymatgen
data_BiPO4
_symmetry_space_group_name_H-M   'P 1'
_cell_length_a   9.61395399
_cell_length_b   9.61395399
_cell_length_c   18.18724894
_cell_angle_alpha   67.19793767
_cell_angle_beta   67.19793767
_cell_angle_gamma   34.58057087
_symmetry_Int_Tables_number   1
_chemical_formula_structural   BiPO4
_chemical_formula_sum   'Bi8 P8 O32'
_cell_volume   871.95762772
_cell_formula_units_Z   8
loop_
 _symmetry_equiv_pos_site_id
 _symmetry_equiv_pos_as_xyz
  1  'x, y, z'
loop_
 _atom_site_type_symbol
 _atom_site_label
 _atom_site_symmetry_multiplicity
 _atom_site_fract_x
 _atom_site_fract_y
 _atom_site_fract_z
 _atom_site_occupancy
  Bi  Bi0  1  0.60142600  0.70698500  0.99816300  1
  Bi  Bi1  1  0.29301500  0.39857400  0.50183700  1
  Bi  Bi2  1  0.39857400  0.29301500  0.00183700  1
  Bi  Bi3  1  0.00000000  0.00000000  0.00000000  1
  Bi  Bi4  1  0.70698500  0.60142600  0.49816300  1
  Bi  Bi5  1  0.68138600  0.31861400  0.75000000  1
  Bi  Bi6  1  0.31861400  0.68138600  0.25000000  1
  Bi  Bi7  1  0.00000000  0.00000000  0.50000000  1
  P  P8  1  0.41759100  0.45021900  0.12323500  1
  P  P9  1  0.83657200  0.88273800  0.40101600  1
  P  P10  1  0.58240900  0.54978100  0.87676500  1
  P  P11  1  0.88273800  0.83657200  0.90101600  1
  P  P12  1  0.45021900  0.41759100  0.62323500  1
  P  P13  1  0.54978100  0.58240900  0.37676500  1
  P  P14  1  0.16342800  0.11726200  0.59898400  1
  P  P15  1  0.11726200  0.16342800  0.09898400  1
  O  O16  1  0.79085500  0.39143400  0.92768200  1
  O  O17  1  0.36477000  0.05386800  0.08297300  1
  O  O18  1  0.39143400  0.79085500  0.42768200  1
  O  O19  1  0.93976700  0.84066700  0.46786300  1
  O  O20  1  0.36330800  0.80677500  0.90773100  1
  O  O21  1  0.93873600  0.91726500  0.31698400  1
  O  O22  1  0.15933300  0.06023300  0.03213700  1
  O  O23  1  0.10832700  0.55231700  0.91508600  1
  O  O24  1  0.06023300  0.15933300  0.53213700  1
  O  O25  1  0.94613200  0.63523000  0.41702700  1
  O  O26  1  0.51643300  0.43244000  0.89783900  1
  O  O27  1  0.45108900  0.33392100  0.71366200  1
  O  O28  1  0.63523000  0.94613200  0.91702700  1
  O  O29  1  0.55231700  0.10832700  0.41508600  1
  O  O30  1  0.20914500  0.60856600  0.07231800  1
  O  O31  1  0.48356700  0.56756000  0.10216100  1
  O  O32  1  0.33392100  0.45108900  0.21366200  1
  O  O33  1  0.84066700  0.93976700  0.96786300  1
  O  O34  1  0.43244000  0.51643300  0.39783900  1
  O  O35  1  0.54891100  0.66607900  0.28633800  1
  O  O36  1  0.44768300  0.89167300  0.58491400  1
  O  O37  1  0.80677500  0.36330800  0.40773100  1
  O  O38  1  0.89167300  0.44768300  0.08491400  1
  O  O39  1  0.91726500  0.93873600  0.81698400  1
  O  O40  1  0.05386800  0.36477000  0.58297300  1
  O  O41  1  0.60856600  0.20914500  0.57231800  1
  O  O42  1  0.66607900  0.54891100  0.78633800  1
  O  O43  1  0.19322500  0.63669200  0.59226900  1
  O  O44  1  0.63669200  0.19322500  0.09226900  1
  O  O45  1  0.08273500  0.06126400  0.18301600  1
  O  O46  1  0.06126400  0.08273500  0.68301600  1
  O  O47  1  0.56756000  0.48356700  0.60216100  1
