# generated using pymatgen
data_Mg(SbO2)2
_symmetry_space_group_name_H-M   'P 1'
_cell_length_a   6.36083400
_cell_length_b   6.94135663
_cell_length_c   17.00794566
_cell_angle_alpha   92.01463682
_cell_angle_beta   89.33776682
_cell_angle_gamma   116.49297991
_symmetry_Int_Tables_number   1
_chemical_formula_structural   Mg(SbO2)2
_chemical_formula_sum   'Mg6 Sb12 O24'
_cell_volume   671.66828575
_cell_formula_units_Z   6
loop_
 _symmetry_equiv_pos_site_id
 _symmetry_equiv_pos_as_xyz
  1  'x, y, z'
loop_
 _atom_site_type_symbol
 _atom_site_label
 _atom_site_symmetry_multiplicity
 _atom_site_fract_x
 _atom_site_fract_y
 _atom_site_fract_z
 _atom_site_occupancy
  Mg  Mg0  1  0.81166400  0.62064200  0.03896600  1
  Mg  Mg1  1  0.48205400  0.02668300  0.37929300  1
  Mg  Mg2  1  0.20460200  0.39678800  0.34108800  1
  Mg  Mg3  1  0.19572400  0.40408200  0.70590300  1
  Mg  Mg4  1  0.48366300  0.95192400  0.99061200  1
  Mg  Mg5  1  0.56333500  0.98607900  0.63883500  1
  Sb  Sb6  1  0.33122700  0.66957600  0.12657500  1
  Sb  Sb7  1  0.35128300  0.18465600  0.18879600  1
  Sb  Sb8  1  0.94499500  0.96698300  0.44296400  1
  Sb  Sb9  1  0.83208800  0.18227700  0.19372100  1
  Sb  Sb10  1  0.08546900  0.58023100  0.50374000  1
  Sb  Sb11  1  0.96922200  0.84676500  0.65907200  1
  Sb  Sb12  1  0.82355000  0.65634400  0.24395600  1
  Sb  Sb13  1  0.66610400  0.29526100  0.85425300  1
  Sb  Sb14  1  0.52541000  0.43073900  0.53740500  1
  Sb  Sb15  1  0.63179000  0.75071400  0.81753600  1
  Sb  Sb16  1  0.15310100  0.78363200  0.82269300  1
  Sb  Sb17  1  0.17579700  0.33097800  0.96500400  1
  O  O18  1  0.70803000  0.41621400  0.13464600  1
  O  O19  1  0.53217200  0.07825800  0.26488400  1
  O  O20  1  0.60065000  0.76624700  0.05248800  1
  O  O21  1  0.16453000  0.75751700  0.04839600  1
  O  O22  1  0.31685200  0.68245100  0.41789400  1
  O  O23  1  0.47589700  0.45928500  0.26063400  1
  O  O24  1  0.22423300  0.43873900  0.57709400  1
  O  O25  1  0.97449300  0.45763400  0.26365700  1
  O  O26  1  0.18131500  0.35169900  0.08833000  1
  O  O27  1  0.27520000  0.16841600  0.41306000  1
  O  O28  1  0.82203600  0.16721700  0.41181300  1
  O  O29  1  0.07032400  0.13637700  0.26296100  1
  O  O30  1  0.93711700  0.11147600  0.67493000  1
  O  O31  1  0.22041600  0.85173900  0.57868500  1
  O  O32  1  0.66950200  0.73799800  0.60040300  1
  O  O33  1  0.78059500  0.57743600  0.91466900  1
  O  O34  1  0.84731600  0.73220100  0.36105500  1
  O  O35  1  0.99197300  0.47125300  0.79009600  1
  O  O36  1  0.46178300  0.44333500  0.78636300  1
  O  O37  1  0.55453700  0.26633200  0.62239100  1
  O  O38  1  0.81832100  0.16273700  0.94665500  1
  O  O39  1  0.34803300  0.14924400  0.94890800  1
  O  O40  1  0.40071500  0.79232100  0.73623400  1
  O  O41  1  0.39288300  0.75952200  0.89334200  1
