# generated using pymatgen
data_ZnCu2P2O9
_symmetry_space_group_name_H-M   'P 1'
_cell_length_a   6.12679600
_cell_length_b   7.08626100
_cell_length_c   14.76007700
_cell_angle_alpha   90.00000000
_cell_angle_beta   90.00000000
_cell_angle_gamma   90.00000000
_symmetry_Int_Tables_number   1
_chemical_formula_structural   ZnCu2P2O9
_chemical_formula_sum   'Zn4 Cu8 P8 O36'
_cell_volume   640.82461815
_cell_formula_units_Z   4
loop_
 _symmetry_equiv_pos_site_id
 _symmetry_equiv_pos_as_xyz
  1  'x, y, z'
loop_
 _atom_site_type_symbol
 _atom_site_label
 _atom_site_symmetry_multiplicity
 _atom_site_fract_x
 _atom_site_fract_y
 _atom_site_fract_z
 _atom_site_occupancy
  Zn  Zn0  1  0.25000000  0.89874600  0.22147100  1
  Zn  Zn1  1  0.25000000  0.60125400  0.72147100  1
  Zn  Zn2  1  0.75000000  0.39874600  0.27852900  1
  Zn  Zn3  1  0.75000000  0.10125400  0.77852900  1
  Cu  Cu4  1  0.25000000  0.35496800  0.11936300  1
  Cu  Cu5  1  0.75000000  0.64503200  0.88063700  1
  Cu  Cu6  1  0.75000000  0.85496800  0.38063700  1
  Cu  Cu7  1  0.25000000  0.14503200  0.61936300  1
  Cu  Cu8  1  0.50000000  0.00000000  0.00000000  1
  Cu  Cu9  1  0.50000000  0.50000000  0.50000000  1
  Cu  Cu10  1  0.00000000  0.50000000  0.50000000  1
  Cu  Cu11  1  0.00000000  0.00000000  0.00000000  1
  P  P12  1  0.75000000  0.36769700  0.07029300  1
  P  P13  1  0.25000000  0.63230300  0.92970700  1
  P  P14  1  0.25000000  0.86769700  0.42970700  1
  P  P15  1  0.75000000  0.13230300  0.57029300  1
  P  P16  1  0.25000000  0.38078600  0.29697800  1
  P  P17  1  0.25000000  0.11921400  0.79697800  1
  P  P18  1  0.75000000  0.88078600  0.20302200  1
  P  P19  1  0.75000000  0.61921400  0.70302200  1
  O  O20  1  0.96351400  0.61432800  0.64643900  1
  O  O21  1  0.46351400  0.38567200  0.35356100  1
  O  O22  1  0.03648600  0.11432800  0.85356100  1
  O  O23  1  0.53648600  0.88567200  0.14643900  1
  O  O24  1  0.03648600  0.38567200  0.35356100  1
  O  O25  1  0.53648600  0.61432800  0.64643900  1
  O  O26  1  0.96351400  0.88567200  0.14643900  1
  O  O27  1  0.46351400  0.11432800  0.85356100  1
  O  O28  1  0.75000000  0.32808000  0.52112800  1
  O  O29  1  0.25000000  0.67192000  0.47887200  1
  O  O30  1  0.25000000  0.82808000  0.97887200  1
  O  O31  1  0.75000000  0.17192000  0.02112800  1
  O  O32  1  0.25000000  0.12770900  0.04713200  1
  O  O33  1  0.75000000  0.87229100  0.95286800  1
  O  O34  1  0.75000000  0.62770900  0.45286800  1
  O  O35  1  0.25000000  0.37229100  0.54713200  1
  O  O36  1  0.25000000  0.19730700  0.23663600  1
  O  O37  1  0.75000000  0.80269300  0.76336400  1
  O  O38  1  0.75000000  0.69730700  0.26336400  1
  O  O39  1  0.25000000  0.30269300  0.73663600  1
  O  O40  1  0.56109700  0.12772800  0.64029500  1
  O  O41  1  0.06109700  0.87227200  0.35970500  1
  O  O42  1  0.43890300  0.62772800  0.85970500  1
  O  O43  1  0.93890300  0.37227200  0.14029500  1
  O  O44  1  0.43890300  0.87227200  0.35970500  1
  O  O45  1  0.93890300  0.12772800  0.64029500  1
  O  O46  1  0.56109700  0.37227200  0.14029500  1
  O  O47  1  0.06109700  0.62772800  0.85970500  1
  O  O48  1  0.25000000  0.47388700  0.99743000  1
  O  O49  1  0.75000000  0.04583900  0.27420600  1
  O  O50  1  0.75000000  0.45416100  0.77420600  1
  O  O51  1  0.25000000  0.54583900  0.22579400  1
  O  O52  1  0.25000000  0.02611300  0.49743000  1
  O  O53  1  0.75000000  0.97388700  0.50257000  1
  O  O54  1  0.75000000  0.52611300  0.00257000  1
  O  O55  1  0.25000000  0.95416100  0.72579400  1
