# generated using pymatgen
data_CaNiBiO5
_symmetry_space_group_name_H-M   'P 1'
_cell_length_a   10.63317800
_cell_length_b   5.84738900
_cell_length_c   8.32152248
_cell_angle_alpha   72.79780301
_cell_angle_beta   90.00000000
_cell_angle_gamma   90.00000000
_symmetry_Int_Tables_number   1
_chemical_formula_structural   CaNiBiO5
_chemical_formula_sum   'Ca4 Ni4 Bi4 O20'
_cell_volume   494.25679251
_cell_formula_units_Z   4
loop_
 _symmetry_equiv_pos_site_id
 _symmetry_equiv_pos_as_xyz
  1  'x, y, z'
loop_
 _atom_site_type_symbol
 _atom_site_label
 _atom_site_symmetry_multiplicity
 _atom_site_fract_x
 _atom_site_fract_y
 _atom_site_fract_z
 _atom_site_occupancy
  Ca  Ca0  1  0.09360400  0.54114300  0.80658600  1
  Ca  Ca1  1  0.90639600  0.45885700  0.19341400  1
  Ca  Ca2  1  0.59360400  0.45885700  0.69341400  1
  Ca  Ca3  1  0.40639600  0.54114300  0.30658600  1
  Ni  Ni4  1  0.36850600  0.14409700  0.04508100  1
  Ni  Ni5  1  0.63149400  0.85590300  0.95491900  1
  Ni  Ni6  1  0.86850600  0.85590300  0.45491900  1
  Ni  Ni7  1  0.13149400  0.14409700  0.54508100  1
  Bi  Bi8  1  0.89977700  0.00698200  0.84338600  1
  Bi  Bi9  1  0.10022300  0.99301800  0.15661400  1
  Bi  Bi10  1  0.60022300  0.00698200  0.34338600  1
  Bi  Bi11  1  0.39977700  0.99301800  0.65661400  1
  O  O12  1  0.93310800  0.81407000  0.66552900  1
  O  O13  1  0.02472100  0.25933300  0.67736800  1
  O  O14  1  0.78390100  0.14492700  0.33457500  1
  O  O15  1  0.45699500  0.77853600  0.49146000  1
  O  O16  1  0.71414200  0.70524000  0.48307900  1
  O  O17  1  0.78585800  0.70524000  0.98307900  1
  O  O18  1  0.47527900  0.25933300  0.17736800  1
  O  O19  1  0.52472100  0.74066700  0.82263200  1
  O  O20  1  0.54300500  0.22146400  0.50854000  1
  O  O21  1  0.43310800  0.18593000  0.83447100  1
  O  O22  1  0.28585800  0.29476000  0.51692100  1
  O  O23  1  0.06689200  0.18593000  0.33447100  1
  O  O24  1  0.56689200  0.81407000  0.16552900  1
  O  O25  1  0.21414200  0.29476000  0.01692100  1
  O  O26  1  0.95699500  0.22146400  0.00854000  1
  O  O27  1  0.04300500  0.77853600  0.99146000  1
  O  O28  1  0.21609900  0.85507300  0.66542500  1
  O  O29  1  0.97527900  0.74066700  0.32263200  1
  O  O30  1  0.28390100  0.85507300  0.16542500  1
  O  O31  1  0.71609900  0.14492700  0.83457500  1
