# generated using pymatgen
data_Ba2Ti2F11
_symmetry_space_group_name_H-M   'P 1'
_cell_length_a   7.67639518
_cell_length_b   7.67639518
_cell_length_c   14.06670000
_cell_angle_alpha   90.00000000
_cell_angle_beta   90.00000000
_cell_angle_gamma   119.99999294
_symmetry_Int_Tables_number   1
_chemical_formula_structural   Ba2Ti2F11
_chemical_formula_sum   'Ba6 Ti6 F33'
_cell_volume   717.85633318
_cell_formula_units_Z   3
loop_
 _symmetry_equiv_pos_site_id
 _symmetry_equiv_pos_as_xyz
  1  'x, y, z'
loop_
 _atom_site_type_symbol
 _atom_site_label
 _atom_site_symmetry_multiplicity
 _atom_site_fract_x
 _atom_site_fract_y
 _atom_site_fract_z
 _atom_site_occupancy
  Ba  Ba0  1  0.52646900  0.15645800  0.66403200  1
  Ba  Ba1  1  0.13825900  0.42633400  0.81134200  1
  Ba  Ba2  1  0.62998900  0.47353100  0.99736500  1
  Ba  Ba3  1  0.57366600  0.71192500  0.47800900  1
  Ba  Ba4  1  0.28807500  0.86174100  0.14467600  1
  Ba  Ba5  1  0.84354200  0.37001100  0.33069900  1
  Ti  Ti6  1  0.57192600  0.98142200  0.90294700  1
  Ti  Ti7  1  0.84796100  0.79930200  0.73118600  1
  Ti  Ti8  1  0.20069800  0.04865800  0.39785300  1
  Ti  Ti9  1  0.40949600  0.42807400  0.23628100  1
  Ti  Ti10  1  0.95134200  0.15203900  0.06452000  1
  Ti  Ti11  1  0.01857800  0.59050400  0.56961400  1
  F  F12  1  0.66230500  0.06639800  0.04555800  1
  F  F13  1  0.47327600  0.71329600  0.94922500  1
  F  F14  1  0.40409300  0.33769500  0.37889100  1
  F  F15  1  0.13414600  0.49534200  0.47702700  1
  F  F16  1  0.54423700  0.29033900  0.18247800  1
  F  F17  1  0.95157700  0.57957100  0.17596800  1
  F  F18  1  0.50465800  0.63880400  0.14369400  1
  F  F19  1  0.42042900  0.37200600  0.84263500  1
  F  F20  1  0.74610200  0.45576300  0.51581100  1
  F  F21  1  0.23682900  0.29255400  0.09814400  1
  F  F22  1  0.36119600  0.86585400  0.81036000  1
  F  F23  1  0.93360200  0.59590700  0.71222400  1
  F  F24  1  0.37886800  0.03286800  0.96513400  1
  F  F25  1  0.01863200  0.40251300  0.00067900  1
  F  F26  1  0.65400000  0.62113200  0.29846700  1
  F  F27  1  0.28670400  0.75998000  0.61589200  1
  F  F28  1  0.87162600  0.05756400  0.92660600  1
  F  F29  1  0.05572500  0.76317100  0.43147700  1
  F  F30  1  0.95030400  0.03708200  0.40220100  1
  F  F31  1  0.96713200  0.34600000  0.63180100  1
  F  F32  1  0.08677800  0.04969600  0.73553500  1
  F  F33  1  0.59748700  0.61611800  0.66734500  1
  F  F34  1  0.38388200  0.98136800  0.33401200  1
  F  F35  1  0.18593800  0.12837400  0.25993900  1
  F  F36  1  0.70744600  0.94427500  0.76481100  1
  F  F37  1  0.70966100  0.25389800  0.84914400  1
  F  F38  1  0.24002000  0.52672400  0.28255900  1
  F  F39  1  0.83859300  0.71473000  0.85353900  1
  F  F40  1  0.87613700  0.16140700  0.18687300  1
  F  F41  1  0.96291800  0.91322200  0.06886800  1
  F  F42  1  0.62799400  0.04842300  0.50930100  1
  F  F43  1  0.94243600  0.81406200  0.59327200  1
  F  F44  1  0.28527000  0.12386300  0.52020600  1
