# generated using pymatgen
data_Zn(SnO2)2
_symmetry_space_group_name_H-M   'P 1'
_cell_length_a   6.55270763
_cell_length_b   6.55270763
_cell_length_c   6.55270756
_cell_angle_alpha   60.87229549
_cell_angle_beta   60.87229549
_cell_angle_gamma   60.87228833
_symmetry_Int_Tables_number   1
_chemical_formula_structural   Zn(SnO2)2
_chemical_formula_sum   'Zn2 Sn4 O8'
_cell_volume   202.86399377
_cell_formula_units_Z   2
loop_
 _symmetry_equiv_pos_site_id
 _symmetry_equiv_pos_as_xyz
  1  'x, y, z'
loop_
 _atom_site_type_symbol
 _atom_site_label
 _atom_site_symmetry_multiplicity
 _atom_site_fract_x
 _atom_site_fract_y
 _atom_site_fract_z
 _atom_site_occupancy
  Zn  Zn0  1  0.99626000  0.99626000  0.99626000  1
  Zn  Zn1  1  0.37549300  0.37549300  0.37549300  1
  Sn  Sn2  1  0.75455200  0.75455200  0.75455200  1
  Sn  Sn3  1  0.87852900  0.37367800  0.37367800  1
  Sn  Sn4  1  0.37367800  0.37367800  0.87852900  1
  Sn  Sn5  1  0.37367800  0.87852900  0.37367800  1
  O  O6  1  0.60692900  0.18712300  0.60692900  1
  O  O7  1  0.60692900  0.60692900  0.18712300  1
  O  O8  1  0.18712300  0.60692900  0.60692900  1
  O  O9  1  0.60700600  0.60700600  0.60700600  1
  O  O10  1  0.13045300  0.13045300  0.13045300  1
  O  O11  1  0.59661700  0.13137400  0.13137400  1
  O  O12  1  0.13137400  0.13137400  0.59661700  1
  O  O13  1  0.13137400  0.59661700  0.13137400  1
