# generated using pymatgen
data_SbO2
_symmetry_space_group_name_H-M   'P 1'
_cell_length_a   5.94257800
_cell_length_b   6.53528100
_cell_length_c   12.29461900
_cell_angle_alpha   90.00000000
_cell_angle_beta   90.00000000
_cell_angle_gamma   90.00000000
_symmetry_Int_Tables_number   1
_chemical_formula_structural   SbO2
_chemical_formula_sum   'Sb8 O16'
_cell_volume   477.47895150
_cell_formula_units_Z   8
loop_
 _symmetry_equiv_pos_site_id
 _symmetry_equiv_pos_as_xyz
  1  'x, y, z'
loop_
 _atom_site_type_symbol
 _atom_site_label
 _atom_site_symmetry_multiplicity
 _atom_site_fract_x
 _atom_site_fract_y
 _atom_site_fract_z
 _atom_site_occupancy
  Sb  Sb0  1  0.50000000  0.96462800  0.32530300  1
  Sb  Sb1  1  0.50000000  0.96462800  0.67469700  1
  Sb  Sb2  1  0.00000000  0.03537200  0.17469700  1
  Sb  Sb3  1  0.00000000  0.03537200  0.82530300  1
  Sb  Sb4  1  0.25000000  0.50000000  0.25000000  1
  Sb  Sb5  1  0.75000000  0.50000000  0.75000000  1
  Sb  Sb6  1  0.75000000  0.50000000  0.25000000  1
  Sb  Sb7  1  0.25000000  0.50000000  0.75000000  1
  O  O8  1  0.50000000  0.54599600  0.35777300  1
  O  O9  1  0.50000000  0.54599600  0.64222700  1
  O  O10  1  0.00000000  0.45400400  0.14222700  1
  O  O11  1  0.00000000  0.45400400  0.85777300  1
  O  O12  1  0.50000000  0.46742100  0.14439800  1
  O  O13  1  0.50000000  0.46742100  0.85560200  1
  O  O14  1  0.00000000  0.53257900  0.35560200  1
  O  O15  1  0.00000000  0.53257900  0.64439800  1
  O  O16  1  0.25310900  0.81623700  0.22895000  1
  O  O17  1  0.74689100  0.81623700  0.77105000  1
  O  O18  1  0.75310900  0.18376300  0.27105000  1
  O  O19  1  0.24689100  0.18376300  0.72895000  1
  O  O20  1  0.24689100  0.18376300  0.27105000  1
  O  O21  1  0.75310900  0.18376300  0.72895000  1
  O  O22  1  0.74689100  0.81623700  0.22895000  1
  O  O23  1  0.25310900  0.81623700  0.77105000  1
