# generated using pymatgen
data_ZnBi2P2O9
_symmetry_space_group_name_H-M   'P 1'
_cell_length_a   7.11872300
_cell_length_b   7.47462800
_cell_length_c   15.76945900
_cell_angle_alpha   90.00000000
_cell_angle_beta   90.00000000
_cell_angle_gamma   90.00000000
_symmetry_Int_Tables_number   1
_chemical_formula_structural   ZnBi2P2O9
_chemical_formula_sum   'Zn4 Bi8 P8 O36'
_cell_volume   839.08985822
_cell_formula_units_Z   4
loop_
 _symmetry_equiv_pos_site_id
 _symmetry_equiv_pos_as_xyz
  1  'x, y, z'
loop_
 _atom_site_type_symbol
 _atom_site_label
 _atom_site_symmetry_multiplicity
 _atom_site_fract_x
 _atom_site_fract_y
 _atom_site_fract_z
 _atom_site_occupancy
  Zn  Zn0  1  0.75000000  0.96061900  0.75727900  1
  Zn  Zn1  1  0.75000000  0.53938100  0.25727900  1
  Zn  Zn2  1  0.25000000  0.46061900  0.74272100  1
  Zn  Zn3  1  0.25000000  0.03938100  0.24272100  1
  Bi  Bi4  1  0.75000000  0.39772700  0.88032000  1
  Bi  Bi5  1  0.25000000  0.60227300  0.11968000  1
  Bi  Bi6  1  0.25000000  0.89772700  0.61968000  1
  Bi  Bi7  1  0.75000000  0.10227300  0.38032000  1
  Bi  Bi8  1  0.50000000  0.00000000  0.00000000  1
  Bi  Bi9  1  0.50000000  0.50000000  0.50000000  1
  Bi  Bi10  1  0.00000000  0.50000000  0.50000000  1
  Bi  Bi11  1  0.00000000  0.00000000  0.00000000  1
  P  P12  1  0.25000000  0.38352800  0.91141400  1
  P  P13  1  0.75000000  0.61647200  0.08858600  1
  P  P14  1  0.75000000  0.88352800  0.58858600  1
  P  P15  1  0.25000000  0.11647200  0.41141400  1
  P  P16  1  0.75000000  0.38504500  0.68923400  1
  P  P17  1  0.75000000  0.11495500  0.18923400  1
  P  P18  1  0.25000000  0.88504500  0.81076600  1
  P  P19  1  0.25000000  0.61495500  0.31076600  1
  O  O20  1  0.06558800  0.62483000  0.36359300  1
  O  O21  1  0.56558800  0.37517000  0.63640700  1
  O  O22  1  0.93441200  0.12483000  0.13640700  1
  O  O23  1  0.43441200  0.87517000  0.86359300  1
  O  O24  1  0.93441200  0.37517000  0.63640700  1
  O  O25  1  0.43441200  0.62483000  0.36359300  1
  O  O26  1  0.06558800  0.87517000  0.86359300  1
  O  O27  1  0.56558800  0.12483000  0.13640700  1
  O  O28  1  0.25000000  0.29081100  0.46706300  1
  O  O29  1  0.75000000  0.70918900  0.53293700  1
  O  O30  1  0.75000000  0.79081100  0.03293700  1
  O  O31  1  0.25000000  0.20918900  0.96706300  1
  O  O32  1  0.75000000  0.11801200  0.92397600  1
  O  O33  1  0.25000000  0.88198800  0.07602400  1
  O  O34  1  0.25000000  0.61801200  0.57602400  1
  O  O35  1  0.75000000  0.38198800  0.42397600  1
  O  O36  1  0.75000000  0.22103800  0.75510600  1
  O  O37  1  0.25000000  0.77896200  0.24489400  1
  O  O38  1  0.25000000  0.72103800  0.74489400  1
  O  O39  1  0.75000000  0.27896200  0.25510600  1
  O  O40  1  0.41998100  0.11860900  0.34759400  1
  O  O41  1  0.91998100  0.88139100  0.65240600  1
  O  O42  1  0.58001900  0.61860900  0.15240600  1
  O  O43  1  0.08001900  0.38139100  0.84759400  1
  O  O44  1  0.58001900  0.88139100  0.65240600  1
  O  O45  1  0.08001900  0.11860900  0.34759400  1
  O  O46  1  0.41998100  0.38139100  0.84759400  1
  O  O47  1  0.91998100  0.61860900  0.15240600  1
  O  O48  1  0.75000000  0.45392300  0.03119100  1
  O  O49  1  0.25000000  0.04921500  0.75169700  1
  O  O50  1  0.25000000  0.45078500  0.25169700  1
  O  O51  1  0.75000000  0.54921500  0.74830300  1
  O  O52  1  0.75000000  0.04607700  0.53119100  1
  O  O53  1  0.25000000  0.95392300  0.46880900  1
  O  O54  1  0.25000000  0.54607700  0.96880900  1
  O  O55  1  0.75000000  0.95078500  0.24830300  1
