# generated using pymatgen
data_SbO2
_symmetry_space_group_name_H-M   'P 1'
_cell_length_a   6.30209500
_cell_length_b   7.48059151
_cell_length_c   15.69524509
_cell_angle_alpha   87.53495257
_cell_angle_beta   87.11740444
_cell_angle_gamma   65.23127076
_symmetry_Int_Tables_number   1
_chemical_formula_structural   SbO2
_chemical_formula_sum   'Sb12 O24'
_cell_volume   670.81199260
_cell_formula_units_Z   12
loop_
 _symmetry_equiv_pos_site_id
 _symmetry_equiv_pos_as_xyz
  1  'x, y, z'
loop_
 _atom_site_type_symbol
 _atom_site_label
 _atom_site_symmetry_multiplicity
 _atom_site_fract_x
 _atom_site_fract_y
 _atom_site_fract_z
 _atom_site_occupancy
  Sb  Sb0  1  0.34101400  0.32411000  0.18434400  1
  Sb  Sb1  1  0.40160400  0.72097700  0.16702400  1
  Sb  Sb2  1  0.99598800  0.01160000  0.49398300  1
  Sb  Sb3  1  0.85275500  0.32363700  0.18443800  1
  Sb  Sb4  1  0.03310800  0.41621000  0.48012400  1
  Sb  Sb5  1  0.79676100  0.86449800  0.65742500  1
  Sb  Sb6  1  0.79394000  0.90812700  0.27937600  1
  Sb  Sb7  1  0.72747500  0.55797900  0.82300200  1
  Sb  Sb8  1  0.48143200  0.01994700  0.49679900  1
  Sb  Sb9  1  0.66050100  0.15088000  0.82068800  1
  Sb  Sb10  1  0.10929200  0.74281700  0.84587200  1
  Sb  Sb11  1  0.17717800  0.11802100  0.94780300  1
  O  O12  1  0.71996500  0.57800800  0.11570500  1
  O  O13  1  0.51370900  0.47450700  0.24979500  1
  O  O14  1  0.65917500  0.21401000  0.12314800  1
  O  O15  1  0.23035400  0.58254300  0.11785200  1
  O  O16  1  0.36138200  0.27544200  0.43579800  1
  O  O17  1  0.46804600  0.08314000  0.26151100  1
  O  O18  1  0.15271600  0.16239300  0.56223000  1
  O  O19  1  0.03868000  0.42211300  0.25545000  1
  O  O20  1  0.16000700  0.21725700  0.11391400  1
  O  O21  1  0.31207900  0.88976900  0.43775500  1
  O  O22  1  0.87501900  0.26587700  0.43167200  1
  O  O23  1  0.95490200  0.07863500  0.25907900  1
  O  O24  1  0.97821800  0.94558200  0.74621400  1
  O  O25  1  0.07493900  0.78512400  0.57752600  1
  O  O26  1  0.69074200  0.11205700  0.57152400  1
  O  O27  1  0.82105100  0.93788000  0.90580600  1
  O  O28  1  0.78873500  0.92302500  0.42094300  1
  O  O29  1  0.88440600  0.60176600  0.71467800  1
  O  O30  1  0.53848300  0.02897200  0.73805700  1
  O  O31  1  0.59736700  0.80027400  0.58127000  1
  O  O32  1  0.90411300  0.26416400  0.86212900  1
  O  O33  1  0.31605100  0.86254600  0.88186100  1
  O  O34  1  0.54850300  0.42570300  0.77101500  1
  O  O35  1  0.37365200  0.24374900  0.89460400  1
