# generated using pymatgen
data_Mg(BiO2)2
_symmetry_space_group_name_H-M   'P 1'
_cell_length_a   6.89065228
_cell_length_b   6.89065228
_cell_length_c   16.36261800
_cell_angle_alpha   90.00000000
_cell_angle_beta   90.00000000
_cell_angle_gamma   120.00000266
_symmetry_Int_Tables_number   1
_chemical_formula_structural   Mg(BiO2)2
_chemical_formula_sum   'Mg6 Bi12 O24'
_cell_volume   672.82803774
_cell_formula_units_Z   6
loop_
 _symmetry_equiv_pos_site_id
 _symmetry_equiv_pos_as_xyz
  1  'x, y, z'
loop_
 _atom_site_type_symbol
 _atom_site_label
 _atom_site_symmetry_multiplicity
 _atom_site_fract_x
 _atom_site_fract_y
 _atom_site_fract_z
 _atom_site_occupancy
  Mg  Mg0  1  0.00000000  0.00000000  0.95823400  1
  Mg  Mg1  1  0.66666700  0.33333300  0.62239300  1
  Mg  Mg2  1  0.33333300  0.66666700  0.66801500  1
  Mg  Mg3  1  0.33333300  0.66666700  0.29247000  1
  Mg  Mg4  1  0.66666700  0.33333300  0.99785100  1
  Mg  Mg5  1  0.66666700  0.33333300  0.37453700  1
  Bi  Bi6  1  0.99488300  0.49744200  0.83448100  1
  Bi  Bi7  1  0.50255800  0.49744200  0.83448100  1
  Bi  Bi8  1  0.65897000  0.82948500  0.50368500  1
  Bi  Bi9  1  0.50255800  0.00511700  0.83448100  1
  Bi  Bi10  1  0.17051500  0.82948500  0.50368500  1
  Bi  Bi11  1  0.00000000  0.00000000  0.33510500  1
  Bi  Bi12  1  0.00000000  0.00000000  0.71771300  1
  Bi  Bi13  1  0.33614900  0.16807500  0.16602200  1
  Bi  Bi14  1  0.17051500  0.34103000  0.50368500  1
  Bi  Bi15  1  0.83192500  0.16807500  0.16602200  1
  Bi  Bi16  1  0.83192500  0.66385100  0.16602200  1
  Bi  Bi17  1  0.33333300  0.66666700  0.04964400  1
  O  O18  1  0.34304900  0.17152400  0.91896000  1
  O  O19  1  0.66666700  0.33333300  0.74830000  1
  O  O20  1  0.82847600  0.17152400  0.91896000  1
  O  O21  1  0.82847600  0.65695100  0.91896000  1
  O  O22  1  0.01851400  0.50925700  0.58766000  1
  O  O23  1  0.18849800  0.37699600  0.74485200  1
  O  O24  1  0.33333300  0.66666700  0.42035900  1
  O  O25  1  0.18849800  0.81150200  0.74485200  1
  O  O26  1  0.33333300  0.66666700  0.91702500  1
  O  O27  1  0.49074300  0.50925700  0.58766000  1
  O  O28  1  0.49074300  0.98148600  0.58766000  1
  O  O29  1  0.62300400  0.81150200  0.74485200  1
  O  O30  1  0.65487700  0.82743900  0.24734000  1
  O  O31  1  0.83273300  0.66546700  0.41500700  1
  O  O32  1  0.83273300  0.16726700  0.41500700  1
  O  O33  1  0.00000000  0.00000000  0.08198600  1
  O  O34  1  0.00000000  0.00000000  0.58591000  1
  O  O35  1  0.17256100  0.82743900  0.24734000  1
  O  O36  1  0.17256100  0.34512300  0.24734000  1
  O  O37  1  0.33453300  0.16726700  0.41500700  1
  O  O38  1  0.52303400  0.04606900  0.07588900  1
  O  O39  1  0.52303400  0.47696600  0.07588900  1
  O  O40  1  0.66666700  0.33333300  0.24896200  1
  O  O41  1  0.95393100  0.47696600  0.07588900  1
