# generated using pymatgen
data_Ti2ZnP2O9
_symmetry_space_group_name_H-M   'P 1'
_cell_length_a   6.38149100
_cell_length_b   7.57135500
_cell_length_c   14.30021400
_cell_angle_alpha   90.00000000
_cell_angle_beta   90.00000000
_cell_angle_gamma   90.00000000
_symmetry_Int_Tables_number   1
_chemical_formula_structural   Ti2ZnP2O9
_chemical_formula_sum   'Ti8 Zn4 P8 O36'
_cell_volume   690.93677294
_cell_formula_units_Z   4
loop_
 _symmetry_equiv_pos_site_id
 _symmetry_equiv_pos_as_xyz
  1  'x, y, z'
loop_
 _atom_site_type_symbol
 _atom_site_label
 _atom_site_symmetry_multiplicity
 _atom_site_fract_x
 _atom_site_fract_y
 _atom_site_fract_z
 _atom_site_occupancy
  Ti  Ti0  1  0.75000000  0.14965500  0.88124800  1
  Ti  Ti1  1  0.25000000  0.85034500  0.11875200  1
  Ti  Ti2  1  0.25000000  0.64965500  0.61875200  1
  Ti  Ti3  1  0.75000000  0.35034500  0.38124800  1
  Ti  Ti4  1  0.00000000  0.50000000  0.00000000  1
  Ti  Ti5  1  0.00000000  0.00000000  0.50000000  1
  Ti  Ti6  1  0.50000000  0.00000000  0.50000000  1
  Ti  Ti7  1  0.50000000  0.50000000  0.00000000  1
  Zn  Zn8  1  0.75000000  0.55723700  0.77177900  1
  Zn  Zn9  1  0.75000000  0.94276300  0.27177900  1
  Zn  Zn10  1  0.25000000  0.05723700  0.72822100  1
  Zn  Zn11  1  0.25000000  0.44276300  0.22822100  1
  P  P12  1  0.25000000  0.13756300  0.92842800  1
  P  P13  1  0.75000000  0.86243700  0.07157200  1
  P  P14  1  0.75000000  0.63756300  0.57157200  1
  P  P15  1  0.25000000  0.36243700  0.42842800  1
  P  P16  1  0.75000000  0.12003500  0.69228600  1
  P  P17  1  0.75000000  0.37996500  0.19228600  1
  P  P18  1  0.25000000  0.62003500  0.80771400  1
  P  P19  1  0.25000000  0.87996500  0.30771400  1
  O  O20  1  0.45725000  0.89533500  0.36497600  1
  O  O21  1  0.95725000  0.10466500  0.63502400  1
  O  O22  1  0.54275000  0.39533500  0.13502400  1
  O  O23  1  0.04275000  0.60466500  0.86497600  1
  O  O24  1  0.54275000  0.10466500  0.63502400  1
  O  O25  1  0.04275000  0.89533500  0.36497600  1
  O  O26  1  0.45725000  0.60466500  0.86497600  1
  O  O27  1  0.95725000  0.39533500  0.13502400  1
  O  O28  1  0.25000000  0.17690100  0.47476200  1
  O  O29  1  0.75000000  0.82309900  0.52523800  1
  O  O30  1  0.75000000  0.67690100  0.02523800  1
  O  O31  1  0.25000000  0.32309900  0.97476200  1
  O  O32  1  0.75000000  0.37198200  0.93887100  1
  O  O33  1  0.25000000  0.62801800  0.06112900  1
  O  O34  1  0.25000000  0.87198200  0.56112900  1
  O  O35  1  0.75000000  0.12801800  0.43887100  1
  O  O36  1  0.75000000  0.29573900  0.74989400  1
  O  O37  1  0.25000000  0.70426100  0.25010600  1
  O  O38  1  0.25000000  0.79573900  0.75010600  1
  O  O39  1  0.75000000  0.20426100  0.24989400  1
  O  O40  1  0.06297700  0.37873100  0.35998400  1
  O  O41  1  0.56297700  0.62126900  0.64001600  1
  O  O42  1  0.93702300  0.87873100  0.14001600  1
  O  O43  1  0.43702300  0.12126900  0.85998400  1
  O  O44  1  0.93702300  0.62126900  0.64001600  1
  O  O45  1  0.43702300  0.37873100  0.35998400  1
  O  O46  1  0.06297700  0.12126900  0.85998400  1
  O  O47  1  0.56297700  0.87873100  0.14001600  1
  O  O48  1  0.75000000  0.00244100  0.99349300  1
  O  O49  1  0.25000000  0.47570200  0.73088300  1
  O  O50  1  0.25000000  0.02429800  0.23088300  1
  O  O51  1  0.75000000  0.97570200  0.76911700  1
  O  O52  1  0.75000000  0.49755900  0.49349300  1
  O  O53  1  0.25000000  0.50244100  0.50650700  1
  O  O54  1  0.25000000  0.99755900  0.00650700  1
  O  O55  1  0.75000000  0.52429800  0.26911700  1
