# generated using pymatgen
data_CaPr(SnO3)2
_symmetry_space_group_name_H-M   'P 1'
_cell_length_a   5.69606100
_cell_length_b   5.95208600
_cell_length_c   8.23298300
_cell_angle_alpha   90.00000000
_cell_angle_beta   90.00000000
_cell_angle_gamma   90.00000000
_symmetry_Int_Tables_number   1
_chemical_formula_structural   CaPr(SnO3)2
_chemical_formula_sum   'Ca2 Pr2 Sn4 O12'
_cell_volume   279.12648578
_cell_formula_units_Z   2
loop_
 _symmetry_equiv_pos_site_id
 _symmetry_equiv_pos_as_xyz
  1  'x, y, z'
loop_
 _atom_site_type_symbol
 _atom_site_label
 _atom_site_symmetry_multiplicity
 _atom_site_fract_x
 _atom_site_fract_y
 _atom_site_fract_z
 _atom_site_occupancy
  Ca  Ca0  1  0.48481600  0.19861400  0.00000000  1
  Ca  Ca1  1  0.98481600  0.80138600  0.50000000  1
  Pr  Pr2  1  0.01972500  0.69148100  0.00000000  1
  Pr  Pr3  1  0.51972500  0.30851900  0.50000000  1
  Sn  Sn4  1  0.00115800  0.24619900  0.75053800  1
  Sn  Sn5  1  0.00115800  0.24619900  0.24946200  1
  Sn  Sn6  1  0.50115800  0.75380100  0.25053800  1
  Sn  Sn7  1  0.50115800  0.75380100  0.74946200  1
  O  O8  1  0.11857200  0.19919900  0.50000000  1
  O  O9  1  0.19542100  0.95065900  0.81156300  1
  O  O10  1  0.19542100  0.95065900  0.18843700  1
  O  O11  1  0.29731000  0.45345100  0.18777100  1
  O  O12  1  0.29731000  0.45345100  0.81222900  1
  O  O13  1  0.38304800  0.70367000  0.50000000  1
  O  O14  1  0.61857200  0.80080100  0.00000000  1
  O  O15  1  0.69542100  0.04934100  0.68843700  1
  O  O16  1  0.69542100  0.04934100  0.31156300  1
  O  O17  1  0.79731000  0.54654900  0.68777100  1
  O  O18  1  0.79731000  0.54654900  0.31222900  1
  O  O19  1  0.88304800  0.29633000  0.00000000  1
