# generated using pymatgen
data_Y4Fe13Si2(SbO14)2
_symmetry_space_group_name_H-M   'P 1'
_cell_length_a   12.35917555
_cell_length_b   12.35917555
_cell_length_c   9.42274302
_cell_angle_alpha   87.71630904
_cell_angle_beta   87.71630904
_cell_angle_gamma   153.21057026
_symmetry_Int_Tables_number   1
_chemical_formula_structural   Y4Fe13Si2(SbO14)2
_chemical_formula_sum   'Y4 Fe13 Si2 Sb2 O28'
_cell_volume   639.04958271
_cell_formula_units_Z   1
loop_
 _symmetry_equiv_pos_site_id
 _symmetry_equiv_pos_as_xyz
  1  'x, y, z'
loop_
 _atom_site_type_symbol
 _atom_site_label
 _atom_site_symmetry_multiplicity
 _atom_site_fract_x
 _atom_site_fract_y
 _atom_site_fract_z
 _atom_site_occupancy
  Y  Y0  1  0.07469700  0.48691000  0.65638100  1
  Y  Y1  1  0.51309000  0.92530300  0.34361900  1
  Y  Y2  1  0.92530300  0.51309000  0.34361900  1
  Y  Y3  1  0.48691000  0.07469700  0.65638100  1
  Fe  Fe4  1  0.91791100  0.65587200  0.64581000  1
  Fe  Fe5  1  0.66305400  0.78674900  0.32834700  1
  Fe  Fe6  1  0.34412800  0.08208900  0.35419000  1
  Fe  Fe7  1  0.08208900  0.34412800  0.35419000  1
  Fe  Fe8  1  0.33694600  0.21325100  0.67165300  1
  Fe  Fe9  1  0.28983000  0.71017000  0.00000000  1
  Fe  Fe10  1  0.21325100  0.33694600  0.67165300  1
  Fe  Fe11  1  0.00000000  0.00000000  0.00000000  1
  Fe  Fe12  1  0.42745300  0.57254700  0.00000000  1
  Fe  Fe13  1  0.78674900  0.66305400  0.32834700  1
  Fe  Fe14  1  0.65587200  0.91791100  0.64581000  1
  Fe  Fe15  1  0.57254700  0.42745300  0.00000000  1
  Fe  Fe16  1  0.71017000  0.28983000  0.00000000  1
  Si  Si17  1  0.24885900  0.24885900  0.29394100  1
  Si  Si18  1  0.75114100  0.75114100  0.70605900  1
  Sb  Sb19  1  0.86200000  0.13800000  0.00000000  1
  Sb  Sb20  1  0.13800000  0.86200000  0.00000000  1
  O  O21  1  0.72022800  0.98036100  0.40420100  1
  O  O22  1  0.12726400  0.54686900  0.38802900  1
  O  O23  1  0.95913000  0.95913000  0.34114900  1
  O  O24  1  0.31570500  0.31570500  0.11778500  1
  O  O25  1  0.87273600  0.45313100  0.61197100  1
  O  O26  1  0.27977200  0.01963900  0.59579900  1
  O  O27  1  0.00871500  0.59832100  0.10384700  1
  O  O28  1  0.99128500  0.40167900  0.89615300  1
  O  O29  1  0.68429500  0.68429500  0.88221500  1
  O  O30  1  0.11806300  0.26836600  0.89125500  1
  O  O31  1  0.31184400  0.42169000  0.36103200  1
  O  O32  1  0.01963900  0.27977200  0.59579900  1
  O  O33  1  0.40167900  0.99128500  0.89615300  1
  O  O34  1  0.73163400  0.88193700  0.10874500  1
  O  O35  1  0.57831000  0.68815600  0.63896800  1
  O  O36  1  0.04087000  0.04087000  0.65885100  1
  O  O37  1  0.26836600  0.11806300  0.89125500  1
  O  O38  1  0.88193700  0.73163400  0.10874500  1
  O  O39  1  0.59832100  0.00871500  0.10384700  1
  O  O40  1  0.12460800  0.40291300  0.12036300  1
  O  O41  1  0.87539200  0.59708700  0.87963700  1
  O  O42  1  0.42169000  0.31184400  0.36103200  1
  O  O43  1  0.40291300  0.12460800  0.12036300  1
  O  O44  1  0.54686900  0.12726400  0.38802900  1
  O  O45  1  0.68815600  0.57831000  0.63896800  1
  O  O46  1  0.59708700  0.87539200  0.87963700  1
  O  O47  1  0.98036100  0.72022800  0.40420100  1
  O  O48  1  0.45313100  0.87273600  0.61197100  1
