# generated using pymatgen
data_Ba2YMn2F11
_symmetry_space_group_name_H-M   'P 1'
_cell_length_a   8.02298763
_cell_length_b   8.02298763
_cell_length_c   13.66651900
_cell_angle_alpha   90.00000000
_cell_angle_beta   90.00000000
_cell_angle_gamma   119.99999698
_symmetry_Int_Tables_number   1
_chemical_formula_structural   Ba2YMn2F11
_chemical_formula_sum   'Ba6 Y3 Mn6 F33'
_cell_volume   761.83478778
_cell_formula_units_Z   3
loop_
 _symmetry_equiv_pos_site_id
 _symmetry_equiv_pos_as_xyz
  1  'x, y, z'
loop_
 _atom_site_type_symbol
 _atom_site_label
 _atom_site_symmetry_multiplicity
 _atom_site_fract_x
 _atom_site_fract_y
 _atom_site_fract_z
 _atom_site_occupancy
  Ba  Ba0  1  0.88338800  0.84288700  0.66333300  1
  Ba  Ba1  1  0.50267200  0.18584200  0.81450200  1
  Ba  Ba2  1  0.95949900  0.11661200  0.99666700  1
  Ba  Ba3  1  0.81415800  0.31683000  0.48116900  1
  Ba  Ba4  1  0.68317000  0.49732800  0.14783600  1
  Ba  Ba5  1  0.15711300  0.04050100  0.33000000  1
  Y  Y6  1  0.45919600  0.67439700  0.89246500  1
  Y  Y7  1  0.21520100  0.54080400  0.22579900  1
  Y  Y8  1  0.32560300  0.78479900  0.55913200  1
  Mn  Mn9  1  0.94693000  0.65931600  0.89118000  1
  Mn  Mn10  1  0.09244000  0.39673600  0.72470200  1
  Mn  Mn11  1  0.60326400  0.69570400  0.39136900  1
  Mn  Mn12  1  0.71238600  0.05307000  0.22451300  1
  Mn  Mn13  1  0.30429600  0.90756000  0.05803600  1
  Mn  Mn14  1  0.34068400  0.28761400  0.55784700  1
  F  F15  1  0.00703300  0.76275600  0.03638600  1
  F  F16  1  0.81855400  0.37371200  0.93047700  1
  F  F17  1  0.75572300  0.99296700  0.36971900  1
  F  F18  1  0.42796200  0.07224400  0.48614000  1
  F  F19  1  0.91849200  0.98451300  0.17989100  1
  F  F20  1  0.29947400  0.32757600  0.19147200  1
  F  F21  1  0.92775600  0.35571800  0.15280700  1
  F  F22  1  0.67242400  0.97189800  0.85813900  1
  F  F23  1  0.06602100  0.08150800  0.51322400  1
  F  F24  1  0.59838900  0.01262400  0.07918100  1
  F  F25  1  0.64428200  0.57203800  0.81947400  1
  F  F26  1  0.23724400  0.24427700  0.70305300  1
  F  F27  1  0.66139800  0.69640900  0.00186300  1
  F  F28  1  0.35902700  0.17358500  0.00182500  1
  F  F29  1  0.03501100  0.33860200  0.33519700  1
  F  F30  1  0.62628800  0.44484200  0.59714300  1
  F  F31  1  0.28573100  0.82184600  0.90172100  1
  F  F32  1  0.41423400  0.40161100  0.41251400  1
  F  F33  1  0.32432800  0.70789100  0.39072500  1
  F  F34  1  0.30359100  0.96498900  0.66853000  1
  F  F35  1  0.38356300  0.67567200  0.72405900  1
  F  F36  1  0.82641500  0.18544300  0.66849100  1
  F  F37  1  0.81455700  0.64097300  0.33515800  1
  F  F38  1  0.53611500  0.71426900  0.23505400  1
  F  F39  1  0.98737600  0.58576600  0.74584800  1
  F  F40  1  0.01548700  0.93397900  0.84655800  1
  F  F41  1  0.55515800  0.18144600  0.26381000  1
  F  F42  1  0.19235200  0.39690100  0.87210400  1
  F  F43  1  0.20454900  0.80764800  0.20543800  1
  F  F44  1  0.29210900  0.61643700  0.05739200  1
  F  F45  1  0.02810200  0.70052600  0.52480600  1
  F  F46  1  0.17815400  0.46388500  0.56838800  1
  F  F47  1  0.60309900  0.79545100  0.53877100  1
