# generated using pymatgen
data_LaTaZnCrO6
_symmetry_space_group_name_H-M   'P 1'
_cell_length_a   5.72504800
_cell_length_b   5.42284500
_cell_length_c   10.00285536
_cell_angle_alpha   58.01628818
_cell_angle_beta   90.00000000
_cell_angle_gamma   90.00000000
_symmetry_Int_Tables_number   1
_chemical_formula_structural   LaTaZnCrO6
_chemical_formula_sum   'La2 Ta2 Zn2 Cr2 O12'
_cell_volume   263.40736840
_cell_formula_units_Z   2
loop_
 _symmetry_equiv_pos_site_id
 _symmetry_equiv_pos_as_xyz
  1  'x, y, z'
loop_
 _atom_site_type_symbol
 _atom_site_label
 _atom_site_symmetry_multiplicity
 _atom_site_fract_x
 _atom_site_fract_y
 _atom_site_fract_z
 _atom_site_occupancy
  La  La0  1  0.30261800  0.78026000  0.24759500  1
  La  La1  1  0.69738200  0.78026000  0.74759500  1
  Ta  Ta2  1  0.22173300  0.50223000  0.99746200  1
  Ta  Ta3  1  0.77826700  0.50223000  0.49746200  1
  Zn  Zn4  1  0.64593700  0.25718100  0.25093900  1
  Zn  Zn5  1  0.35406300  0.25718100  0.75093900  1
  Cr  Cr6  1  0.24230000  0.00461500  0.50075500  1
  Cr  Cr7  1  0.75770000  0.00461500  0.00075500  1
  O  O8  1  0.74634400  0.38077300  0.72050600  1
  O  O9  1  0.05112400  0.15205200  0.05466200  1
  O  O10  1  0.04367900  0.75049500  0.44498700  1
  O  O11  1  0.54654900  0.23848400  0.06578100  1
  O  O12  1  0.55283100  0.85925900  0.43552300  1
  O  O13  1  0.29036600  0.57464700  0.78179200  1
  O  O14  1  0.25365600  0.38077300  0.22050600  1
  O  O15  1  0.94887600  0.15205200  0.55466200  1
  O  O16  1  0.95632100  0.75049500  0.94498700  1
  O  O17  1  0.45345100  0.23848400  0.56578100  1
  O  O18  1  0.44716900  0.85925900  0.93552300  1
  O  O19  1  0.70963400  0.57464700  0.28179200  1
