# generated using pymatgen
data_Ca(BiO2)2
_symmetry_space_group_name_H-M   'P 1'
_cell_length_a   7.05530822
_cell_length_b   7.05530822
_cell_length_c   7.05530732
_cell_angle_alpha   59.92079545
_cell_angle_beta   59.92079545
_cell_angle_gamma   59.92079459
_symmetry_Int_Tables_number   1
_chemical_formula_structural   Ca(BiO2)2
_chemical_formula_sum   'Ca2 Bi4 O8'
_cell_volume   247.88596477
_cell_formula_units_Z   2
loop_
 _symmetry_equiv_pos_site_id
 _symmetry_equiv_pos_as_xyz
  1  'x, y, z'
loop_
 _atom_site_type_symbol
 _atom_site_label
 _atom_site_symmetry_multiplicity
 _atom_site_fract_x
 _atom_site_fract_y
 _atom_site_fract_z
 _atom_site_occupancy
  Ca  Ca0  1  0.00214500  0.00214500  0.00214500  1
  Ca  Ca1  1  0.62527000  0.62527000  0.62527000  1
  Bi  Bi2  1  0.24769900  0.24769900  0.24769900  1
  Bi  Bi3  1  0.62584200  0.11835300  0.62584200  1
  Bi  Bi4  1  0.62584200  0.62584200  0.11835300  1
  Bi  Bi5  1  0.11835300  0.62584200  0.62584200  1
  O  O6  1  0.85411100  0.38336800  0.38336800  1
  O  O7  1  0.38336800  0.38336800  0.85411100  1
  O  O8  1  0.38336800  0.85411100  0.38336800  1
  O  O9  1  0.37891500  0.37891500  0.37891500  1
  O  O10  1  0.86629700  0.86629700  0.86629700  1
  O  O11  1  0.86582700  0.40713000  0.86582700  1
  O  O12  1  0.86582700  0.86582700  0.40713000  1
  O  O13  1  0.40713000  0.86582700  0.86582700  1
