# generated using pymatgen
data_CaSb2P2O9
_symmetry_space_group_name_H-M   'P 1'
_cell_length_a   7.00175800
_cell_length_b   7.14889300
_cell_length_c   15.79085900
_cell_angle_alpha   90.00000000
_cell_angle_beta   90.00000000
_cell_angle_gamma   90.00000000
_symmetry_Int_Tables_number   1
_chemical_formula_structural   CaSb2P2O9
_chemical_formula_sum   'Ca4 Sb8 P8 O36'
_cell_volume   790.40858521
_cell_formula_units_Z   4
loop_
 _symmetry_equiv_pos_site_id
 _symmetry_equiv_pos_as_xyz
  1  'x, y, z'
loop_
 _atom_site_type_symbol
 _atom_site_label
 _atom_site_symmetry_multiplicity
 _atom_site_fract_x
 _atom_site_fract_y
 _atom_site_fract_z
 _atom_site_occupancy
  Ca  Ca0  1  0.75000000  0.90177900  0.77866200  1
  Ca  Ca1  1  0.75000000  0.59822100  0.27866200  1
  Ca  Ca2  1  0.25000000  0.40177900  0.72133800  1
  Ca  Ca3  1  0.25000000  0.09822100  0.22133800  1
  Sb  Sb4  1  0.75000000  0.39289800  0.88310100  1
  Sb  Sb5  1  0.25000000  0.60710200  0.11689900  1
  Sb  Sb6  1  0.25000000  0.89289800  0.61689900  1
  Sb  Sb7  1  0.75000000  0.10710200  0.38310100  1
  Sb  Sb8  1  0.50000000  0.00000000  0.00000000  1
  Sb  Sb9  1  0.50000000  0.50000000  0.50000000  1
  Sb  Sb10  1  0.00000000  0.50000000  0.50000000  1
  Sb  Sb11  1  0.00000000  0.00000000  0.00000000  1
  P  P12  1  0.25000000  0.39265400  0.92040300  1
  P  P13  1  0.75000000  0.60734600  0.07959700  1
  P  P14  1  0.75000000  0.89265400  0.57959700  1
  P  P15  1  0.25000000  0.10734600  0.42040300  1
  P  P16  1  0.75000000  0.40157600  0.69187000  1
  P  P17  1  0.75000000  0.09842400  0.19187000  1
  P  P18  1  0.25000000  0.90157600  0.80813000  1
  P  P19  1  0.25000000  0.59842400  0.30813000  1
  O  O20  1  0.06347900  0.61184100  0.36248500  1
  O  O21  1  0.56347900  0.38815900  0.63751500  1
  O  O22  1  0.93652100  0.11184100  0.13751500  1
  O  O23  1  0.43652100  0.88815900  0.86248500  1
  O  O24  1  0.93652100  0.38815900  0.63751500  1
  O  O25  1  0.43652100  0.61184100  0.36248500  1
  O  O26  1  0.06347900  0.88815900  0.86248500  1
  O  O27  1  0.56347900  0.11184100  0.13751500  1
  O  O28  1  0.25000000  0.28151200  0.48398500  1
  O  O29  1  0.75000000  0.71848800  0.51601500  1
  O  O30  1  0.75000000  0.78151200  0.01601500  1
  O  O31  1  0.25000000  0.21848800  0.98398500  1
  O  O32  1  0.75000000  0.11952600  0.92406800  1
  O  O33  1  0.25000000  0.88047400  0.07593200  1
  O  O34  1  0.25000000  0.61952600  0.57593200  1
  O  O35  1  0.75000000  0.38047400  0.42406800  1
  O  O36  1  0.75000000  0.23629400  0.75821400  1
  O  O37  1  0.25000000  0.76370600  0.24178600  1
  O  O38  1  0.25000000  0.73629400  0.74178600  1
  O  O39  1  0.75000000  0.26370600  0.25821400  1
  O  O40  1  0.42589300  0.12442400  0.36121900  1
  O  O41  1  0.92589300  0.87557600  0.63878100  1
  O  O42  1  0.57410700  0.62442400  0.13878100  1
  O  O43  1  0.07410700  0.37557600  0.86121900  1
  O  O44  1  0.57410700  0.87557600  0.63878100  1
  O  O45  1  0.07410700  0.12442400  0.36121900  1
  O  O46  1  0.42589300  0.37557600  0.86121900  1
  O  O47  1  0.92589300  0.62442400  0.13878100  1
  O  O48  1  0.75000000  0.42645900  0.02812700  1
  O  O49  1  0.25000000  0.08131100  0.75404900  1
  O  O50  1  0.25000000  0.41868900  0.25404900  1
  O  O51  1  0.75000000  0.58131100  0.74595100  1
  O  O52  1  0.75000000  0.07354100  0.52812700  1
  O  O53  1  0.25000000  0.92645900  0.47187300  1
  O  O54  1  0.25000000  0.57354100  0.97187300  1
  O  O55  1  0.75000000  0.91868900  0.24595100  1
