# generated using pymatgen
data_LaZnCrWO6
_symmetry_space_group_name_H-M   'P 1'
_cell_length_a   5.69727900
_cell_length_b   5.44903900
_cell_length_c   9.51390050
_cell_angle_alpha   55.91787184
_cell_angle_beta   90.00000000
_cell_angle_gamma   90.00000000
_symmetry_Int_Tables_number   1
_chemical_formula_structural   LaZnCrWO6
_chemical_formula_sum   'La2 Zn2 Cr2 W2 O12'
_cell_volume   244.62434596
_cell_formula_units_Z   2
loop_
 _symmetry_equiv_pos_site_id
 _symmetry_equiv_pos_as_xyz
  1  'x, y, z'
loop_
 _atom_site_type_symbol
 _atom_site_label
 _atom_site_symmetry_multiplicity
 _atom_site_fract_x
 _atom_site_fract_y
 _atom_site_fract_z
 _atom_site_occupancy
  La  La0  1  0.28936900  0.76646800  0.24656500  1
  La  La1  1  0.71063100  0.76646800  0.74656500  1
  Zn  Zn2  1  0.72842300  0.25234200  0.24400200  1
  Zn  Zn3  1  0.27157700  0.25234200  0.74400200  1
  Cr  Cr4  1  0.24673600  0.00107800  0.49968500  1
  Cr  Cr5  1  0.75326400  0.00107800  0.99968500  1
  W  W6  1  0.23500400  0.49949900  0.99996900  1
  W  W7  1  0.76499600  0.49949900  0.49996900  1
  O  O8  1  0.77624000  0.33843900  0.75391500  1
  O  O9  1  0.02524400  0.14039700  0.06424700  1
  O  O10  1  0.05278200  0.75020500  0.45257000  1
  O  O11  1  0.55131300  0.25546100  0.05467300  1
  O  O12  1  0.55734900  0.87807300  0.43467700  1
  O  O13  1  0.27719200  0.61803500  0.74969700  1
  O  O14  1  0.22376000  0.33843900  0.25391500  1
  O  O15  1  0.97475600  0.14039700  0.56424700  1
  O  O16  1  0.94721800  0.75020500  0.95257000  1
  O  O17  1  0.44868700  0.25546100  0.55467300  1
  O  O18  1  0.44265100  0.87807300  0.93467700  1
  O  O19  1  0.72280800  0.61803500  0.24969700  1
