# generated using pymatgen
data_Ba2YCo2F11
_symmetry_space_group_name_H-M   'P 1'
_cell_length_a   7.92267851
_cell_length_b   7.92267851
_cell_length_c   13.60974600
_cell_angle_alpha   90.00000000
_cell_angle_beta   90.00000000
_cell_angle_gamma   120.00000424
_symmetry_Int_Tables_number   1
_chemical_formula_structural   Ba2YCo2F11
_chemical_formula_sum   'Ba6 Y3 Co6 F33'
_cell_volume   739.81766922
_cell_formula_units_Z   3
loop_
 _symmetry_equiv_pos_site_id
 _symmetry_equiv_pos_as_xyz
  1  'x, y, z'
loop_
 _atom_site_type_symbol
 _atom_site_label
 _atom_site_symmetry_multiplicity
 _atom_site_fract_x
 _atom_site_fract_y
 _atom_site_fract_z
 _atom_site_occupancy
  Ba  Ba0  1  0.88637000  0.85228700  0.66358700  1
  Ba  Ba1  1  0.50082600  0.19130700  0.82128100  1
  Ba  Ba2  1  0.96591700  0.11363000  0.99692000  1
  Ba  Ba3  1  0.80869300  0.30952000  0.48794800  1
  Ba  Ba4  1  0.69048000  0.49917400  0.15461500  1
  Ba  Ba5  1  0.14771300  0.03408300  0.33025300  1
  Y  Y6  1  0.46389100  0.67374300  0.89409900  1
  Y  Y7  1  0.20985100  0.53610900  0.22743300  1
  Y  Y8  1  0.32625700  0.79014900  0.56076600  1
  Co  Co9  1  0.96081000  0.66004500  0.88324600  1
  Co  Co10  1  0.11533500  0.40389500  0.72165800  1
  Co  Co11  1  0.59610500  0.71143900  0.38832500  1
  Co  Co12  1  0.69923500  0.03919000  0.21658000  1
  Co  Co13  1  0.28856100  0.88466500  0.05499200  1
  Co  Co14  1  0.33995500  0.30076500  0.54991300  1
  F  F15  1  0.00055500  0.76424400  0.02519100  1
  F  F16  1  0.83635400  0.38666300  0.93094600  1
  F  F17  1  0.76368900  0.99944500  0.35852500  1
  F  F18  1  0.41566000  0.08260300  0.49010300  1
  F  F19  1  0.90212700  0.97010900  0.17768700  1
  F  F20  1  0.29698000  0.32299800  0.19282400  1
  F  F21  1  0.91739700  0.33305700  0.15676900  1
  F  F22  1  0.67700200  0.97398200  0.85949000  1
  F  F23  1  0.06798200  0.09787300  0.51102000  1
  F  F24  1  0.57819200  0.99845700  0.07895100  1
  F  F25  1  0.66694300  0.58434000  0.82343600  1
  F  F26  1  0.23575600  0.23631100  0.69185800  1
  F  F27  1  0.64291800  0.68248600  0.01131900  1
  F  F28  1  0.34712900  0.15144700  0.00862700  1
  F  F29  1  0.03956800  0.35708200  0.34465200  1
  F  F30  1  0.61333700  0.44969100  0.59761300  1
  F  F31  1  0.28289700  0.81456500  0.90205300  1
  F  F32  1  0.42026500  0.42180800  0.41228400  1
  F  F33  1  0.33213500  0.72589400  0.39108700  1
  F  F34  1  0.31751400  0.96043200  0.67798600  1
  F  F35  1  0.39375900  0.66786500  0.72442100  1
  F  F36  1  0.84855300  0.19568100  0.67529300  1
  F  F37  1  0.80431900  0.65287100  0.34196000  1
  F  F38  1  0.53166800  0.71710300  0.23538600  1
  F  F39  1  0.00154300  0.57973500  0.74561700  1
  F  F40  1  0.02989100  0.93201800  0.84435300  1
  F  F41  1  0.55030900  0.16364600  0.26428000  1
  F  F42  1  0.21115400  0.38113100  0.86530900  1
  F  F43  1  0.16997700  0.78884600  0.19864300  1
  F  F44  1  0.27410600  0.60624100  0.05775400  1
  F  F45  1  0.02601800  0.70302000  0.52615700  1
  F  F46  1  0.18543500  0.46833200  0.56872000  1
  F  F47  1  0.61886900  0.83002300  0.53197600  1
