# generated using pymatgen
data_Ba2Sn2F11
_symmetry_space_group_name_H-M   'P 1'
_cell_length_a   7.80426770
_cell_length_b   7.80426770
_cell_length_c   15.00167200
_cell_angle_alpha   90.00000000
_cell_angle_beta   90.00000000
_cell_angle_gamma   119.99999746
_symmetry_Int_Tables_number   1
_chemical_formula_structural   Ba2Sn2F11
_chemical_formula_sum   'Ba6 Sn6 F33'
_cell_volume   791.28808200
_cell_formula_units_Z   3
loop_
 _symmetry_equiv_pos_site_id
 _symmetry_equiv_pos_as_xyz
  1  'x, y, z'
loop_
 _atom_site_type_symbol
 _atom_site_label
 _atom_site_symmetry_multiplicity
 _atom_site_fract_x
 _atom_site_fract_y
 _atom_site_fract_z
 _atom_site_occupancy
  Ba  Ba0  1  0.84974000  0.81374700  0.65734200  1
  Ba  Ba1  1  0.47794900  0.08026700  0.80925600  1
  Ba  Ba2  1  0.96400700  0.15026000  0.99067500  1
  Ba  Ba3  1  0.91973300  0.39768200  0.47592300  1
  Ba  Ba4  1  0.60231800  0.52205100  0.14258900  1
  Ba  Ba5  1  0.18625300  0.03599300  0.32400800  1
  Sn  Sn6  1  0.87472700  0.63618600  0.89790800  1
  Sn  Sn7  1  0.17158400  0.46432700  0.72724900  1
  Sn  Sn8  1  0.53567300  0.70725700  0.39391600  1
  Sn  Sn9  1  0.76145900  0.12527300  0.23124200  1
  Sn  Sn10  1  0.29274300  0.82841600  0.06058300  1
  Sn  Sn11  1  0.36381400  0.23854100  0.56457500  1
  F  F12  1  0.99707000  0.72481700  0.04737900  1
  F  F13  1  0.75629900  0.34433200  0.94473500  1
  F  F14  1  0.72774700  0.00293000  0.38071200  1
  F  F15  1  0.48822800  0.15028500  0.46652900  1
  F  F16  1  0.88481500  0.95192400  0.18239000  1
  F  F17  1  0.27633900  0.25253000  0.18816500  1
  F  F18  1  0.84971500  0.33794300  0.13319600  1
  F  F19  1  0.74747000  0.02381000  0.85483100  1
  F  F20  1  0.06710900  0.11518500  0.51572300  1
  F  F21  1  0.58671800  0.95479700  0.08027000  1
  F  F22  1  0.66205700  0.51177200  0.79986200  1
  F  F23  1  0.27518300  0.27225300  0.71404600  1
  F  F24  1  0.68571600  0.68840100  0.97332200  1
  F  F25  1  0.33230800  0.09334800  0.02093600  1
  F  F26  1  0.00268500  0.31428400  0.30665500  1
  F  F27  1  0.65566800  0.41196600  0.61140200  1
  F  F28  1  0.28935300  0.78275000  0.92843100  1
  F  F29  1  0.36807900  0.41328200  0.41360300  1
  F  F30  1  0.28991100  0.72625700  0.40575500  1
  F  F31  1  0.31159900  0.99731500  0.63998800  1
  F  F32  1  0.43634600  0.71008900  0.73908800  1
  F  F33  1  0.90665200  0.23896000  0.68760300  1
  F  F34  1  0.76104000  0.66769200  0.35427000  1
  F  F35  1  0.49339600  0.71064700  0.26176500  1
  F  F36  1  0.04520300  0.63192100  0.74693600  1
  F  F37  1  0.04807600  0.93289100  0.84905600  1
  F  F38  1  0.58803400  0.24370100  0.27806800  1
  F  F39  1  0.15525500  0.39864800  0.85640100  1
  F  F40  1  0.24339300  0.84474500  0.18973400  1
  F  F41  1  0.27374300  0.56365400  0.07242200  1
  F  F42  1  0.97619000  0.72366100  0.52149800  1
  F  F43  1  0.21725000  0.50660400  0.59509800  1
  F  F44  1  0.60135200  0.75660700  0.52306800  1
