# generated using pymatgen
data_Sb2P2O9
_symmetry_space_group_name_H-M   'P 1'
_cell_length_a   6.63705100
_cell_length_b   8.41639800
_cell_length_c   14.67202400
_cell_angle_alpha   90.00000000
_cell_angle_beta   90.00000000
_cell_angle_gamma   90.00000000
_symmetry_Int_Tables_number   1
_chemical_formula_structural   Sb2P2O9
_chemical_formula_sum   'Sb8 P8 O36'
_cell_volume   819.58018149
_cell_formula_units_Z   4
loop_
 _symmetry_equiv_pos_site_id
 _symmetry_equiv_pos_as_xyz
  1  'x, y, z'
loop_
 _atom_site_type_symbol
 _atom_site_label
 _atom_site_symmetry_multiplicity
 _atom_site_fract_x
 _atom_site_fract_y
 _atom_site_fract_z
 _atom_site_occupancy
  Sb  Sb0  1  0.25000000  0.86101500  0.37891300  1
  Sb  Sb1  1  0.75000000  0.13898500  0.62108700  1
  Sb  Sb2  1  0.75000000  0.36101500  0.12108700  1
  Sb  Sb3  1  0.25000000  0.63898500  0.87891300  1
  Sb  Sb4  1  0.00000000  0.50000000  0.50000000  1
  Sb  Sb5  1  0.00000000  0.00000000  0.00000000  1
  Sb  Sb6  1  0.50000000  0.00000000  0.00000000  1
  Sb  Sb7  1  0.50000000  0.50000000  0.50000000  1
  P  P8  1  0.75000000  0.86272600  0.43946000  1
  P  P9  1  0.25000000  0.13727400  0.56054000  1
  P  P10  1  0.25000000  0.36272600  0.06054000  1
  P  P11  1  0.75000000  0.63727400  0.93946000  1
  P  P12  1  0.25000000  0.89294200  0.19647600  1
  P  P13  1  0.25000000  0.60705800  0.69647600  1
  P  P14  1  0.75000000  0.39294200  0.30352400  1
  P  P15  1  0.75000000  0.10705800  0.80352400  1
  O  O16  1  0.55850600  0.09425900  0.86082300  1
  O  O17  1  0.05850600  0.90574100  0.13917700  1
  O  O18  1  0.44149400  0.59425900  0.63917700  1
  O  O19  1  0.94149400  0.40574100  0.36082300  1
  O  O20  1  0.44149400  0.90574100  0.13917700  1
  O  O21  1  0.94149400  0.09425900  0.86082300  1
  O  O22  1  0.55850600  0.40574100  0.36082300  1
  O  O23  1  0.05850600  0.59425900  0.63917700  1
  O  O24  1  0.75000000  0.80549500  0.98573400  1
  O  O25  1  0.25000000  0.19450500  0.01426600  1
  O  O26  1  0.25000000  0.30549500  0.51426600  1
  O  O27  1  0.75000000  0.69450500  0.48573400  1
  O  O28  1  0.25000000  0.66590900  0.45014600  1
  O  O29  1  0.75000000  0.33409100  0.54985400  1
  O  O30  1  0.75000000  0.16590900  0.04985400  1
  O  O31  1  0.25000000  0.83409100  0.95014600  1
  O  O32  1  0.25000000  0.73795800  0.25925300  1
  O  O33  1  0.75000000  0.26204200  0.74074700  1
  O  O34  1  0.75000000  0.23795800  0.24074700  1
  O  O35  1  0.25000000  0.76204200  0.75925300  1
  O  O36  1  0.93934500  0.62148400  0.87907800  1
  O  O37  1  0.43934500  0.37851600  0.12092200  1
  O  O38  1  0.06065500  0.12148400  0.62092200  1
  O  O39  1  0.56065500  0.87851600  0.37907800  1
  O  O40  1  0.06065500  0.37851600  0.12092200  1
  O  O41  1  0.56065500  0.62148400  0.87907800  1
  O  O42  1  0.93934500  0.87851600  0.37907800  1
  O  O43  1  0.43934500  0.12148400  0.62092200  1
  O  O44  1  0.25000000  0.00684700  0.48661500  1
  O  O45  1  0.75000000  0.52246900  0.22112300  1
  O  O46  1  0.75000000  0.97753100  0.72112300  1
  O  O47  1  0.25000000  0.02246900  0.27887700  1
  O  O48  1  0.25000000  0.49315300  0.98661500  1
  O  O49  1  0.75000000  0.50684700  0.01338500  1
  O  O50  1  0.75000000  0.99315300  0.51338500  1
  O  O51  1  0.25000000  0.47753100  0.77887700  1
