# generated using pymatgen
data_MgSnP2O7
_symmetry_space_group_name_H-M   'P 1'
_cell_length_a   9.24091300
_cell_length_b   7.19463100
_cell_length_c   9.33744306
_cell_angle_alpha   70.16106103
_cell_angle_beta   90.00000000
_cell_angle_gamma   90.00000000
_symmetry_Int_Tables_number   1
_chemical_formula_structural   MgSnP2O7
_chemical_formula_sum   'Mg4 Sn4 P8 O28'
_cell_volume   583.95528056
_cell_formula_units_Z   4
loop_
 _symmetry_equiv_pos_site_id
 _symmetry_equiv_pos_as_xyz
  1  'x, y, z'
loop_
 _atom_site_type_symbol
 _atom_site_label
 _atom_site_symmetry_multiplicity
 _atom_site_fract_x
 _atom_site_fract_y
 _atom_site_fract_z
 _atom_site_occupancy
  Mg  Mg0  1  0.94395600  0.29996600  0.80575200  1
  Mg  Mg1  1  0.44395600  0.70003400  0.69424800  1
  Mg  Mg2  1  0.55604400  0.29996600  0.30575200  1
  Mg  Mg3  1  0.05604400  0.70003400  0.19424800  1
  Sn  Sn4  1  0.08713900  0.77113800  0.57718900  1
  Sn  Sn5  1  0.91286100  0.22886200  0.42281100  1
  Sn  Sn6  1  0.58713900  0.22886200  0.92281100  1
  Sn  Sn7  1  0.41286100  0.77113800  0.07718900  1
  P  P8  1  0.75112900  0.90513600  0.27599400  1
  P  P9  1  0.21121300  0.48549600  0.95488400  1
  P  P10  1  0.74887100  0.90513600  0.77599400  1
  P  P11  1  0.28878700  0.48549600  0.45488400  1
  P  P12  1  0.25112900  0.09486400  0.22400600  1
  P  P13  1  0.71121300  0.51450400  0.54511600  1
  P  P14  1  0.78878700  0.51450400  0.04511600  1
  P  P15  1  0.24887100  0.09486400  0.72400600  1
  O  O16  1  0.18939900  0.26668900  0.07308700  1
  O  O17  1  0.59056600  0.86090400  0.75639800  1
  O  O18  1  0.90943400  0.86090400  0.25639800  1
  O  O19  1  0.36582300  0.51545500  0.89279100  1
  O  O20  1  0.81060100  0.73331100  0.92691300  1
  O  O21  1  0.15154500  0.08787000  0.35439300  1
  O  O22  1  0.63417700  0.48454500  0.10720900  1
  O  O23  1  0.09704600  0.49871700  0.83205300  1
  O  O24  1  0.31530600  0.63221000  0.54098600  1
  O  O25  1  0.84845500  0.91213000  0.64560700  1
  O  O26  1  0.34845500  0.08787000  0.85439300  1
  O  O27  1  0.76741200  0.09594600  0.81832800  1
  O  O28  1  0.26741200  0.90405400  0.68167200  1
  O  O29  1  0.31060100  0.26668900  0.57308700  1
  O  O30  1  0.65154500  0.91213000  0.14560700  1
  O  O31  1  0.09056600  0.13909600  0.74360200  1
  O  O32  1  0.23258800  0.90405400  0.18167200  1
  O  O33  1  0.90295400  0.50128300  0.16794700  1
  O  O34  1  0.18469400  0.63221000  0.04098600  1
  O  O35  1  0.81530600  0.36779000  0.95901400  1
  O  O36  1  0.86582300  0.48454500  0.60720900  1
  O  O37  1  0.40295400  0.49871700  0.33205300  1
  O  O38  1  0.59704600  0.50128300  0.66794700  1
  O  O39  1  0.40943400  0.13909600  0.24360200  1
  O  O40  1  0.73258800  0.09594600  0.31832800  1
  O  O41  1  0.13417700  0.51545500  0.39279100  1
  O  O42  1  0.68469400  0.36779000  0.45901400  1
  O  O43  1  0.68939900  0.73331100  0.42691300  1
