# generated using pymatgen
data_CaMn2(PO4)2
_symmetry_space_group_name_H-M   'P 1'
_cell_length_a   9.10839816
_cell_length_b   9.10839816
_cell_length_c   17.48358691
_cell_angle_alpha   62.81307634
_cell_angle_beta   62.81307634
_cell_angle_gamma   32.47730283
_symmetry_Int_Tables_number   1
_chemical_formula_structural   CaMn2(PO4)2
_chemical_formula_sum   'Ca4 Mn8 P8 O32'
_cell_volume   685.01768796
_cell_formula_units_Z   4
loop_
 _symmetry_equiv_pos_site_id
 _symmetry_equiv_pos_as_xyz
  1  'x, y, z'
loop_
 _atom_site_type_symbol
 _atom_site_label
 _atom_site_symmetry_multiplicity
 _atom_site_fract_x
 _atom_site_fract_y
 _atom_site_fract_z
 _atom_site_occupancy
  Ca  Ca0  1  0.48036700  0.83390500  0.85572600  1
  Ca  Ca1  1  0.16489900  0.51618500  0.64541300  1
  Ca  Ca2  1  0.83390500  0.48036700  0.35572600  1
  Ca  Ca3  1  0.51618500  0.16489900  0.14541300  1
  Mn  Mn4  1  0.19747300  0.61636300  0.96046800  1
  Mn  Mn5  1  0.38340700  0.79985900  0.53935700  1
  Mn  Mn6  1  0.79985900  0.38340700  0.03935700  1
  Mn  Mn7  1  0.50440300  0.00194600  0.99875600  1
  Mn  Mn8  1  0.61636300  0.19747300  0.46046800  1
  Mn  Mn9  1  0.65182700  0.34745000  0.24997200  1
  Mn  Mn10  1  0.34745000  0.65182700  0.74997200  1
  Mn  Mn11  1  0.00194600  0.50440300  0.49875600  1
  P  P12  1  0.04996400  0.51420400  0.86729200  1
  P  P13  1  0.77026500  0.19403400  0.60914400  1
  P  P14  1  0.94715300  0.48606500  0.13352300  1
  P  P15  1  0.19403400  0.77026500  0.10914400  1
  P  P16  1  0.51420400  0.04996400  0.36729200  1
  P  P17  1  0.48606500  0.94715300  0.63352300  1
  P  P18  1  0.22618200  0.80526500  0.39107100  1
  P  P19  1  0.80526500  0.22618200  0.89107100  1
  O  O20  1  0.69890000  0.80520000  0.10755800  1
  O  O21  1  0.79735400  0.35765300  0.92851400  1
  O  O22  1  0.80520000  0.69890000  0.60755800  1
  O  O23  1  0.80560100  0.35024000  0.53857000  1
  O  O24  1  0.19025800  0.36020700  0.05537900  1
  O  O25  1  0.56527100  0.34363100  0.68889100  1
  O  O26  1  0.64809700  0.18927700  0.96004600  1
  O  O27  1  0.88620700  0.06286400  0.12956900  1
  O  O28  1  0.18927700  0.64809700  0.46004600  1
  O  O29  1  0.64072400  0.19615900  0.57321500  1
  O  O30  1  0.86944900  0.37640000  0.14466900  1
  O  O31  1  0.60295900  0.94992200  0.28748000  1
  O  O32  1  0.19615900  0.64072400  0.07321500  1
  O  O33  1  0.06286400  0.88620700  0.62956900  1
  O  O34  1  0.29989400  0.19542100  0.89355700  1
  O  O35  1  0.12429200  0.62775100  0.85536700  1
  O  O36  1  0.94992200  0.60295900  0.78748000  1
  O  O37  1  0.35024000  0.80560100  0.03857000  1
  O  O38  1  0.37640000  0.86944900  0.64466900  1
  O  O39  1  0.39852400  0.04546600  0.71273100  1
  O  O40  1  0.93413600  0.11342800  0.37020000  1
  O  O41  1  0.36020700  0.19025800  0.55537900  1
  O  O42  1  0.11342800  0.93413600  0.87020000  1
  O  O43  1  0.34363100  0.56527100  0.18889100  1
  O  O44  1  0.35765300  0.79735400  0.42851400  1
  O  O45  1  0.19542100  0.29989400  0.39355700  1
  O  O46  1  0.04546600  0.39852400  0.21273100  1
  O  O47  1  0.64262800  0.80514100  0.44538100  1
  O  O48  1  0.80514100  0.64262800  0.94538100  1
  O  O49  1  0.65463800  0.43328800  0.81092700  1
  O  O50  1  0.43328800  0.65463800  0.31092700  1
  O  O51  1  0.62775100  0.12429200  0.35536700  1
