# generated using pymatgen
data_K3Pm
_symmetry_space_group_name_H-M   'P 1'
_cell_length_a   8.65916983
_cell_length_b   8.65916983
_cell_length_c   7.11183400
_cell_angle_alpha   90.00000000
_cell_angle_beta   90.00000000
_cell_angle_gamma   119.99999871
_symmetry_Int_Tables_number   1
_chemical_formula_structural   K3Pm
_chemical_formula_sum   'K6 Pm2'
_cell_volume   461.81152109
_cell_formula_units_Z   2
loop_
 _symmetry_equiv_pos_site_id
 _symmetry_equiv_pos_as_xyz
  1  'x, y, z'
loop_
 _atom_site_type_symbol
 _atom_site_label
 _atom_site_symmetry_multiplicity
 _atom_site_fract_x
 _atom_site_fract_y
 _atom_site_fract_z
 _atom_site_occupancy
  K  K0  1  0.17069200  0.34138400  0.25000000  1
  K  K1  1  0.65861600  0.82930800  0.25000000  1
  K  K2  1  0.17069200  0.82930800  0.25000000  1
  K  K3  1  0.82930800  0.65861600  0.75000000  1
  K  K4  1  0.34138400  0.17069200  0.75000000  1
  K  K5  1  0.82930800  0.17069200  0.75000000  1
  Pm  Pm6  1  0.33333300  0.66666700  0.75000000  1
  Pm  Pm7  1  0.66666700  0.33333300  0.25000000  1
