# generated using pymatgen
data_CaLaCrSbO6
_symmetry_space_group_name_H-M   'P 1'
_cell_length_a   5.68600237
_cell_length_b   5.89606000
_cell_length_c   7.85187011
_cell_angle_alpha   90.01431397
_cell_angle_beta   90.18307018
_cell_angle_gamma   89.90670399
_symmetry_Int_Tables_number   1
_chemical_formula_structural   CaLaCrSbO6
_chemical_formula_sum   'Ca2 La2 Cr2 Sb2 O12'
_cell_volume   263.23233235
_cell_formula_units_Z   2
loop_
 _symmetry_equiv_pos_site_id
 _symmetry_equiv_pos_as_xyz
  1  'x, y, z'
loop_
 _atom_site_type_symbol
 _atom_site_label
 _atom_site_symmetry_multiplicity
 _atom_site_fract_x
 _atom_site_fract_y
 _atom_site_fract_z
 _atom_site_occupancy
  Ca  Ca0  1  0.48847400  0.44370700  0.75129600  1
  Ca  Ca1  1  0.98832500  0.05629600  0.25128700  1
  La  La2  1  0.01160200  0.94643800  0.74954100  1
  La  La3  1  0.51141200  0.55360900  0.24953600  1
  Cr  Cr4  1  0.50057800  0.00261000  0.49929800  1
  Cr  Cr5  1  0.00053000  0.49741700  0.99935100  1
  Sb  Sb6  1  0.50041500  0.00285000  0.00094500  1
  Sb  Sb7  1  0.00038700  0.49713500  0.50096500  1
  O  O8  1  0.09827000  0.46103000  0.25282700  1
  O  O9  1  0.21484400  0.18841600  0.94917400  1
  O  O10  1  0.18519400  0.21193700  0.55183400  1
  O  O11  1  0.31695100  0.71519400  0.94647300  1
  O  O12  1  0.28762800  0.68135800  0.55138500  1
  O  O13  1  0.39622000  0.96592600  0.24704500  1
  O  O14  1  0.59828500  0.03900800  0.75284000  1
  O  O15  1  0.71534300  0.31193700  0.44922200  1
  O  O16  1  0.68471300  0.28753800  0.05191400  1
  O  O17  1  0.81644900  0.78531600  0.44655500  1
  O  O18  1  0.78813500  0.81824400  0.05142200  1
  O  O19  1  0.89624200  0.53403600  0.74709100  1
