# generated using pymatgen
data_BrCl
_symmetry_space_group_name_H-M   'P 1'
_cell_length_a   4.64594705
_cell_length_b   4.64594705
_cell_length_c   7.81070100
_cell_angle_alpha   90.00000000
_cell_angle_beta   90.00000000
_cell_angle_gamma   115.94818905
_symmetry_Int_Tables_number   1
_chemical_formula_structural   BrCl
_chemical_formula_sum   'Br2 Cl2'
_cell_volume   151.59680010
_cell_formula_units_Z   2
loop_
 _symmetry_equiv_pos_site_id
 _symmetry_equiv_pos_as_xyz
  1  'x, y, z'
loop_
 _atom_site_type_symbol
 _atom_site_label
 _atom_site_symmetry_multiplicity
 _atom_site_fract_x
 _atom_site_fract_y
 _atom_site_fract_z
 _atom_site_occupancy
  Br  Br0  1  0.00000000  0.00000000  0.00000000  1
  Br  Br1  1  0.00000000  0.00000000  0.50000000  1
  Cl  Cl2  1  0.71335200  0.71335200  0.25000000  1
  Cl  Cl3  1  0.28664800  0.28664800  0.75000000  1
