# generated using pymatgen
data_Sn4SF6
_symmetry_space_group_name_H-M   'P 1'
_cell_length_a   7.63812236
_cell_length_b   7.63812236
_cell_length_c   8.89549900
_cell_angle_alpha   90.00000000
_cell_angle_beta   90.00000000
_cell_angle_gamma   110.73439133
_symmetry_Int_Tables_number   1
_chemical_formula_structural   Sn4SF6
_chemical_formula_sum   'Sn8 S2 F12'
_cell_volume   485.35862649
_cell_formula_units_Z   2
loop_
 _symmetry_equiv_pos_site_id
 _symmetry_equiv_pos_as_xyz
  1  'x, y, z'
loop_
 _atom_site_type_symbol
 _atom_site_label
 _atom_site_symmetry_multiplicity
 _atom_site_fract_x
 _atom_site_fract_y
 _atom_site_fract_z
 _atom_site_occupancy
  Sn  Sn0  1  0.67998800  0.32001200  0.85296000  1
  Sn  Sn1  1  0.32001200  0.67998800  0.35296000  1
  Sn  Sn2  1  0.81261500  0.64231900  0.33209000  1
  Sn  Sn3  1  0.35768100  0.18738500  0.33209000  1
  Sn  Sn4  1  0.84948900  0.15051100  0.44099900  1
  Sn  Sn5  1  0.18738500  0.35768100  0.83209000  1
  Sn  Sn6  1  0.64231900  0.81261500  0.83209000  1
  Sn  Sn7  1  0.15051100  0.84948900  0.94099900  1
  S  S8  1  0.66340000  0.33660000  0.56200900  1
  S  S9  1  0.33660000  0.66340000  0.06200900  1
  F  F10  1  0.91832800  0.73260500  0.10321000  1
  F  F11  1  0.26739500  0.08167200  0.10321000  1
  F  F12  1  0.85103100  0.14896900  0.88743400  1
  F  F13  1  0.08167200  0.26739500  0.60321000  1
  F  F14  1  0.73260500  0.91832800  0.60321000  1
  F  F15  1  0.14896900  0.85103100  0.38743400  1
  F  F16  1  0.00601900  0.49166600  0.32530400  1
  F  F17  1  0.61621200  0.38378800  0.21612800  1
  F  F18  1  0.50833400  0.99398100  0.32530400  1
  F  F19  1  0.99398100  0.50833400  0.82530400  1
  F  F20  1  0.38378800  0.61621200  0.71612800  1
  F  F21  1  0.49166600  0.00601900  0.82530400  1
