# generated using pymatgen
data_Mg(WO2)2
_symmetry_space_group_name_H-M   'P 1'
_cell_length_a   6.48441624
_cell_length_b   6.48441624
_cell_length_c   6.48441679
_cell_angle_alpha   55.37428066
_cell_angle_beta   55.37428066
_cell_angle_gamma   55.37428773
_symmetry_Int_Tables_number   1
_chemical_formula_structural   Mg(WO2)2
_chemical_formula_sum   'Mg2 W4 O8'
_cell_volume   172.07828200
_cell_formula_units_Z   2
loop_
 _symmetry_equiv_pos_site_id
 _symmetry_equiv_pos_as_xyz
  1  'x, y, z'
loop_
 _atom_site_type_symbol
 _atom_site_label
 _atom_site_symmetry_multiplicity
 _atom_site_fract_x
 _atom_site_fract_y
 _atom_site_fract_z
 _atom_site_occupancy
  Mg  Mg0  1  0.00428200  0.00428200  0.00428200  1
  Mg  Mg1  1  0.61865800  0.61865800  0.61865800  1
  W  W2  1  0.26541700  0.26541700  0.26541700  1
  W  W3  1  0.64551500  0.64551500  0.08422500  1
  W  W4  1  0.08422500  0.64551500  0.64551500  1
  W  W5  1  0.64551500  0.08422500  0.64551500  1
  O  O6  1  0.37489100  0.85036100  0.37489100  1
  O  O7  1  0.85036100  0.37489100  0.37489100  1
  O  O8  1  0.37489100  0.37489100  0.85036100  1
  O  O9  1  0.39286100  0.39286100  0.39286100  1
  O  O10  1  0.88483800  0.88483800  0.88483800  1
  O  O11  1  0.85705500  0.85705500  0.39443700  1
  O  O12  1  0.39443700  0.85705500  0.85705500  1
  O  O13  1  0.85705500  0.39443700  0.85705500  1
