# generated using pymatgen
data_Te2Mo3W(SeS2)2
_symmetry_space_group_name_H-M   'P 1'
_cell_length_a   3.30561426
_cell_length_b   3.30561426
_cell_length_c   37.60197800
_cell_angle_alpha   90.00000000
_cell_angle_beta   90.00000000
_cell_angle_gamma   120.00000522
_symmetry_Int_Tables_number   1
_chemical_formula_structural   Te2Mo3W(SeS2)2
_chemical_formula_sum   'Te2 Mo3 W1 Se2 S4'
_cell_volume   355.83252850
_cell_formula_units_Z   1
loop_
 _symmetry_equiv_pos_site_id
 _symmetry_equiv_pos_as_xyz
  1  'x, y, z'
loop_
 _atom_site_type_symbol
 _atom_site_label
 _atom_site_symmetry_multiplicity
 _atom_site_fract_x
 _atom_site_fract_y
 _atom_site_fract_z
 _atom_site_occupancy
  Te  Te0  1  0.00000000  0.00000000  0.33261500  1
  Te  Te1  1  0.00000000  0.00000000  0.23095100  1
  Mo  Mo2  1  0.00000000  0.00000000  0.09391100  1
  Mo  Mo3  1  0.33333300  0.66666700  0.28178800  1
  Mo  Mo4  1  0.33333300  0.66666700  0.65752700  1
  W  W5  1  0.00000000  0.00000000  0.46967100  1
  Se  Se6  1  0.00000000  0.00000000  0.70218500  1
  Se  Se7  1  0.00000000  0.00000000  0.61289200  1
  S  S8  1  0.33333300  0.66666700  0.05326800  1
  S  S9  1  0.33333300  0.66666700  0.42890400  1
  S  S10  1  0.33333300  0.66666700  0.13457700  1
  S  S11  1  0.33333300  0.66666700  0.51045600  1
