# generated using pymatgen
data_Te4MoW
_symmetry_space_group_name_H-M   'P 1'
_cell_length_a   3.55232192
_cell_length_b   3.55232192
_cell_length_c   25.04857700
_cell_angle_alpha   90.00000000
_cell_angle_beta   90.00000000
_cell_angle_gamma   119.99999848
_symmetry_Int_Tables_number   1
_chemical_formula_structural   Te4MoW
_chemical_formula_sum   'Te4 Mo1 W1'
_cell_volume   273.74004111
_cell_formula_units_Z   1
loop_
 _symmetry_equiv_pos_site_id
 _symmetry_equiv_pos_as_xyz
  1  'x, y, z'
loop_
 _atom_site_type_symbol
 _atom_site_label
 _atom_site_symmetry_multiplicity
 _atom_site_fract_x
 _atom_site_fract_y
 _atom_site_fract_z
 _atom_site_occupancy
  Te  Te0  1  0.33333300  0.66666700  0.52385200  1
  Te  Te1  1  0.66666700  0.33333300  0.07793800  1
  Te  Te2  1  0.66666700  0.33333300  0.22301100  1
  Te  Te3  1  0.33333300  0.66666700  0.37894500  1
  Mo  Mo4  1  0.66666700  0.33333300  0.45141200  1
  W  W5  1  0.33333300  0.66666700  0.15044600  1
