# generated using pymatgen
data_MoWSeS3
_symmetry_space_group_name_H-M   'P 1'
_cell_length_a   3.22021029
_cell_length_b   3.22021029
_cell_length_c   36.37526600
_cell_angle_alpha   90.00000000
_cell_angle_beta   90.00000000
_cell_angle_gamma   120.00000595
_symmetry_Int_Tables_number   1
_chemical_formula_structural   MoWSeS3
_chemical_formula_sum   'Mo2 W2 Se2 S6'
_cell_volume   326.66698959
_cell_formula_units_Z   2
loop_
 _symmetry_equiv_pos_site_id
 _symmetry_equiv_pos_as_xyz
  1  'x, y, z'
loop_
 _atom_site_type_symbol
 _atom_site_label
 _atom_site_symmetry_multiplicity
 _atom_site_fract_x
 _atom_site_fract_y
 _atom_site_fract_z
 _atom_site_occupancy
  Mo  Mo0  1  0.00000000  0.00000000  0.09391000  1
  Mo  Mo1  1  0.33333300  0.66666700  0.28179800  1
  W  W2  1  0.00000000  0.00000000  0.46967000  1
  W  W3  1  0.33333300  0.66666700  0.65754200  1
  Se  Se4  1  0.00000000  0.00000000  0.32880100  1
  Se  Se5  1  0.00000000  0.00000000  0.23477900  1
  S  S6  1  0.00000000  0.00000000  0.70049700  1
  S  S7  1  0.33333300  0.66666700  0.05111000  1
  S  S8  1  0.33333300  0.66666700  0.42673900  1
  S  S9  1  0.33333300  0.66666700  0.13671100  1
  S  S10  1  0.33333300  0.66666700  0.51260800  1
  S  S11  1  0.00000000  0.00000000  0.61458300  1
