# generated using pymatgen
data_CeMg14Fe
_symmetry_space_group_name_H-M   'P 1'
_cell_length_a   6.42838773
_cell_length_b   6.42838773
_cell_length_c   10.28484600
_cell_angle_alpha   90.00000000
_cell_angle_beta   90.00000000
_cell_angle_gamma   119.99999721
_symmetry_Int_Tables_number   1
_chemical_formula_structural   CeMg14Fe
_chemical_formula_sum   'Ce1 Mg14 Fe1'
_cell_volume   368.07181595
_cell_formula_units_Z   1
loop_
 _symmetry_equiv_pos_site_id
 _symmetry_equiv_pos_as_xyz
  1  'x, y, z'
loop_
 _atom_site_type_symbol
 _atom_site_label
 _atom_site_symmetry_multiplicity
 _atom_site_fract_x
 _atom_site_fract_y
 _atom_site_fract_z
 _atom_site_occupancy
  Ce  Ce0  1  0.66666700  0.33333300  0.50000000  1
  Mg  Mg1  1  0.65846200  0.82923100  0.00000000  1
  Mg  Mg2  1  0.68342300  0.84171100  0.50000000  1
  Mg  Mg3  1  0.17076900  0.34153800  0.00000000  1
  Mg  Mg4  1  0.15828900  0.31657700  0.50000000  1
  Mg  Mg5  1  0.17076900  0.82923100  0.00000000  1
  Mg  Mg6  1  0.15828900  0.84171100  0.50000000  1
  Mg  Mg7  1  0.82938400  0.17061600  0.22881000  1
  Mg  Mg8  1  0.82938400  0.17061600  0.77119000  1
  Mg  Mg9  1  0.82938400  0.65876800  0.22881000  1
  Mg  Mg10  1  0.82938400  0.65876800  0.77119000  1
  Mg  Mg11  1  0.34123200  0.17061600  0.22881000  1
  Mg  Mg12  1  0.34123200  0.17061600  0.77119000  1
  Mg  Mg13  1  0.33333300  0.66666700  0.26427800  1
  Mg  Mg14  1  0.33333300  0.66666700  0.73572200  1
  Fe  Fe15  1  0.66666700  0.33333300  0.00000000  1
