# generated using pymatgen
data_TeW2Se3
_symmetry_space_group_name_H-M   'P 1'
_cell_length_a   3.38041365
_cell_length_b   3.38041365
_cell_length_c   38.56044500
_cell_angle_alpha   90.00000000
_cell_angle_beta   90.00000000
_cell_angle_gamma   119.99999323
_symmetry_Int_Tables_number   1
_chemical_formula_structural   TeW2Se3
_chemical_formula_sum   'Te2 W4 Se6'
_cell_volume   381.60353834
_cell_formula_units_Z   2
loop_
 _symmetry_equiv_pos_site_id
 _symmetry_equiv_pos_as_xyz
  1  'x, y, z'
loop_
 _atom_site_type_symbol
 _atom_site_label
 _atom_site_symmetry_multiplicity
 _atom_site_fract_x
 _atom_site_fract_y
 _atom_site_fract_z
 _atom_site_occupancy
  Te  Te0  1  0.33333300  0.66666700  0.70660000  1
  Te  Te1  1  0.33333300  0.66666700  0.60847600  1
  W  W2  1  0.33333300  0.66666700  0.09392400  1
  W  W3  1  0.33333300  0.66666700  0.46964500  1
  W  W4  1  0.66666700  0.33333300  0.28179500  1
  W  W5  1  0.66666700  0.33333300  0.65753700  1
  Se  Se6  1  0.33333300  0.66666700  0.32493400  1
  Se  Se7  1  0.66666700  0.33333300  0.05080000  1
  Se  Se8  1  0.66666700  0.33333300  0.42653100  1
  Se  Se9  1  0.66666700  0.33333300  0.13705500  1
  Se  Se10  1  0.66666700  0.33333300  0.51278800  1
  Se  Se11  1  0.33333300  0.66666700  0.23866200  1
