# generated using pymatgen
data_Te3W2S
_symmetry_space_group_name_H-M   'P 1'
_cell_length_a   3.45457860
_cell_length_b   3.45457860
_cell_length_c   39.44256100
_cell_angle_alpha   90.00000000
_cell_angle_beta   90.00000000
_cell_angle_gamma   120.00001149
_symmetry_Int_Tables_number   1
_chemical_formula_structural   Te3W2S
_chemical_formula_sum   'Te6 W4 S2'
_cell_volume   407.64849568
_cell_formula_units_Z   2
loop_
 _symmetry_equiv_pos_site_id
 _symmetry_equiv_pos_as_xyz
  1  'x, y, z'
loop_
 _atom_site_type_symbol
 _atom_site_label
 _atom_site_symmetry_multiplicity
 _atom_site_fract_x
 _atom_site_fract_y
 _atom_site_fract_z
 _atom_site_occupancy
  Te  Te0  1  0.00000000  0.00000000  0.32889500  1
  Te  Te1  1  0.00000000  0.00000000  0.70468500  1
  Te  Te2  1  0.33333300  0.66666700  0.42250800  1
  Te  Te3  1  0.33333300  0.66666700  0.51676500  1
  Te  Te4  1  0.00000000  0.00000000  0.23460100  1
  Te  Te5  1  0.00000000  0.00000000  0.61041200  1
  W  W6  1  0.00000000  0.00000000  0.09394800  1
  W  W7  1  0.00000000  0.00000000  0.46969500  1
  W  W8  1  0.33333300  0.66666700  0.28178700  1
  W  W9  1  0.33333300  0.66666700  0.65757800  1
  S  S10  1  0.33333300  0.66666700  0.05608000  1
  S  S11  1  0.33333300  0.66666700  0.13179400  1
