# generated using pymatgen
data_RbNaMg14O15
_symmetry_space_group_name_H-M   'P 1'
_cell_length_a   4.21256800
_cell_length_b   8.37666900
_cell_length_c   10.41061500
_cell_angle_alpha   90.00000000
_cell_angle_beta   90.00000000
_cell_angle_gamma   90.00000000
_symmetry_Int_Tables_number   1
_chemical_formula_structural   RbNaMg14O15
_chemical_formula_sum   'Rb1 Na1 Mg14 O15'
_cell_volume   367.36236743
_cell_formula_units_Z   1
loop_
 _symmetry_equiv_pos_site_id
 _symmetry_equiv_pos_as_xyz
  1  'x, y, z'
loop_
 _atom_site_type_symbol
 _atom_site_label
 _atom_site_symmetry_multiplicity
 _atom_site_fract_x
 _atom_site_fract_y
 _atom_site_fract_z
 _atom_site_occupancy
  Rb  Rb0  1  0.00000000  0.50000000  0.44639400  1
  Na  Na1  1  0.00000000  0.00000000  0.02017200  1
  Mg  Mg2  1  0.00000000  0.50000000  0.98182300  1
  Mg  Mg3  1  0.00000000  0.00000000  0.48124900  1
  Mg  Mg4  1  0.50000000  0.75978400  0.98503100  1
  Mg  Mg5  1  0.50000000  0.24021600  0.98503100  1
  Mg  Mg6  1  0.50000000  0.75474300  0.56998000  1
  Mg  Mg7  1  0.50000000  0.24525700  0.56998000  1
  Mg  Mg8  1  0.50000000  0.00000000  0.78344200  1
  Mg  Mg9  1  0.50000000  0.50000000  0.76851000  1
  Mg  Mg10  1  0.50000000  0.00000000  0.27311100  1
  Mg  Mg11  1  0.50000000  0.50000000  0.17541100  1
  Mg  Mg12  1  0.00000000  0.72854900  0.76884900  1
  Mg  Mg13  1  0.00000000  0.27145100  0.76884900  1
  Mg  Mg14  1  0.00000000  0.75100000  0.18643900  1
  Mg  Mg15  1  0.00000000  0.24900000  0.18643900  1
  O  O16  1  0.00000000  0.50000000  0.78732200  1
  O  O17  1  0.00000000  0.00000000  0.26016500  1
  O  O18  1  0.00000000  0.50000000  0.18658900  1
  O  O19  1  0.50000000  0.76612500  0.76972300  1
  O  O20  1  0.50000000  0.23387500  0.76972300  1
  O  O21  1  0.50000000  0.75123300  0.19850100  1
  O  O22  1  0.50000000  0.24876700  0.19850100  1
  O  O23  1  0.50000000  0.00000000  0.96570100  1
  O  O24  1  0.50000000  0.50000000  0.97926600  1
  O  O25  1  0.50000000  0.00000000  0.47391500  1
  O  O26  1  0.50000000  0.50000000  0.57745900  1
  O  O27  1  0.00000000  0.74419800  0.98216100  1
  O  O28  1  0.00000000  0.25580200  0.98216100  1
  O  O29  1  0.00000000  0.79833900  0.58405400  1
  O  O30  1  0.00000000  0.20166100  0.58405400  1
