# generated using pymatgen
data_NaMg14BO15
_symmetry_space_group_name_H-M   'P 1'
_cell_length_a   4.34282600
_cell_length_b   8.49356900
_cell_length_c   8.55351000
_cell_angle_alpha   90.00000000
_cell_angle_beta   90.00000000
_cell_angle_gamma   90.00000000
_symmetry_Int_Tables_number   1
_chemical_formula_structural   NaMg14BO15
_chemical_formula_sum   'Na1 Mg14 B1 O15'
_cell_volume   315.50555923
_cell_formula_units_Z   1
loop_
 _symmetry_equiv_pos_site_id
 _symmetry_equiv_pos_as_xyz
  1  'x, y, z'
loop_
 _atom_site_type_symbol
 _atom_site_label
 _atom_site_symmetry_multiplicity
 _atom_site_fract_x
 _atom_site_fract_y
 _atom_site_fract_z
 _atom_site_occupancy
  Na  Na0  1  0.00000000  0.00000000  0.99617000  1
  Mg  Mg1  1  0.00000000  0.50000000  0.00206600  1
  Mg  Mg2  1  0.00000000  0.00000000  0.51171100  1
  Mg  Mg3  1  0.50000000  0.75307900  0.00033100  1
  Mg  Mg4  1  0.50000000  0.24692100  0.00033100  1
  Mg  Mg5  1  0.50000000  0.73332600  0.49936300  1
  Mg  Mg6  1  0.50000000  0.26667400  0.49936300  1
  Mg  Mg7  1  0.50000000  0.00000000  0.75017900  1
  Mg  Mg8  1  0.50000000  0.50000000  0.74646700  1
  Mg  Mg9  1  0.50000000  0.00000000  0.24991900  1
  Mg  Mg10  1  0.50000000  0.50000000  0.24917000  1
  Mg  Mg11  1  0.00000000  0.73035300  0.75457300  1
  Mg  Mg12  1  0.00000000  0.26964700  0.75457300  1
  Mg  Mg13  1  0.00000000  0.75689500  0.24392800  1
  Mg  Mg14  1  0.00000000  0.24310500  0.24392800  1
  B  B15  1  0.00000000  0.50000000  0.44053200  1
  O  O16  1  0.00000000  0.50000000  0.77123800  1
  O  O17  1  0.00000000  0.00000000  0.27799200  1
  O  O18  1  0.00000000  0.50000000  0.26800000  1
  O  O19  1  0.50000000  0.74725000  0.74580900  1
  O  O20  1  0.50000000  0.25275000  0.74580900  1
  O  O21  1  0.50000000  0.75156100  0.25331900  1
  O  O22  1  0.50000000  0.24843900  0.25331900  1
  O  O23  1  0.50000000  0.00000000  0.99619400  1
  O  O24  1  0.50000000  0.50000000  0.01030100  1
  O  O25  1  0.50000000  0.00000000  0.50138400  1
  O  O26  1  0.50000000  0.50000000  0.48816500  1
  O  O27  1  0.00000000  0.73743400  0.00597100  1
  O  O28  1  0.00000000  0.26256600  0.00597100  1
  O  O29  1  0.00000000  0.66857300  0.49196400  1
  O  O30  1  0.00000000  0.33142700  0.49196400  1
