# generated using pymatgen
data_YMg14ZnO16
_symmetry_space_group_name_H-M   'P 1'
_cell_length_a   8.71697600
_cell_length_b   8.71697600
_cell_length_c   4.35072100
_cell_angle_alpha   90.00000000
_cell_angle_beta   90.00000000
_cell_angle_gamma   90.00000000
_symmetry_Int_Tables_number   1
_chemical_formula_structural   YMg14ZnO16
_chemical_formula_sum   'Y1 Mg14 Zn1 O16'
_cell_volume   330.59245271
_cell_formula_units_Z   1
loop_
 _symmetry_equiv_pos_site_id
 _symmetry_equiv_pos_as_xyz
  1  'x, y, z'
loop_
 _atom_site_type_symbol
 _atom_site_label
 _atom_site_symmetry_multiplicity
 _atom_site_fract_x
 _atom_site_fract_y
 _atom_site_fract_z
 _atom_site_occupancy
  Y  Y0  1  0.00000000  0.00000000  0.00000000  1
  Mg  Mg1  1  0.50000000  0.00000000  0.00000000  1
  Mg  Mg2  1  0.00000000  0.50000000  0.00000000  1
  Mg  Mg3  1  0.26413300  0.00000000  0.50000000  1
  Mg  Mg4  1  0.73586700  0.00000000  0.50000000  1
  Mg  Mg5  1  0.25291000  0.50000000  0.50000000  1
  Mg  Mg6  1  0.74709000  0.50000000  0.50000000  1
  Mg  Mg7  1  0.00000000  0.26413300  0.50000000  1
  Mg  Mg8  1  0.50000000  0.25291000  0.50000000  1
  Mg  Mg9  1  0.00000000  0.73586700  0.50000000  1
  Mg  Mg10  1  0.50000000  0.74709000  0.50000000  1
  Mg  Mg11  1  0.25909000  0.25909000  0.00000000  1
  Mg  Mg12  1  0.74091000  0.25909000  0.00000000  1
  Mg  Mg13  1  0.25909000  0.74091000  0.00000000  1
  Mg  Mg14  1  0.74091000  0.74091000  0.00000000  1
  Zn  Zn15  1  0.50000000  0.50000000  0.00000000  1
  O  O16  1  0.00000000  0.25729900  0.00000000  1
  O  O17  1  0.50000000  0.23666400  0.00000000  1
  O  O18  1  0.00000000  0.74270100  0.00000000  1
  O  O19  1  0.50000000  0.76333600  0.00000000  1
  O  O20  1  0.24736500  0.24736500  0.50000000  1
  O  O21  1  0.75263500  0.24736500  0.50000000  1
  O  O22  1  0.24736500  0.75263500  0.50000000  1
  O  O23  1  0.75263500  0.75263500  0.50000000  1
  O  O24  1  0.00000000  0.00000000  0.50000000  1
  O  O25  1  0.50000000  0.00000000  0.50000000  1
  O  O26  1  0.00000000  0.50000000  0.50000000  1
  O  O27  1  0.50000000  0.50000000  0.50000000  1
  O  O28  1  0.25729900  0.00000000  0.00000000  1
  O  O29  1  0.74270100  0.00000000  0.00000000  1
  O  O30  1  0.23666400  0.50000000  0.00000000  1
  O  O31  1  0.76333600  0.50000000  0.00000000  1
