# generated using pymatgen
data_Te4MoW3(SeS)2
_symmetry_space_group_name_H-M   'P 1'
_cell_length_a   3.39450923
_cell_length_b   3.39450923
_cell_length_c   38.85209700
_cell_angle_alpha   90.00000000
_cell_angle_beta   90.00000000
_cell_angle_gamma   119.99998492
_symmetry_Int_Tables_number   1
_chemical_formula_structural   Te4MoW3(SeS)2
_chemical_formula_sum   'Te4 Mo1 W3 Se2 S2'
_cell_volume   387.70298870
_cell_formula_units_Z   1
loop_
 _symmetry_equiv_pos_site_id
 _symmetry_equiv_pos_as_xyz
  1  'x, y, z'
loop_
 _atom_site_type_symbol
 _atom_site_label
 _atom_site_symmetry_multiplicity
 _atom_site_fract_x
 _atom_site_fract_y
 _atom_site_fract_z
 _atom_site_occupancy
  Te  Te0  1  0.00000000  0.00000000  0.33024900  1
  Te  Te1  1  0.33333300  0.66666700  0.42150300  1
  Te  Te2  1  0.33333300  0.66666700  0.51791600  1
  Te  Te3  1  0.00000000  0.00000000  0.23321000  1
  Mo  Mo4  1  0.00000000  0.00000000  0.46970900  1
  W  W5  1  0.00000000  0.00000000  0.09394500  1
  W  W6  1  0.33333300  0.66666700  0.28173100  1
  W  W7  1  0.33333300  0.66666700  0.65754200  1
  Se  Se8  1  0.00000000  0.00000000  0.70019500  1
  Se  Se9  1  0.00000000  0.00000000  0.61489400  1
  S  S10  1  0.33333300  0.66666700  0.05512800  1
  S  S11  1  0.33333300  0.66666700  0.13272600  1
