data_image0
_chemical_formula_structural       As2Li2S4
_chemical_formula_sum              "As2 Li2 S4"
_cell_length_a       5.32746
_cell_length_b       5.33952
_cell_length_c       6.52513
_cell_angle_alpha    114.151
_cell_angle_beta     111.187
_cell_angle_gamma    90

_space_group_name_H-M_alt    "P 1"
_space_group_IT_number       1

loop_
  _space_group_symop_operation_xyz
  'x, y, z'

loop_
  _atom_site_type_symbol
  _atom_site_label
  _atom_site_symmetry_multiplicity
  _atom_site_fract_x
  _atom_site_fract_y
  _atom_site_fract_z
  _atom_site_occupancy
  As  As1       1.0  0.81400  0.05500  0.55700  1.0000
  As  As2       1.0  0.31400  0.50200  0.55700  1.0000
  Li  Li1       1.0  0.99800  0.76300  0.99600  1.0000
  Li  Li2       1.0  0.49800  0.23300  0.99600  1.0000
  S   S1        1.0  0.71800  0.45200  0.47900  1.0000
  S   S2        1.0  0.21800  0.02640  0.47900  1.0000
  S   S3        1.0  0.97700  0.24100  0.96100  1.0000
  S   S4        1.0  0.47700  0.72000  0.96100  1.0000
