# generated using pymatgen
data_BaCaMg14O16
_symmetry_space_group_name_H-M   'P 1'
_cell_length_a   4.52896000
_cell_length_b   8.74644800
_cell_length_c   8.97213900
_cell_angle_alpha   90.00000000
_cell_angle_beta   90.00000000
_cell_angle_gamma   90.00000000
_symmetry_Int_Tables_number   1
_chemical_formula_structural   BaCaMg14O16
_chemical_formula_sum   'Ba1 Ca1 Mg14 O16'
_cell_volume   355.40717955
_cell_formula_units_Z   1
loop_
 _symmetry_equiv_pos_site_id
 _symmetry_equiv_pos_as_xyz
  1  'x, y, z'
loop_
 _atom_site_type_symbol
 _atom_site_label
 _atom_site_symmetry_multiplicity
 _atom_site_fract_x
 _atom_site_fract_y
 _atom_site_fract_z
 _atom_site_occupancy
  Ba  Ba0  1  0.00000000  0.00000000  0.50000000  1
  Ca  Ca1  1  0.00000000  0.00000000  0.00000000  1
  Mg  Mg2  1  0.00000000  0.50000000  0.00000000  1
  Mg  Mg3  1  0.00000000  0.50000000  0.50000000  1
  Mg  Mg4  1  0.50000000  0.00000000  0.24024900  1
  Mg  Mg5  1  0.50000000  0.00000000  0.75975100  1
  Mg  Mg6  1  0.50000000  0.50000000  0.24856400  1
  Mg  Mg7  1  0.50000000  0.50000000  0.75143600  1
  Mg  Mg8  1  0.50000000  0.25793400  0.00000000  1
  Mg  Mg9  1  0.50000000  0.26435100  0.50000000  1
  Mg  Mg10  1  0.50000000  0.74206600  0.00000000  1
  Mg  Mg11  1  0.50000000  0.73564900  0.50000000  1
  Mg  Mg12  1  0.00000000  0.26106300  0.24425800  1
  Mg  Mg13  1  0.00000000  0.26106300  0.75574200  1
  Mg  Mg14  1  0.00000000  0.73893700  0.24425800  1
  Mg  Mg15  1  0.00000000  0.73893700  0.75574200  1
  O  O16  1  0.00000000  0.26687100  0.00000000  1
  O  O17  1  0.00000000  0.28171600  0.50000000  1
  O  O18  1  0.00000000  0.73312900  0.00000000  1
  O  O19  1  0.00000000  0.71828400  0.50000000  1
  O  O20  1  0.50000000  0.25126600  0.24935300  1
  O  O21  1  0.50000000  0.25126600  0.75064700  1
  O  O22  1  0.50000000  0.74873400  0.24935300  1
  O  O23  1  0.50000000  0.74873400  0.75064700  1
  O  O24  1  0.50000000  0.00000000  0.00000000  1
  O  O25  1  0.50000000  0.00000000  0.50000000  1
  O  O26  1  0.50000000  0.50000000  0.00000000  1
  O  O27  1  0.50000000  0.50000000  0.50000000  1
  O  O28  1  0.00000000  0.00000000  0.23351400  1
  O  O29  1  0.00000000  0.00000000  0.76648600  1
  O  O30  1  0.00000000  0.50000000  0.24441500  1
  O  O31  1  0.00000000  0.50000000  0.75558500  1
