# generated using pymatgen
data_LaCoO3
_symmetry_space_group_name_H-M   'P 1'
_cell_length_a   5.46744700
_cell_length_b   5.55013600
_cell_length_c   7.80973500
_cell_angle_alpha   90.00000000
_cell_angle_beta   90.00000000
_cell_angle_gamma   90.00000000
_symmetry_Int_Tables_number   1
_chemical_formula_structural   LaCoO3
_chemical_formula_sum   'La4 Co4 O12'
_cell_volume   236.98698980
_cell_formula_units_Z   4
loop_
 _symmetry_equiv_pos_site_id
 _symmetry_equiv_pos_as_xyz
  1  'x, y, z'
loop_
 _atom_site_type_symbol
 _atom_site_label
 _atom_site_symmetry_multiplicity
 _atom_site_fract_x
 _atom_site_fract_y
 _atom_site_fract_z
 _atom_site_occupancy
  La  La0  1  0.51031300  0.99391800  0.75000000  1
  La  La1  1  0.98968700  0.49391800  0.25000000  1
  La  La2  1  0.01031300  0.50608200  0.75000000  1
  La  La3  1  0.48968700  0.00608200  0.25000000  1
  Co  Co4  1  0.50000000  0.50000000  0.50000000  1
  Co  Co5  1  0.00000000  0.00000000  0.50000000  1
  Co  Co6  1  0.00000000  0.00000000  0.00000000  1
  Co  Co7  1  0.50000000  0.50000000  0.00000000  1
  O  O8  1  0.23645200  0.25473300  0.45762900  1
  O  O9  1  0.26354800  0.75473300  0.54237100  1
  O  O10  1  0.73645200  0.24526700  0.04237100  1
  O  O11  1  0.76354800  0.74526700  0.95762900  1
  O  O12  1  0.76354800  0.74526700  0.54237100  1
  O  O13  1  0.73645200  0.24526700  0.45762900  1
  O  O14  1  0.26354800  0.75473300  0.95762900  1
  O  O15  1  0.23645200  0.25473300  0.04237100  1
  O  O16  1  0.99825400  0.07322700  0.75000000  1
  O  O17  1  0.50174600  0.57322700  0.25000000  1
  O  O18  1  0.49825400  0.42677300  0.75000000  1
  O  O19  1  0.00174600  0.92677300  0.25000000  1
