# generated using pymatgen
data_RbHfMg30O31
_symmetry_space_group_name_H-M   'P 1'
_cell_length_a   8.59685900
_cell_length_b   8.71998400
_cell_length_c   8.76696200
_cell_angle_alpha   90.00000000
_cell_angle_beta   90.00000000
_cell_angle_gamma   90.00000000
_symmetry_Int_Tables_number   1
_chemical_formula_structural   RbHfMg30O31
_chemical_formula_sum   'Rb1 Hf1 Mg30 O31'
_cell_volume   657.21068553
_cell_formula_units_Z   1
loop_
 _symmetry_equiv_pos_site_id
 _symmetry_equiv_pos_as_xyz
  1  'x, y, z'
loop_
 _atom_site_type_symbol
 _atom_site_label
 _atom_site_symmetry_multiplicity
 _atom_site_fract_x
 _atom_site_fract_y
 _atom_site_fract_z
 _atom_site_occupancy
  Rb  Rb0  1  0.02036700  0.00000000  0.00000000  1
  Hf  Hf1  1  0.99879700  0.00000000  0.50000000  1
  Mg  Mg2  1  0.99849400  0.50000000  0.00000000  1
  Mg  Mg3  1  0.99980600  0.50000000  0.50000000  1
  Mg  Mg4  1  0.49057100  0.00000000  0.00000000  1
  Mg  Mg5  1  0.50212400  0.00000000  0.50000000  1
  Mg  Mg6  1  0.50199800  0.50000000  0.00000000  1
  Mg  Mg7  1  0.50015700  0.50000000  0.50000000  1
  Mg  Mg8  1  0.99957500  0.25999400  0.24458600  1
  Mg  Mg9  1  0.99957500  0.25999400  0.75541400  1
  Mg  Mg10  1  0.99957500  0.74000600  0.24458600  1
  Mg  Mg11  1  0.99957500  0.74000600  0.75541400  1
  Mg  Mg12  1  0.50040700  0.25078700  0.24815900  1
  Mg  Mg13  1  0.50040700  0.25078700  0.75184100  1
  Mg  Mg14  1  0.50040700  0.74921300  0.24815900  1
  Mg  Mg15  1  0.50040700  0.74921300  0.75184100  1
  Mg  Mg16  1  0.26207900  0.00000000  0.25072900  1
  Mg  Mg17  1  0.26207900  0.00000000  0.74927100  1
  Mg  Mg18  1  0.25109700  0.50000000  0.24984300  1
  Mg  Mg19  1  0.25109700  0.50000000  0.75015700  1
  Mg  Mg20  1  0.74207300  0.00000000  0.24243800  1
  Mg  Mg21  1  0.74207300  0.00000000  0.75756200  1
  Mg  Mg22  1  0.74874500  0.50000000  0.24816100  1
  Mg  Mg23  1  0.74874500  0.50000000  0.75183900  1
  Mg  Mg24  1  0.25577500  0.26016200  0.00000000  1
  Mg  Mg25  1  0.25563000  0.25712700  0.50000000  1
  Mg  Mg26  1  0.25577500  0.73983800  0.00000000  1
  Mg  Mg27  1  0.25563000  0.74287300  0.50000000  1
  Mg  Mg28  1  0.74751900  0.25229400  0.00000000  1
  Mg  Mg29  1  0.74416100  0.25607300  0.50000000  1
  Mg  Mg30  1  0.74751900  0.74770600  0.00000000  1
  Mg  Mg31  1  0.74416100  0.74392700  0.50000000  1
  O  O32  1  0.24822700  0.00000000  0.50000000  1
  O  O33  1  0.25495700  0.50000000  0.00000000  1
  O  O34  1  0.24946000  0.50000000  0.50000000  1
  O  O35  1  0.72395800  0.00000000  0.00000000  1
  O  O36  1  0.75215400  0.00000000  0.50000000  1
  O  O37  1  0.74592000  0.50000000  0.00000000  1
  O  O38  1  0.75047700  0.50000000  0.50000000  1
  O  O39  1  0.24801200  0.24995900  0.25243200  1
  O  O40  1  0.24801200  0.24995900  0.74756800  1
  O  O41  1  0.24801200  0.75004100  0.25243200  1
  O  O42  1  0.24801200  0.75004100  0.74756800  1
  O  O43  1  0.75170000  0.24846200  0.25079800  1
  O  O44  1  0.75170000  0.24846200  0.74920200  1
  O  O45  1  0.75170000  0.75153800  0.25079800  1
  O  O46  1  0.75170000  0.75153800  0.74920200  1
  O  O47  1  0.99733100  0.00000000  0.27243400  1
  O  O48  1  0.99733100  0.00000000  0.72756600  1
  O  O49  1  0.99998800  0.50000000  0.25743300  1
  O  O50  1  0.99998800  0.50000000  0.74256700  1
  O  O51  1  0.50193400  0.00000000  0.25983100  1
  O  O52  1  0.50193400  0.00000000  0.74016900  1
  O  O53  1  0.49987300  0.50000000  0.25226300  1
  O  O54  1  0.49987300  0.50000000  0.74773700  1
  O  O55  1  0.99905400  0.27890300  0.00000000  1
  O  O56  1  0.99997300  0.24659800  0.50000000  1
  O  O57  1  0.99905400  0.72109700  0.00000000  1
  O  O58  1  0.99997300  0.75340200  0.50000000  1
  O  O59  1  0.50170300  0.25679000  0.00000000  1
  O  O60  1  0.49994300  0.24947800  0.50000000  1
  O  O61  1  0.50170300  0.74321000  0.00000000  1
  O  O62  1  0.49994300  0.75052200  0.50000000  1
