# generated using pymatgen
data_CsKMg30O31
_symmetry_space_group_name_H-M   'P 1'
_cell_length_a   8.55303400
_cell_length_b   8.75299200
_cell_length_c   8.75741400
_cell_angle_alpha   90.00000000
_cell_angle_beta   90.00000000
_cell_angle_gamma   90.00000000
_symmetry_Int_Tables_number   1
_chemical_formula_structural   CsKMg30O31
_chemical_formula_sum   'Cs1 K1 Mg30 O31'
_cell_volume   655.62063048
_cell_formula_units_Z   1
loop_
 _symmetry_equiv_pos_site_id
 _symmetry_equiv_pos_as_xyz
  1  'x, y, z'
loop_
 _atom_site_type_symbol
 _atom_site_label
 _atom_site_symmetry_multiplicity
 _atom_site_fract_x
 _atom_site_fract_y
 _atom_site_fract_z
 _atom_site_occupancy
  Cs  Cs0  1  0.12648700  0.00000000  0.50000000  1
  K  K1  1  0.99421800  0.00000000  0.00000000  1
  Mg  Mg2  1  0.99509900  0.50000000  0.00000000  1
  Mg  Mg3  1  0.98813500  0.50000000  0.50000000  1
  Mg  Mg4  1  0.50166600  0.00000000  0.00000000  1
  Mg  Mg5  1  0.51609900  0.00000000  0.50000000  1
  Mg  Mg6  1  0.50146100  0.50000000  0.00000000  1
  Mg  Mg7  1  0.50576400  0.50000000  0.50000000  1
  Mg  Mg8  1  0.99508500  0.25387800  0.24913100  1
  Mg  Mg9  1  0.99508500  0.25387800  0.75086900  1
  Mg  Mg10  1  0.99508500  0.74612200  0.24913100  1
  Mg  Mg11  1  0.99508500  0.74612200  0.75086900  1
  Mg  Mg12  1  0.49830100  0.24917600  0.25107200  1
  Mg  Mg13  1  0.49830100  0.24917600  0.74892800  1
  Mg  Mg14  1  0.49830100  0.75082400  0.25107200  1
  Mg  Mg15  1  0.49830100  0.75082400  0.74892800  1
  Mg  Mg16  1  0.25138900  0.00000000  0.21770900  1
  Mg  Mg17  1  0.25138900  0.00000000  0.78229100  1
  Mg  Mg18  1  0.24763500  0.50000000  0.24350600  1
  Mg  Mg19  1  0.24763500  0.50000000  0.75649400  1
  Mg  Mg20  1  0.75293800  0.00000000  0.25608400  1
  Mg  Mg21  1  0.75293800  0.00000000  0.74391600  1
  Mg  Mg22  1  0.74726900  0.50000000  0.24931900  1
  Mg  Mg23  1  0.74726900  0.50000000  0.75068100  1
  Mg  Mg24  1  0.24896500  0.25948600  0.00000000  1
  Mg  Mg25  1  0.25092200  0.28310600  0.50000000  1
  Mg  Mg26  1  0.24896500  0.74051400  0.00000000  1
  Mg  Mg27  1  0.25092200  0.71689400  0.50000000  1
  Mg  Mg28  1  0.74640000  0.25032600  0.00000000  1
  Mg  Mg29  1  0.75686200  0.24392600  0.50000000  1
  Mg  Mg30  1  0.74640000  0.74967400  0.00000000  1
  Mg  Mg31  1  0.75686200  0.75607400  0.50000000  1
  O  O32  1  0.27466100  0.00000000  0.00000000  1
  O  O33  1  0.25514300  0.50000000  0.00000000  1
  O  O34  1  0.25691300  0.50000000  0.50000000  1
  O  O35  1  0.72293600  0.00000000  0.00000000  1
  O  O36  1  0.74222300  0.00000000  0.50000000  1
  O  O37  1  0.74374600  0.50000000  0.00000000  1
  O  O38  1  0.74297600  0.50000000  0.50000000  1
  O  O39  1  0.24719200  0.24766700  0.25214200  1
  O  O40  1  0.24719200  0.24766700  0.74785800  1
  O  O41  1  0.24719200  0.75233300  0.25214200  1
  O  O42  1  0.24719200  0.75233300  0.74785800  1
  O  O43  1  0.74622200  0.25089600  0.25055800  1
  O  O44  1  0.74622200  0.25089600  0.74944200  1
  O  O45  1  0.74622200  0.74910400  0.25055800  1
  O  O46  1  0.74622200  0.74910400  0.74944200  1
  O  O47  1  0.99316200  0.00000000  0.25946500  1
  O  O48  1  0.99316200  0.00000000  0.74053500  1
  O  O49  1  0.99942500  0.50000000  0.25092900  1
  O  O50  1  0.99942500  0.50000000  0.74907100  1
  O  O51  1  0.48927500  0.00000000  0.26105400  1
  O  O52  1  0.48927500  0.00000000  0.73894600  1
  O  O53  1  0.49613100  0.50000000  0.25241000  1
  O  O54  1  0.49613100  0.50000000  0.74759000  1
  O  O55  1  0.00078300  0.27462900  0.00000000  1
  O  O56  1  0.00001900  0.27385800  0.50000000  1
  O  O57  1  0.00078300  0.72537100  0.00000000  1
  O  O58  1  0.00001900  0.72614200  0.50000000  1
  O  O59  1  0.49612700  0.25384500  0.00000000  1
  O  O60  1  0.49033600  0.24537800  0.50000000  1
  O  O61  1  0.49612700  0.74615500  0.00000000  1
  O  O62  1  0.49033600  0.75462200  0.50000000  1
