# generated using pymatgen
data_RbHfMg30O31
_symmetry_space_group_name_H-M   'P 1'
_cell_length_a   8.65570400
_cell_length_b   8.67869700
_cell_length_c   8.68109200
_cell_angle_alpha   90.00000000
_cell_angle_beta   90.00000000
_cell_angle_gamma   90.00000000
_symmetry_Int_Tables_number   1
_chemical_formula_structural   RbHfMg30O31
_chemical_formula_sum   'Rb1 Hf1 Mg30 O31'
_cell_volume   652.12564798
_cell_formula_units_Z   1
loop_
 _symmetry_equiv_pos_site_id
 _symmetry_equiv_pos_as_xyz
  1  'x, y, z'
loop_
 _atom_site_type_symbol
 _atom_site_label
 _atom_site_symmetry_multiplicity
 _atom_site_fract_x
 _atom_site_fract_y
 _atom_site_fract_z
 _atom_site_occupancy
  Rb  Rb0  1  0.00261100  0.00000000  0.00000000  1
  Hf  Hf1  1  0.02165500  0.00000000  0.50000000  1
  Mg  Mg2  1  0.99888400  0.50000000  0.00000000  1
  Mg  Mg3  1  0.99660300  0.50000000  0.50000000  1
  Mg  Mg4  1  0.50223100  0.00000000  0.00000000  1
  Mg  Mg5  1  0.50137300  0.00000000  0.50000000  1
  Mg  Mg6  1  0.50065800  0.50000000  0.00000000  1
  Mg  Mg7  1  0.50166800  0.50000000  0.50000000  1
  Mg  Mg8  1  0.99880600  0.26057200  0.24666300  1
  Mg  Mg9  1  0.99880600  0.26057200  0.75333700  1
  Mg  Mg10  1  0.99880600  0.73942800  0.24666300  1
  Mg  Mg11  1  0.99880600  0.73942800  0.75333700  1
  Mg  Mg12  1  0.50042800  0.25216000  0.24929000  1
  Mg  Mg13  1  0.50042800  0.25216000  0.75071000  1
  Mg  Mg14  1  0.50042800  0.74784000  0.24929000  1
  Mg  Mg15  1  0.50042800  0.74784000  0.75071000  1
  Mg  Mg16  1  0.26295300  0.00000000  0.24237800  1
  Mg  Mg17  1  0.26295300  0.00000000  0.75762200  1
  Mg  Mg18  1  0.25158600  0.50000000  0.24753500  1
  Mg  Mg19  1  0.25158600  0.50000000  0.75246500  1
  Mg  Mg20  1  0.74243200  0.00000000  0.24963900  1
  Mg  Mg21  1  0.74243200  0.00000000  0.75036100  1
  Mg  Mg22  1  0.74767600  0.50000000  0.24951600  1
  Mg  Mg23  1  0.74767600  0.50000000  0.75048400  1
  Mg  Mg24  1  0.25475100  0.25655100  0.00000000  1
  Mg  Mg25  1  0.25379300  0.25820800  0.50000000  1
  Mg  Mg26  1  0.25475100  0.74344900  0.00000000  1
  Mg  Mg27  1  0.25379300  0.74179200  0.50000000  1
  Mg  Mg28  1  0.74583600  0.25374200  0.00000000  1
  Mg  Mg29  1  0.74730300  0.25145100  0.50000000  1
  Mg  Mg30  1  0.74583600  0.74625800  0.00000000  1
  Mg  Mg31  1  0.74730300  0.74854900  0.50000000  1
  O  O32  1  0.28155300  0.00000000  0.00000000  1
  O  O33  1  0.25588300  0.50000000  0.00000000  1
  O  O34  1  0.25046600  0.50000000  0.50000000  1
  O  O35  1  0.72225100  0.00000000  0.00000000  1
  O  O36  1  0.74747300  0.00000000  0.50000000  1
  O  O37  1  0.74380000  0.50000000  0.00000000  1
  O  O38  1  0.74732400  0.50000000  0.50000000  1
  O  O39  1  0.24938200  0.25243000  0.24558800  1
  O  O40  1  0.24938200  0.25243000  0.75441200  1
  O  O41  1  0.24938200  0.74757000  0.24558800  1
  O  O42  1  0.24938200  0.74757000  0.75441200  1
  O  O43  1  0.74965900  0.25001600  0.24943600  1
  O  O44  1  0.74965900  0.25001600  0.75056400  1
  O  O45  1  0.74965900  0.74998400  0.24943600  1
  O  O46  1  0.74965900  0.74998400  0.75056400  1
  O  O47  1  0.99200700  0.00000000  0.27463600  1
  O  O48  1  0.99200700  0.00000000  0.72536400  1
  O  O49  1  0.99903500  0.50000000  0.25692700  1
  O  O50  1  0.99903500  0.50000000  0.74307300  1
  O  O51  1  0.50040800  0.00000000  0.25741800  1
  O  O52  1  0.50040800  0.00000000  0.74258200  1
  O  O53  1  0.49994400  0.50000000  0.25267600  1
  O  O54  1  0.49994400  0.50000000  0.74732400  1
  O  O55  1  0.99850900  0.27953400  0.00000000  1
  O  O56  1  0.99397800  0.25594300  0.50000000  1
  O  O57  1  0.99850900  0.72046600  0.00000000  1
  O  O58  1  0.99397800  0.74405700  0.50000000  1
  O  O59  1  0.50062700  0.25587000  0.00000000  1
  O  O60  1  0.50039400  0.25214800  0.50000000  1
  O  O61  1  0.50062700  0.74413000  0.00000000  1
  O  O62  1  0.50039400  0.74785200  0.50000000  1
