# generated using pymatgen
data_CeSe2
_symmetry_space_group_name_H-M   'P 1'
_cell_length_a   12.64999235
_cell_length_b   12.31479383
_cell_length_c   4.08622510
_cell_angle_alpha   85.25280526
_cell_angle_beta   75.96848976
_cell_angle_gamma   18.77870498
_symmetry_Int_Tables_number   1
_chemical_formula_structural   CeSe2
_chemical_formula_sum   'Ce1 Se2'
_cell_volume   175.47546656
_cell_formula_units_Z   1
loop_
 _symmetry_equiv_pos_site_id
 _symmetry_equiv_pos_as_xyz
  1  'x, y, z'
loop_
 _atom_site_type_symbol
 _atom_site_label
 _atom_site_symmetry_multiplicity
 _atom_site_fract_x
 _atom_site_fract_y
 _atom_site_fract_z
 _atom_site_occupancy
  Ce  Ce0  1  0.92503300  0.07496700  0.92503300  1
  Se  Se1  1  0.32748700  0.81152000  0.18848000  1
  Se  Se2  1  0.18848000  0.67251300  0.32748700  1
