# generated using pymatgen
data_BaMg30FeO32
_symmetry_space_group_name_H-M   'P 1'
_cell_length_a   8.67230800
_cell_length_b   8.67230800
_cell_length_c   8.64616800
_cell_angle_alpha   90.00000000
_cell_angle_beta   90.00000000
_cell_angle_gamma   90.00000000
_symmetry_Int_Tables_number   1
_chemical_formula_structural   BaMg30FeO32
_chemical_formula_sum   'Ba1 Mg30 Fe1 O32'
_cell_volume   650.26900970
_cell_formula_units_Z   1
loop_
 _symmetry_equiv_pos_site_id
 _symmetry_equiv_pos_as_xyz
  1  'x, y, z'
loop_
 _atom_site_type_symbol
 _atom_site_label
 _atom_site_symmetry_multiplicity
 _atom_site_fract_x
 _atom_site_fract_y
 _atom_site_fract_z
 _atom_site_occupancy
  Ba  Ba0  1  0.00000000  0.00000000  0.50000000  1
  Mg  Mg1  1  0.50000000  0.00000000  0.00000000  1
  Mg  Mg2  1  0.50000000  0.00000000  0.50000000  1
  Mg  Mg3  1  0.00000000  0.50000000  0.00000000  1
  Mg  Mg4  1  0.00000000  0.50000000  0.50000000  1
  Mg  Mg5  1  0.50000000  0.50000000  0.00000000  1
  Mg  Mg6  1  0.50000000  0.50000000  0.50000000  1
  Mg  Mg7  1  0.25911200  0.00000000  0.24275300  1
  Mg  Mg8  1  0.25911200  0.00000000  0.75724700  1
  Mg  Mg9  1  0.74088800  0.00000000  0.24275300  1
  Mg  Mg10  1  0.74088800  0.00000000  0.75724700  1
  Mg  Mg11  1  0.25076400  0.50000000  0.24906600  1
  Mg  Mg12  1  0.25076400  0.50000000  0.75093400  1
  Mg  Mg13  1  0.74923600  0.50000000  0.24906600  1
  Mg  Mg14  1  0.74923600  0.50000000  0.75093400  1
  Mg  Mg15  1  0.00000000  0.25911200  0.24275300  1
  Mg  Mg16  1  0.00000000  0.25911200  0.75724700  1
  Mg  Mg17  1  0.50000000  0.25076400  0.24906600  1
  Mg  Mg18  1  0.50000000  0.25076400  0.75093400  1
  Mg  Mg19  1  0.00000000  0.74088800  0.24275300  1
  Mg  Mg20  1  0.00000000  0.74088800  0.75724700  1
  Mg  Mg21  1  0.50000000  0.74923600  0.24906600  1
  Mg  Mg22  1  0.50000000  0.74923600  0.75093400  1
  Mg  Mg23  1  0.25001600  0.25001600  0.00000000  1
  Mg  Mg24  1  0.25744900  0.25744900  0.50000000  1
  Mg  Mg25  1  0.74998400  0.25001600  0.00000000  1
  Mg  Mg26  1  0.74255100  0.25744900  0.50000000  1
  Mg  Mg27  1  0.25001600  0.74998400  0.00000000  1
  Mg  Mg28  1  0.25744900  0.74255100  0.50000000  1
  Mg  Mg29  1  0.74998400  0.74998400  0.00000000  1
  Mg  Mg30  1  0.74255100  0.74255100  0.50000000  1
  Fe  Fe31  1  0.00000000  0.00000000  0.00000000  1
  O  O32  1  0.00000000  0.26191800  0.00000000  1
  O  O33  1  0.00000000  0.27881400  0.50000000  1
  O  O34  1  0.50000000  0.25210800  0.00000000  1
  O  O35  1  0.50000000  0.25565800  0.50000000  1
  O  O36  1  0.00000000  0.73808200  0.00000000  1
  O  O37  1  0.00000000  0.72118600  0.50000000  1
  O  O38  1  0.50000000  0.74789200  0.00000000  1
  O  O39  1  0.50000000  0.74434200  0.50000000  1
  O  O40  1  0.24887500  0.24887500  0.25067200  1
  O  O41  1  0.24887500  0.24887500  0.74932800  1
  O  O42  1  0.75112500  0.24887500  0.25067200  1
  O  O43  1  0.75112500  0.24887500  0.74932800  1
  O  O44  1  0.24887500  0.75112500  0.25067200  1
  O  O45  1  0.24887500  0.75112500  0.74932800  1
  O  O46  1  0.75112500  0.75112500  0.25067200  1
  O  O47  1  0.75112500  0.75112500  0.74932800  1
  O  O48  1  0.00000000  0.00000000  0.22236800  1
  O  O49  1  0.00000000  0.00000000  0.77763200  1
  O  O50  1  0.50000000  0.00000000  0.24550600  1
  O  O51  1  0.50000000  0.00000000  0.75449400  1
  O  O52  1  0.00000000  0.50000000  0.24550600  1
  O  O53  1  0.00000000  0.50000000  0.75449400  1
  O  O54  1  0.50000000  0.50000000  0.24901600  1
  O  O55  1  0.50000000  0.50000000  0.75098400  1
  O  O56  1  0.26191800  0.00000000  0.00000000  1
  O  O57  1  0.27881400  0.00000000  0.50000000  1
  O  O58  1  0.73808200  0.00000000  0.00000000  1
  O  O59  1  0.72118600  0.00000000  0.50000000  1
  O  O60  1  0.25210800  0.50000000  0.00000000  1
  O  O61  1  0.25565800  0.50000000  0.50000000  1
  O  O62  1  0.74789200  0.50000000  0.00000000  1
  O  O63  1  0.74434200  0.50000000  0.50000000  1
