# generated using pymatgen
data_KRbMg30O31
_symmetry_space_group_name_H-M   'P 1'
_cell_length_a   8.69535900
_cell_length_b   8.71591300
_cell_length_c   8.73989400
_cell_angle_alpha   90.00000000
_cell_angle_beta   90.00000000
_cell_angle_gamma   90.00000000
_symmetry_Int_Tables_number   1
_chemical_formula_structural   KRbMg30O31
_chemical_formula_sum   'K1 Rb1 Mg30 O31'
_cell_volume   662.37902134
_cell_formula_units_Z   1
loop_
 _symmetry_equiv_pos_site_id
 _symmetry_equiv_pos_as_xyz
  1  'x, y, z'
loop_
 _atom_site_type_symbol
 _atom_site_label
 _atom_site_symmetry_multiplicity
 _atom_site_fract_x
 _atom_site_fract_y
 _atom_site_fract_z
 _atom_site_occupancy
  K  K0  1  0.99537000  0.00000000  0.00000000  1
  Rb  Rb1  1  0.99207700  0.50000000  0.50000000  1
  Mg  Mg2  1  0.97972300  0.00000000  0.50000000  1
  Mg  Mg3  1  0.99830400  0.50000000  0.00000000  1
  Mg  Mg4  1  0.49944200  0.00000000  0.00000000  1
  Mg  Mg5  1  0.51871700  0.00000000  0.50000000  1
  Mg  Mg6  1  0.50103500  0.50000000  0.00000000  1
  Mg  Mg7  1  0.49793500  0.50000000  0.50000000  1
  Mg  Mg8  1  0.00348500  0.24904100  0.24776800  1
  Mg  Mg9  1  0.00348500  0.24904100  0.75223200  1
  Mg  Mg10  1  0.00348500  0.75095900  0.24776800  1
  Mg  Mg11  1  0.00348500  0.75095900  0.75223200  1
  Mg  Mg12  1  0.49807200  0.24980500  0.24932500  1
  Mg  Mg13  1  0.49807200  0.24980500  0.75067500  1
  Mg  Mg14  1  0.49807200  0.75019500  0.24932500  1
  Mg  Mg15  1  0.49807200  0.75019500  0.75067500  1
  Mg  Mg16  1  0.24816800  0.00000000  0.22746200  1
  Mg  Mg17  1  0.24816800  0.00000000  0.77253800  1
  Mg  Mg18  1  0.25126700  0.50000000  0.24152200  1
  Mg  Mg19  1  0.25126700  0.50000000  0.75847800  1
  Mg  Mg20  1  0.74917700  0.00000000  0.24776800  1
  Mg  Mg21  1  0.74917700  0.00000000  0.75223200  1
  Mg  Mg22  1  0.74722000  0.50000000  0.24498100  1
  Mg  Mg23  1  0.74722000  0.50000000  0.75501900  1
  Mg  Mg24  1  0.25069300  0.25674900  0.00000000  1
  Mg  Mg25  1  0.25066300  0.27150800  0.50000000  1
  Mg  Mg26  1  0.25069300  0.74325100  0.00000000  1
  Mg  Mg27  1  0.25066300  0.72849200  0.50000000  1
  Mg  Mg28  1  0.74916400  0.25291900  0.00000000  1
  Mg  Mg29  1  0.74474800  0.25092000  0.50000000  1
  Mg  Mg30  1  0.74916400  0.74708100  0.00000000  1
  Mg  Mg31  1  0.74474800  0.74908000  0.50000000  1
  O  O32  1  0.27321500  0.00000000  0.00000000  1
  O  O33  1  0.26100100  0.50000000  0.00000000  1
  O  O34  1  0.27702000  0.50000000  0.50000000  1
  O  O35  1  0.72349300  0.00000000  0.00000000  1
  O  O36  1  0.74605400  0.00000000  0.50000000  1
  O  O37  1  0.74080000  0.50000000  0.00000000  1
  O  O38  1  0.71665100  0.50000000  0.50000000  1
  O  O39  1  0.25210700  0.24674400  0.25237700  1
  O  O40  1  0.25210700  0.24674400  0.74762300  1
  O  O41  1  0.25210700  0.75325600  0.25237700  1
  O  O42  1  0.25210700  0.75325600  0.74762300  1
  O  O43  1  0.75034200  0.24801000  0.25342400  1
  O  O44  1  0.75034200  0.24801000  0.74657600  1
  O  O45  1  0.75034200  0.75199000  0.25342400  1
  O  O46  1  0.75034200  0.75199000  0.74657600  1
  O  O47  1  0.01006600  0.00000000  0.27207400  1
  O  O48  1  0.01006600  0.00000000  0.72792600  1
  O  O49  1  0.00306500  0.50000000  0.22401800  1
  O  O50  1  0.00306500  0.50000000  0.77598200  1
  O  O51  1  0.49206100  0.00000000  0.26020200  1
  O  O52  1  0.49206100  0.00000000  0.73979800  1
  O  O53  1  0.49887900  0.50000000  0.24720600  1
  O  O54  1  0.49887900  0.50000000  0.75279400  1
  O  O55  1  0.00186200  0.26949000  0.00000000  1
  O  O56  1  0.01833000  0.22049300  0.50000000  1
  O  O57  1  0.00186200  0.73051000  0.00000000  1
  O  O58  1  0.01833000  0.77950700  0.50000000  1
  O  O59  1  0.49960800  0.25103700  0.00000000  1
  O  O60  1  0.49159700  0.23831600  0.50000000  1
  O  O61  1  0.49960800  0.74896300  0.00000000  1
  O  O62  1  0.49159700  0.76168400  0.50000000  1
