# generated using pymatgen
data_Sr5Ca3Ti5Mn3O24
_symmetry_space_group_name_H-M   'P 1'
_cell_length_a   7.76626600
_cell_length_b   7.80070717
_cell_length_c   7.80625317
_cell_angle_alpha   89.99524895
_cell_angle_beta   89.98912986
_cell_angle_gamma   89.98814526
_symmetry_Int_Tables_number   1
_chemical_formula_structural   Sr5Ca3Ti5Mn3O24
_chemical_formula_sum   'Sr5 Ca3 Ti5 Mn3 O24'
_cell_volume   472.92127282
_cell_formula_units_Z   1
loop_
 _symmetry_equiv_pos_site_id
 _symmetry_equiv_pos_as_xyz
  1  'x, y, z'
loop_
 _atom_site_type_symbol
 _atom_site_label
 _atom_site_symmetry_multiplicity
 _atom_site_fract_x
 _atom_site_fract_y
 _atom_site_fract_z
 _atom_site_occupancy
  Sr  Sr0  1  0.75483300  0.24822400  0.75156700  1
  Sr  Sr1  1  0.75478900  0.24822600  0.24835900  1
  Sr  Sr2  1  0.24521300  0.24842800  0.75167500  1
  Sr  Sr3  1  0.24535200  0.24813400  0.24831300  1
  Sr  Sr4  1  0.24501200  0.75171200  0.75193500  1
  Ca  Ca5  1  0.75751400  0.75286900  0.75324000  1
  Ca  Ca6  1  0.75844700  0.75280600  0.24659100  1
  Ca  Ca7  1  0.24177400  0.75299700  0.24705000  1
  Ti  Ti8  1  0.99915500  0.50429500  0.49851800  1
  Ti  Ti9  1  0.50152500  0.99753200  0.00081200  1
  Ti  Ti10  1  0.50139600  0.99736500  0.49917600  1
  Ti  Ti11  1  0.50146900  0.50247500  0.00087600  1
  Ti  Ti12  1  0.50080800  0.50266700  0.49908500  1
  Mn  Mn13  1  0.99982300  0.99842100  0.00046100  1
  Mn  Mn14  1  0.99966400  0.99899200  0.49935400  1
  Mn  Mn15  1  0.99961300  0.50208700  0.00034500  1
  O  O16  1  0.75307100  0.99453800  0.00083200  1
  O  O17  1  0.75315700  0.99476900  0.49908000  1
  O  O18  1  0.75314500  0.50520000  0.00087200  1
  O  O19  1  0.75096300  0.50413400  0.49906500  1
  O  O20  1  0.24673000  0.99595600  0.00246500  1
  O  O21  1  0.24671600  0.99609300  0.49771700  1
  O  O22  1  0.24660100  0.50403200  0.00235800  1
  O  O23  1  0.24881100  0.50343700  0.49823100  1
  O  O24  1  0.00000500  0.25047800  0.00037800  1
  O  O25  1  0.99934000  0.24698200  0.49910000  1
  O  O26  1  0.99538200  0.74942900  0.00424100  1
  O  O27  1  0.99763900  0.75269800  0.49782900  1
  O  O28  1  0.50072800  0.24962800  0.00083000  1
  O  O29  1  0.50075600  0.24961100  0.49917300  1
  O  O30  1  0.50166600  0.75024300  0.00180700  1
  O  O31  1  0.50161500  0.75004400  0.49831500  1
  O  O32  1  0.99529600  0.99470200  0.74957600  1
  O  O33  1  0.99995300  0.99125500  0.25050500  1
  O  O34  1  0.99727600  0.50441300  0.75297000  1
  O  O35  1  0.99920200  0.50566800  0.24718000  1
  O  O36  1  0.50197800  0.99615800  0.75035700  1
  O  O37  1  0.50086400  0.99520000  0.24967100  1
  O  O38  1  0.50187200  0.50363300  0.75027600  1
  O  O39  1  0.50084500  0.50447000  0.24981600  1
