# generated using pymatgen
data_K2Na6V5Mo3O20
_symmetry_space_group_name_H-M   'P 1'
_cell_length_a   11.27070864
_cell_length_b   11.59464047
_cell_length_c   16.75489844
_cell_angle_alpha   110.41072927
_cell_angle_beta   109.04696421
_cell_angle_gamma   89.97550385
_symmetry_Int_Tables_number   1
_chemical_formula_structural   K2Na6V5Mo3O20
_chemical_formula_sum   'K8 Na24 V20 Mo12 O80'
_cell_volume   1923.76144988
_cell_formula_units_Z   4
loop_
 _symmetry_equiv_pos_site_id
 _symmetry_equiv_pos_as_xyz
  1  'x, y, z'
loop_
 _atom_site_type_symbol
 _atom_site_label
 _atom_site_symmetry_multiplicity
 _atom_site_fract_x
 _atom_site_fract_y
 _atom_site_fract_z
 _atom_site_occupancy
  K  K0  1  0.30690100  0.07003300  0.11702600  1
  K  K1  1  0.30773600  0.57020000  0.11707200  1
  K  K2  1  0.80637000  0.07076600  0.11719900  1
  K  K3  1  0.80565900  0.57010900  0.11669300  1
  K  K4  1  0.18566300  0.92626900  0.87819800  1
  K  K5  1  0.05532300  0.79659800  0.11705700  1
  K  K6  1  0.55775800  0.29699800  0.11618300  1
  K  K7  1  0.55762800  0.79663700  0.11692100  1
  Na  Na8  1  0.29860100  0.07376900  0.60729500  1
  Na  Na9  1  0.29854300  0.56576800  0.60807000  1
  Na  Na10  1  0.80761700  0.06529400  0.60684000  1
  Na  Na11  1  0.81258400  0.57329200  0.60694600  1
  Na  Na12  1  0.19403900  0.42881100  0.39534700  1
  Na  Na13  1  0.19554200  0.42846400  0.88790200  1
  Na  Na14  1  0.19410800  0.93738100  0.39628400  1
  Na  Na15  1  0.70969400  0.43793000  0.39848900  1
  Na  Na16  1  0.69493500  0.42833400  0.88796100  1
  Na  Na17  1  0.70442800  0.93052400  0.39830400  1
  Na  Na18  1  0.69663500  0.92939300  0.88826000  1
  Na  Na19  1  0.05484900  0.29143700  0.10751600  1
  Na  Na20  1  0.06011900  0.28773600  0.60512200  1
  Na  Na21  1  0.04876000  0.78642500  0.60493500  1
  Na  Na22  1  0.55022300  0.28641800  0.60780000  1
  Na  Na23  1  0.55959900  0.78881600  0.60738300  1
  Na  Na24  1  0.44423400  0.21018200  0.39753300  1
  Na  Na25  1  0.44576200  0.20899000  0.88832600  1
  Na  Na26  1  0.45533000  0.71330100  0.39762200  1
  Na  Na27  1  0.44418300  0.70893800  0.88822200  1
  Na  Na28  1  0.95701800  0.21683100  0.39876500  1
  Na  Na29  1  0.94650400  0.20883100  0.88883400  1
  Na  Na30  1  0.94323500  0.71509600  0.39720300  1
  Na  Na31  1  0.94581800  0.70906500  0.88840800  1
  V  V32  1  0.00864000  0.99803100  0.50021800  1
  V  V33  1  0.00635200  0.49921600  0.50115300  1
  V  V34  1  0.25238100  0.25112400  0.50148700  1
  V  V35  1  0.76133300  0.75091200  0.50105300  1
  V  V36  1  0.11215700  0.09554700  0.25791300  1
  V  V37  1  0.09963500  0.08702800  0.74314100  1
  V  V38  1  0.10855900  0.58671800  0.25536500  1
  V  V39  1  0.10116100  0.57951200  0.74527800  1
  V  V40  1  0.61181900  0.09104700  0.25810600  1
  V  V41  1  0.60388500  0.08710100  0.74796600  1
  V  V42  1  0.61155000  0.59013000  0.25820000  1
  V  V43  1  0.60055300  0.58406300  0.74708500  1
  V  V44  1  0.35630000  0.41528000  0.25619100  1
  V  V45  1  0.35071600  0.41096600  0.74615900  1
  V  V46  1  0.36049900  0.91706300  0.25729700  1
  V  V47  1  0.35347000  0.91324200  0.74361500  1
  V  V48  1  0.86375600  0.41629200  0.25779800  1
  V  V49  1  0.85102100  0.41176000  0.74713000  1
  V  V50  1  0.86298800  0.91741200  0.25814500  1
  V  V51  1  0.84949800  0.91223000  0.74671100  1
  Mo  Mo52  1  0.00028200  0.99890300  0.99679200  1
  Mo  Mo53  1  0.00042600  0.49623700  0.99465800  1
  Mo  Mo54  1  0.49985400  0.99645500  0.99349300  1
  Mo  Mo55  1  0.50781300  0.00054400  0.50074000  1
  Mo  Mo56  1  0.50029900  0.49610600  0.99334900  1
  Mo  Mo57  1  0.50562100  0.50024600  0.50024700  1
  Mo  Mo58  1  0.25059300  0.24860700  0.99509400  1
  Mo  Mo59  1  0.25039600  0.74660700  0.99493500  1
  Mo  Mo60  1  0.25380900  0.75110500  0.49995900  1
  Mo  Mo61  1  0.75228600  0.24806200  0.99537800  1
  Mo  Mo62  1  0.76139400  0.25190800  0.50106000  1
  Mo  Mo63  1  0.75001200  0.74710800  0.99360700  1
  O  O64  1  0.11332800  0.11071000  0.48911400  1
  O  O65  1  0.11801300  0.12252800  0.98694500  1
  O  O66  1  0.13440500  0.62672100  0.48989500  1
  O  O67  1  0.11866900  0.61345300  0.98008500  1
  O  O68  1  0.62344000  0.11768600  0.48552300  1
  O  O69  1  0.61828800  0.11331500  0.97772000  1
  O  O70  1  0.62306800  0.60816300  0.48990200  1
  O  O71  1  0.61768800  0.61426100  0.97793900  1
  O  O72  1  0.13075600  0.37765400  0.00798100  1
  O  O73  1  0.13875700  0.38012900  0.51173900  1
  O  O74  1  0.12930100  0.87650600  0.00753200  1
  O  O75  1  0.14104700  0.88278900  0.51627200  1
  O  O76  1  0.63035900  0.37616100  0.00311700  1
  O  O77  1  0.64234900  0.37454400  0.51358100  1
  O  O78  1  0.62872200  0.87555800  0.00205600  1
  O  O79  1  0.63827800  0.87871200  0.51252900  1
  O  O80  1  0.37189300  0.11673900  0.49014900  1
  O  O81  1  0.37064400  0.11749100  0.98180900  1
  O  O82  1  0.37577300  0.61553900  0.48283300  1
  O  O83  1  0.36877600  0.61390000  0.97995800  1
  O  O84  1  0.86712300  0.12568100  0.48724400  1
  O  O85  1  0.87001900  0.11700200  0.98132600  1
  O  O86  1  0.87901600  0.62305300  0.49032900  1
  O  O87  1  0.86721000  0.61303200  0.97806800  1
  O  O88  1  0.37931200  0.37722900  0.00296500  1
  O  O89  1  0.39566600  0.38960800  0.51345900  1
  O  O90  1  0.38140600  0.87659200  0.00535700  1
  O  O91  1  0.38416600  0.87394300  0.51228900  1
  O  O92  1  0.88519100  0.37752100  0.00876800  1
  O  O93  1  0.88806000  0.38450800  0.51623700  1
  O  O94  1  0.87964500  0.87849300  0.00514400  1
  O  O95  1  0.89537200  0.89445100  0.51135200  1
  O  O96  1  0.07438700  0.09882100  0.14564100  1
  O  O97  1  0.07490800  0.10621400  0.63941500  1
  O  O98  1  0.07424800  0.58826200  0.14453700  1
  O  O99  1  0.08423000  0.60258400  0.64379200  1
  O  O100  1  0.57558300  0.08543100  0.14472100  1
  O  O101  1  0.58449200  0.10462700  0.64372900  1
  O  O102  1  0.57384200  0.58516100  0.14415600  1
  O  O103  1  0.57899900  0.60061700  0.64100500  1
  O  O104  1  0.44171600  0.39216500  0.35951700  1
  O  O105  1  0.43606700  0.39349700  0.85044200  1
  O  O106  1  0.44196700  0.88914800  0.35719800  1
  O  O107  1  0.43078500  0.89664100  0.84912800  1
  O  O108  1  0.94553600  0.39247800  0.35823500  1
  O  O109  1  0.93500800  0.39380200  0.85110700  1
  O  O110  1  0.94682700  0.89363600  0.35943600  1
  O  O111  1  0.93090700  0.89599600  0.85244700  1
  O  O112  1  0.32720100  0.30793800  0.14424000  1
  O  O113  1  0.32931100  0.29156000  0.64029500  1
  O  O114  1  0.32481800  0.80782900  0.14414400  1
  O  O115  1  0.33627800  0.78787200  0.63956100  1
  O  O116  1  0.82907500  0.30783100  0.14363200  1
  O  O117  1  0.83026900  0.28963200  0.64122000  1
  O  O118  1  0.82369800  0.80862000  0.14383200  1
  O  O119  1  0.82929800  0.79274000  0.64114800  1
  O  O120  1  0.19782900  0.21572100  0.36156300  1
  O  O121  1  0.18361700  0.20375300  0.85130700  1
  O  O122  1  0.19425500  0.71281300  0.35909700  1
  O  O123  1  0.18695400  0.69555600  0.85215000  1
  O  O124  1  0.69676600  0.21854600  0.36042000  1
  O  O125  1  0.68921300  0.20778200  0.85220800  1
  O  O126  1  0.69613000  0.71419600  0.36016100  1
  O  O127  1  0.68605500  0.70602800  0.85039400  1
  O  O128  1  0.45523200  0.05803200  0.26738300  1
  O  O129  1  0.43763800  0.05476900  0.74621000  1
  O  O130  1  0.45302300  0.55481300  0.26721300  1
  O  O131  1  0.43601400  0.55292300  0.74726200  1
  O  O132  1  0.95570800  0.05816100  0.26691500  1
  O  O133  1  0.93737300  0.05122600  0.74732900  1
  O  O134  1  0.95342500  0.56050300  0.26756400  1
  O  O135  1  0.93463700  0.55111900  0.74667400  1
  O  O136  1  0.19200500  0.44644100  0.25665700  1
  O  O137  1  0.18501600  0.43878100  0.74593200  1
  O  O138  1  0.20346600  0.96176300  0.26518200  1
  O  O139  1  0.18732000  0.94687800  0.73345900  1
  O  O140  1  0.70523300  0.45885300  0.26606600  1
  O  O141  1  0.68527100  0.44396100  0.74688500  1
  O  O142  1  0.70578500  0.96086200  0.26794900  1
  O  O143  1  0.68438700  0.94454600  0.74718700  1
