# generated using pymatgen
data_SrCa3Mn4O12
_symmetry_space_group_name_H-M   'P 1'
_cell_length_a   7.63756700
_cell_length_b   7.63756700
_cell_length_c   3.82077400
_cell_angle_alpha   90.00000000
_cell_angle_beta   90.00000000
_cell_angle_gamma   90.00000000
_symmetry_Int_Tables_number   1
_chemical_formula_structural   SrCa3Mn4O12
_chemical_formula_sum   'Sr1 Ca3 Mn4 O12'
_cell_volume   222.87503068
_cell_formula_units_Z   1
loop_
 _symmetry_equiv_pos_site_id
 _symmetry_equiv_pos_as_xyz
  1  'x, y, z'
loop_
 _atom_site_type_symbol
 _atom_site_label
 _atom_site_symmetry_multiplicity
 _atom_site_fract_x
 _atom_site_fract_y
 _atom_site_fract_z
 _atom_site_occupancy
  Sr  Sr0  1  0.50000000  0.50000000  0.50000000  1
  Ca  Ca1  1  0.00000000  0.50000000  0.50000000  1
  Ca  Ca2  1  0.00000000  0.00000000  0.50000000  1
  Ca  Ca3  1  0.50000000  0.00000000  0.50000000  1
  Mn  Mn4  1  0.75193100  0.24806900  0.00000000  1
  Mn  Mn5  1  0.24806900  0.24806900  0.00000000  1
  Mn  Mn6  1  0.75193100  0.75193100  0.00000000  1
  Mn  Mn7  1  0.24806900  0.75193100  0.00000000  1
  O  O8  1  0.75483500  0.24516500  0.50000000  1
  O  O9  1  0.24516500  0.24516500  0.50000000  1
  O  O10  1  0.75483500  0.75483500  0.50000000  1
  O  O11  1  0.24516500  0.75483500  0.50000000  1
  O  O12  1  0.75865500  0.50000000  0.00000000  1
  O  O13  1  0.24134500  0.50000000  0.00000000  1
  O  O14  1  0.75115500  0.00000000  0.00000000  1
  O  O15  1  0.24884500  0.00000000  0.00000000  1
  O  O16  1  0.00000000  0.24884500  0.00000000  1
  O  O17  1  0.50000000  0.24134500  0.00000000  1
  O  O18  1  0.00000000  0.75115500  0.00000000  1
  O  O19  1  0.50000000  0.75865500  0.00000000  1
