# generated using pymatgen
data_Mg4Si3
_symmetry_space_group_name_H-M   'P 1'
_cell_length_a   8.22690615
_cell_length_b   7.38284936
_cell_length_c   5.95506968
_cell_angle_alpha   114.85010312
_cell_angle_beta   111.14344301
_cell_angle_gamma   102.31820122
_symmetry_Int_Tables_number   1
_chemical_formula_structural   Mg4Si3
_chemical_formula_sum   'Mg8 Si6'
_cell_volume   276.19544904
_cell_formula_units_Z   2
loop_
 _symmetry_equiv_pos_site_id
 _symmetry_equiv_pos_as_xyz
  1  'x, y, z'
loop_
 _atom_site_type_symbol
 _atom_site_label
 _atom_site_symmetry_multiplicity
 _atom_site_fract_x
 _atom_site_fract_y
 _atom_site_fract_z
 _atom_site_occupancy
  Mg  Mg0  1  0.11973600  0.70111900  0.60009700  1
  Mg  Mg1  1  0.89997900  0.94346500  0.32884600  1
  Mg  Mg2  1  0.49381900  0.65151100  0.64747500  1
  Mg  Mg3  1  0.60070500  0.49925500  0.12146500  1
  Mg  Mg4  1  0.79255000  0.32854700  0.49420500  1
  Mg  Mg5  1  0.32450300  0.03020700  0.46115900  1
  Mg  Mg6  1  0.78102800  0.15352600  0.88326200  1
  Mg  Mg7  1  0.19517900  0.18735400  0.03366800  1
  Si  Si8  1  0.17139200  0.34059500  0.56018300  1
  Si  Si9  1  0.26297400  0.57566200  0.06544500  1
  Si  Si10  1  0.86544100  0.77932600  0.76838900  1
  Si  Si11  1  0.47264700  0.05694000  0.97153200  1
  Si  Si12  1  0.96826900  0.60525500  0.05317900  1
  Si  Si13  1  0.55167100  0.89711900  0.26092400  1
