# generated using pymatgen
data_La7SmTi2V6O20
_symmetry_space_group_name_H-M   'P 1'
_cell_length_a   10.97154018
_cell_length_b   11.23567221
_cell_length_c   17.97404543
_cell_angle_alpha   108.16985105
_cell_angle_beta   107.81886700
_cell_angle_gamma   90.00015756
_symmetry_Int_Tables_number   1
_chemical_formula_structural   La7SmTi2V6O20
_chemical_formula_sum   'La28 Sm4 Ti8 V24 O80'
_cell_volume   1993.04984307
_cell_formula_units_Z   4
loop_
 _symmetry_equiv_pos_site_id
 _symmetry_equiv_pos_as_xyz
  1  'x, y, z'
loop_
 _atom_site_type_symbol
 _atom_site_label
 _atom_site_symmetry_multiplicity
 _atom_site_fract_x
 _atom_site_fract_y
 _atom_site_fract_z
 _atom_site_occupancy
  La  La0  1  0.31274400  0.05768600  0.12797300  1
  La  La1  1  0.31438800  0.06278000  0.62651900  1
  La  La2  1  0.31164100  0.56006800  0.62524900  1
  La  La3  1  0.81686900  0.06008200  0.62519200  1
  La  La4  1  0.81369300  0.55865500  0.12656800  1
  La  La5  1  0.81444400  0.56195300  0.62444700  1
  La  La6  1  0.18626800  0.43799700  0.37588700  1
  La  La7  1  0.18910200  0.43955700  0.87426300  1
  La  La8  1  0.18768400  0.93846900  0.37222900  1
  La  La9  1  0.18965500  0.94315000  0.87214500  1
  La  La10  1  0.69036400  0.44052500  0.37716200  1
  La  La11  1  0.69089000  0.93751300  0.37528900  1
  La  La12  1  0.68389500  0.94304100  0.87019400  1
  La  La13  1  0.06929400  0.31771900  0.12667500  1
  La  La14  1  0.06211700  0.32149300  0.62659900  1
  La  La15  1  0.06073100  0.81515200  0.62548300  1
  La  La16  1  0.55369500  0.31779800  0.12691300  1
  La  La17  1  0.56068800  0.32185900  0.62900100  1
  La  La18  1  0.56570600  0.82120100  0.12749300  1
  La  La19  1  0.56479700  0.81312900  0.62378700  1
  La  La20  1  0.43940500  0.18634700  0.37604700  1
  La  La21  1  0.43330100  0.18471700  0.87301000  1
  La  La22  1  0.43571300  0.68014100  0.37210700  1
  La  La23  1  0.43761300  0.67809600  0.87186600  1
  La  La24  1  0.93596600  0.18169800  0.37365800  1
  La  La25  1  0.94031600  0.18190000  0.87351400  1
  La  La26  1  0.93542300  0.68265800  0.37442300  1
  La  La27  1  0.93429100  0.67578000  0.87047900  1
  Sm  Sm28  1  0.31325600  0.56230900  0.12430600  1
  Sm  Sm29  1  0.81764100  0.05834100  0.12203200  1
  Sm  Sm30  1  0.68815100  0.43743300  0.87445000  1
  Sm  Sm31  1  0.06560600  0.81609600  0.12513300  1
  Ti  Ti32  1  0.99863800  0.99801100  0.99856200  1
  Ti  Ti33  1  0.00088700  0.50111400  0.00162600  1
  Ti  Ti34  1  0.50271200  0.00134100  0.99997500  1
  Ti  Ti35  1  0.50003800  0.00051800  0.50011000  1
  Ti  Ti36  1  0.50288600  0.50073600  0.00127800  1
  Ti  Ti37  1  0.25015900  0.75017500  0.99990900  1
  Ti  Ti38  1  0.75054600  0.24954900  0.00019000  1
  Ti  Ti39  1  0.75231900  0.74955900  0.00023000  1
  V  V40  1  0.00223200  0.00006500  0.49887700  1
  V  V41  1  0.00131300  0.49964800  0.50011700  1
  V  V42  1  0.50078200  0.50007100  0.50065900  1
  V  V43  1  0.25092100  0.25063000  0.00101800  1
  V  V44  1  0.25018500  0.24912000  0.49937800  1
  V  V45  1  0.25073100  0.75025200  0.49978400  1
  V  V46  1  0.75026700  0.24956600  0.50037900  1
  V  V47  1  0.75027400  0.75089100  0.49980100  1
  V  V48  1  0.11641100  0.13551600  0.24624400  1
  V  V49  1  0.12024200  0.13717100  0.74902800  1
  V  V50  1  0.11899600  0.63777600  0.24677000  1
  V  V51  1  0.12129800  0.64189800  0.75362700  1
  V  V52  1  0.62052700  0.13395100  0.24718100  1
  V  V53  1  0.62045600  0.14403600  0.75136500  1
  V  V54  1  0.61548200  0.63602000  0.24641900  1
  V  V55  1  0.62246100  0.64070400  0.75381300  1
  V  V56  1  0.36921400  0.36499500  0.25017700  1
  V  V57  1  0.37535900  0.36290800  0.75306400  1
  V  V58  1  0.36688200  0.85734800  0.24837400  1
  V  V59  1  0.37174800  0.86261100  0.75213900  1
  V  V60  1  0.86643700  0.35923600  0.24620000  1
  V  V61  1  0.86782100  0.36142000  0.75331900  1
  V  V62  1  0.87127100  0.86158800  0.24631900  1
  V  V63  1  0.87150900  0.86270700  0.75357800  1
  O  O64  1  0.10869900  0.10515700  0.46611000  1
  O  O65  1  0.10847400  0.10506300  0.97318100  1
  O  O66  1  0.11222900  0.61258300  0.47270100  1
  O  O67  1  0.11344100  0.61281500  0.97683000  1
  O  O68  1  0.61149400  0.10921300  0.47468100  1
  O  O69  1  0.61316400  0.11110200  0.97418200  1
  O  O70  1  0.60764200  0.60791500  0.46967900  1
  O  O71  1  0.61702900  0.61101100  0.97578800  1
  O  O72  1  0.14048300  0.39936300  0.03249100  1
  O  O73  1  0.13843900  0.39085300  0.52881300  1
  O  O74  1  0.13595700  0.88649100  0.02676700  1
  O  O75  1  0.14236600  0.88989000  0.52978000  1
  O  O76  1  0.63593500  0.38584500  0.02386400  1
  O  O77  1  0.63984600  0.38965500  0.53030900  1
  O  O78  1  0.64378100  0.89111400  0.02752100  1
  O  O79  1  0.63501500  0.89329300  0.52502500  1
  O  O80  1  0.36546200  0.10813900  0.47442600  1
  O  O81  1  0.36794500  0.10821600  0.97423300  1
  O  O82  1  0.35959800  0.61018300  0.47016600  1
  O  O83  1  0.36554000  0.61681800  0.97838900  1
  O  O84  1  0.86030500  0.10866000  0.46938800  1
  O  O85  1  0.86155400  0.11086400  0.97613800  1
  O  O86  1  0.86256400  0.60733000  0.47091500  1
  O  O87  1  0.86058800  0.61039100  0.97274900  1
  O  O88  1  0.39055800  0.39933900  0.02974900  1
  O  O89  1  0.39082800  0.39352400  0.53025000  1
  O  O90  1  0.38759300  0.88643400  0.02435500  1
  O  O91  1  0.38937400  0.88759100  0.52453500  1
  O  O92  1  0.88791700  0.38737800  0.02499600  1
  O  O93  1  0.88779700  0.39019800  0.52742500  1
  O  O94  1  0.89186700  0.88634600  0.02934000  1
  O  O95  1  0.89288300  0.89499100  0.53052700  1
  O  O96  1  0.04994300  0.09961700  0.11798400  1
  O  O97  1  0.06384400  0.11245200  0.62351000  1
  O  O98  1  0.05172500  0.60555000  0.11855800  1
  O  O99  1  0.06404000  0.60657400  0.62596500  1
  O  O100  1  0.56283200  0.09524900  0.11907100  1
  O  O101  1  0.55514900  0.10186900  0.62090100  1
  O  O102  1  0.56362900  0.60372400  0.11913400  1
  O  O103  1  0.56658600  0.60747900  0.62692700  1
  O  O104  1  0.44139000  0.39191000  0.37557200  1
  O  O105  1  0.44224600  0.40780000  0.88224200  1
  O  O106  1  0.43605400  0.89769800  0.37842900  1
  O  O107  1  0.44267500  0.89681400  0.88141300  1
  O  O108  1  0.94010100  0.39064500  0.37350500  1
  O  O109  1  0.93930400  0.40140500  0.88261600  1
  O  O110  1  0.93672500  0.88961200  0.37292300  1
  O  O111  1  0.93002000  0.89781600  0.88182200  1
  O  O112  1  0.31555900  0.26340200  0.12550000  1
  O  O113  1  0.31671700  0.26974900  0.62655200  1
  O  O114  1  0.30310300  0.76860300  0.11883300  1
  O  O115  1  0.32219900  0.76926000  0.62514200  1
  O  O116  1  0.80774300  0.26514300  0.11783100  1
  O  O117  1  0.81686900  0.26851600  0.62646800  1
  O  O118  1  0.81124800  0.76901400  0.11876800  1
  O  O119  1  0.81269600  0.77149800  0.62687100  1
  O  O120  1  0.19473200  0.22851800  0.37223800  1
  O  O121  1  0.19250900  0.23251200  0.87533300  1
  O  O122  1  0.18672000  0.73189300  0.37436400  1
  O  O123  1  0.18637900  0.72952100  0.88263100  1
  O  O124  1  0.68591700  0.22974000  0.37399300  1
  O  O125  1  0.69274800  0.23179100  0.88181500  1
  O  O126  1  0.68983700  0.72908700  0.37225000  1
  O  O127  1  0.68677700  0.73348700  0.88236600  1
  O  O128  1  0.45753000  0.02979900  0.24756800  1
  O  O129  1  0.46355600  0.03567800  0.75662100  1
  O  O130  1  0.45009300  0.52831600  0.23895900  1
  O  O131  1  0.46154300  0.53373200  0.75168800  1
  O  O132  1  0.94925700  0.03318000  0.24093900  1
  O  O133  1  0.96338900  0.03292800  0.75502500  1
  O  O134  1  0.95453900  0.53030100  0.24553700  1
  O  O135  1  0.96108500  0.52935000  0.75190000  1
  O  O136  1  0.20495000  0.46521600  0.24922700  1
  O  O137  1  0.21409600  0.47154400  0.75576300  1
  O  O138  1  0.20168800  0.96272000  0.23973700  1
  O  O139  1  0.21317700  0.97149300  0.75228400  1
  O  O140  1  0.70307800  0.46281900  0.24557000  1
  O  O141  1  0.71576300  0.47722700  0.76284800  1
  O  O142  1  0.70785100  0.96351100  0.24869500  1
  O  O143  1  0.70967400  0.96999600  0.75120800  1
