# generated using pymatgen
data_La7SmV7CrO24
_symmetry_space_group_name_H-M   'P 1'
_cell_length_a   7.91721646
_cell_length_b   7.91721646
_cell_length_c   7.91721681
_cell_angle_alpha   90.18048158
_cell_angle_beta   90.18048158
_cell_angle_gamma   90.18048485
_symmetry_Int_Tables_number   1
_chemical_formula_structural   La7SmV7CrO24
_chemical_formula_sum   'La7 Sm1 V7 Cr1 O24'
_cell_volume   496.26208697
_cell_formula_units_Z   1
loop_
 _symmetry_equiv_pos_site_id
 _symmetry_equiv_pos_as_xyz
  1  'x, y, z'
loop_
 _atom_site_type_symbol
 _atom_site_label
 _atom_site_symmetry_multiplicity
 _atom_site_fract_x
 _atom_site_fract_y
 _atom_site_fract_z
 _atom_site_occupancy
  La  La0  1  0.25321300  0.25321300  0.74623300  1
  La  La1  1  0.74676900  0.25369000  0.74676900  1
  La  La2  1  0.25369000  0.74676900  0.74676900  1
  La  La3  1  0.74693800  0.74693800  0.74693800  1
  La  La4  1  0.74623300  0.25321300  0.25321300  1
  La  La5  1  0.25321300  0.74623300  0.25321300  1
  La  La6  1  0.74676900  0.74676900  0.25369000  1
  Sm  Sm7  1  0.25338300  0.25338300  0.25338300  1
  V  V8  1  0.49990200  0.00007600  0.00007600  1
  V  V9  1  0.00040400  0.00040400  0.00040400  1
  V  V10  1  0.49973400  0.49973400  0.00025100  1
  V  V11  1  0.00007600  0.49990200  0.00007600  1
  V  V12  1  0.49973400  0.00025100  0.49973400  1
  V  V13  1  0.00007600  0.00007600  0.49990200  1
  V  V14  1  0.00025100  0.49973400  0.49973400  1
  Cr  Cr15  1  0.49984400  0.49984400  0.49984400  1
  O  O16  1  0.49987400  0.00066000  0.74817000  1
  O  O17  1  0.99925000  0.99925000  0.74870000  1
  O  O18  1  0.50028600  0.50028600  0.74647100  1
  O  O19  1  0.00066000  0.49987400  0.74817000  1
  O  O20  1  0.49850600  0.00099500  0.25162000  1
  O  O21  1  0.00234000  0.00234000  0.25161600  1
  O  O22  1  0.49802000  0.49802000  0.25354400  1
  O  O23  1  0.00099500  0.49850600  0.25162000  1
  O  O24  1  0.49850600  0.25162000  0.00099500  1
  O  O25  1  0.00234000  0.25161600  0.00234000  1
  O  O26  1  0.49987400  0.74817000  0.00066000  1
  O  O27  1  0.99925000  0.74870000  0.99925000  1
  O  O28  1  0.49802000  0.25354400  0.49802000  1
  O  O29  1  0.00099500  0.25162000  0.49850600  1
  O  O30  1  0.50028600  0.74647100  0.50028600  1
  O  O31  1  0.00066000  0.74817000  0.49987400  1
  O  O32  1  0.25161600  0.00234000  0.00234000  1
  O  O33  1  0.74870000  0.99925000  0.99925000  1
  O  O34  1  0.25162000  0.49850600  0.00099500  1
  O  O35  1  0.74817000  0.49987400  0.00066000  1
  O  O36  1  0.25162000  0.00099500  0.49850600  1
  O  O37  1  0.74817000  0.00066000  0.49987400  1
  O  O38  1  0.25354400  0.49802000  0.49802000  1
  O  O39  1  0.74647100  0.50028600  0.50028600  1
