# generated using pymatgen
data_Eu
_symmetry_space_group_name_H-M   'P 1'
_cell_length_a   7.18804069
_cell_length_b   7.18804069
_cell_length_c   7.18804022
_cell_angle_alpha   110.90225959
_cell_angle_beta   110.90225959
_cell_angle_gamma   110.90226581
_symmetry_Int_Tables_number   1
_chemical_formula_structural   Eu
_chemical_formula_sum   Eu6
_cell_volume   269.68944351
_cell_formula_units_Z   6
loop_
 _symmetry_equiv_pos_site_id
 _symmetry_equiv_pos_as_xyz
  1  'x, y, z'
loop_
 _atom_site_type_symbol
 _atom_site_label
 _atom_site_symmetry_multiplicity
 _atom_site_fract_x
 _atom_site_fract_y
 _atom_site_fract_z
 _atom_site_occupancy
  Eu  Eu0  1  0.43680900  0.06319100  0.25000000  1
  Eu  Eu1  1  0.25000000  0.43680900  0.06319100  1
  Eu  Eu2  1  0.06319100  0.25000000  0.43680900  1
  Eu  Eu3  1  0.75000000  0.56319100  0.93680900  1
  Eu  Eu4  1  0.93680900  0.75000000  0.56319100  1
  Eu  Eu5  1  0.56319100  0.93680900  0.75000000  1
