# generated using pymatgen
data_C2N3
_symmetry_space_group_name_H-M   'P 1'
_cell_length_a   4.39672474
_cell_length_b   4.39672474
_cell_length_c   3.99897200
_cell_angle_alpha   90.00000000
_cell_angle_beta   90.00000000
_cell_angle_gamma   119.20879819
_symmetry_Int_Tables_number   1
_chemical_formula_structural   C2N3
_chemical_formula_sum   'C4 N6'
_cell_volume   67.47534548
_cell_formula_units_Z   2
loop_
 _symmetry_equiv_pos_site_id
 _symmetry_equiv_pos_as_xyz
  1  'x, y, z'
loop_
 _atom_site_type_symbol
 _atom_site_label
 _atom_site_symmetry_multiplicity
 _atom_site_fract_x
 _atom_site_fract_y
 _atom_site_fract_z
 _atom_site_occupancy
  C  C0  1  0.33038200  0.99329200  0.50202000  1
  C  C1  1  0.99329200  0.33038200  0.50202000  1
  C  C2  1  0.66961800  0.00670800  0.00202000  1
  C  C3  1  0.00670800  0.66961800  0.00202000  1
  N  N4  1  0.33074300  0.94372700  0.86269500  1
  N  N5  1  0.94372700  0.33074300  0.86269500  1
  N  N6  1  0.66925700  0.05627300  0.36269500  1
  N  N7  1  0.05627300  0.66925700  0.36269500  1
  N  N8  1  0.71005800  0.71005800  0.90857000  1
  N  N9  1  0.28994200  0.28994200  0.40857000  1
