# generated using pymatgen
data_MgN8
_symmetry_space_group_name_H-M   'P 1'
_cell_length_a   6.22527717
_cell_length_b   6.22527717
_cell_length_c   6.22527717
_cell_angle_alpha   119.24531243
_cell_angle_beta   119.24531243
_cell_angle_gamma   91.31220435
_symmetry_Int_Tables_number   1
_chemical_formula_structural   MgN8
_chemical_formula_sum   'Mg1 N8'
_cell_volume   172.48996025
_cell_formula_units_Z   1
loop_
 _symmetry_equiv_pos_site_id
 _symmetry_equiv_pos_as_xyz
  1  'x, y, z'
loop_
 _atom_site_type_symbol
 _atom_site_label
 _atom_site_symmetry_multiplicity
 _atom_site_fract_x
 _atom_site_fract_y
 _atom_site_fract_z
 _atom_site_occupancy
  Mg  Mg0  1  0.00000000  0.00000000  0.00000000  1
  N  N1  1  0.00000000  0.50000000  0.50000000  1
  N  N2  1  0.50000000  0.00000000  0.50000000  1
  N  N3  1  0.67446400  0.93264200  0.60710600  1
  N  N4  1  0.32553600  0.06735800  0.39289400  1
  N  N5  1  0.93264200  0.32553600  0.25817800  1
  N  N6  1  0.06735800  0.67446400  0.74182200  1
  N  N7  1  0.72877200  0.72877200  0.00000000  1
  N  N8  1  0.27122800  0.27122800  0.00000000  1
