# generated using pymatgen
data_C3N4
_symmetry_space_group_name_H-M   'P 1'
_cell_length_a   7.48372751
_cell_length_b   7.48372751
_cell_length_c   2.13153700
_cell_angle_alpha   90.00000000
_cell_angle_beta   90.00000000
_cell_angle_gamma   119.99999569
_symmetry_Int_Tables_number   1
_chemical_formula_structural   C3N4
_chemical_formula_sum   'C3 N4'
_cell_volume   103.38545861
_cell_formula_units_Z   1
loop_
 _symmetry_equiv_pos_site_id
 _symmetry_equiv_pos_as_xyz
  1  'x, y, z'
loop_
 _atom_site_type_symbol
 _atom_site_label
 _atom_site_symmetry_multiplicity
 _atom_site_fract_x
 _atom_site_fract_y
 _atom_site_fract_z
 _atom_site_occupancy
  C  C0  1  0.61053100  0.77975400  0.50000000  1
  C  C1  1  0.22024600  0.83077600  0.50000000  1
  C  C2  1  0.16922400  0.38946900  0.50000000  1
  N  N3  1  0.66666700  0.33333300  0.00000000  1
  N  N4  1  0.73722800  0.72250800  0.50000000  1
  N  N5  1  0.27749200  0.01472000  0.50000000  1
  N  N6  1  0.98528000  0.26277200  0.50000000  1
