# generated using pymatgen
data_Y2InNi2
_symmetry_space_group_name_H-M   'P 1'
_cell_length_a   7.46143000
_cell_length_b   7.46143000
_cell_length_c   3.69556500
_cell_angle_alpha   90.00000000
_cell_angle_beta   90.00000000
_cell_angle_gamma   90.00000000
_symmetry_Int_Tables_number   1
_chemical_formula_structural   Y2InNi2
_chemical_formula_sum   'Y4 In2 Ni4'
_cell_volume   205.74295981
_cell_formula_units_Z   2
loop_
 _symmetry_equiv_pos_site_id
 _symmetry_equiv_pos_as_xyz
  1  'x, y, z'
loop_
 _atom_site_type_symbol
 _atom_site_label
 _atom_site_symmetry_multiplicity
 _atom_site_fract_x
 _atom_site_fract_y
 _atom_site_fract_z
 _atom_site_occupancy
  Y  Y0  1  0.67421200  0.17421200  0.50000000  1
  Y  Y1  1  0.32578800  0.82578800  0.50000000  1
  Y  Y2  1  0.17421200  0.32578800  0.50000000  1
  Y  Y3  1  0.82578800  0.67421200  0.50000000  1
  In  In4  1  0.50000000  0.50000000  0.00000000  1
  In  In5  1  0.00000000  0.00000000  0.00000000  1
  Ni  Ni6  1  0.12031500  0.62031500  0.00000000  1
  Ni  Ni7  1  0.87968500  0.37968500  0.00000000  1
  Ni  Ni8  1  0.62031500  0.87968500  0.00000000  1
  Ni  Ni9  1  0.37968500  0.12031500  0.00000000  1
