# generated using pymatgen
data_Th(CoSn)2
_symmetry_space_group_name_H-M   'P 1'
_cell_length_a   4.46007000
_cell_length_b   4.46007000
_cell_length_c   9.98227000
_cell_angle_alpha   90.00000000
_cell_angle_beta   90.00000000
_cell_angle_gamma   90.00000000
_symmetry_Int_Tables_number   1
_chemical_formula_structural   Th(CoSn)2
_chemical_formula_sum   'Th2 Co4 Sn4'
_cell_volume   198.56955491
_cell_formula_units_Z   2
loop_
 _symmetry_equiv_pos_site_id
 _symmetry_equiv_pos_as_xyz
  1  'x, y, z'
loop_
 _atom_site_type_symbol
 _atom_site_label
 _atom_site_symmetry_multiplicity
 _atom_site_fract_x
 _atom_site_fract_y
 _atom_site_fract_z
 _atom_site_occupancy
  Th  Th0  1  0.00000000  0.50000000  0.23290900  1
  Th  Th1  1  0.50000000  0.00000000  0.76709100  1
  Co  Co2  1  0.00000000  0.00000000  0.00000000  1
  Co  Co3  1  0.50000000  0.50000000  0.00000000  1
  Co  Co4  1  0.00000000  0.50000000  0.62696500  1
  Co  Co5  1  0.50000000  0.00000000  0.37303500  1
  Sn  Sn6  1  0.00000000  0.00000000  0.50000000  1
  Sn  Sn7  1  0.50000000  0.50000000  0.50000000  1
  Sn  Sn8  1  0.00000000  0.50000000  0.87409100  1
  Sn  Sn9  1  0.50000000  0.00000000  0.12590900  1
