# generated using pymatgen
data_CrCo3
_symmetry_space_group_name_H-M   'P 1'
_cell_length_a   3.98008800
_cell_length_b   4.99465100
_cell_length_c   4.99465100
_cell_angle_alpha   120.00157627
_cell_angle_beta   90.00000000
_cell_angle_gamma   90.00000000
_symmetry_Int_Tables_number   1
_chemical_formula_structural   CrCo3
_chemical_formula_sum   'Cr2 Co6'
_cell_volume   85.98579332
_cell_formula_units_Z   2
loop_
 _symmetry_equiv_pos_site_id
 _symmetry_equiv_pos_as_xyz
  1  'x, y, z'
loop_
 _atom_site_type_symbol
 _atom_site_label
 _atom_site_symmetry_multiplicity
 _atom_site_fract_x
 _atom_site_fract_y
 _atom_site_fract_z
 _atom_site_occupancy
  Cr  Cr0  1  0.75000000  0.66667300  0.33332700  1
  Cr  Cr1  1  0.25000000  0.33332700  0.66667300  1
  Co  Co2  1  0.75000000  0.16571300  0.33143600  1
  Co  Co3  1  0.75000000  0.16570400  0.83429600  1
  Co  Co4  1  0.75000000  0.66856400  0.83428700  1
  Co  Co5  1  0.25000000  0.83428700  0.66856400  1
  Co  Co6  1  0.25000000  0.83429600  0.16570400  1
  Co  Co7  1  0.25000000  0.33143600  0.16571300  1
