# generated using pymatgen
data_KMnO2
_symmetry_space_group_name_H-M   'P 1'
_cell_length_a   7.02351179
_cell_length_b   7.02351179
_cell_length_c   7.02351179
_cell_angle_alpha   125.65595454
_cell_angle_beta   125.65595454
_cell_angle_gamma   80.45434134
_symmetry_Int_Tables_number   1
_chemical_formula_structural   KMnO2
_chemical_formula_sum   'K4 Mn4 O8'
_cell_volume   220.65763195
_cell_formula_units_Z   4
loop_
 _symmetry_equiv_pos_site_id
 _symmetry_equiv_pos_as_xyz
  1  'x, y, z'
loop_
 _atom_site_type_symbol
 _atom_site_label
 _atom_site_symmetry_multiplicity
 _atom_site_fract_x
 _atom_site_fract_y
 _atom_site_fract_z
 _atom_site_occupancy
  K  K0  1  0.37500000  0.12500000  0.25000000  1
  K  K1  1  0.87500000  0.12500000  0.75000000  1
  K  K2  1  0.87500000  0.62500000  0.75000000  1
  K  K3  1  0.87500000  0.12500000  0.25000000  1
  Mn  Mn4  1  0.37500000  0.62500000  0.75000000  1
  Mn  Mn5  1  0.37500000  0.12500000  0.75000000  1
  Mn  Mn6  1  0.37500000  0.62500000  0.25000000  1
  Mn  Mn7  1  0.87500000  0.62500000  0.25000000  1
  O  O8  1  0.18819600  0.37965400  0.80854200  1
  O  O9  1  0.62034600  0.42888800  0.80854200  1
  O  O10  1  0.62034600  0.81180400  0.19145800  1
  O  O11  1  0.57111200  0.37965400  0.19145800  1
  O  O12  1  0.12965400  0.82111200  0.69145800  1
  O  O13  1  0.56180400  0.87034600  0.69145800  1
  O  O14  1  0.17888800  0.87034600  0.30854200  1
  O  O15  1  0.12965400  0.43819600  0.30854200  1
