# generated using pymatgen
data_Zr2ZnCd
_symmetry_space_group_name_H-M   'P 1'
_cell_length_a   11.93672069
_cell_length_b   11.93672069
_cell_length_c   11.93672069
_cell_angle_alpha   122.14669882
_cell_angle_beta   119.66716223
_cell_angle_gamma   88.44998309
_symmetry_Int_Tables_number   1
_chemical_formula_structural   Zr2ZnCd
_chemical_formula_sum   'Zr2 Zn1 Cd1'
_cell_volume   1184.97739447
_cell_formula_units_Z   1
loop_
 _symmetry_equiv_pos_site_id
 _symmetry_equiv_pos_as_xyz
  1  'x, y, z'
loop_
 _atom_site_type_symbol
 _atom_site_label
 _atom_site_symmetry_multiplicity
 _atom_site_fract_x
 _atom_site_fract_y
 _atom_site_fract_z
 _atom_site_occupancy
  Zr  Zr0  1  0.00000000  0.24061100  0.24061100  1
  Zr  Zr1  1  0.00000000  0.75938900  0.75938900  1
  Zn  Zn2  1  0.00000000  0.00000000  0.00000000  1
  Cd  Cd3  1  0.00000000  0.50000000  0.50000000  1
