# generated using pymatgen
data_O2
_symmetry_space_group_name_H-M   'P 1'
_cell_length_a   6.05038508
_cell_length_b   6.05038508
_cell_length_c   4.50086592
_cell_angle_alpha   71.60149973
_cell_angle_beta   71.60149973
_cell_angle_gamma   97.98026776
_symmetry_Int_Tables_number   1
_chemical_formula_structural   O2
_chemical_formula_sum   O8
_cell_volume   143.05340659
_cell_formula_units_Z   4
loop_
 _symmetry_equiv_pos_site_id
 _symmetry_equiv_pos_as_xyz
  1  'x, y, z'
loop_
 _atom_site_type_symbol
 _atom_site_label
 _atom_site_symmetry_multiplicity
 _atom_site_fract_x
 _atom_site_fract_y
 _atom_site_fract_z
 _atom_site_occupancy
  O  O0  1  0.71120600  0.00691500  0.60604000  1
  O  O1  1  0.99308500  0.28879400  0.89396000  1
  O  O2  1  0.28879400  0.99308500  0.39396000  1
  O  O3  1  0.00691500  0.71120600  0.10604000  1
  O  O4  1  0.59869200  0.82202700  0.86086700  1
  O  O5  1  0.17797300  0.40130800  0.63913300  1
  O  O6  1  0.40130800  0.17797300  0.13913300  1
  O  O7  1  0.82202700  0.59869200  0.36086700  1
