# generated using pymatgen
data_CeSe2
_symmetry_space_group_name_H-M   'P 1'
_cell_length_a   7.09232700
_cell_length_b   6.96464000
_cell_length_c   7.10560666
_cell_angle_alpha   77.46393569
_cell_angle_beta   90.00000000
_cell_angle_gamma   90.00000000
_symmetry_Int_Tables_number   1
_chemical_formula_structural   CeSe2
_chemical_formula_sum   'Ce4 Se8'
_cell_volume   342.61739342
_cell_formula_units_Z   4
loop_
 _symmetry_equiv_pos_site_id
 _symmetry_equiv_pos_as_xyz
  1  'x, y, z'
loop_
 _atom_site_type_symbol
 _atom_site_label
 _atom_site_symmetry_multiplicity
 _atom_site_fract_x
 _atom_site_fract_y
 _atom_site_fract_z
 _atom_site_occupancy
  Ce  Ce0  1  0.55207900  0.71199000  0.69675500  1
  Ce  Ce1  1  0.05207900  0.28801000  0.80324500  1
  Ce  Ce2  1  0.44792100  0.28801000  0.30324500  1
  Ce  Ce3  1  0.94792100  0.71199000  0.19675500  1
  Se  Se4  1  0.83366800  0.94107500  0.83129200  1
  Se  Se5  1  0.33366800  0.05892500  0.66870800  1
  Se  Se6  1  0.16633200  0.05892500  0.16870800  1
  Se  Se7  1  0.66633200  0.94107500  0.33129200  1
  Se  Se8  1  0.25660500  0.56449400  0.98553400  1
  Se  Se9  1  0.75660500  0.43550600  0.51446600  1
  Se  Se10  1  0.74339500  0.43550600  0.01446600  1
  Se  Se11  1  0.24339500  0.56449400  0.48553400  1
