# generated using pymatgen
data_PbS
_symmetry_space_group_name_H-M   'P 1'
_cell_length_a   4.27270400
_cell_length_b   6.07710700
_cell_length_c   8.56195500
_cell_angle_alpha   90.00000000
_cell_angle_beta   90.00000000
_cell_angle_gamma   90.00000000
_symmetry_Int_Tables_number   1
_chemical_formula_structural   PbS
_chemical_formula_sum   'Pb4 S4'
_cell_volume   222.31697846
_cell_formula_units_Z   4
loop_
 _symmetry_equiv_pos_site_id
 _symmetry_equiv_pos_as_xyz
  1  'x, y, z'
loop_
 _atom_site_type_symbol
 _atom_site_label
 _atom_site_symmetry_multiplicity
 _atom_site_fract_x
 _atom_site_fract_y
 _atom_site_fract_z
 _atom_site_occupancy
  Pb  Pb0  1  0.75000000  0.73569900  0.12348900  1
  Pb  Pb1  1  0.75000000  0.76430100  0.62348900  1
  Pb  Pb2  1  0.25000000  0.26430100  0.87651100  1
  Pb  Pb3  1  0.25000000  0.23569900  0.37651100  1
  S  S4  1  0.25000000  0.79474300  0.84835300  1
  S  S5  1  0.25000000  0.70525700  0.34835300  1
  S  S6  1  0.75000000  0.20525700  0.15164700  1
  S  S7  1  0.75000000  0.29474300  0.65164700  1
