# generated using pymatgen
data_KNa2As
_symmetry_space_group_name_H-M   'P 1'
_cell_length_a   13.54895937
_cell_length_b   13.54895937
_cell_length_c   13.54895937
_cell_angle_alpha   121.40687553
_cell_angle_beta   120.29723681
_cell_angle_gamma   88.53318018
_symmetry_Int_Tables_number   1
_chemical_formula_structural   KNa2As
_chemical_formula_sum   'K1 Na2 As1'
_cell_volume   1735.26710335
_cell_formula_units_Z   1
loop_
 _symmetry_equiv_pos_site_id
 _symmetry_equiv_pos_as_xyz
  1  'x, y, z'
loop_
 _atom_site_type_symbol
 _atom_site_label
 _atom_site_symmetry_multiplicity
 _atom_site_fract_x
 _atom_site_fract_y
 _atom_site_fract_z
 _atom_site_occupancy
  K  K0  1  0.00000000  0.00000000  0.00000000  1
  Na  Na1  1  0.00000000  0.29266200  0.29266200  1
  Na  Na2  1  0.00000000  0.70733800  0.70733800  1
  As  As3  1  0.00000000  0.50000000  0.50000000  1
