# generated using pymatgen
data_CeSe2
_symmetry_space_group_name_H-M   'P 1'
_cell_length_a   10.26937430
_cell_length_b   10.26937430
_cell_length_c   10.26937430
_cell_angle_alpha   126.04778948
_cell_angle_beta   120.03027895
_cell_angle_gamma   84.89866918
_symmetry_Int_Tables_number   1
_chemical_formula_structural   CeSe2
_chemical_formula_sum   'Ce2 Se4'
_cell_volume   724.66404942
_cell_formula_units_Z   2
loop_
 _symmetry_equiv_pos_site_id
 _symmetry_equiv_pos_as_xyz
  1  'x, y, z'
loop_
 _atom_site_type_symbol
 _atom_site_label
 _atom_site_symmetry_multiplicity
 _atom_site_fract_x
 _atom_site_fract_y
 _atom_site_fract_z
 _atom_site_occupancy
  Ce  Ce0  1  0.00000000  0.00000000  0.00000000  1
  Ce  Ce1  1  0.50000000  0.00000000  0.50000000  1
  Se  Se2  1  0.11645000  0.31082300  0.19437300  1
  Se  Se3  1  0.88355000  0.68917700  0.80562700  1
  Se  Se4  1  0.38355000  0.07792200  0.69437300  1
  Se  Se5  1  0.61645000  0.92207800  0.30562700  1
