# generated using pymatgen
data_P4Os
_symmetry_space_group_name_H-M   'P 1'
_cell_length_a   4.71051500
_cell_length_b   4.72411200
_cell_length_c   7.15368207
_cell_angle_alpha   80.36384730
_cell_angle_beta   90.00000000
_cell_angle_gamma   90.00000000
_symmetry_Int_Tables_number   1
_chemical_formula_structural   P4Os
_chemical_formula_sum   'P8 Os2'
_cell_volume   156.94480433
_cell_formula_units_Z   2
loop_
 _symmetry_equiv_pos_site_id
 _symmetry_equiv_pos_as_xyz
  1  'x, y, z'
loop_
 _atom_site_type_symbol
 _atom_site_label
 _atom_site_symmetry_multiplicity
 _atom_site_fract_x
 _atom_site_fract_y
 _atom_site_fract_z
 _atom_site_occupancy
  P  P0  1  0.19034300  0.21576800  0.25139700  1
  P  P1  1  0.69034300  0.78423200  0.24860300  1
  P  P2  1  0.80965700  0.78423200  0.74860300  1
  P  P3  1  0.30965700  0.21576800  0.75139700  1
  P  P4  1  0.65198300  0.37738200  0.91117900  1
  P  P5  1  0.15198300  0.62261800  0.58882100  1
  P  P6  1  0.34801700  0.62261800  0.08882100  1
  P  P7  1  0.84801700  0.37738200  0.41117900  1
  Os  Os8  1  0.50000000  0.00000000  0.50000000  1
  Os  Os9  1  0.00000000  0.00000000  0.00000000  1
