# generated using pymatgen
data_B3Mo
_symmetry_space_group_name_H-M   'P 1'
_cell_length_a   4.34615684
_cell_length_b   4.34615684
_cell_length_c   4.34615696
_cell_angle_alpha   73.93400276
_cell_angle_beta   73.93400276
_cell_angle_gamma   73.93400340
_symmetry_Int_Tables_number   1
_chemical_formula_structural   B3Mo
_chemical_formula_sum   'B6 Mo2'
_cell_volume   74.00516977
_cell_formula_units_Z   2
loop_
 _symmetry_equiv_pos_site_id
 _symmetry_equiv_pos_as_xyz
  1  'x, y, z'
loop_
 _atom_site_type_symbol
 _atom_site_label
 _atom_site_symmetry_multiplicity
 _atom_site_fract_x
 _atom_site_fract_y
 _atom_site_fract_z
 _atom_site_occupancy
  B  B0  1  0.33498500  0.66501500  0.00000000  1
  B  B1  1  0.00000000  0.33498500  0.66501500  1
  B  B2  1  0.66501500  0.00000000  0.33498500  1
  B  B3  1  0.00000000  0.66501500  0.33498500  1
  B  B4  1  0.33498500  0.00000000  0.66501500  1
  B  B5  1  0.66501500  0.33498500  0.00000000  1
  Mo  Mo6  1  0.83533900  0.83533900  0.83533900  1
  Mo  Mo7  1  0.16466100  0.16466100  0.16466100  1
