# generated using pymatgen
data_ScHg2Pd
_symmetry_space_group_name_H-M   'P 1'
_cell_length_a   11.58296413
_cell_length_b   11.58296413
_cell_length_c   11.58296413
_cell_angle_alpha   122.29861234
_cell_angle_beta   119.78683633
_cell_angle_gamma   88.21744375
_symmetry_Int_Tables_number   1
_chemical_formula_structural   ScHg2Pd
_chemical_formula_sum   'Sc1 Hg2 Pd1'
_cell_volume   1080.30260953
_cell_formula_units_Z   1
loop_
 _symmetry_equiv_pos_site_id
 _symmetry_equiv_pos_as_xyz
  1  'x, y, z'
loop_
 _atom_site_type_symbol
 _atom_site_label
 _atom_site_symmetry_multiplicity
 _atom_site_fract_x
 _atom_site_fract_y
 _atom_site_fract_z
 _atom_site_occupancy
  Sc  Sc0  1  0.00000000  0.00000000  0.00000000  1
  Hg  Hg1  1  0.00000000  0.26468300  0.26468300  1
  Hg  Hg2  1  0.00000000  0.73531700  0.73531700  1
  Pd  Pd3  1  0.00000000  0.50000000  0.50000000  1
