# generated using pymatgen
data_ZnCu2GeSe4
_symmetry_space_group_name_H-M   'P 1'
_cell_length_a   6.91722971
_cell_length_b   6.91722971
_cell_length_c   6.91722971
_cell_angle_alpha   131.76554543
_cell_angle_beta   131.76554543
_cell_angle_gamma   70.59957540
_symmetry_Int_Tables_number   1
_chemical_formula_structural   ZnCu2GeSe4
_chemical_formula_sum   'Zn1 Cu2 Ge1 Se4'
_cell_volume   180.39656413
_cell_formula_units_Z   1
loop_
 _symmetry_equiv_pos_site_id
 _symmetry_equiv_pos_as_xyz
  1  'x, y, z'
loop_
 _atom_site_type_symbol
 _atom_site_label
 _atom_site_symmetry_multiplicity
 _atom_site_fract_x
 _atom_site_fract_y
 _atom_site_fract_z
 _atom_site_occupancy
  Zn  Zn0  1  0.00000000  0.00000000  0.00000000  1
  Cu  Cu1  1  0.75000000  0.25000000  0.50000000  1
  Cu  Cu2  1  0.25000000  0.75000000  0.50000000  1
  Ge  Ge3  1  0.50000000  0.50000000  0.00000000  1
  Se  Se4  1  0.38448600  0.87564100  0.00000000  1
  Se  Se5  1  0.12435900  0.12435900  0.50884400  1
  Se  Se6  1  0.61551400  0.61551400  0.49115600  1
  Se  Se7  1  0.87564100  0.38448600  0.00000000  1
