# generated using pymatgen
data_MnHO2
_symmetry_space_group_name_H-M   'P 1'
_cell_length_a   6.25815100
_cell_length_b   6.11736400
_cell_length_c   8.79356789
_cell_angle_alpha   89.32297600
_cell_angle_beta   90.00000000
_cell_angle_gamma   90.00000000
_symmetry_Int_Tables_number   1
_chemical_formula_structural   MnHO2
_chemical_formula_sum   'Mn8 H8 O16'
_cell_volume   336.62406643
_cell_formula_units_Z   8
loop_
 _symmetry_equiv_pos_site_id
 _symmetry_equiv_pos_as_xyz
  1  'x, y, z'
loop_
 _atom_site_type_symbol
 _atom_site_label
 _atom_site_symmetry_multiplicity
 _atom_site_fract_x
 _atom_site_fract_y
 _atom_site_fract_z
 _atom_site_occupancy
  Mn  Mn0  1  0.25392200  0.77160500  0.24856700  1
  Mn  Mn1  1  0.75392200  0.22839500  0.75143300  1
  Mn  Mn2  1  0.25257300  0.26951500  0.25532300  1
  Mn  Mn3  1  0.75257300  0.73048500  0.74467700  1
  Mn  Mn4  1  0.47710000  0.00407800  0.00087700  1
  Mn  Mn5  1  0.02256300  0.49612900  0.49576500  1
  Mn  Mn6  1  0.97710000  0.99592200  0.99912300  1
  Mn  Mn7  1  0.52256300  0.50387100  0.50423500  1
  H  H8  1  0.36909200  0.03169800  0.71408900  1
  H  H9  1  0.64827900  0.55016300  0.23244000  1
  H  H10  1  0.23750300  0.42497600  0.99552400  1
  H  H11  1  0.72924700  0.09690000  0.47367200  1
  H  H12  1  0.86909200  0.96830200  0.28591100  1
  H  H13  1  0.14827900  0.44983700  0.76756000  1
  H  H14  1  0.73750300  0.57502400  0.00447600  1
  H  H15  1  0.22924700  0.90310000  0.52632800  1
  O  O16  1  0.44617500  0.01957500  0.22709400  1
  O  O17  1  0.00854700  0.47214600  0.72189600  1
  O  O18  1  0.99533200  0.01028700  0.22722700  1
  O  O19  1  0.56076700  0.48135400  0.72777200  1
  O  O20  1  0.23185700  0.80726400  0.02095000  1
  O  O21  1  0.76130600  0.23635900  0.52164800  1
  O  O22  1  0.23302100  0.27088300  0.02836000  1
  O  O23  1  0.77240700  0.69539500  0.51893300  1
  O  O24  1  0.94617500  0.98042500  0.77290600  1
  O  O25  1  0.50854700  0.52785400  0.27810400  1
  O  O26  1  0.49533200  0.98971300  0.77277300  1
  O  O27  1  0.06076700  0.51864600  0.27222800  1
  O  O28  1  0.73302100  0.72911700  0.97164000  1
  O  O29  1  0.27240700  0.30460500  0.48106700  1
  O  O30  1  0.73185700  0.19273600  0.97905000  1
  O  O31  1  0.26130600  0.76364100  0.47835200  1
