# generated using pymatgen
data_KNa2Tl
_symmetry_space_group_name_H-M   'P 1'
_cell_length_a   14.12749375
_cell_length_b   14.12749375
_cell_length_c   14.12749375
_cell_angle_alpha   120.69899756
_cell_angle_beta   119.60819437
_cell_angle_gamma   89.73677713
_symmetry_Int_Tables_number   1
_chemical_formula_structural   KNa2Tl
_chemical_formula_sum   'K1 Na2 Tl1'
_cell_volume   1988.91627390
_cell_formula_units_Z   1
loop_
 _symmetry_equiv_pos_site_id
 _symmetry_equiv_pos_as_xyz
  1  'x, y, z'
loop_
 _atom_site_type_symbol
 _atom_site_label
 _atom_site_symmetry_multiplicity
 _atom_site_fract_x
 _atom_site_fract_y
 _atom_site_fract_z
 _atom_site_occupancy
  K  K0  1  0.00000000  0.00000000  0.00000000  1
  Na  Na1  1  0.00000000  0.26142200  0.26142200  1
  Na  Na2  1  0.00000000  0.73857800  0.73857800  1
  Tl  Tl3  1  0.00000000  0.50000000  0.50000000  1
