# generated using pymatgen
data_Hf2CoRh
_symmetry_space_group_name_H-M   'P 1'
_cell_length_a   10.58896048
_cell_length_b   10.58896048
_cell_length_c   10.58896048
_cell_angle_alpha   128.98346540
_cell_angle_beta   117.11781732
_cell_angle_gamma   85.12870141
_symmetry_Int_Tables_number   1
_chemical_formula_structural   Hf2CoRh
_chemical_formula_sum   'Hf2 Co1 Rh1'
_cell_volume   785.73248026
_cell_formula_units_Z   1
loop_
 _symmetry_equiv_pos_site_id
 _symmetry_equiv_pos_as_xyz
  1  'x, y, z'
loop_
 _atom_site_type_symbol
 _atom_site_label
 _atom_site_symmetry_multiplicity
 _atom_site_fract_x
 _atom_site_fract_y
 _atom_site_fract_z
 _atom_site_occupancy
  Hf  Hf0  1  0.00000000  0.24255800  0.24255800  1
  Hf  Hf1  1  0.00000000  0.75744200  0.75744200  1
  Co  Co2  1  0.00000000  0.00000000  0.00000000  1
  Rh  Rh3  1  0.00000000  0.50000000  0.50000000  1
