# generated using pymatgen
data_Mn2BeCr
_symmetry_space_group_name_H-M   'P 1'
_cell_length_a   9.76794886
_cell_length_b   9.76794886
_cell_length_c   9.76794886
_cell_angle_alpha   121.15154193
_cell_angle_beta   116.69646964
_cell_angle_gamma   91.91590684
_symmetry_Int_Tables_number   1
_chemical_formula_structural   Mn2BeCr
_chemical_formula_sum   'Mn2 Be1 Cr1'
_cell_volume   668.11321693
_cell_formula_units_Z   1
loop_
 _symmetry_equiv_pos_site_id
 _symmetry_equiv_pos_as_xyz
  1  'x, y, z'
loop_
 _atom_site_type_symbol
 _atom_site_label
 _atom_site_symmetry_multiplicity
 _atom_site_fract_x
 _atom_site_fract_y
 _atom_site_fract_z
 _atom_site_occupancy
  Mn  Mn0  1  0.22492000  0.00000000  0.22492000  1
  Mn  Mn1  1  0.77508000  0.00000000  0.77508000  1
  Be  Be2  1  0.00000000  0.00000000  0.00000000  1
  Cr  Cr3  1  0.50000000  0.00000000  0.50000000  1
