# generated using pymatgen
data_Sr2Mg
_symmetry_space_group_name_H-M   'P 1'
_cell_length_a   7.50519191
_cell_length_b   7.50519191
_cell_length_c   7.50519220
_cell_angle_alpha   54.54004518
_cell_angle_beta   54.54004518
_cell_angle_gamma   54.54004382
_symmetry_Int_Tables_number   1
_chemical_formula_structural   Sr2Mg
_chemical_formula_sum   'Sr4 Mg2'
_cell_volume   260.88559371
_cell_formula_units_Z   2
loop_
 _symmetry_equiv_pos_site_id
 _symmetry_equiv_pos_as_xyz
  1  'x, y, z'
loop_
 _atom_site_type_symbol
 _atom_site_label
 _atom_site_symmetry_multiplicity
 _atom_site_fract_x
 _atom_site_fract_y
 _atom_site_fract_z
 _atom_site_occupancy
  Sr  Sr0  1  0.00000000  0.67248400  0.32751600  1
  Sr  Sr1  1  0.32751600  0.00000000  0.67248400  1
  Sr  Sr2  1  0.50000000  0.50000000  0.50000000  1
  Sr  Sr3  1  0.67248400  0.32751600  0.00000000  1
  Mg  Mg4  1  0.16636300  0.16636300  0.16636300  1
  Mg  Mg5  1  0.83363700  0.83363700  0.83363700  1
