# generated using pymatgen
data_TeMoWSe2S
_symmetry_space_group_name_H-M   'P 1'
_cell_length_a   3.34568457
_cell_length_b   3.34568457
_cell_length_c   38.11910400
_cell_angle_alpha   90.00000000
_cell_angle_beta   90.00000000
_cell_angle_gamma   120.00001135
_symmetry_Int_Tables_number   1
_chemical_formula_structural   TeMoWSe2S
_chemical_formula_sum   'Te2 Mo2 W2 Se4 S2'
_cell_volume   369.52451342
_cell_formula_units_Z   2
loop_
 _symmetry_equiv_pos_site_id
 _symmetry_equiv_pos_as_xyz
  1  'x, y, z'
loop_
 _atom_site_type_symbol
 _atom_site_label
 _atom_site_symmetry_multiplicity
 _atom_site_fract_x
 _atom_site_fract_y
 _atom_site_fract_z
 _atom_site_occupancy
  Te  Te0  1  0.33333300  0.66666700  0.33182300  1
  Te  Te1  1  0.33333300  0.66666700  0.23168500  1
  Mo  Mo2  1  0.33333300  0.66666700  0.09391500  1
  Mo  Mo3  1  0.33333300  0.66666700  0.46971200  1
  W  W4  1  0.66666700  0.33333300  0.28176100  1
  W  W5  1  0.66666700  0.33333300  0.65754300  1
  Se  Se6  1  0.33333300  0.66666700  0.70151800  1
  Se  Se7  1  0.66666700  0.33333300  0.42594800  1
  Se  Se8  1  0.66666700  0.33333300  0.51344600  1
  Se  Se9  1  0.33333300  0.66666700  0.61356600  1
  S  S10  1  0.66666700  0.33333300  0.05414200  1
  S  S11  1  0.66666700  0.33333300  0.13368900  1
