# generated using pymatgen
data_MgTi2
_symmetry_space_group_name_H-M   'P 1'
_cell_length_a   4.70626600
_cell_length_b   5.39469300
_cell_length_c   8.76596800
_cell_angle_alpha   90.00000000
_cell_angle_beta   90.00000000
_cell_angle_gamma   90.00000000
_symmetry_Int_Tables_number   1
_chemical_formula_structural   MgTi2
_chemical_formula_sum   'Mg4 Ti8'
_cell_volume   222.55793648
_cell_formula_units_Z   4
loop_
 _symmetry_equiv_pos_site_id
 _symmetry_equiv_pos_as_xyz
  1  'x, y, z'
loop_
 _atom_site_type_symbol
 _atom_site_label
 _atom_site_symmetry_multiplicity
 _atom_site_fract_x
 _atom_site_fract_y
 _atom_site_fract_z
 _atom_site_occupancy
  Mg  Mg0  1  0.00000000  0.91891800  0.16280600  1
  Mg  Mg1  1  0.00000000  0.91891800  0.83719400  1
  Mg  Mg2  1  0.50000000  0.08108200  0.33719400  1
  Mg  Mg3  1  0.50000000  0.08108200  0.66280600  1
  Ti  Ti4  1  0.00000000  0.43637900  0.00000000  1
  Ti  Ti5  1  0.00000000  0.41660800  0.33511100  1
  Ti  Ti6  1  0.00000000  0.85821800  0.50000000  1
  Ti  Ti7  1  0.00000000  0.41660800  0.66488900  1
  Ti  Ti8  1  0.50000000  0.14178200  0.00000000  1
  Ti  Ti9  1  0.50000000  0.58339200  0.16488900  1
  Ti  Ti10  1  0.50000000  0.56362100  0.50000000  1
  Ti  Ti11  1  0.50000000  0.58339200  0.83511100  1
