# generated using pymatgen
data_MgTi
_symmetry_space_group_name_H-M   'P 1'
_cell_length_a   5.24229272
_cell_length_b   5.24229272
_cell_length_c   4.87896400
_cell_angle_alpha   90.00000000
_cell_angle_beta   90.00000000
_cell_angle_gamma   118.17683096
_symmetry_Int_Tables_number   1
_chemical_formula_structural   MgTi
_chemical_formula_sum   'Mg3 Ti3'
_cell_volume   118.19245130
_cell_formula_units_Z   3
loop_
 _symmetry_equiv_pos_site_id
 _symmetry_equiv_pos_as_xyz
  1  'x, y, z'
loop_
 _atom_site_type_symbol
 _atom_site_label
 _atom_site_symmetry_multiplicity
 _atom_site_fract_x
 _atom_site_fract_y
 _atom_site_fract_z
 _atom_site_occupancy
  Mg  Mg0  1  0.99508000  0.33230200  0.00000000  1
  Mg  Mg1  1  0.33230200  0.99508000  0.00000000  1
  Mg  Mg2  1  0.33887400  0.33887400  0.50000000  1
  Ti  Ti3  1  0.67393400  0.67393400  0.00000000  1
  Ti  Ti4  1  0.98738300  0.67242800  0.50000000  1
  Ti  Ti5  1  0.67242800  0.98738300  0.50000000  1
