# generated using pymatgen
data_Mg5Ga
_symmetry_space_group_name_H-M   'P 1'
_cell_length_a   6.05927012
_cell_length_b   6.05927012
_cell_length_c   6.05926965
_cell_angle_alpha   52.48623950
_cell_angle_beta   52.48623950
_cell_angle_gamma   52.48623854
_symmetry_Int_Tables_number   1
_chemical_formula_structural   Mg5Ga
_chemical_formula_sum   'Mg5 Ga1'
_cell_volume   129.55744998
_cell_formula_units_Z   1
loop_
 _symmetry_equiv_pos_site_id
 _symmetry_equiv_pos_as_xyz
  1  'x, y, z'
loop_
 _atom_site_type_symbol
 _atom_site_label
 _atom_site_symmetry_multiplicity
 _atom_site_fract_x
 _atom_site_fract_y
 _atom_site_fract_z
 _atom_site_occupancy
  Mg  Mg0  1  0.00000000  0.66428600  0.33571400  1
  Mg  Mg1  1  0.83314400  0.83314400  0.83314400  1
  Mg  Mg2  1  0.66428600  0.33571400  0.00000000  1
  Mg  Mg3  1  0.33571400  0.00000000  0.66428600  1
  Mg  Mg4  1  0.16685600  0.16685600  0.16685600  1
  Ga  Ga5  1  0.50000000  0.50000000  0.50000000  1
