# generated using pymatgen
data_Sc2GaCo
_symmetry_space_group_name_H-M   'P 1'
_cell_length_a   10.51079006
_cell_length_b   10.51079006
_cell_length_c   10.51079006
_cell_angle_alpha   124.71926232
_cell_angle_beta   120.46835916
_cell_angle_gamma   85.60578542
_symmetry_Int_Tables_number   1
_chemical_formula_structural   Sc2GaCo
_chemical_formula_sum   'Sc2 Ga1 Co1'
_cell_volume   784.88549376
_cell_formula_units_Z   1
loop_
 _symmetry_equiv_pos_site_id
 _symmetry_equiv_pos_as_xyz
  1  'x, y, z'
loop_
 _atom_site_type_symbol
 _atom_site_label
 _atom_site_symmetry_multiplicity
 _atom_site_fract_x
 _atom_site_fract_y
 _atom_site_fract_z
 _atom_site_occupancy
  Sc  Sc0  1  0.00000000  0.21806700  0.21806700  1
  Sc  Sc1  1  0.00000000  0.78193300  0.78193300  1
  Ga  Ga2  1  0.00000000  0.50000000  0.50000000  1
  Co  Co3  1  0.00000000  0.00000000  0.00000000  1
