# generated using pymatgen
data_YMg2
_symmetry_space_group_name_H-M   'P 1'
_cell_length_a   6.75162946
_cell_length_b   6.75162946
_cell_length_c   7.34844570
_cell_angle_alpha   75.25864011
_cell_angle_beta   75.25864011
_cell_angle_gamma   29.04931675
_symmetry_Int_Tables_number   1
_chemical_formula_structural   YMg2
_chemical_formula_sum   'Y2 Mg4'
_cell_volume   156.93165842
_cell_formula_units_Z   2
loop_
 _symmetry_equiv_pos_site_id
 _symmetry_equiv_pos_as_xyz
  1  'x, y, z'
loop_
 _atom_site_type_symbol
 _atom_site_label
 _atom_site_symmetry_multiplicity
 _atom_site_fract_x
 _atom_site_fract_y
 _atom_site_fract_z
 _atom_site_occupancy
  Y  Y0  1  0.51918300  0.51918300  0.22580900  1
  Y  Y1  1  0.48081700  0.48081700  0.77419100  1
  Mg  Mg2  1  0.80653000  0.80653000  0.12858500  1
  Mg  Mg3  1  0.16067300  0.16067300  0.45937100  1
  Mg  Mg4  1  0.83932700  0.83932700  0.54062900  1
  Mg  Mg5  1  0.19347000  0.19347000  0.87141500  1
