# generated using pymatgen
data_Sr3Mg
_symmetry_space_group_name_H-M   'P 1'
_cell_length_a   7.97093371
_cell_length_b   7.97093371
_cell_length_c   6.47083200
_cell_angle_alpha   90.00000000
_cell_angle_beta   90.00000000
_cell_angle_gamma   119.99999759
_symmetry_Int_Tables_number   1
_chemical_formula_structural   Sr3Mg
_chemical_formula_sum   'Sr6 Mg2'
_cell_volume   356.04850076
_cell_formula_units_Z   2
loop_
 _symmetry_equiv_pos_site_id
 _symmetry_equiv_pos_as_xyz
  1  'x, y, z'
loop_
 _atom_site_type_symbol
 _atom_site_label
 _atom_site_symmetry_multiplicity
 _atom_site_fract_x
 _atom_site_fract_y
 _atom_site_fract_z
 _atom_site_occupancy
  Sr  Sr0  1  0.17102400  0.82897600  0.75000000  1
  Sr  Sr1  1  0.65795100  0.82897600  0.75000000  1
  Sr  Sr2  1  0.17102400  0.34204900  0.75000000  1
  Sr  Sr3  1  0.82897600  0.17102400  0.25000000  1
  Sr  Sr4  1  0.82897600  0.65795100  0.25000000  1
  Sr  Sr5  1  0.34204900  0.17102400  0.25000000  1
  Mg  Mg6  1  0.66666700  0.33333300  0.75000000  1
  Mg  Mg7  1  0.33333300  0.66666700  0.25000000  1
