# generated using pymatgen
data_MgSn5
_symmetry_space_group_name_H-M   'P 1'
_cell_length_a   9.05169199
_cell_length_b   9.05169199
_cell_length_c   5.51351100
_cell_angle_alpha   90.00000000
_cell_angle_beta   90.00000000
_cell_angle_gamma   159.05978793
_symmetry_Int_Tables_number   1
_chemical_formula_structural   MgSn5
_chemical_formula_sum   'Mg1 Sn5'
_cell_volume   161.44868452
_cell_formula_units_Z   1
loop_
 _symmetry_equiv_pos_site_id
 _symmetry_equiv_pos_as_xyz
  1  'x, y, z'
loop_
 _atom_site_type_symbol
 _atom_site_label
 _atom_site_symmetry_multiplicity
 _atom_site_fract_x
 _atom_site_fract_y
 _atom_site_fract_z
 _atom_site_occupancy
  Mg  Mg0  1  0.77745500  0.22254500  0.50000000  1
  Sn  Sn1  1  0.99954800  0.00045200  0.00000000  1
  Sn  Sn2  1  0.33072000  0.66928000  0.00000000  1
  Sn  Sn3  1  0.66866400  0.33133600  0.00000000  1
  Sn  Sn4  1  0.11534500  0.88465500  0.50000000  1
  Sn  Sn5  1  0.44160000  0.55840000  0.50000000  1
