# generated using pymatgen
data_YNbTc2
_symmetry_space_group_name_H-M   'P 1'
_cell_length_a   11.19092987
_cell_length_b   11.19092987
_cell_length_c   11.19092987
_cell_angle_alpha   129.50375701
_cell_angle_beta   116.48229927
_cell_angle_gamma   85.29358294
_symmetry_Int_Tables_number   1
_chemical_formula_structural   YNbTc2
_chemical_formula_sum   'Y1 Nb1 Tc2'
_cell_volume   925.75648977
_cell_formula_units_Z   1
loop_
 _symmetry_equiv_pos_site_id
 _symmetry_equiv_pos_as_xyz
  1  'x, y, z'
loop_
 _atom_site_type_symbol
 _atom_site_label
 _atom_site_symmetry_multiplicity
 _atom_site_fract_x
 _atom_site_fract_y
 _atom_site_fract_z
 _atom_site_occupancy
  Y  Y0  1  0.00000000  0.00000000  0.00000000  1
  Nb  Nb1  1  0.00000000  0.50000000  0.50000000  1
  Tc  Tc2  1  0.00000000  0.26453900  0.26453900  1
  Tc  Tc3  1  0.00000000  0.73546100  0.73546100  1
