# generated using pymatgen
data_ZnSiRu2
_symmetry_space_group_name_H-M   'P 1'
_cell_length_a   10.10478783
_cell_length_b   10.10478783
_cell_length_c   10.10478783
_cell_angle_alpha   123.51215004
_cell_angle_beta   119.27478229
_cell_angle_gamma   87.64376983
_symmetry_Int_Tables_number   1
_chemical_formula_structural   ZnSiRu2
_chemical_formula_sum   'Zn1 Si1 Ru2'
_cell_volume   712.26285138
_cell_formula_units_Z   1
loop_
 _symmetry_equiv_pos_site_id
 _symmetry_equiv_pos_as_xyz
  1  'x, y, z'
loop_
 _atom_site_type_symbol
 _atom_site_label
 _atom_site_symmetry_multiplicity
 _atom_site_fract_x
 _atom_site_fract_y
 _atom_site_fract_z
 _atom_site_occupancy
  Zn  Zn0  1  0.00000000  0.50000000  0.50000000  1
  Si  Si1  1  0.00000000  0.00000000  0.00000000  1
  Ru  Ru2  1  0.00000000  0.22855400  0.22855400  1
  Ru  Ru3  1  0.00000000  0.77144600  0.77144600  1
