# generated using pymatgen
data_La2CdIr
_symmetry_space_group_name_H-M   'P 1'
_cell_length_a   12.73196296
_cell_length_b   12.73196296
_cell_length_c   12.73196296
_cell_angle_alpha   126.46865910
_cell_angle_beta   117.87713801
_cell_angle_gamma   86.44767087
_symmetry_Int_Tables_number   1
_chemical_formula_structural   La2CdIr
_chemical_formula_sum   'La2 Cd1 Ir1'
_cell_volume   1397.78904124
_cell_formula_units_Z   1
loop_
 _symmetry_equiv_pos_site_id
 _symmetry_equiv_pos_as_xyz
  1  'x, y, z'
loop_
 _atom_site_type_symbol
 _atom_site_label
 _atom_site_symmetry_multiplicity
 _atom_site_fract_x
 _atom_site_fract_y
 _atom_site_fract_z
 _atom_site_occupancy
  La  La0  1  0.00000000  0.28809500  0.28809500  1
  La  La1  1  0.00000000  0.71190500  0.71190500  1
  Cd  Cd2  1  0.00000000  0.00000000  0.00000000  1
  Ir  Ir3  1  0.00000000  0.50000000  0.50000000  1
