# generated using pymatgen
data_MgRu2W
_symmetry_space_group_name_H-M   'P 1'
_cell_length_a   10.45456174
_cell_length_b   10.45456174
_cell_length_c   10.45456174
_cell_angle_alpha   124.26351799
_cell_angle_beta   118.46042182
_cell_angle_gamma   87.73327367
_symmetry_Int_Tables_number   1
_chemical_formula_structural   MgRu2W
_chemical_formula_sum   'Mg1 Ru2 W1'
_cell_volume   788.01266471
_cell_formula_units_Z   1
loop_
 _symmetry_equiv_pos_site_id
 _symmetry_equiv_pos_as_xyz
  1  'x, y, z'
loop_
 _atom_site_type_symbol
 _atom_site_label
 _atom_site_symmetry_multiplicity
 _atom_site_fract_x
 _atom_site_fract_y
 _atom_site_fract_z
 _atom_site_occupancy
  Mg  Mg0  1  0.00000000  0.00000000  0.00000000  1
  Ru  Ru1  1  0.00000000  0.28075200  0.28075200  1
  Ru  Ru2  1  0.00000000  0.71924800  0.71924800  1
  W  W3  1  0.00000000  0.50000000  0.50000000  1
