# generated using pymatgen
data_FeCuRh2
_symmetry_space_group_name_H-M   'P 1'
_cell_length_a   9.82015820
_cell_length_b   9.82015820
_cell_length_c   9.82015820
_cell_angle_alpha   123.40269319
_cell_angle_beta   118.93715072
_cell_angle_gamma   88.03036093
_symmetry_Int_Tables_number   1
_chemical_formula_structural   FeCuRh2
_chemical_formula_sum   'Fe1 Cu1 Rh2'
_cell_volume   656.07211495
_cell_formula_units_Z   1
loop_
 _symmetry_equiv_pos_site_id
 _symmetry_equiv_pos_as_xyz
  1  'x, y, z'
loop_
 _atom_site_type_symbol
 _atom_site_label
 _atom_site_symmetry_multiplicity
 _atom_site_fract_x
 _atom_site_fract_y
 _atom_site_fract_z
 _atom_site_occupancy
  Fe  Fe0  1  0.00000000  0.00000000  0.00000000  1
  Cu  Cu1  1  0.00000000  0.50000000  0.50000000  1
  Rh  Rh2  1  0.00000000  0.24057300  0.24057300  1
  Rh  Rh3  1  0.00000000  0.75942700  0.75942700  1
