# generated using pymatgen
data_BaSrIn2
_symmetry_space_group_name_H-M   'P 1'
_cell_length_a   13.45602949
_cell_length_b   13.45602949
_cell_length_c   13.45602949
_cell_angle_alpha   120.33053898
_cell_angle_beta   119.60359875
_cell_angle_gamma   90.05819960
_symmetry_Int_Tables_number   1
_chemical_formula_structural   BaSrIn2
_chemical_formula_sum   'Ba1 Sr1 In2'
_cell_volume   1723.57365712
_cell_formula_units_Z   1
loop_
 _symmetry_equiv_pos_site_id
 _symmetry_equiv_pos_as_xyz
  1  'x, y, z'
loop_
 _atom_site_type_symbol
 _atom_site_label
 _atom_site_symmetry_multiplicity
 _atom_site_fract_x
 _atom_site_fract_y
 _atom_site_fract_z
 _atom_site_occupancy
  Ba  Ba0  1  0.00000000  0.50000000  0.50000000  1
  Sr  Sr1  1  0.00000000  0.00000000  0.00000000  1
  In  In2  1  0.00000000  0.24971100  0.24971100  1
  In  In3  1  0.00000000  0.75028900  0.75028900  1
