# generated using pymatgen
data_MgCd2
_symmetry_space_group_name_H-M   'P 1'
_cell_length_a   6.04605885
_cell_length_b   6.04605885
_cell_length_c   7.38518084
_cell_angle_alpha   74.63716021
_cell_angle_beta   74.63716021
_cell_angle_gamma   30.59805489
_symmetry_Int_Tables_number   1
_chemical_formula_structural   MgCd2
_chemical_formula_sum   'Mg2 Cd4'
_cell_volume   132.13001735
_cell_formula_units_Z   2
loop_
 _symmetry_equiv_pos_site_id
 _symmetry_equiv_pos_as_xyz
  1  'x, y, z'
loop_
 _atom_site_type_symbol
 _atom_site_label
 _atom_site_symmetry_multiplicity
 _atom_site_fract_x
 _atom_site_fract_y
 _atom_site_fract_z
 _atom_site_occupancy
  Mg  Mg0  1  0.52693800  0.52693800  0.19643100  1
  Mg  Mg1  1  0.47306200  0.47306200  0.80356900  1
  Cd  Cd2  1  0.80878200  0.80878200  0.13716700  1
  Cd  Cd3  1  0.13694600  0.13694600  0.47164500  1
  Cd  Cd4  1  0.86305400  0.86305400  0.52835500  1
  Cd  Cd5  1  0.19121800  0.19121800  0.86283300  1
