# generated using pymatgen
data_Zr2ZnPt
_symmetry_space_group_name_H-M   'P 1'
_cell_length_a   11.14971273
_cell_length_b   11.14971273
_cell_length_c   11.14971273
_cell_angle_alpha   122.30627112
_cell_angle_beta   120.06233438
_cell_angle_gamma   87.97206523
_symmetry_Int_Tables_number   1
_chemical_formula_structural   Zr2ZnPt
_chemical_formula_sum   'Zr2 Zn1 Pt1'
_cell_volume   961.43173873
_cell_formula_units_Z   1
loop_
 _symmetry_equiv_pos_site_id
 _symmetry_equiv_pos_as_xyz
  1  'x, y, z'
loop_
 _atom_site_type_symbol
 _atom_site_label
 _atom_site_symmetry_multiplicity
 _atom_site_fract_x
 _atom_site_fract_y
 _atom_site_fract_z
 _atom_site_occupancy
  Zr  Zr0  1  0.00000000  0.27341300  0.27341300  1
  Zr  Zr1  1  0.00000000  0.72658700  0.72658700  1
  Zn  Zn2  1  0.00000000  0.00000000  0.00000000  1
  Pt  Pt3  1  0.00000000  0.50000000  0.50000000  1
