# generated using pymatgen
data_Ca3Mg
_symmetry_space_group_name_H-M   'P 1'
_cell_length_a   7.43397594
_cell_length_b   7.43397594
_cell_length_c   6.01597800
_cell_angle_alpha   90.00000000
_cell_angle_beta   90.00000000
_cell_angle_gamma   119.99999948
_symmetry_Int_Tables_number   1
_chemical_formula_structural   Ca3Mg
_chemical_formula_sum   'Ca6 Mg2'
_cell_volume   287.92486768
_cell_formula_units_Z   2
loop_
 _symmetry_equiv_pos_site_id
 _symmetry_equiv_pos_as_xyz
  1  'x, y, z'
loop_
 _atom_site_type_symbol
 _atom_site_label
 _atom_site_symmetry_multiplicity
 _atom_site_fract_x
 _atom_site_fract_y
 _atom_site_fract_z
 _atom_site_occupancy
  Ca  Ca0  1  0.17002200  0.82997800  0.75000000  1
  Ca  Ca1  1  0.65995600  0.82997800  0.75000000  1
  Ca  Ca2  1  0.17002200  0.34004400  0.75000000  1
  Ca  Ca3  1  0.82997800  0.17002200  0.25000000  1
  Ca  Ca4  1  0.82997800  0.65995600  0.25000000  1
  Ca  Ca5  1  0.34004400  0.17002200  0.25000000  1
  Mg  Mg6  1  0.66666700  0.33333300  0.75000000  1
  Mg  Mg7  1  0.33333300  0.66666700  0.25000000  1
