# generated using pymatgen
data_HoVO4
_symmetry_space_group_name_H-M   'P 1'
_cell_length_a   6.65674969
_cell_length_b   6.65674969
_cell_length_c   6.65674969
_cell_angle_alpha   135.12573859
_cell_angle_beta   135.12573859
_cell_angle_gamma   65.33489280
_symmetry_Int_Tables_number   1
_chemical_formula_structural   HoVO4
_chemical_formula_sum   'Ho2 V2 O8'
_cell_volume   144.69031753
_cell_formula_units_Z   2
loop_
 _symmetry_equiv_pos_site_id
 _symmetry_equiv_pos_as_xyz
  1  'x, y, z'
loop_
 _atom_site_type_symbol
 _atom_site_label
 _atom_site_symmetry_multiplicity
 _atom_site_fract_x
 _atom_site_fract_y
 _atom_site_fract_z
 _atom_site_occupancy
  Ho  Ho0  1  0.25000000  0.75000000  0.50000000  1
  Ho  Ho1  1  0.50000000  0.50000000  0.00000000  1
  V  V2  1  0.75000000  0.25000000  0.50000000  1
  V  V3  1  0.00000000  0.00000000  0.00000000  1
  O  O4  1  0.51903900  0.42470200  0.60550200  1
  O  O5  1  0.81920000  0.91353700  0.39449800  1
  O  O6  1  0.23096100  0.82529800  0.89449800  1
  O  O7  1  0.93080000  0.33646300  0.10550200  1
  O  O8  1  0.17470200  0.06920000  0.40566300  1
  O  O9  1  0.66353700  0.76903900  0.59433700  1
  O  O10  1  0.57529800  0.18080000  0.09433700  1
  O  O11  1  0.08646300  0.48096100  0.90566300  1
