# generated using pymatgen
data_NaIn2Ag
_symmetry_space_group_name_H-M   'P 1'
_cell_length_a   12.12702885
_cell_length_b   12.12702885
_cell_length_c   12.12702885
_cell_angle_alpha   122.70974770
_cell_angle_beta   119.07298502
_cell_angle_gamma   88.49255629
_symmetry_Int_Tables_number   1
_chemical_formula_structural   NaIn2Ag
_chemical_formula_sum   'Na1 In2 Ag1'
_cell_volume   1242.02001732
_cell_formula_units_Z   1
loop_
 _symmetry_equiv_pos_site_id
 _symmetry_equiv_pos_as_xyz
  1  'x, y, z'
loop_
 _atom_site_type_symbol
 _atom_site_label
 _atom_site_symmetry_multiplicity
 _atom_site_fract_x
 _atom_site_fract_y
 _atom_site_fract_z
 _atom_site_occupancy
  Na  Na0  1  0.00000000  0.00000000  0.00000000  1
  In  In1  1  0.00000000  0.26788200  0.26788200  1
  In  In2  1  0.00000000  0.73211800  0.73211800  1
  Ag  Ag3  1  0.00000000  0.50000000  0.50000000  1
