# generated using pymatgen
data_Sc2ZnPd
_symmetry_space_group_name_H-M   'P 1'
_cell_length_a   10.99220327
_cell_length_b   10.99220327
_cell_length_c   10.99220327
_cell_angle_alpha   124.44861664
_cell_angle_beta   118.54892150
_cell_angle_gamma   87.50249504
_symmetry_Int_Tables_number   1
_chemical_formula_structural   Sc2ZnPd
_chemical_formula_sum   'Sc2 Zn1 Pd1'
_cell_volume   913.72569877
_cell_formula_units_Z   1
loop_
 _symmetry_equiv_pos_site_id
 _symmetry_equiv_pos_as_xyz
  1  'x, y, z'
loop_
 _atom_site_type_symbol
 _atom_site_label
 _atom_site_symmetry_multiplicity
 _atom_site_fract_x
 _atom_site_fract_y
 _atom_site_fract_z
 _atom_site_occupancy
  Sc  Sc0  1  0.00000000  0.26727100  0.26727100  1
  Sc  Sc1  1  0.00000000  0.73272900  0.73272900  1
  Zn  Zn2  1  0.00000000  0.00000000  0.00000000  1
  Pd  Pd3  1  0.00000000  0.50000000  0.50000000  1
