# generated using pymatgen
data_Na2TlPb
_symmetry_space_group_name_H-M   'P 1'
_cell_length_a   12.81655134
_cell_length_b   12.81655134
_cell_length_c   12.81655134
_cell_angle_alpha   120.51346238
_cell_angle_beta   119.67330094
_cell_angle_gamma   89.83987849
_symmetry_Int_Tables_number   1
_chemical_formula_structural   Na2TlPb
_chemical_formula_sum   'Na2 Tl1 Pb1'
_cell_volume   1486.46265139
_cell_formula_units_Z   1
loop_
 _symmetry_equiv_pos_site_id
 _symmetry_equiv_pos_as_xyz
  1  'x, y, z'
loop_
 _atom_site_type_symbol
 _atom_site_label
 _atom_site_symmetry_multiplicity
 _atom_site_fract_x
 _atom_site_fract_y
 _atom_site_fract_z
 _atom_site_occupancy
  Na  Na0  1  0.00000000  0.25370600  0.25370600  1
  Na  Na1  1  0.00000000  0.74629400  0.74629400  1
  Tl  Tl2  1  0.00000000  0.00000000  0.00000000  1
  Pb  Pb3  1  0.00000000  0.50000000  0.50000000  1
