# generated using pymatgen
data_CrN2
_symmetry_space_group_name_H-M   'P 1'
_cell_length_a   12.42615793
_cell_length_b   12.42615793
_cell_length_c   21.44985100
_cell_angle_alpha   90.00000000
_cell_angle_beta   90.00000000
_cell_angle_gamma   129.13577629
_symmetry_Int_Tables_number   1
_chemical_formula_structural   CrN2
_chemical_formula_sum   'Cr32 N64'
_cell_volume   2569.00640919
_cell_formula_units_Z   32
loop_
 _symmetry_equiv_pos_site_id
 _symmetry_equiv_pos_as_xyz
  1  'x, y, z'
loop_
 _atom_site_type_symbol
 _atom_site_label
 _atom_site_symmetry_multiplicity
 _atom_site_fract_x
 _atom_site_fract_y
 _atom_site_fract_z
 _atom_site_occupancy
  Cr  Cr0  1  0.63756100  0.27992300  0.82836900  1
  Cr  Cr1  1  0.72007700  0.36243900  0.17163100  1
  Cr  Cr2  1  0.63756100  0.27992300  0.67163100  1
  Cr  Cr3  1  0.72007700  0.36243900  0.32836900  1
  Cr  Cr4  1  0.36243900  0.72007700  0.17163100  1
  Cr  Cr5  1  0.27992300  0.63756100  0.82836900  1
  Cr  Cr6  1  0.36243900  0.72007700  0.32836900  1
  Cr  Cr7  1  0.27992300  0.63756100  0.67163100  1
  Cr  Cr8  1  0.32145200  0.47361700  0.94085200  1
  Cr  Cr9  1  0.52638300  0.67854800  0.05914800  1
  Cr  Cr10  1  0.32145200  0.47361700  0.55914800  1
  Cr  Cr11  1  0.52638300  0.67854800  0.44085200  1
  Cr  Cr12  1  0.67854800  0.52638300  0.05914800  1
  Cr  Cr13  1  0.47361700  0.32145200  0.94085200  1
  Cr  Cr14  1  0.67854800  0.52638300  0.44085200  1
  Cr  Cr15  1  0.47361700  0.32145200  0.55914800  1
  Cr  Cr16  1  0.96206300  0.49105200  0.89055600  1
  Cr  Cr17  1  0.50894800  0.03793700  0.10944400  1
  Cr  Cr18  1  0.96206300  0.49105200  0.60944400  1
  Cr  Cr19  1  0.50894800  0.03793700  0.39055600  1
  Cr  Cr20  1  0.03793700  0.50894800  0.10944400  1
  Cr  Cr21  1  0.49105200  0.96206300  0.89055600  1
  Cr  Cr22  1  0.03793700  0.50894800  0.39055600  1
  Cr  Cr23  1  0.49105200  0.96206300  0.60944400  1
  Cr  Cr24  1  0.00055300  0.30977400  0.99381900  1
  Cr  Cr25  1  0.69022600  0.99944700  0.00618100  1
  Cr  Cr26  1  0.00055300  0.30977400  0.50618100  1
  Cr  Cr27  1  0.69022600  0.99944700  0.49381900  1
  Cr  Cr28  1  0.99944700  0.69022600  0.00618100  1
  Cr  Cr29  1  0.30977400  0.00055300  0.99381900  1
  Cr  Cr30  1  0.99944700  0.69022600  0.49381900  1
  Cr  Cr31  1  0.30977400  0.00055300  0.50618100  1
  N  N32  1  0.60414500  0.28009000  0.75000000  1
  N  N33  1  0.71991000  0.39585500  0.25000000  1
  N  N34  1  0.39585500  0.71991000  0.25000000  1
  N  N35  1  0.28009000  0.60414500  0.75000000  1
  N  N36  1  0.57722700  0.11500800  0.84890200  1
  N  N37  1  0.88499200  0.42277300  0.15109800  1
  N  N38  1  0.57722700  0.11500800  0.65109800  1
  N  N39  1  0.88499200  0.42277300  0.34890200  1
  N  N40  1  0.42277300  0.88499200  0.15109800  1
  N  N41  1  0.11500800  0.57722700  0.84890200  1
  N  N42  1  0.42277300  0.88499200  0.34890200  1
  N  N43  1  0.11500800  0.57722700  0.65109800  1
  N  N44  1  0.40530700  0.59469300  0.00000000  1
  N  N45  1  0.40530700  0.59469300  0.50000000  1
  N  N46  1  0.59469300  0.40530700  0.00000000  1
  N  N47  1  0.59469300  0.40530700  0.50000000  1
  N  N48  1  0.15455900  0.35117200  0.96800000  1
  N  N49  1  0.64882800  0.84544100  0.03200000  1
  N  N50  1  0.15455900  0.35117200  0.53200000  1
  N  N51  1  0.64882800  0.84544100  0.46800000  1
  N  N52  1  0.84544100  0.64882800  0.03200000  1
  N  N53  1  0.35117200  0.15455900  0.96800000  1
  N  N54  1  0.84544100  0.64882800  0.46800000  1
  N  N55  1  0.35117200  0.15455900  0.53200000  1
  N  N56  1  0.40241500  0.40241500  0.92893000  1
  N  N57  1  0.59758500  0.59758500  0.07107000  1
  N  N58  1  0.40241500  0.40241500  0.57107000  1
  N  N59  1  0.59758500  0.59758500  0.42893000  1
  N  N60  1  0.95223900  0.37942500  0.94236400  1
  N  N61  1  0.62057500  0.04776100  0.05763600  1
  N  N62  1  0.95223900  0.37942500  0.55763600  1
  N  N63  1  0.62057500  0.04776100  0.44236400  1
  N  N64  1  0.04776100  0.62057500  0.05763600  1
  N  N65  1  0.37942500  0.95223900  0.94236400  1
  N  N66  1  0.04776100  0.62057500  0.44236400  1
  N  N67  1  0.37942500  0.95223900  0.55763600  1
  N  N68  1  0.55720900  0.32313200  0.87537900  1
  N  N69  1  0.67686800  0.44279100  0.12462100  1
  N  N70  1  0.55720900  0.32313200  0.62462100  1
  N  N71  1  0.67686800  0.44279100  0.37537900  1
  N  N72  1  0.44279100  0.67686800  0.12462100  1
  N  N73  1  0.32313200  0.55720900  0.87537900  1
  N  N74  1  0.44279100  0.67686800  0.37537900  1
  N  N75  1  0.32313200  0.55720900  0.62462100  1
  N  N76  1  0.81275900  0.39825600  0.84449100  1
  N  N77  1  0.60174400  0.18724100  0.15550900  1
  N  N78  1  0.81275900  0.39825600  0.65550900  1
  N  N79  1  0.60174400  0.18724100  0.34449100  1
  N  N80  1  0.18724100  0.60174400  0.15550900  1
  N  N81  1  0.39825600  0.81275900  0.84449100  1
  N  N82  1  0.18724100  0.60174400  0.34449100  1
  N  N83  1  0.39825600  0.81275900  0.65550900  1
  N  N84  1  0.96773600  0.61156600  0.93432400  1
  N  N85  1  0.38843400  0.03226400  0.06567600  1
  N  N86  1  0.96773600  0.61156600  0.56567600  1
  N  N87  1  0.38843400  0.03226400  0.43432400  1
  N  N88  1  0.03226400  0.38843400  0.06567600  1
  N  N89  1  0.61156600  0.96773600  0.93432400  1
  N  N90  1  0.03226400  0.38843400  0.43432400  1
  N  N91  1  0.61156600  0.96773600  0.56567600  1
  N  N92  1  0.86736100  0.13263900  0.00000000  1
  N  N93  1  0.86736100  0.13263900  0.50000000  1
  N  N94  1  0.13263900  0.86736100  0.00000000  1
  N  N95  1  0.13263900  0.86736100  0.50000000  1
