# generated using pymatgen
data_CsRbNa2
_symmetry_space_group_name_H-M   'P 1'
_cell_length_a   15.62134625
_cell_length_b   15.62134625
_cell_length_c   15.62134625
_cell_angle_alpha   121.17017023
_cell_angle_beta   116.77350809
_cell_angle_gamma   91.83111815
_symmetry_Int_Tables_number   1
_chemical_formula_structural   CsRbNa2
_chemical_formula_sum   'Cs1 Rb1 Na2'
_cell_volume   2731.04056178
_cell_formula_units_Z   1
loop_
 _symmetry_equiv_pos_site_id
 _symmetry_equiv_pos_as_xyz
  1  'x, y, z'
loop_
 _atom_site_type_symbol
 _atom_site_label
 _atom_site_symmetry_multiplicity
 _atom_site_fract_x
 _atom_site_fract_y
 _atom_site_fract_z
 _atom_site_occupancy
  Cs  Cs0  1  0.50000000  0.00000000  0.50000000  1
  Rb  Rb1  1  0.00000000  0.00000000  0.00000000  1
  Na  Na2  1  0.75312400  0.00000000  0.75312400  1
  Na  Na3  1  0.24687600  0.00000000  0.24687600  1
