# generated using pymatgen
data_Ti2FeRe
_symmetry_space_group_name_H-M   'P 1'
_cell_length_a   9.56759320
_cell_length_b   9.56759320
_cell_length_c   9.56759320
_cell_angle_alpha   122.61555289
_cell_angle_beta   117.88957962
_cell_angle_gamma   89.61218916
_symmetry_Int_Tables_number   1
_chemical_formula_structural   Ti2FeRe
_chemical_formula_sum   'Ti2 Fe1 Re1'
_cell_volume   615.58593910
_cell_formula_units_Z   1
loop_
 _symmetry_equiv_pos_site_id
 _symmetry_equiv_pos_as_xyz
  1  'x, y, z'
loop_
 _atom_site_type_symbol
 _atom_site_label
 _atom_site_symmetry_multiplicity
 _atom_site_fract_x
 _atom_site_fract_y
 _atom_site_fract_z
 _atom_site_occupancy
  Ti  Ti0  1  0.00000000  0.25203100  0.25203100  1
  Ti  Ti1  1  0.00000000  0.74796900  0.74796900  1
  Fe  Fe2  1  0.00000000  0.00000000  0.00000000  1
  Re  Re3  1  0.00000000  0.50000000  0.50000000  1
