# generated using pymatgen
data_HfScTc2
_symmetry_space_group_name_H-M   'P 1'
_cell_length_a   10.82884964
_cell_length_b   10.82884964
_cell_length_c   10.82884964
_cell_angle_alpha   128.75754989
_cell_angle_beta   117.25688396
_cell_angle_gamma   85.18107650
_symmetry_Int_Tables_number   1
_chemical_formula_structural   HfScTc2
_chemical_formula_sum   'Hf1 Sc1 Tc2'
_cell_volume   841.79421818
_cell_formula_units_Z   1
loop_
 _symmetry_equiv_pos_site_id
 _symmetry_equiv_pos_as_xyz
  1  'x, y, z'
loop_
 _atom_site_type_symbol
 _atom_site_label
 _atom_site_symmetry_multiplicity
 _atom_site_fract_x
 _atom_site_fract_y
 _atom_site_fract_z
 _atom_site_occupancy
  Hf  Hf0  1  0.00000000  0.50000000  0.50000000  1
  Sc  Sc1  1  0.00000000  0.00000000  0.00000000  1
  Tc  Tc2  1  0.00000000  0.25207700  0.25207700  1
  Tc  Tc3  1  0.00000000  0.74792300  0.74792300  1
