# generated using pymatgen
data_MgCo2Ge
_symmetry_space_group_name_H-M   'P 1'
_cell_length_a   10.07758991
_cell_length_b   10.07758991
_cell_length_c   10.07758991
_cell_angle_alpha   121.72965621
_cell_angle_beta   119.36202046
_cell_angle_gamma   89.06958421
_symmetry_Int_Tables_number   1
_chemical_formula_structural   MgCo2Ge
_chemical_formula_sum   'Mg1 Co2 Ge1'
_cell_volume   717.23001732
_cell_formula_units_Z   1
loop_
 _symmetry_equiv_pos_site_id
 _symmetry_equiv_pos_as_xyz
  1  'x, y, z'
loop_
 _atom_site_type_symbol
 _atom_site_label
 _atom_site_symmetry_multiplicity
 _atom_site_fract_x
 _atom_site_fract_y
 _atom_site_fract_z
 _atom_site_occupancy
  Mg  Mg0  1  0.00000000  0.00000000  0.00000000  1
  Co  Co1  1  0.00000000  0.27507000  0.27507000  1
  Co  Co2  1  0.00000000  0.72493000  0.72493000  1
  Ge  Ge3  1  0.00000000  0.50000000  0.50000000  1
