# generated using pymatgen
data_Sr2TlZn
_symmetry_space_group_name_H-M   'P 1'
_cell_length_a   13.72032836
_cell_length_b   13.72032836
_cell_length_c   13.72032836
_cell_angle_alpha   121.74068203
_cell_angle_beta   119.27604156
_cell_angle_gamma   89.13518050
_symmetry_Int_Tables_number   1
_chemical_formula_structural   Sr2TlZn
_chemical_formula_sum   'Sr2 Tl1 Zn1'
_cell_volume   1811.00204493
_cell_formula_units_Z   1
loop_
 _symmetry_equiv_pos_site_id
 _symmetry_equiv_pos_as_xyz
  1  'x, y, z'
loop_
 _atom_site_type_symbol
 _atom_site_label
 _atom_site_symmetry_multiplicity
 _atom_site_fract_x
 _atom_site_fract_y
 _atom_site_fract_z
 _atom_site_occupancy
  Sr  Sr0  1  0.00000000  0.25932600  0.25932600  1
  Sr  Sr1  1  0.00000000  0.74067400  0.74067400  1
  Tl  Tl2  1  0.00000000  0.50000000  0.50000000  1
  Zn  Zn3  1  0.00000000  0.00000000  0.00000000  1
