# generated using pymatgen
data_BaFeS
_symmetry_space_group_name_H-M   'P 1'
_cell_length_a   3.82157400
_cell_length_b   3.82157400
_cell_length_c   9.75966400
_cell_angle_alpha   90.00000000
_cell_angle_beta   90.00000000
_cell_angle_gamma   90.00000000
_symmetry_Int_Tables_number   1
_chemical_formula_structural   BaFeS
_chemical_formula_sum   'Ba2 Fe2 S2'
_cell_volume   142.53430861
_cell_formula_units_Z   2
loop_
 _symmetry_equiv_pos_site_id
 _symmetry_equiv_pos_as_xyz
  1  'x, y, z'
loop_
 _atom_site_type_symbol
 _atom_site_label
 _atom_site_symmetry_multiplicity
 _atom_site_fract_x
 _atom_site_fract_y
 _atom_site_fract_z
 _atom_site_occupancy
  Ba  Ba0  1  0.50000000  0.00000000  0.21057400  1
  Ba  Ba1  1  0.00000000  0.50000000  0.78942600  1
  Fe  Fe2  1  0.50000000  0.50000000  0.50000000  1
  Fe  Fe3  1  0.00000000  0.00000000  0.50000000  1
  S  S4  1  0.50000000  0.00000000  0.61956500  1
  S  S5  1  0.00000000  0.50000000  0.38043500  1
