# generated using pymatgen
data_Mo3W(SeS)4
_symmetry_space_group_name_H-M   'P 1'
_cell_length_a   3.25335022
_cell_length_b   3.25335022
_cell_length_c   37.09793900
_cell_angle_alpha   90.00000000
_cell_angle_beta   90.00000000
_cell_angle_gamma   120.00000445
_symmetry_Int_Tables_number   1
_chemical_formula_structural   Mo3W(SeS)4
_chemical_formula_sum   'Mo3 W1 Se4 S4'
_cell_volume   340.04941263
_cell_formula_units_Z   1
loop_
 _symmetry_equiv_pos_site_id
 _symmetry_equiv_pos_as_xyz
  1  'x, y, z'
loop_
 _atom_site_type_symbol
 _atom_site_label
 _atom_site_symmetry_multiplicity
 _atom_site_fract_x
 _atom_site_fract_y
 _atom_site_fract_z
 _atom_site_occupancy
  Mo  Mo0  1  0.33333300  0.66666700  0.09391500  1
  Mo  Mo1  1  0.33333300  0.66666700  0.46965900  1
  Mo  Mo2  1  0.66666700  0.33333300  0.28180300  1
  W  W3  1  0.66666700  0.33333300  0.65754500  1
  Se  Se4  1  0.66666700  0.33333300  0.04815400  1
  Se  Se5  1  0.66666700  0.33333300  0.42389100  1
  Se  Se6  1  0.66666700  0.33333300  0.13970000  1
  Se  Se7  1  0.66666700  0.33333300  0.51542100  1
  S  S8  1  0.33333300  0.66666700  0.32345500  1
  S  S9  1  0.33333300  0.66666700  0.69933900  1
  S  S10  1  0.33333300  0.66666700  0.24012600  1
  S  S11  1  0.33333300  0.66666700  0.61573900  1
