# generated using pymatgen
data_YScAg2
_symmetry_space_group_name_H-M   'P 1'
_cell_length_a   11.93866567
_cell_length_b   11.93866567
_cell_length_c   11.93866567
_cell_angle_alpha   124.12520659
_cell_angle_beta   119.36396235
_cell_angle_gamma   87.05605546
_symmetry_Int_Tables_number   1
_chemical_formula_structural   YScAg2
_chemical_formula_sum   'Y1 Sc1 Ag2'
_cell_volume   1167.13776885
_cell_formula_units_Z   1
loop_
 _symmetry_equiv_pos_site_id
 _symmetry_equiv_pos_as_xyz
  1  'x, y, z'
loop_
 _atom_site_type_symbol
 _atom_site_label
 _atom_site_symmetry_multiplicity
 _atom_site_fract_x
 _atom_site_fract_y
 _atom_site_fract_z
 _atom_site_occupancy
  Y  Y0  1  0.00000000  0.50000000  0.50000000  1
  Sc  Sc1  1  0.00000000  0.00000000  0.00000000  1
  Ag  Ag2  1  0.00000000  0.24460200  0.24460200  1
  Ag  Ag3  1  0.00000000  0.75539800  0.75539800  1
