# generated using pymatgen
data_NaVZnO4
_symmetry_space_group_name_H-M   'P 1'
_cell_length_a   8.28031891
_cell_length_b   18.66513152
_cell_length_c   18.66496441
_cell_angle_alpha   119.99911710
_cell_angle_beta   90.00000000
_cell_angle_gamma   90.00000000
_symmetry_Int_Tables_number   1
_chemical_formula_structural   NaVZnO4
_chemical_formula_sum   'Na24 V24 Zn24 O96'
_cell_volume   2498.27233986
_cell_formula_units_Z   24
loop_
 _symmetry_equiv_pos_site_id
 _symmetry_equiv_pos_as_xyz
  1  'x, y, z'
loop_
 _atom_site_type_symbol
 _atom_site_label
 _atom_site_symmetry_multiplicity
 _atom_site_fract_x
 _atom_site_fract_y
 _atom_site_fract_z
 _atom_site_occupancy
  Na  Na0  1  0.56900778  0.18420792  0.33072838  1
  Na  Na1  1  0.56899587  0.66926901  0.85348464  1
  Na  Na2  1  0.56901617  0.14651645  0.81577896  1
  Na  Na3  1  0.06900778  0.81579208  0.66927162  1
  Na  Na4  1  0.06899587  0.33073099  0.14651536  1
  Na  Na5  1  0.06901617  0.85348355  0.18422104  1
  Na  Na6  1  0.57722903  0.00120606  0.52132569  1
  Na  Na7  1  0.57722350  0.47868275  0.47988663  1
  Na  Na8  1  0.57720311  0.52011363  0.99879133  1
  Na  Na9  1  0.07722903  0.99879394  0.47867431  1
  Na  Na10  1  0.07722350  0.52131725  0.52011337  1
  Na  Na11  1  0.07720311  0.47988637  0.00120867  1
  Na  Na12  1  0.57898926  0.80784144  0.14188348  1
  Na  Na13  1  0.57898088  0.85811896  0.66596553  1
  Na  Na14  1  0.57902793  0.33403615  0.19216474  1
  Na  Na15  1  0.07898926  0.19215856  0.85811652  1
  Na  Na16  1  0.07898088  0.14188104  0.33403447  1
  Na  Na17  1  0.07902793  0.66596385  0.80783526  1
  Na  Na18  1  0.09004946  0.00000096  0.99999775  1
  Na  Na19  1  0.59004946  0.99999904  0.00000225  1
  Na  Na20  1  0.06065276  0.33338106  0.66667950  1
  Na  Na21  1  0.56065276  0.66661894  0.33332050  1
  Na  Na22  1  0.55669966  0.33335731  0.66668135  1
  Na  Na23  1  0.05669966  0.66664269  0.33331865  1
  V  V24  1  0.80544025  0.00346310  0.33132177  1
  V  V25  1  0.80540325  0.66866689  0.67214970  1
  V  V26  1  0.80532566  0.32786608  0.99653443  1
  V  V27  1  0.30544025  0.99653690  0.66867823  1
  V  V28  1  0.30540325  0.33133311  0.32785030  1
  V  V29  1  0.30532566  0.67213392  0.00346557  1
  V  V30  1  0.35233312  0.16110047  0.51066032  1
  V  V31  1  0.35229763  0.48931465  0.65041899  1
  V  V32  1  0.35227968  0.34959186  0.83889936  1
  V  V33  1  0.85233312  0.83889953  0.48933968  1
  V  V34  1  0.85229763  0.51068535  0.34958101  1
  V  V35  1  0.85227968  0.65040814  0.16110064  1
  V  V36  1  0.37484887  0.98583008  0.16069719  1
  V  V37  1  0.37486889  0.83931610  0.82513804  1
  V  V38  1  0.37487104  0.17487385  0.01418469  1
  V  V39  1  0.87484887  0.01416992  0.83930281  1
  V  V40  1  0.87486889  0.16068390  0.17486196  1
  V  V41  1  0.87487104  0.82512615  0.98581531  1
  V  V42  1  0.85090755  0.17456814  0.67942260  1
  V  V43  1  0.85085508  0.32061680  0.49512516  1
  V  V44  1  0.85084957  0.50486856  0.82546516  1
  V  V45  1  0.35090755  0.82543186  0.32057740  1
  V  V46  1  0.35085508  0.67938320  0.50487484  1
  V  V47  1  0.35084957  0.49513144  0.17453484  1
  Zn  Zn48  1  0.78147430  0.98714319  0.15545403  1
  Zn  Zn49  1  0.78148845  0.84453662  0.83168930  1
  Zn  Zn50  1  0.78147549  0.16831142  0.01284284  1
  Zn  Zn51  1  0.28147430  0.01285681  0.84454597  1
  Zn  Zn52  1  0.28148845  0.15546338  0.16831070  1
  Zn  Zn53  1  0.28147549  0.83168858  0.98715716  1
  Zn  Zn54  1  0.36534105  0.33520172  0.99963074  1
  Zn  Zn55  1  0.36537407  0.00034492  0.33556596  1
  Zn  Zn56  1  0.36537481  0.66443130  0.66480532  1
  Zn  Zn57  1  0.86534105  0.66479828  0.00036926  1
  Zn  Zn58  1  0.86537407  0.99965508  0.66443404  1
  Zn  Zn59  1  0.86537481  0.33556870  0.33519468  1
  Zn  Zn60  1  0.75995333  0.82695447  0.31865740  1
  Zn  Zn61  1  0.75992570  0.68135059  0.50831740  1
  Zn  Zn62  1  0.75990742  0.49168408  0.17303877  1
  Zn  Zn63  1  0.25995333  0.17304553  0.68134260  1
  Zn  Zn64  1  0.25992570  0.31864941  0.49168260  1
  Zn  Zn65  1  0.25990742  0.50831592  0.82696123  1
  Zn  Zn66  1  0.76294947  0.16308170  0.50523651  1
  Zn  Zn67  1  0.76292271  0.49477153  0.65784005  1
  Zn  Zn68  1  0.76289538  0.34218193  0.83694608  1
  Zn  Zn69  1  0.26294947  0.83691830  0.49476349  1
  Zn  Zn70  1  0.26292271  0.50522847  0.34215995  1
  Zn  Zn71  1  0.26289538  0.65781807  0.16305392  1
  O  O72  1  0.27427335  0.95127506  0.06607679  1
  O  O73  1  0.27429790  0.93392758  0.88520502  1
  O  O74  1  0.27429932  0.11479559  0.04872769  1
  O  O75  1  0.77427335  0.04872494  0.93392321  1
  O  O76  1  0.77429790  0.06607242  0.11479498  1
  O  O77  1  0.77429932  0.88520441  0.95127231  1
  O  O78  1  0.06359321  0.14009321  0.20112502  1
  O  O79  1  0.06358950  0.79885698  0.93895564  1
  O  O80  1  0.06357211  0.06104114  0.85990897  1
  O  O81  1  0.56359321  0.85990679  0.79887498  1
  O  O82  1  0.56358950  0.20114302  0.06104436  1
  O  O83  1  0.56357211  0.93895886  0.14009103  1
  O  O84  1  0.87231723  0.90088178  0.28887455  1
  O  O85  1  0.87232186  0.71113147  0.61200937  1
  O  O86  1  0.87230040  0.38798865  0.09912637  1
  O  O87  1  0.37231723  0.09911822  0.71112545  1
  O  O88  1  0.37232186  0.28886853  0.38799063  1
  O  O89  1  0.37230040  0.61201135  0.90087363  1
  O  O90  1  0.88953431  0.06487292  0.43022440  1
  O  O91  1  0.88954281  0.56977627  0.63464562  1
  O  O92  1  0.88950866  0.36536961  0.93514312  1
  O  O93  1  0.38953431  0.93512708  0.56977560  1
  O  O94  1  0.38954281  0.43022373  0.36535438  1
  O  O95  1  0.38950866  0.63463039  0.06485688  1
  O  O96  1  0.40354848  0.09248063  0.20957935  1
  O  O97  1  0.40356666  0.79042141  0.88291346  1
  O  O98  1  0.40355317  0.11710492  0.90752372  1
  O  O99  1  0.90354848  0.90751937  0.79042065  1
  O  O100  1  0.90356666  0.20957859  0.11708654  1
  O  O101  1  0.90355317  0.88289508  0.09247628  1
  O  O102  1  0.30513948  0.61690359  0.54816616  1
  O  O103  1  0.30512477  0.45184095  0.06875425  1
  O  O104  1  0.30519422  0.93121275  0.38307086  1
  O  O105  1  0.80513948  0.38309641  0.45183384  1
  O  O106  1  0.80512477  0.54815905  0.93124575  1
  O  O107  1  0.80519422  0.06878725  0.61692914  1
  O  O108  1  0.34344385  0.26889306  0.55618645  1
  O  O109  1  0.34338554  0.44379471  0.71269257  1
  O  O110  1  0.34341142  0.28731971  0.73110408  1
  O  O111  1  0.84344385  0.73110694  0.44381355  1
  O  O112  1  0.84338554  0.55620529  0.28730743  1
  O  O113  1  0.84341142  0.71268029  0.26889592  1
  O  O114  1  0.84795572  0.22267522  0.61949495  1
  O  O115  1  0.84793820  0.38051396  0.60313990  1
  O  O116  1  0.84787384  0.39684424  0.77734328  1
  O  O117  1  0.34795572  0.77732478  0.38050505  1
  O  O118  1  0.34793820  0.61948604  0.39686010  1
  O  O119  1  0.34787384  0.60315576  0.22265672  1
  O  O120  1  0.26783474  0.96021533  0.22613977  1
  O  O121  1  0.26784994  0.77386551  0.73409052  1
  O  O122  1  0.26783167  0.26591850  0.03978853  1
  O  O123  1  0.76783474  0.03978467  0.77386023  1
  O  O124  1  0.76784994  0.22613449  0.26590948  1
  O  O125  1  0.76783167  0.73408150  0.96021147  1
  O  O126  1  0.71481137  0.22314281  0.76191963  1
  O  O127  1  0.71478021  0.23807912  0.46119654  1
  O  O128  1  0.71477424  0.53880034  0.77687426  1
  O  O129  1  0.21481137  0.77685719  0.23808037  1
  O  O130  1  0.21478021  0.76192088  0.53880346  1
  O  O131  1  0.21477424  0.46119966  0.22312574  1
  O  O132  1  0.79865455  0.71007942  0.11613199  1
  O  O133  1  0.79867759  0.88388557  0.59398829  1
  O  O134  1  0.79867675  0.40603322  0.28989803  1
  O  O135  1  0.29865455  0.28992058  0.88386801  1
  O  O136  1  0.29867759  0.11611443  0.40601171  1
  O  O137  1  0.29867675  0.59396678  0.71010197  1
  O  O138  1  0.36422605  0.77567724  0.04452107  1
  O  O139  1  0.36425856  0.95549070  0.73117274  1
  O  O140  1  0.36425557  0.26883571  0.22431953  1
  O  O141  1  0.86422605  0.22432276  0.95547893  1
  O  O142  1  0.86425856  0.04450930  0.26882726  1
  O  O143  1  0.86425557  0.73116429  0.77568047  1
  O  O144  1  0.03844013  0.27355573  0.46066308  1
  O  O145  1  0.03841688  0.53931198  0.81285649  1
  O  O146  1  0.03847815  0.18717117  0.72647575  1
  O  O147  1  0.53844013  0.72644427  0.53933692  1
  O  O148  1  0.53841688  0.46068802  0.18714351  1
  O  O149  1  0.53847815  0.81282883  0.27352425  1
  O  O150  1  0.59944540  0.00652783  0.33712759  1
  O  O151  1  0.59947481  0.66285445  0.66939531  1
  O  O152  1  0.59946068  0.33061722  0.99347665  1
  O  O153  1  0.09944540  0.99347217  0.66287241  1
  O  O154  1  0.09947481  0.33714555  0.33060469  1
  O  O155  1  0.09946068  0.66938278  0.00652335  1
  O  O156  1  0.22386275  0.43865443  0.56467690  1
  O  O157  1  0.22384579  0.43533575  0.87398567  1
  O  O158  1  0.22393352  0.12602524  0.56132682  1
  O  O159  1  0.72386275  0.56134557  0.43532310  1
  O  O160  1  0.72384579  0.56466425  0.12601433  1
  O  O161  1  0.72393352  0.87397476  0.43867318  1
  O  O162  1  0.04480106  0.87027206  0.47880329  1
  O  O163  1  0.04474705  0.52122615  0.39147806  1
  O  O164  1  0.04473839  0.60850185  0.12972229  1
  O  O165  1  0.54480106  0.12972794  0.52119671  1
  O  O166  1  0.54474705  0.47877385  0.60852194  1
  O  O167  1  0.54473839  0.39149815  0.87027771  1
