# generated using pymatgen
data_K2CdAu
_symmetry_space_group_name_H-M   'P 1'
_cell_length_a   13.25685644
_cell_length_b   13.25685644
_cell_length_c   13.25685644
_cell_angle_alpha   120.57916542
_cell_angle_beta   118.11191136
_cell_angle_gamma   91.15036757
_symmetry_Int_Tables_number   1
_chemical_formula_structural   K2CdAu
_chemical_formula_sum   'K2 Cd1 Au1'
_cell_volume   1662.42201340
_cell_formula_units_Z   1
loop_
 _symmetry_equiv_pos_site_id
 _symmetry_equiv_pos_as_xyz
  1  'x, y, z'
loop_
 _atom_site_type_symbol
 _atom_site_label
 _atom_site_symmetry_multiplicity
 _atom_site_fract_x
 _atom_site_fract_y
 _atom_site_fract_z
 _atom_site_occupancy
  K  K0  1  0.72652600  0.00000000  0.72652600  1
  K  K1  1  0.27347400  0.00000000  0.27347400  1
  Cd  Cd2  1  0.00000000  0.00000000  0.00000000  1
  Au  Au3  1  0.50000000  0.00000000  0.50000000  1
