# generated using pymatgen
data_Sc2AgPb
_symmetry_space_group_name_H-M   'P 1'
_cell_length_a   12.47921120
_cell_length_b   12.47921120
_cell_length_c   12.47921120
_cell_angle_alpha   127.19534881
_cell_angle_beta   117.17315908
_cell_angle_gamma   86.49040616
_symmetry_Int_Tables_number   1
_chemical_formula_structural   Sc2AgPb
_chemical_formula_sum   'Sc2 Ag1 Pb1'
_cell_volume   1312.38094393
_cell_formula_units_Z   1
loop_
 _symmetry_equiv_pos_site_id
 _symmetry_equiv_pos_as_xyz
  1  'x, y, z'
loop_
 _atom_site_type_symbol
 _atom_site_label
 _atom_site_symmetry_multiplicity
 _atom_site_fract_x
 _atom_site_fract_y
 _atom_site_fract_z
 _atom_site_occupancy
  Sc  Sc0  1  0.00000000  0.25500100  0.25500100  1
  Sc  Sc1  1  0.00000000  0.74499900  0.74499900  1
  Ag  Ag2  1  0.00000000  0.00000000  0.00000000  1
  Pb  Pb3  1  0.00000000  0.50000000  0.50000000  1
