# generated using pymatgen
data_Na2SrCa
_symmetry_space_group_name_H-M   'P 1'
_cell_length_a   14.57613815
_cell_length_b   14.57613815
_cell_length_c   14.57613815
_cell_angle_alpha   120.39570672
_cell_angle_beta   119.09765160
_cell_angle_gamma   90.44297531
_symmetry_Int_Tables_number   1
_chemical_formula_structural   Na2SrCa
_chemical_formula_sum   'Na2 Sr1 Ca1'
_cell_volume   2197.80460605
_cell_formula_units_Z   1
loop_
 _symmetry_equiv_pos_site_id
 _symmetry_equiv_pos_as_xyz
  1  'x, y, z'
loop_
 _atom_site_type_symbol
 _atom_site_label
 _atom_site_symmetry_multiplicity
 _atom_site_fract_x
 _atom_site_fract_y
 _atom_site_fract_z
 _atom_site_occupancy
  Na  Na0  1  0.75422800  0.00000000  0.75422800  1
  Na  Na1  1  0.24577200  0.00000000  0.24577200  1
  Sr  Sr2  1  0.50000000  0.00000000  0.50000000  1
  Ca  Ca3  1  0.00000000  0.00000000  0.00000000  1
