# generated using pymatgen
data_Zn2CoCu
_symmetry_space_group_name_H-M   'P 1'
_cell_length_a   10.00391129
_cell_length_b   10.00391129
_cell_length_c   10.00391129
_cell_angle_alpha   122.13535560
_cell_angle_beta   119.31036873
_cell_angle_gamma   88.77025370
_symmetry_Int_Tables_number   1
_chemical_formula_structural   Zn2CoCu
_chemical_formula_sum   'Zn2 Co1 Cu1'
_cell_volume   699.48066819
_cell_formula_units_Z   1
loop_
 _symmetry_equiv_pos_site_id
 _symmetry_equiv_pos_as_xyz
  1  'x, y, z'
loop_
 _atom_site_type_symbol
 _atom_site_label
 _atom_site_symmetry_multiplicity
 _atom_site_fract_x
 _atom_site_fract_y
 _atom_site_fract_z
 _atom_site_occupancy
  Zn  Zn0  1  0.00000000  0.25226400  0.25226400  1
  Zn  Zn1  1  0.00000000  0.74773600  0.74773600  1
  Co  Co2  1  0.00000000  0.00000000  0.00000000  1
  Cu  Cu3  1  0.00000000  0.50000000  0.50000000  1
