# generated using pymatgen
data_Be2ZnPt
_symmetry_space_group_name_H-M   'P 1'
_cell_length_a   9.34731638
_cell_length_b   9.34731638
_cell_length_c   9.34731638
_cell_angle_alpha   125.10278117
_cell_angle_beta   117.91420857
_cell_angle_gamma   87.52440010
_symmetry_Int_Tables_number   1
_chemical_formula_structural   Be2ZnPt
_chemical_formula_sum   'Be2 Zn1 Pt1'
_cell_volume   560.82174703
_cell_formula_units_Z   1
loop_
 _symmetry_equiv_pos_site_id
 _symmetry_equiv_pos_as_xyz
  1  'x, y, z'
loop_
 _atom_site_type_symbol
 _atom_site_label
 _atom_site_symmetry_multiplicity
 _atom_site_fract_x
 _atom_site_fract_y
 _atom_site_fract_z
 _atom_site_occupancy
  Be  Be0  1  0.00000000  0.26195800  0.26195800  1
  Be  Be1  1  0.00000000  0.73804200  0.73804200  1
  Zn  Zn2  1  0.00000000  0.00000000  0.00000000  1
  Pt  Pt3  1  0.00000000  0.50000000  0.50000000  1
