# generated using pymatgen
data_Rb2AuBr
_symmetry_space_group_name_H-M   'P 1'
_cell_length_a   12.78599908
_cell_length_b   12.78599908
_cell_length_c   12.78599908
_cell_angle_alpha   120.01534181
_cell_angle_beta   119.94658856
_cell_angle_gamma   90.03298273
_symmetry_Int_Tables_number   1
_chemical_formula_structural   Rb2AuBr
_chemical_formula_sum   'Rb2 Au1 Br1'
_cell_volume   1478.47392204
_cell_formula_units_Z   1
loop_
 _symmetry_equiv_pos_site_id
 _symmetry_equiv_pos_as_xyz
  1  'x, y, z'
loop_
 _atom_site_type_symbol
 _atom_site_label
 _atom_site_symmetry_multiplicity
 _atom_site_fract_x
 _atom_site_fract_y
 _atom_site_fract_z
 _atom_site_occupancy
  Rb  Rb0  1  0.75143400  0.00000000  0.75143400  1
  Rb  Rb1  1  0.24856600  0.00000000  0.24856600  1
  Au  Au2  1  0.50000000  0.00000000  0.50000000  1
  Br  Br3  1  0.00000000  0.00000000  0.00000000  1
