# generated using pymatgen
data_Sc2CdOs
_symmetry_space_group_name_H-M   'P 1'
_cell_length_a   11.58220203
_cell_length_b   11.58220203
_cell_length_c   11.58220203
_cell_angle_alpha   124.38531729
_cell_angle_beta   117.59932312
_cell_angle_gamma   88.39315238
_symmetry_Int_Tables_number   1
_chemical_formula_structural   Sc2CdOs
_chemical_formula_sum   'Sc2 Cd1 Os1'
_cell_volume   1076.79222243
_cell_formula_units_Z   1
loop_
 _symmetry_equiv_pos_site_id
 _symmetry_equiv_pos_as_xyz
  1  'x, y, z'
loop_
 _atom_site_type_symbol
 _atom_site_label
 _atom_site_symmetry_multiplicity
 _atom_site_fract_x
 _atom_site_fract_y
 _atom_site_fract_z
 _atom_site_occupancy
  Sc  Sc0  1  0.00000000  0.29267700  0.29267700  1
  Sc  Sc1  1  0.00000000  0.70732300  0.70732300  1
  Cd  Cd2  1  0.00000000  0.00000000  0.00000000  1
  Os  Os3  1  0.00000000  0.50000000  0.50000000  1
