# generated using pymatgen
data_RbCu3S2
_symmetry_space_group_name_H-M   'P 1'
_cell_length_a   7.58407645
_cell_length_b   7.58407645
_cell_length_c   8.53182241
_cell_angle_alpha   68.62100746
_cell_angle_beta   68.62100746
_cell_angle_gamma   29.94556093
_symmetry_Int_Tables_number   1
_chemical_formula_structural   RbCu3S2
_chemical_formula_sum   'Rb2 Cu6 S4'
_cell_volume   226.85401878
_cell_formula_units_Z   2
loop_
 _symmetry_equiv_pos_site_id
 _symmetry_equiv_pos_as_xyz
  1  'x, y, z'
loop_
 _atom_site_type_symbol
 _atom_site_label
 _atom_site_symmetry_multiplicity
 _atom_site_fract_x
 _atom_site_fract_y
 _atom_site_fract_z
 _atom_site_occupancy
  Rb  Rb0  1  0.86410400  0.86410400  0.04322400  1
  Rb  Rb1  1  0.13589600  0.13589600  0.95677600  1
  Cu  Cu2  1  0.40781800  0.40781800  0.63416900  1
  Cu  Cu3  1  0.30981500  0.30981500  0.42097500  1
  Cu  Cu4  1  0.06430500  0.06430500  0.58940900  1
  Cu  Cu5  1  0.93569500  0.93569500  0.41059100  1
  Cu  Cu6  1  0.69018500  0.69018500  0.57902500  1
  Cu  Cu7  1  0.59218200  0.59218200  0.36583100  1
  S  S8  1  0.81037300  0.81037300  0.68040500  1
  S  S9  1  0.18962700  0.18962700  0.31959500  1
  S  S10  1  0.52476400  0.52476400  0.75222300  1
  S  S11  1  0.47523600  0.47523600  0.24777700  1
