# generated using pymatgen
data_La6Sm2Cr3(FeO4)5
_symmetry_space_group_name_H-M   'P 1'
_cell_length_a   11.20551152
_cell_length_b   11.60107982
_cell_length_c   17.92094955
_cell_angle_alpha   109.03391595
_cell_angle_beta   108.27200957
_cell_angle_gamma   89.99083724
_symmetry_Int_Tables_number   1
_chemical_formula_structural   La6Sm2Cr3(FeO4)5
_chemical_formula_sum   'La24 Sm8 Cr12 Fe20 O80'
_cell_volume   2077.67007096
_cell_formula_units_Z   4
loop_
 _symmetry_equiv_pos_site_id
 _symmetry_equiv_pos_as_xyz
  1  'x, y, z'
loop_
 _atom_site_type_symbol
 _atom_site_label
 _atom_site_symmetry_multiplicity
 _atom_site_fract_x
 _atom_site_fract_y
 _atom_site_fract_z
 _atom_site_occupancy
  La  La0  1  0.29820822  0.06150702  0.61164823  1
  La  La1  1  0.30202929  0.56403739  0.61452229  1
  La  La2  1  0.80317788  0.06566668  0.61326211  1
  La  La3  1  0.80179467  0.56330629  0.61741042  1
  La  La4  1  0.18499347  0.43483001  0.38546721  1
  La  La5  1  0.18188630  0.43885429  0.88671377  1
  La  La6  1  0.18430629  0.93722943  0.38408981  1
  La  La7  1  0.68614542  0.43605401  0.38616536  1
  La  La8  1  0.69341480  0.93501124  0.38845617  1
  La  La9  1  0.68659679  0.93805948  0.88627434  1
  La  La10  1  0.05253360  0.29918675  0.11334982  1
  La  La11  1  0.05233476  0.29912231  0.60985822  1
  La  La12  1  0.05115051  0.80305582  0.61691281  1
  La  La13  1  0.54817451  0.30068136  0.11388687  1
  La  La14  1  0.55425284  0.29970289  0.61254800  1
  La  La15  1  0.54841647  0.80170176  0.11569077  1
  La  La16  1  0.55159222  0.80263753  0.61514684  1
  La  La17  1  0.44083345  0.19756633  0.38496728  1
  La  La18  1  0.43528202  0.20012365  0.88696840  1
  La  La19  1  0.43312862  0.69636882  0.38091979  1
  La  La20  1  0.43274887  0.69628066  0.88423827  1
  La  La21  1  0.93837351  0.19884251  0.38538145  1
  La  La22  1  0.93911013  0.19975397  0.88706609  1
  La  La23  1  0.93329043  0.69666190  0.38419303  1
  Sm  Sm24  1  0.29393382  0.06285015  0.11204808  1
  Sm  Sm25  1  0.29663664  0.56292132  0.11276769  1
  Sm  Sm26  1  0.79763839  0.06435383  0.11544329  1
  Sm  Sm27  1  0.80014314  0.56449012  0.11366244  1
  Sm  Sm28  1  0.18518886  0.93644075  0.88769482  1
  Sm  Sm29  1  0.68497740  0.43587662  0.88795440  1
  Sm  Sm30  1  0.04911908  0.80004709  0.11429009  1
  Sm  Sm31  1  0.93608904  0.69977369  0.88639599  1
  Cr  Cr32  1  0.99629946  0.99905514  0.00265431  1
  Cr  Cr33  1  0.99409180  0.50288301  0.99996238  1
  Cr  Cr34  1  0.99858573  0.50266453  0.50050157  1
  Cr  Cr35  1  0.49631084  0.99944177  0.00117616  1
  Cr  Cr36  1  0.49839720  0.99746696  0.49840860  1
  Cr  Cr37  1  0.49724886  0.50281518  0.00123471  1
  Cr  Cr38  1  0.49821018  0.50200919  0.49935683  1
  Cr  Cr39  1  0.24520645  0.75260615  0.00206903  1
  Cr  Cr40  1  0.24820410  0.74863855  0.49914639  1
  Cr  Cr41  1  0.74790267  0.25225098  0.00208159  1
  Cr  Cr42  1  0.74711698  0.75109000  0.00101331  1
  Cr  Cr43  1  0.74760489  0.74935791  0.50041032  1
  Fe  Fe44  1  0.00210785  0.99798209  0.49973947  1
  Fe  Fe45  1  0.25045624  0.24937456  0.99982908  1
  Fe  Fe46  1  0.25320612  0.25012294  0.49880159  1
  Fe  Fe47  1  0.75202163  0.25129731  0.49986768  1
  Fe  Fe48  1  0.11108776  0.10484523  0.24931303  1
  Fe  Fe49  1  0.11255472  0.10718366  0.75223321  1
  Fe  Fe50  1  0.11062210  0.60623031  0.24632202  1
  Fe  Fe51  1  0.11265165  0.60678098  0.75171678  1
  Fe  Fe52  1  0.61215823  0.10357681  0.25062118  1
  Fe  Fe53  1  0.61408871  0.11055190  0.75192837  1
  Fe  Fe54  1  0.61159053  0.60406596  0.24626712  1
  Fe  Fe55  1  0.61661658  0.60606404  0.75349606  1
  Fe  Fe56  1  0.35943725  0.38947201  0.24495420  1
  Fe  Fe57  1  0.36354557  0.39166868  0.74862771  1
  Fe  Fe58  1  0.36003660  0.89158936  0.24732063  1
  Fe  Fe59  1  0.36283636  0.89554138  0.75215790  1
  Fe  Fe60  1  0.86091510  0.39146560  0.24625892  1
  Fe  Fe61  1  0.85812714  0.39394578  0.75061064  1
  Fe  Fe62  1  0.86181017  0.89140232  0.24817661  1
  Fe  Fe63  1  0.86616673  0.89386037  0.75297380  1
  O  O64  1  0.11234174  0.11804607  0.47788925  1
  O  O65  1  0.11210371  0.11089697  0.97841601  1
  O  O66  1  0.10900578  0.61553464  0.47385433  1
  O  O67  1  0.10224560  0.62053430  0.97337934  1
  O  O68  1  0.61070181  0.11565107  0.47715825  1
  O  O69  1  0.60792660  0.11959110  0.97902592  1
  O  O70  1  0.60729677  0.61690490  0.47361129  1
  O  O71  1  0.60813910  0.61481034  0.97298182  1
  O  O72  1  0.13086960  0.38607827  0.02081781  1
  O  O73  1  0.13307639  0.38574860  0.52074028  1
  O  O74  1  0.13256523  0.88514098  0.03142698  1
  O  O75  1  0.13510709  0.88103301  0.52432299  1
  O  O76  1  0.63249877  0.38563201  0.02473200  1
  O  O77  1  0.63296220  0.38566145  0.52030880  1
  O  O78  1  0.63496042  0.88670619  0.02917659  1
  O  O79  1  0.63701823  0.88584298  0.52538452  1
  O  O80  1  0.36072812  0.10532611  0.47482912  1
  O  O81  1  0.35568351  0.10290158  0.97248728  1
  O  O82  1  0.35877954  0.60912487  0.47391493  1
  O  O83  1  0.35702762  0.61121136  0.97763144  1
  O  O84  1  0.86540668  0.11322420  0.48108964  1
  O  O85  1  0.85935664  0.10984715  0.97682668  1
  O  O86  1  0.85934931  0.60997393  0.47524633  1
  O  O87  1  0.85333889  0.60743417  0.97044247  1
  O  O88  1  0.38196921  0.39702486  0.02634897  1
  O  O89  1  0.38543170  0.39116638  0.52199246  1
  O  O90  1  0.37882330  0.89647342  0.02770895  1
  O  O91  1  0.38373146  0.88948789  0.52335479  1
  O  O92  1  0.88051256  0.39768830  0.02765249  1
  O  O93  1  0.88599033  0.39466682  0.52500320  1
  O  O94  1  0.88397861  0.89570075  0.03249883  1
  O  O95  1  0.88311078  0.88507887  0.52080351  1
  O  O96  1  0.11642059  0.12555272  0.14746375  1
  O  O97  1  0.09023519  0.11373577  0.64029573  1
  O  O98  1  0.11523588  0.62595006  0.14321868  1
  O  O99  1  0.11036524  0.62411729  0.64654116  1
  O  O100  1  0.61526765  0.12708706  0.14845054  1
  O  O101  1  0.60451042  0.12345787  0.64461874  1
  O  O102  1  0.61934627  0.62498115  0.14457127  1
  O  O103  1  0.60813411  0.62276539  0.64651186  1
  O  O104  1  0.45893147  0.37483908  0.35147760  1
  O  O105  1  0.46773870  0.37663524  0.85417317  1
  O  O106  1  0.46155242  0.87709080  0.35364843  1
  O  O107  1  0.46780887  0.87525321  0.85630101  1
  O  O108  1  0.95727543  0.37686205  0.35376911  1
  O  O109  1  0.96301090  0.37575117  0.85430733  1
  O  O110  1  0.95283881  0.88529559  0.36125606  1
  O  O111  1  0.97117269  0.87430437  0.85698166  1
  O  O112  1  0.34488811  0.26800868  0.13531528  1
  O  O113  1  0.33853998  0.27286880  0.63615683  1
  O  O114  1  0.36130549  0.76455682  0.14461442  1
  O  O115  1  0.35831355  0.77489361  0.64560860  1
  O  O116  1  0.86243212  0.26582154  0.14366971  1
  O  O117  1  0.83635710  0.27991257  0.63773949  1
  O  O118  1  0.86987064  0.76629036  0.14646343  1
  O  O119  1  0.85895852  0.77160664  0.64591593  1
  O  O120  1  0.20443752  0.22219087  0.36101946  1
  O  O121  1  0.20894937  0.22814915  0.86201306  1
  O  O122  1  0.20903352  0.72836967  0.35377610  1
  O  O123  1  0.21488524  0.73228901  0.85711742  1
  O  O124  1  0.70649671  0.22332659  0.36202711  1
  O  O125  1  0.71536671  0.23146463  0.85860090  1
  O  O126  1  0.70924406  0.72334891  0.35437179  1
  O  O127  1  0.72444502  0.73160814  0.85556180  1
  O  O128  1  0.41955473  0.06502070  0.24387130  1
  O  O129  1  0.42312407  0.06860072  0.74976963  1
  O  O130  1  0.42164588  0.56108748  0.24198116  1
  O  O131  1  0.42796041  0.56425828  0.74930088  1
  O  O132  1  0.92051212  0.06456300  0.24592663  1
  O  O133  1  0.92514135  0.06720997  0.75000995  1
  O  O134  1  0.92154176  0.56417723  0.24372477  1
  O  O135  1  0.92829202  0.56908124  0.75665752  1
  O  O136  1  0.17592349  0.43456172  0.25001742  1
  O  O137  1  0.17480140  0.43140503  0.74824377  1
  O  O138  1  0.17039987  0.92918294  0.24550852  1
  O  O139  1  0.17850754  0.93753485  0.75755586  1
  O  O140  1  0.67499243  0.43230751  0.24941265  1
  O  O141  1  0.67190561  0.43119184  0.75508916  1
  O  O142  1  0.67894764  0.93396172  0.25258228  1
  O  O143  1  0.67862643  0.93703108  0.75110843  1
