# generated using pymatgen
data_CaSnS3
_symmetry_space_group_name_H-M   'P 1'
_cell_length_a   13.84484946
_cell_length_b   13.84484946
_cell_length_c   13.84484946
_cell_angle_alpha   109.16578360
_cell_angle_beta   109.16578360
_cell_angle_gamma   110.08383706
_symmetry_Int_Tables_number   1
_chemical_formula_structural   CaSnS3
_chemical_formula_sum   'Ca16 Sn16 S48'
_cell_volume   2042.70446154
_cell_formula_units_Z   16
loop_
 _symmetry_equiv_pos_site_id
 _symmetry_equiv_pos_as_xyz
  1  'x, y, z'
loop_
 _atom_site_type_symbol
 _atom_site_label
 _atom_site_symmetry_multiplicity
 _atom_site_fract_x
 _atom_site_fract_y
 _atom_site_fract_z
 _atom_site_occupancy
  Ca  Ca0  1  0.87490500  0.99387800  0.63230300  1
  Ca  Ca1  1  0.36157500  0.24260200  0.36769700  1
  Ca  Ca2  1  0.24387800  0.11157500  0.61897300  1
  Ca  Ca3  1  0.49260200  0.62490500  0.38102700  1
  Ca  Ca4  1  0.37509500  0.75612200  0.86769700  1
  Ca  Ca5  1  0.88842500  0.50739800  0.13230300  1
  Ca  Ca6  1  0.00612200  0.63842500  0.88102700  1
  Ca  Ca7  1  0.75739800  0.12509500  0.11897300  1
  Ca  Ca8  1  0.75568800  0.75568800  0.00000000  1
  Ca  Ca9  1  0.00568800  0.50568800  0.50000000  1
  Ca  Ca10  1  0.49431200  0.99431200  0.50000000  1
  Ca  Ca11  1  0.24431200  0.24431200  0.00000000  1
  Ca  Ca12  1  0.62500000  0.87500000  0.75000000  1
  Ca  Ca13  1  0.12500000  0.87500000  0.25000000  1
  Ca  Ca14  1  0.12500000  0.87500000  0.75000000  1
  Ca  Ca15  1  0.12500000  0.37500000  0.25000000  1
  Sn  Sn16  1  0.12500000  0.37500000  0.75000000  1
  Sn  Sn17  1  0.62500000  0.37500000  0.25000000  1
  Sn  Sn18  1  0.62500000  0.37500000  0.75000000  1
  Sn  Sn19  1  0.62500000  0.87500000  0.25000000  1
  Sn  Sn20  1  0.00000000  0.00000000  0.00000000  1
  Sn  Sn21  1  0.25000000  0.75000000  0.50000000  1
  Sn  Sn22  1  0.50000000  0.50000000  0.00000000  1
  Sn  Sn23  1  0.75000000  0.25000000  0.50000000  1
  Sn  Sn24  1  0.38368700  0.49701400  0.63263100  1
  Sn  Sn25  1  0.86438400  0.75105600  0.36736900  1
  Sn  Sn26  1  0.74701400  0.61438400  0.61332700  1
  Sn  Sn27  1  0.00105600  0.13368700  0.38667300  1
  Sn  Sn28  1  0.86631300  0.25298600  0.86736900  1
  Sn  Sn29  1  0.38561600  0.99894400  0.13263100  1
  Sn  Sn30  1  0.50298600  0.13561600  0.88667300  1
  Sn  Sn31  1  0.24894400  0.61631300  0.11332700  1
  S  S32  1  0.53109900  0.69133600  0.79520600  1
  S  S33  1  0.89613000  0.73589300  0.20479400  1
  S  S34  1  0.94133600  0.64613000  0.66023700  1
  S  S35  1  0.98589300  0.28109900  0.33976300  1
  S  S36  1  0.71890100  0.05866400  0.70479400  1
  S  S37  1  0.35387000  0.01410700  0.29520600  1
  S  S38  1  0.30866400  0.10387000  0.83976300  1
  S  S39  1  0.26410700  0.46890100  0.16023700  1
  S  S40  1  0.21222300  0.48812600  0.65633200  1
  S  S41  1  0.83179400  0.55589100  0.34366800  1
  S  S42  1  0.73812600  0.58179400  0.77590300  1
  S  S43  1  0.80589100  0.96222300  0.22409700  1
  S  S44  1  0.03777700  0.26187400  0.84366800  1
  S  S45  1  0.41820600  0.19410900  0.15633200  1
  S  S46  1  0.51187400  0.16820600  0.72409700  1
  S  S47  1  0.44410900  0.78777700  0.27590300  1
  S  S48  1  0.41381700  0.33018000  0.62617800  1
  S  S49  1  0.70400200  0.78763900  0.37382200  1
  S  S50  1  0.58018000  0.45400200  0.41636300  1
  S  S51  1  0.03763900  0.16381700  0.58363700  1
  S  S52  1  0.83618300  0.41982000  0.87382200  1
  S  S53  1  0.54599800  0.96236100  0.12617800  1
  S  S54  1  0.66982000  0.29599800  0.08363700  1
  S  S55  1  0.21236100  0.58618300  0.91636300  1
  S  S56  1  0.34780100  0.46136600  0.44021500  1
  S  S57  1  0.02115100  0.90758600  0.55978500  1
  S  S58  1  0.71136600  0.77115100  0.61356500  1
  S  S59  1  0.15758600  0.09780100  0.38643500  1
  S  S60  1  0.90219900  0.28863400  0.05978500  1
  S  S61  1  0.22884900  0.84241400  0.94021500  1
  S  S62  1  0.53863400  0.97884900  0.88643500  1
  S  S63  1  0.09241400  0.65219900  0.11356500  1
  S  S64  1  0.80910600  0.96723200  0.97617800  1
  S  S65  1  0.99105400  0.83292800  0.02382200  1
  S  S66  1  0.21723200  0.74105400  0.65812600  1
  S  S67  1  0.08292800  0.55910600  0.34187400  1
  S  S68  1  0.44089400  0.78276800  0.52382200  1
  S  S69  1  0.25894600  0.91707200  0.47617800  1
  S  S70  1  0.03276800  0.00894600  0.84187400  1
  S  S71  1  0.16707200  0.19089400  0.15812600  1
  S  S72  1  0.54312300  0.70061300  0.04286600  1
  S  S73  1  0.65774700  0.50025600  0.95713400  1
  S  S74  1  0.95061300  0.40774700  0.65749000  1
  S  S75  1  0.75025600  0.29312300  0.34251000  1
  S  S76  1  0.70687700  0.04938700  0.45713400  1
  S  S77  1  0.59225300  0.24974400  0.54286600  1
  S  S78  1  0.29938700  0.34225300  0.84251000  1
  S  S79  1  0.49974400  0.45687700  0.15749000  1
