# generated using pymatgen
data_La5Sm3V2Cr6O24
_symmetry_space_group_name_H-M   'P 1'
_cell_length_a   7.83362847
_cell_length_b   7.83362847
_cell_length_c   7.84362800
_cell_angle_alpha   90.00000000
_cell_angle_beta   90.00000000
_cell_angle_gamma   90.18619649
_symmetry_Int_Tables_number   1
_chemical_formula_structural   La5Sm3V2Cr6O24
_chemical_formula_sum   'La5 Sm3 V2 Cr6 O24'
_cell_volume   481.32745570
_cell_formula_units_Z   1
loop_
 _symmetry_equiv_pos_site_id
 _symmetry_equiv_pos_as_xyz
  1  'x, y, z'
loop_
 _atom_site_type_symbol
 _atom_site_label
 _atom_site_symmetry_multiplicity
 _atom_site_fract_x
 _atom_site_fract_y
 _atom_site_fract_z
 _atom_site_occupancy
  La  La0  1  0.25056300  0.24945600  0.50000000  1
  La  La1  1  0.74971900  0.25028100  0.50000000  1
  La  La2  1  0.25182400  0.74817600  0.50000000  1
  La  La3  1  0.75054400  0.74943700  0.50000000  1
  La  La4  1  0.25020300  0.74979700  0.00000000  1
  Sm  Sm5  1  0.25004800  0.25132200  0.00000000  1
  Sm  Sm6  1  0.74831000  0.25169000  0.00000000  1
  Sm  Sm7  1  0.74867800  0.74995200  0.00000000  1
  V  V8  1  0.99932900  0.00067100  0.75123000  1
  V  V9  1  0.99932900  0.00067100  0.24877000  1
  Cr  Cr10  1  0.50026900  0.00038600  0.75118600  1
  Cr  Cr11  1  0.99961400  0.49973100  0.75118600  1
  Cr  Cr12  1  0.50041200  0.49958800  0.75111900  1
  Cr  Cr13  1  0.50026900  0.00038600  0.24881400  1
  Cr  Cr14  1  0.99961400  0.49973100  0.24881400  1
  Cr  Cr15  1  0.50041200  0.49958800  0.24888100  1
  O  O16  1  0.00176900  0.99823100  0.50000000  1
  O  O17  1  0.50052600  0.00013400  0.50000000  1
  O  O18  1  0.99986600  0.49947400  0.50000000  1
  O  O19  1  0.50020100  0.49979900  0.50000000  1
  O  O20  1  0.99642500  0.00357500  0.00000000  1
  O  O21  1  0.50154800  0.00192500  0.00000000  1
  O  O22  1  0.99807500  0.49845200  0.00000000  1
  O  O23  1  0.50186500  0.49813500  0.00000000  1
  O  O24  1  0.99918400  0.25198800  0.75494500  1
  O  O25  1  0.49999500  0.25020700  0.75406400  1
  O  O26  1  0.99909800  0.74829000  0.75107900  1
  O  O27  1  0.50222600  0.74972200  0.75238400  1
  O  O28  1  0.99918400  0.25198800  0.24505500  1
  O  O29  1  0.49999500  0.25020700  0.24593600  1
  O  O30  1  0.99909800  0.74829000  0.24892100  1
  O  O31  1  0.50222600  0.74972200  0.24761600  1
  O  O32  1  0.25171000  0.00090200  0.75107900  1
  O  O33  1  0.74801200  0.00081600  0.75494500  1
  O  O34  1  0.25027800  0.49777400  0.75238400  1
  O  O35  1  0.74979300  0.50000500  0.75406400  1
  O  O36  1  0.25171000  0.00090200  0.24892100  1
  O  O37  1  0.74801200  0.00081600  0.24505500  1
  O  O38  1  0.25027800  0.49777400  0.24761600  1
  O  O39  1  0.74979300  0.50000500  0.24593600  1
