# generated using pymatgen
data_Mg6VW
_symmetry_space_group_name_H-M   'P 1'
_cell_length_a   6.15394845
_cell_length_b   6.15394845
_cell_length_c   4.91315300
_cell_angle_alpha   90.00000000
_cell_angle_beta   90.00000000
_cell_angle_gamma   123.69294718
_symmetry_Int_Tables_number   1
_chemical_formula_structural   Mg6VW
_chemical_formula_sum   'Mg6 V1 W1'
_cell_volume   154.81143016
_cell_formula_units_Z   1
loop_
 _symmetry_equiv_pos_site_id
 _symmetry_equiv_pos_as_xyz
  1  'x, y, z'
loop_
 _atom_site_type_symbol
 _atom_site_label
 _atom_site_symmetry_multiplicity
 _atom_site_fract_x
 _atom_site_fract_y
 _atom_site_fract_z
 _atom_site_occupancy
  Mg  Mg0  1  0.32743900  0.17124300  0.50000000  1
  Mg  Mg1  1  0.82875700  0.67256100  0.50000000  1
  Mg  Mg2  1  0.16987700  0.34295400  0.00000000  1
  Mg  Mg3  1  0.65704600  0.83012300  0.00000000  1
  Mg  Mg4  1  0.67956100  0.32043900  0.00000000  1
  Mg  Mg5  1  0.18090400  0.81909600  0.00000000  1
  V  V6  1  0.83027600  0.16972400  0.50000000  1
  W  W7  1  0.32614500  0.67385500  0.50000000  1
