# generated using pymatgen
data_TiNb2W
_symmetry_space_group_name_H-M   'P 1'
_cell_length_a   10.57160124
_cell_length_b   10.57160124
_cell_length_c   10.57160124
_cell_angle_alpha   128.10480273
_cell_angle_beta   117.46975804
_cell_angle_gamma   85.50441930
_symmetry_Int_Tables_number   1
_chemical_formula_structural   TiNb2W
_chemical_formula_sum   'Ti1 Nb2 W1'
_cell_volume   788.03719672
_cell_formula_units_Z   1
loop_
 _symmetry_equiv_pos_site_id
 _symmetry_equiv_pos_as_xyz
  1  'x, y, z'
loop_
 _atom_site_type_symbol
 _atom_site_label
 _atom_site_symmetry_multiplicity
 _atom_site_fract_x
 _atom_site_fract_y
 _atom_site_fract_z
 _atom_site_occupancy
  Ti  Ti0  1  0.00000000  0.00000000  0.00000000  1
  Nb  Nb1  1  0.00000000  0.25162600  0.25162600  1
  Nb  Nb2  1  0.00000000  0.74837400  0.74837400  1
  W  W3  1  0.00000000  0.50000000  0.50000000  1
