# generated using pymatgen
data_CsPb2Cl5
_symmetry_space_group_name_H-M   'P 1'
_cell_length_a   5.78328500
_cell_length_b   7.98111836
_cell_length_c   8.97613147
_cell_angle_alpha   105.59870793
_cell_angle_beta   98.53242825
_cell_angle_gamma   109.43186824
_symmetry_Int_Tables_number   1
_chemical_formula_structural   CsPb2Cl5
_chemical_formula_sum   'Cs1 Pb2 Cl5'
_cell_volume   363.19238045
_cell_formula_units_Z   1
loop_
 _symmetry_equiv_pos_site_id
 _symmetry_equiv_pos_as_xyz
  1  'x, y, z'
loop_
 _atom_site_type_symbol
 _atom_site_label
 _atom_site_symmetry_multiplicity
 _atom_site_fract_x
 _atom_site_fract_y
 _atom_site_fract_z
 _atom_site_occupancy
  Cs  Cs0  1  0.66172600  0.34421500  0.46420000  1
  Pb  Pb1  1  0.17028400  0.67364000  0.04450000  1
  Pb  Pb2  1  0.98146900  0.09741700  0.02208900  1
  Cl  Cl3  1  0.00244100  0.89541000  0.25748700  1
  Cl  Cl4  1  0.49325200  0.05943700  0.05427200  1
  Cl  Cl5  1  0.18168600  0.46682700  0.27235700  1
  Cl  Cl6  1  0.79903100  0.69969300  0.82563100  1
  Cl  Cl7  1  0.95390100  0.28962300  0.80325300  1
