# generated using pymatgen
data_La2Fe2O5
_symmetry_space_group_name_H-M   'P 1'
_cell_length_a   5.56113829
_cell_length_b   5.90680951
_cell_length_c   8.89982398
_cell_angle_alpha   70.56196905
_cell_angle_beta   71.44730111
_cell_angle_gamma   89.50138223
_symmetry_Int_Tables_number   1
_chemical_formula_structural   La2Fe2O5
_chemical_formula_sum   'La4 Fe4 O10'
_cell_volume   259.80774438
_cell_formula_units_Z   2
loop_
 _symmetry_equiv_pos_site_id
 _symmetry_equiv_pos_as_xyz
  1  'x, y, z'
loop_
 _atom_site_type_symbol
 _atom_site_label
 _atom_site_symmetry_multiplicity
 _atom_site_fract_x
 _atom_site_fract_y
 _atom_site_fract_z
 _atom_site_occupancy
  La  La0  1  0.38300400  0.90264400  0.22375100  1
  La  La1  1  0.60316500  0.09765600  0.77609000  1
  La  La2  1  0.88111300  0.37324400  0.22340700  1
  La  La3  1  0.10539300  0.62779600  0.77699200  1
  Fe  Fe4  1  0.00731500  0.00001500  0.99956100  1
  Fe  Fe5  1  0.50761200  0.49970900  0.00001700  1
  Fe  Fe6  1  0.72555500  0.70929400  0.49999100  1
  Fe  Fe7  1  0.22444600  0.29171300  0.50029500  1
  O  O8  1  0.34448500  0.63468600  0.50044500  1
  O  O9  1  0.84296600  0.36391400  0.49964500  1
  O  O10  1  0.27271900  0.28225100  0.95429400  1
  O  O11  1  0.22547000  0.72220800  0.04522700  1
  O  O12  1  0.77299000  0.26312600  0.95426900  1
  O  O13  1  0.72449300  0.73236400  0.04574600  1
  O  O14  1  0.91127800  0.95169500  0.28029100  1
  O  O15  1  0.19226500  0.04832800  0.71989400  1
  O  O16  1  0.41092500  0.26709100  0.28049700  1
  O  O17  1  0.69280500  0.73227000  0.71958800  1
