# generated using pymatgen
data_Ca5Sn3S11
_symmetry_space_group_name_H-M   'P 1'
_cell_length_a   8.74930500
_cell_length_b   8.74992684
_cell_length_c   13.91527139
_cell_angle_alpha   84.22890088
_cell_angle_beta   85.13953383
_cell_angle_gamma   76.83445011
_symmetry_Int_Tables_number   1
_chemical_formula_structural   Ca5Sn3S11
_chemical_formula_sum   'Ca10 Sn6 S22'
_cell_volume   1029.93298330
_cell_formula_units_Z   2
loop_
 _symmetry_equiv_pos_site_id
 _symmetry_equiv_pos_as_xyz
  1  'x, y, z'
loop_
 _atom_site_type_symbol
 _atom_site_label
 _atom_site_symmetry_multiplicity
 _atom_site_fract_x
 _atom_site_fract_y
 _atom_site_fract_z
 _atom_site_occupancy
  Ca  Ca0  1  0.04117000  0.01553500  0.24175800  1
  Ca  Ca1  1  0.95883000  0.98446500  0.75824200  1
  Ca  Ca2  1  0.90022900  0.54944400  0.23320700  1
  Ca  Ca3  1  0.09977100  0.45055600  0.76679300  1
  Ca  Ca4  1  0.44731700  0.07827200  0.75418700  1
  Ca  Ca5  1  0.55268300  0.92172800  0.24581300  1
  Ca  Ca6  1  0.30018900  0.70846300  0.99742400  1
  Ca  Ca7  1  0.69981100  0.29153700  0.00257600  1
  Ca  Ca8  1  0.66628900  0.32774100  0.49366700  1
  Ca  Ca9  1  0.33371100  0.67225900  0.50633300  1
  Sn  Sn10  1  0.42903000  0.45343900  0.25774100  1
  Sn  Sn11  1  0.57097000  0.54656100  0.74225900  1
  Sn  Sn12  1  0.17592200  0.18598200  0.46732400  1
  Sn  Sn13  1  0.82407800  0.81401800  0.53267600  1
  Sn  Sn14  1  0.21594200  0.21000600  0.01746300  1
  Sn  Sn15  1  0.78405800  0.78999400  0.98253700  1
  S  S16  1  0.58638900  0.59933500  0.33198400  1
  S  S17  1  0.41361100  0.40066500  0.66801600  1
  S  S18  1  0.31660000  0.96462500  0.10982000  1
  S  S19  1  0.68340000  0.03537500  0.89018000  1
  S  S20  1  0.96956400  0.29513200  0.10923600  1
  S  S21  1  0.03043600  0.70486800  0.89076400  1
  S  S22  1  0.28998000  0.95054100  0.38722400  1
  S  S23  1  0.71002000  0.04945900  0.61277600  1
  S  S24  1  0.94392500  0.28466800  0.37969100  1
  S  S25  1  0.05607500  0.71533200  0.62030900  1
  S  S26  1  0.15332600  0.13820800  0.86313300  1
  S  S27  1  0.84667400  0.86179200  0.13686700  1
  S  S28  1  0.35165900  0.37244900  0.43069100  1
  S  S29  1  0.64834100  0.62755100  0.56930900  1
  S  S30  1  0.84424300  0.83891200  0.36136600  1
  S  S31  1  0.15575700  0.16108800  0.63863400  1
  S  S32  1  0.62207800  0.61149000  0.04377800  1
  S  S33  1  0.37792200  0.38851000  0.95622200  1
  S  S34  1  0.20021900  0.61767400  0.19387400  1
  S  S35  1  0.79978100  0.38232600  0.80612600  1
  S  S36  1  0.60038800  0.22529100  0.20130400  1
  S  S37  1  0.39961200  0.77470900  0.79869600  1
