# generated using pymatgen
data_AlTc2Sb
_symmetry_space_group_name_H-M   'P 1'
_cell_length_a   10.75362852
_cell_length_b   10.75362852
_cell_length_c   10.75362852
_cell_angle_alpha   124.38735900
_cell_angle_beta   118.43348971
_cell_angle_gamma   87.65461642
_symmetry_Int_Tables_number   1
_chemical_formula_structural   AlTc2Sb
_chemical_formula_sum   'Al1 Tc2 Sb1'
_cell_volume   856.74133763
_cell_formula_units_Z   1
loop_
 _symmetry_equiv_pos_site_id
 _symmetry_equiv_pos_as_xyz
  1  'x, y, z'
loop_
 _atom_site_type_symbol
 _atom_site_label
 _atom_site_symmetry_multiplicity
 _atom_site_fract_x
 _atom_site_fract_y
 _atom_site_fract_z
 _atom_site_occupancy
  Al  Al0  1  0.00000000  0.00000000  0.00000000  1
  Tc  Tc1  1  0.00000000  0.24773000  0.24773000  1
  Tc  Tc2  1  0.00000000  0.75227000  0.75227000  1
  Sb  Sb3  1  0.00000000  0.50000000  0.50000000  1
