# generated using pymatgen
data_ScCdPt2
_symmetry_space_group_name_H-M   'P 1'
_cell_length_a   10.97305949
_cell_length_b   10.97305949
_cell_length_c   10.97305949
_cell_angle_alpha   126.33793718
_cell_angle_beta   117.99849460
_cell_angle_gamma   86.44566653
_symmetry_Int_Tables_number   1
_chemical_formula_structural   ScCdPt2
_chemical_formula_sum   'Sc1 Cd1 Pt2'
_cell_volume   895.28684783
_cell_formula_units_Z   1
loop_
 _symmetry_equiv_pos_site_id
 _symmetry_equiv_pos_as_xyz
  1  'x, y, z'
loop_
 _atom_site_type_symbol
 _atom_site_label
 _atom_site_symmetry_multiplicity
 _atom_site_fract_x
 _atom_site_fract_y
 _atom_site_fract_z
 _atom_site_occupancy
  Sc  Sc0  1  0.00000000  0.00000000  0.00000000  1
  Cd  Cd1  1  0.00000000  0.50000000  0.50000000  1
  Pt  Pt2  1  0.00000000  0.22867600  0.22867600  1
  Pt  Pt3  1  0.00000000  0.77132400  0.77132400  1
