# generated using pymatgen
data_MnNb2Mo
_symmetry_space_group_name_H-M   'P 1'
_cell_length_a   12.68047532
_cell_length_b   12.68047532
_cell_length_c   12.68047532
_cell_angle_alpha   134.30486506
_cell_angle_beta   121.96512988
_cell_angle_gamma   76.82776249
_symmetry_Int_Tables_number   1
_chemical_formula_structural   MnNb2Mo
_chemical_formula_sum   'Mn1 Nb2 Mo1'
_cell_volume   1203.60743426
_cell_formula_units_Z   1
loop_
 _symmetry_equiv_pos_site_id
 _symmetry_equiv_pos_as_xyz
  1  'x, y, z'
loop_
 _atom_site_type_symbol
 _atom_site_label
 _atom_site_symmetry_multiplicity
 _atom_site_fract_x
 _atom_site_fract_y
 _atom_site_fract_z
 _atom_site_occupancy
  Mn  Mn0  1  0.00000000  0.00000000  0.00000000  1
  Nb  Nb1  1  0.00000000  0.26319600  0.26319600  1
  Nb  Nb2  1  0.00000000  0.73680400  0.73680400  1
  Mo  Mo3  1  0.00000000  0.50000000  0.50000000  1
