# generated using pymatgen
data_Sr3CaI8
_symmetry_space_group_name_H-M   'P 1'
_cell_length_a   9.80667460
_cell_length_b   9.80667460
_cell_length_c   9.80667460
_cell_angle_alpha   131.79112826
_cell_angle_beta   131.79112826
_cell_angle_gamma   70.55911780
_symmetry_Int_Tables_number   1
_chemical_formula_structural   Sr3CaI8
_chemical_formula_sum   'Sr3 Ca1 I8'
_cell_volume   513.65580788
_cell_formula_units_Z   1
loop_
 _symmetry_equiv_pos_site_id
 _symmetry_equiv_pos_as_xyz
  1  'x, y, z'
loop_
 _atom_site_type_symbol
 _atom_site_label
 _atom_site_symmetry_multiplicity
 _atom_site_fract_x
 _atom_site_fract_y
 _atom_site_fract_z
 _atom_site_occupancy
  Sr  Sr0  1  0.75000000  0.25000000  0.50000000  1
  Sr  Sr1  1  0.50000000  0.50000000  0.00000000  1
  Sr  Sr2  1  0.25000000  0.75000000  0.50000000  1
  Ca  Ca3  1  0.00000000  0.00000000  0.00000000  1
  I  I4  1  0.63007000  0.12311800  0.00000000  1
  I  I5  1  0.12311800  0.12311800  0.49304800  1
  I  I6  1  0.87688200  0.36993000  0.00000000  1
  I  I7  1  0.36993000  0.36993000  0.49304800  1
  I  I8  1  0.12311800  0.63007000  0.00000000  1
  I  I9  1  0.63007000  0.63007000  0.50695200  1
  I  I10  1  0.36993000  0.87688200  0.00000000  1
  I  I11  1  0.87688200  0.87688200  0.50695200  1
