# generated using pymatgen
data_VCu6AgMo5O24
_symmetry_space_group_name_H-M   'P 1'
_cell_length_a   8.79692993
_cell_length_b   7.89555747
_cell_length_c   8.29976276
_cell_angle_alpha   105.71839831
_cell_angle_beta   115.56100220
_cell_angle_gamma   97.09758800
_symmetry_Int_Tables_number   1
_chemical_formula_structural   VCu6AgMo5O24
_chemical_formula_sum   'V1 Cu6 Ag1 Mo5 O24'
_cell_volume   481.03187425
_cell_formula_units_Z   1
loop_
 _symmetry_equiv_pos_site_id
 _symmetry_equiv_pos_as_xyz
  1  'x, y, z'
loop_
 _atom_site_type_symbol
 _atom_site_label
 _atom_site_symmetry_multiplicity
 _atom_site_fract_x
 _atom_site_fract_y
 _atom_site_fract_z
 _atom_site_occupancy
  V  V0  1  0.16505800  0.77799300  0.46104000  1
  Cu  Cu1  1  0.13482600  0.31137500  0.14256900  1
  Cu  Cu2  1  0.20483400  0.11441000  0.84970400  1
  Cu  Cu3  1  0.52465300  0.87982500  0.80781600  1
  Cu  Cu4  1  0.56690100  0.04063500  0.17614200  1
  Cu  Cu5  1  0.81984400  0.91327500  0.26748900  1
  Cu  Cu6  1  0.85657600  0.70885700  0.78293700  1
  Ag  Ag7  1  0.00382800  0.43062900  0.58947000  1
  Mo  Mo8  1  0.22170700  0.91485800  0.17601800  1
  Mo  Mo9  1  0.51624500  0.66392000  0.31713000  1
  Mo  Mo10  1  0.47367100  0.38567400  0.66903000  1
  Mo  Mo11  1  0.80736600  0.15988000  0.70280300  1
  Mo  Mo12  1  0.75715900  0.41213100  0.11143500  1
  O  O13  1  0.00611000  0.57271400  0.38665900  1
  O  O14  1  0.08106900  0.71178100  0.96203700  1
  O  O15  1  0.26622500  0.91881400  0.69944500  1
  O  O16  1  0.32355000  0.78547500  0.37700000  1
  O  O17  1  0.37834900  0.60711600  0.63669600  1
  O  O18  1  0.32169400  0.51584200  0.74349000  1
  O  O19  1  0.96825500  0.97946200  0.85514300  1
  O  O20  1  0.02599400  0.04255100  0.06017900  1
  O  O21  1  0.35222600  0.45523500  0.21466500  1
  O  O22  1  0.33943300  0.19503400  0.45159400  1
  O  O23  1  0.32744400  0.06746100  0.08975200  1
  O  O24  1  0.43916700  0.81977700  0.17129200  1
  O  O25  1  0.52893400  0.30064000  0.88403300  1
  O  O26  1  0.65165000  0.03415800  0.74309400  1
  O  O27  1  0.64507600  0.68146900  0.56096800  1
  O  O28  1  0.71686900  0.61695100  0.91367100  1
  O  O29  1  0.67645300  0.78472500  0.99156400  1
  O  O30  1  0.05515300  0.89584800  0.31345700  1
  O  O31  1  0.67150900  0.60527200  0.22981500  1
  O  O32  1  0.73387700  0.24535800  0.22676900  1
  O  O33  1  0.69495000  0.33717500  0.64385700  1
  O  O34  1  0.76170000  0.99151900  0.47252400  1
  O  O35  1  0.90052600  0.34558100  0.01187600  1
  O  O36  1  0.04603200  0.26196200  0.77568800  1
