# generated using pymatgen
data_TlIn5S8
_symmetry_space_group_name_H-M   'P 1'
_cell_length_a   4.11813146
_cell_length_b   9.38672179
_cell_length_c   9.68812875
_cell_angle_alpha   104.79704690
_cell_angle_beta   101.55322223
_cell_angle_gamma   90.02122718
_symmetry_Int_Tables_number   1
_chemical_formula_structural   TlIn5S8
_chemical_formula_sum   'Tl1 In5 S8'
_cell_volume   354.22093155
_cell_formula_units_Z   1
loop_
 _symmetry_equiv_pos_site_id
 _symmetry_equiv_pos_as_xyz
  1  'x, y, z'
loop_
 _atom_site_type_symbol
 _atom_site_label
 _atom_site_symmetry_multiplicity
 _atom_site_fract_x
 _atom_site_fract_y
 _atom_site_fract_z
 _atom_site_occupancy
  Tl  Tl0  1  0.53485800  0.48087500  0.06553600  1
  In  In1  1  0.99948500  0.99975100  0.99839700  1
  In  In2  1  0.28533700  0.66234500  0.57589300  1
  In  In3  1  0.37148300  0.08278600  0.70582400  1
  In  In4  1  0.63169000  0.91374900  0.28976500  1
  In  In5  1  0.72052300  0.33304000  0.43116900  1
  S  S6  1  0.06068500  0.79411400  0.13378200  1
  S  S7  1  0.16748400  0.46944800  0.32891200  1
  S  S8  1  0.24209500  0.15745200  0.47873300  1
  S  S9  1  0.41142100  0.87394500  0.82539800  1
  S  S10  1  0.58817300  0.12676700  0.17461700  1
  S  S11  1  0.74823500  0.84882300  0.52096300  1
  S  S12  1  0.82883100  0.53209500  0.66623400  1
  S  S13  1  0.93968000  0.20469900  0.86473700  1
