# generated using pymatgen
data_Te16Rh15
_symmetry_space_group_name_H-M   'P 1'
_cell_length_a   8.03572300
_cell_length_b   9.09245600
_cell_length_c   9.12413956
_cell_angle_alpha   77.62455397
_cell_angle_beta   90.00000000
_cell_angle_gamma   90.00000000
_symmetry_Int_Tables_number   1
_chemical_formula_structural   Te16Rh15
_chemical_formula_sum   'Te16 Rh15'
_cell_volume   651.16016554
_cell_formula_units_Z   1
loop_
 _symmetry_equiv_pos_site_id
 _symmetry_equiv_pos_as_xyz
  1  'x, y, z'
loop_
 _atom_site_type_symbol
 _atom_site_label
 _atom_site_symmetry_multiplicity
 _atom_site_fract_x
 _atom_site_fract_y
 _atom_site_fract_z
 _atom_site_occupancy
  Te  Te0  1  0.24686900  0.54363900  0.28600400  1
  Te  Te1  1  0.00000000  0.28413300  0.05111400  1
  Te  Te2  1  0.74713400  0.03961900  0.79076800  1
  Te  Te3  1  0.50000000  0.79365000  0.53494400  1
  Te  Te4  1  0.00000000  0.71586700  0.94888600  1
  Te  Te5  1  0.75313100  0.45636100  0.71399600  1
  Te  Te6  1  0.50000000  0.20635000  0.46505600  1
  Te  Te7  1  0.25286600  0.96038100  0.20923200  1
  Te  Te8  1  0.50000000  0.29472200  0.03651500  1
  Te  Te9  1  0.25286600  0.03961900  0.79076800  1
  Te  Te10  1  0.00000000  0.78927600  0.53977300  1
  Te  Te11  1  0.75313100  0.54363900  0.28600400  1
  Te  Te12  1  0.74713400  0.96038100  0.20923200  1
  Te  Te13  1  0.50000000  0.70527800  0.96348500  1
  Te  Te14  1  0.24686900  0.45636100  0.71399600  1
  Te  Te15  1  0.00000000  0.21072400  0.46022700  1
  Rh  Rh16  1  0.23430200  0.50000000  0.00000000  1
  Rh  Rh17  1  0.00000000  0.25634500  0.76430500  1
  Rh  Rh18  1  0.73929900  0.00000000  0.50000000  1
  Rh  Rh19  1  0.50000000  0.73915300  0.26115000  1
  Rh  Rh20  1  0.00000000  0.74365500  0.23569500  1
  Rh  Rh21  1  0.76569800  0.50000000  0.00000000  1
  Rh  Rh22  1  0.50000000  0.26084700  0.73885000  1
  Rh  Rh23  1  0.26070100  0.00000000  0.50000000  1
  Rh  Rh24  1  0.00000000  0.50000000  0.50000000  1
  Rh  Rh25  1  0.74207200  0.25630600  0.25855100  1
  Rh  Rh26  1  0.50000000  0.00000000  0.00000000  1
  Rh  Rh27  1  0.25792800  0.74369400  0.74144900  1
  Rh  Rh28  1  0.25792800  0.25630600  0.25855100  1
  Rh  Rh29  1  0.00000000  0.00000000  0.00000000  1
  Rh  Rh30  1  0.74207200  0.74369400  0.74144900  1
