# generated using pymatgen
data_Y2Th8O19
_symmetry_space_group_name_H-M   'P 1'
_cell_length_a   3.78198200
_cell_length_b   4.05227800
_cell_length_c   27.52147900
_cell_angle_alpha   90.00000000
_cell_angle_beta   90.00000000
_cell_angle_gamma   90.00000000
_symmetry_Int_Tables_number   1
_chemical_formula_structural   Y2Th8O19
_chemical_formula_sum   'Y2 Th8 O19'
_cell_volume   421.78434699
_cell_formula_units_Z   1
loop_
 _symmetry_equiv_pos_site_id
 _symmetry_equiv_pos_as_xyz
  1  'x, y, z'
loop_
 _atom_site_type_symbol
 _atom_site_label
 _atom_site_symmetry_multiplicity
 _atom_site_fract_x
 _atom_site_fract_y
 _atom_site_fract_z
 _atom_site_occupancy
  Y  Y0  1  0.00000000  0.50000000  0.00541000  1
  Y  Y1  1  0.50000000  0.00000000  0.89532000  1
  Th  Th2  1  0.00000000  0.50000000  0.80119400  1
  Th  Th3  1  0.50000000  0.00000000  0.70110300  1
  Th  Th4  1  0.00000000  0.50000000  0.60024300  1
  Th  Th5  1  0.50000000  0.00000000  0.49991000  1
  Th  Th6  1  0.00000000  0.50000000  0.39957900  1
  Th  Th7  1  0.50000000  0.00000000  0.29902400  1
  Th  Th8  1  0.00000000  0.50000000  0.19862900  1
  Th  Th9  1  0.50000000  0.00000000  0.09595500  1
  O  O10  1  0.00000000  0.00000000  0.75142700  1
  O  O11  1  0.50000000  0.50000000  0.64955500  1
  O  O12  1  0.00000000  0.00000000  0.54956000  1
  O  O13  1  0.50000000  0.50000000  0.44917100  1
  O  O14  1  0.00000000  0.00000000  0.34856200  1
  O  O15  1  0.50000000  0.50000000  0.24873300  1
  O  O16  1  0.00000000  0.00000000  0.14506200  1
  O  O17  1  0.50000000  0.50000000  0.04991800  1
  O  O18  1  0.50000000  0.50000000  0.15080900  1
  O  O19  1  0.00000000  0.00000000  0.04384200  1
  O  O20  1  0.50000000  0.50000000  0.95338400  1
  O  O21  1  0.50000000  0.50000000  0.84898700  1
  O  O22  1  0.00000000  0.00000000  0.85752400  1
  O  O23  1  0.50000000  0.50000000  0.75167900  1
  O  O24  1  0.00000000  0.00000000  0.65266000  1
  O  O25  1  0.50000000  0.50000000  0.55158700  1
  O  O26  1  0.00000000  0.00000000  0.45133900  1
  O  O27  1  0.50000000  0.50000000  0.35113400  1
  O  O28  1  0.00000000  0.00000000  0.25014500  1
