# generated using pymatgen
data_Tl(SbO3)2
_symmetry_space_group_name_H-M   'P 1'
_cell_length_a   7.41066008
_cell_length_b   7.41066008
_cell_length_c   7.41066008
_cell_angle_alpha   120.65250397
_cell_angle_beta   120.15326430
_cell_angle_gamma   89.30413968
_symmetry_Int_Tables_number   1
_chemical_formula_structural   Tl(SbO3)2
_chemical_formula_sum   'Tl2 Sb4 O12'
_cell_volume   285.99453711
_cell_formula_units_Z   2
loop_
 _symmetry_equiv_pos_site_id
 _symmetry_equiv_pos_as_xyz
  1  'x, y, z'
loop_
 _atom_site_type_symbol
 _atom_site_label
 _atom_site_symmetry_multiplicity
 _atom_site_fract_x
 _atom_site_fract_y
 _atom_site_fract_z
 _atom_site_occupancy
  Tl  Tl0  1  0.50000000  0.50000000  0.50000000  1
  Tl  Tl1  1  0.50000000  0.00000000  0.00000000  1
  Sb  Sb2  1  0.00000000  0.00000000  0.50000000  1
  Sb  Sb3  1  0.00000000  0.50000000  0.00000000  1
  Sb  Sb4  1  0.00000000  0.50000000  0.50000000  1
  Sb  Sb5  1  0.50000000  0.50000000  0.00000000  1
  O  O6  1  0.67639900  0.42639900  0.25000000  1
  O  O7  1  0.91708000  0.57047500  0.74184500  1
  O  O8  1  0.93236700  0.18236700  0.75000000  1
  O  O9  1  0.67137000  0.42952500  0.84660400  1
  O  O10  1  0.08292000  0.82476600  0.65339600  1
  O  O11  1  0.67137000  0.82476600  0.24184500  1
  O  O12  1  0.91708000  0.17523400  0.34660400  1
  O  O13  1  0.32863000  0.17523400  0.75815500  1
  O  O14  1  0.32863000  0.57047500  0.15339600  1
  O  O15  1  0.06763300  0.81763300  0.25000000  1
  O  O16  1  0.08292000  0.42952500  0.25815500  1
  O  O17  1  0.32360100  0.57360100  0.75000000  1
