# generated using pymatgen
data_ScHO2
_symmetry_space_group_name_H-M   'P 1'
_cell_length_a   3.36024800
_cell_length_b   4.14408700
_cell_length_c   5.60990394
_cell_angle_alpha   70.10356896
_cell_angle_beta   90.00000000
_cell_angle_gamma   90.00000000
_symmetry_Int_Tables_number   1
_chemical_formula_structural   ScHO2
_chemical_formula_sum   'Sc2 H2 O4'
_cell_volume   73.45584591
_cell_formula_units_Z   2
loop_
 _symmetry_equiv_pos_site_id
 _symmetry_equiv_pos_as_xyz
  1  'x, y, z'
loop_
 _atom_site_type_symbol
 _atom_site_label
 _atom_site_symmetry_multiplicity
 _atom_site_fract_x
 _atom_site_fract_y
 _atom_site_fract_z
 _atom_site_occupancy
  Sc  Sc0  1  0.25000000  0.66425300  0.18653100  1
  Sc  Sc1  1  0.75000000  0.33574700  0.81346900  1
  H  H2  1  0.75000000  0.99356800  0.40294900  1
  H  H3  1  0.25000000  0.00643200  0.59705100  1
  O  O4  1  0.25000000  0.23207700  0.05724100  1
  O  O5  1  0.75000000  0.74723600  0.43383300  1
  O  O6  1  0.25000000  0.25276400  0.56616700  1
  O  O7  1  0.75000000  0.76792300  0.94275900  1
