# generated using pymatgen
data_Co2(PO3)5
_symmetry_space_group_name_H-M   'P 1'
_cell_length_a   12.89018775
_cell_length_b   8.26210800
_cell_length_c   5.28364360
_cell_angle_alpha   90.00000000
_cell_angle_beta   94.93921209
_cell_angle_gamma   90.00000000
_symmetry_Int_Tables_number   1
_chemical_formula_structural   Co2(PO3)5
_chemical_formula_sum   'Co4 P10 O30'
_cell_volume   560.61913610
_cell_formula_units_Z   2
loop_
 _symmetry_equiv_pos_site_id
 _symmetry_equiv_pos_as_xyz
  1  'x, y, z'
loop_
 _atom_site_type_symbol
 _atom_site_label
 _atom_site_symmetry_multiplicity
 _atom_site_fract_x
 _atom_site_fract_y
 _atom_site_fract_z
 _atom_site_occupancy
  Co  Co0  1  0.96872600  0.29249200  0.88704100  1
  Co  Co1  1  0.53317100  0.29246200  0.61179100  1
  Co  Co2  1  0.46872600  0.70750800  0.38703900  1
  Co  Co3  1  0.03317100  0.70753800  0.11179000  1
  P  P4  1  0.60441700  0.82523100  0.94167900  1
  P  P5  1  0.64347500  0.49676700  0.13174700  1
  P  P6  1  0.75109600  0.07519200  0.74960800  1
  P  P7  1  0.85872500  0.49698200  0.36724400  1
  P  P8  1  0.10441800  0.17476900  0.44167800  1
  P  P9  1  0.14347500  0.50323300  0.63174800  1
  P  P10  1  0.25109600  0.92480800  0.24960900  1
  P  P11  1  0.35872500  0.50301800  0.86724500  1
  P  P12  1  0.39774400  0.17461200  0.05688500  1
  P  P13  1  0.89774400  0.82538800  0.55688500  1
  O  O14  1  0.60572500  0.38736900  0.92008700  1
  O  O15  1  0.96134200  0.86187500  0.33889300  1
  O  O16  1  0.92556500  0.51803500  0.14615500  1
  O  O17  1  0.95176000  0.79869100  0.81668300  1
  O  O18  1  0.04114100  0.13828900  0.66026200  1
  O  O19  1  0.05062600  0.20112700  0.18225100  1
  O  O20  1  0.07682200  0.48217500  0.85307200  1
  O  O21  1  0.10572400  0.61263100  0.42008500  1
  O  O22  1  0.17628500  0.33285900  0.51854500  1
  O  O23  1  0.16816000  0.83622400  0.08646500  1
  O  O24  1  0.19653100  0.04581600  0.43961000  1
  O  O25  1  0.25118900  0.57400700  0.74898700  1
  O  O26  1  0.33409300  0.83643100  0.41253300  1
  O  O27  1  0.30587200  0.04551000  0.05949100  1
  O  O28  1  0.32575000  0.33241400  0.97963500  1
  O  O29  1  0.39616500  0.61222100  0.07891600  1
  O  O30  1  0.42556500  0.48196500  0.64615600  1
  O  O31  1  0.46134200  0.13812600  0.83889400  1
  O  O32  1  0.45176000  0.20130900  0.31668300  1
  O  O33  1  0.82575000  0.66758600  0.47963400  1
  O  O34  1  0.54114100  0.86171100  0.16026200  1
  O  O35  1  0.57682200  0.51782500  0.35307300  1
  O  O36  1  0.89616500  0.38777900  0.57891700  1
  O  O37  1  0.67628400  0.66714100  0.01854400  1
  O  O38  1  0.66816000  0.16377600  0.58646600  1
  O  O39  1  0.69653200  0.95418400  0.93960900  1
  O  O40  1  0.75118900  0.42599300  0.24898600  1
  O  O41  1  0.83409400  0.16356900  0.91253200  1
  O  O42  1  0.80587300  0.95449000  0.55949200  1
  O  O43  1  0.55062600  0.79887300  0.68225200  1
