data_image0
_chemical_formula_structural       F6PbPt
_chemical_formula_sum              "F6 Pb1 Pt1"
_cell_length_a       4.7307
_cell_length_b       4.7307
_cell_length_c       4.7307
_cell_angle_alpha    97.5066
_cell_angle_beta     97.5066
_cell_angle_gamma    97.5066

_space_group_name_H-M_alt    "P 1"
_space_group_IT_number       1

loop_
  _space_group_symop_operation_xyz
  'x, y, z'

loop_
  _atom_site_type_symbol
  _atom_site_label
  _atom_site_symmetry_multiplicity
  _atom_site_fract_x
  _atom_site_fract_y
  _atom_site_fract_z
  _atom_site_occupancy
  F   F1        1.0  0.70000  0.70000  0.06320  1.0000
  F   F2        1.0  0.30000  0.93700  0.30000  1.0000
  F   F3        1.0  0.93700  0.30000  0.30000  1.0000
  F   F4        1.0  0.06320  0.70000  0.70000  1.0000
  F   F5        1.0  0.70000  0.06320  0.70000  1.0000
  F   F6        1.0  0.30000  0.30000  0.93700  1.0000
  Pb  Pb1       1.0  0.50000  0.50000  0.50000  1.0000
  Pt  Pt1       1.0  0.00000  0.00000  0.00000  1.0000
