# generated using pymatgen
data_Tl3Cu4As8Pb3S20
_symmetry_space_group_name_H-M   'P 1'
_cell_length_a   7.77736200
_cell_length_b   9.43509718
_cell_length_c   14.38925908
_cell_angle_alpha   75.21231402
_cell_angle_beta   77.57406628
_cell_angle_gamma   70.49501471
_symmetry_Int_Tables_number   1
_chemical_formula_structural   Tl3Cu4As8Pb3S20
_chemical_formula_sum   'Tl3 Cu4 As8 Pb3 S20'
_cell_volume   952.49237179
_cell_formula_units_Z   1
loop_
 _symmetry_equiv_pos_site_id
 _symmetry_equiv_pos_as_xyz
  1  'x, y, z'
loop_
 _atom_site_type_symbol
 _atom_site_label
 _atom_site_symmetry_multiplicity
 _atom_site_fract_x
 _atom_site_fract_y
 _atom_site_fract_z
 _atom_site_occupancy
  Tl  Tl0  1  0.39227400  0.22596200  0.91321900  1
  Tl  Tl1  1  0.11819200  0.29044300  0.58881100  1
  Tl  Tl2  1  0.50340200  0.19234400  0.22181800  1
  Cu  Cu3  1  0.52216200  0.45963200  0.60138900  1
  Cu  Cu4  1  0.03226600  0.96469600  0.09958900  1
  Cu  Cu5  1  0.95616500  0.04320300  0.90452700  1
  Cu  Cu6  1  0.47970100  0.52575000  0.39717700  1
  As  As7  1  0.11204700  0.66039900  0.96541900  1
  As  As8  1  0.61223000  0.14095200  0.48839500  1
  As  As9  1  0.72549100  0.39020400  0.81183500  1
  As  As10  1  0.76751800  0.10587200  0.70139000  1
  As  As11  1  0.23794200  0.88945500  0.30446900  1
  As  As12  1  0.26679200  0.60655600  0.18772700  1
  As  As13  1  0.39560800  0.84367400  0.51621600  1
  As  As14  1  0.89016600  0.35902200  0.02621100  1
  Pb  Pb15  1  0.48818300  0.79741500  0.76725300  1
  Pb  Pb16  1  0.89665400  0.75146400  0.39534100  1
  Pb  Pb17  1  0.59410700  0.74429000  0.10113000  1
  S  S18  1  0.27313100  0.58202000  0.83306000  1
  S  S19  1  0.21575200  0.86429600  0.96382800  1
  S  S20  1  0.46250100  0.24095600  0.69691600  1
  S  S21  1  0.70501200  0.55782500  0.66441500  1
  S  S22  1  0.78351000  0.06482000  0.34970300  1
  S  S23  1  0.70885500  0.54524500  0.91851000  1
  S  S24  1  0.78538700  0.94731400  0.59538200  1
  S  S25  1  0.71457600  0.35071200  0.47236500  1
  S  S26  1  0.76515300  0.94996300  0.84775000  1
  S  S27  1  0.02737000  0.25727300  0.80976200  1
  S  S28  1  0.96168400  0.75027000  0.19832600  1
  S  S29  1  0.23441200  0.04293400  0.15890100  1
  S  S30  1  0.28412400  0.64045800  0.52599300  1
  S  S31  1  0.23227800  0.04163700  0.40541900  1
  S  S32  1  0.26846000  0.45872900  0.08683600  1
  S  S33  1  0.22554600  0.93728100  0.64456200  1
  S  S34  1  0.28975200  0.44369100  0.33281900  1
  S  S35  1  0.54528700  0.74585400  0.29937400  1
  S  S36  1  0.78441400  0.14682300  0.04207400  1
  S  S37  1  0.74144500  0.44101700  0.16253700  1
