# generated using pymatgen
data_V4Ge13O36
_symmetry_space_group_name_H-M   'P 1'
_cell_length_a   2.89685600
_cell_length_b   4.51743590
_cell_length_c   40.73221234
_cell_angle_alpha   90.35494847
_cell_angle_beta   90.00000000
_cell_angle_gamma   90.00000000
_symmetry_Int_Tables_number   1
_chemical_formula_structural   V4Ge13O36
_chemical_formula_sum   'V4 Ge13 O36'
_cell_volume   533.02621859
_cell_formula_units_Z   1
loop_
 _symmetry_equiv_pos_site_id
 _symmetry_equiv_pos_as_xyz
  1  'x, y, z'
loop_
 _atom_site_type_symbol
 _atom_site_label
 _atom_site_symmetry_multiplicity
 _atom_site_fract_x
 _atom_site_fract_y
 _atom_site_fract_z
 _atom_site_occupancy
  V  V0  1  0.00000000  0.01435200  0.00120500  1
  V  V1  1  0.00000000  0.98564800  0.22101700  1
  V  V2  1  0.50000000  0.47318100  0.06354800  1
  V  V3  1  0.50000000  0.52681900  0.15867500  1
  Ge  Ge4  1  0.00000000  0.99763100  0.33391100  1
  Ge  Ge5  1  0.00000000  0.00007900  0.44455500  1
  Ge  Ge6  1  0.00000000  0.00008500  0.55557400  1
  Ge  Ge7  1  0.00000000  0.99991500  0.66664900  1
  Ge  Ge8  1  0.00000000  0.99992100  0.77766700  1
  Ge  Ge9  1  0.00000000  0.00236900  0.88831100  1
  Ge  Ge10  1  0.50000000  0.49253100  0.27905000  1
  Ge  Ge11  1  0.50000000  0.49992600  0.38916600  1
  Ge  Ge12  1  0.50000000  0.50000000  0.61111100  1
  Ge  Ge13  1  0.50000000  0.50008600  0.50004000  1
  Ge  Ge14  1  0.50000000  0.49991400  0.72218200  1
  Ge  Ge15  1  0.50000000  0.50007400  0.83305600  1
  Ge  Ge16  1  0.50000000  0.50746900  0.94317200  1
  O  O17  1  0.00000000  0.29420300  0.03212300  1
  O  O18  1  0.00000000  0.68290800  0.07611500  1
  O  O19  1  0.00000000  0.31709200  0.14610700  1
  O  O20  1  0.00000000  0.70579700  0.19009900  1
  O  O21  1  0.00000000  0.30470800  0.25731600  1
  O  O22  1  0.00000000  0.30857700  0.36774100  1
  O  O23  1  0.00000000  0.69217400  0.41047000  1
  O  O24  1  0.00000000  0.30802500  0.47870400  1
  O  O25  1  0.00000000  0.69208800  0.52137800  1
  O  O26  1  0.00000000  0.30789100  0.58977700  1
  O  O27  1  0.00000000  0.69210900  0.63244500  1
  O  O28  1  0.00000000  0.30791200  0.70084400  1
  O  O29  1  0.00000000  0.69197500  0.74351800  1
  O  O30  1  0.00000000  0.30782600  0.81175200  1
  O  O31  1  0.00000000  0.69142300  0.85448300  1
  O  O32  1  0.00000000  0.30910000  0.92207400  1
  O  O33  1  0.50000000  0.18315500  0.20352400  1
  O  O34  1  0.50000000  0.19584200  0.08783100  1
  O  O35  1  0.50000000  0.19022400  0.31268100  1
  O  O36  1  0.50000000  0.81684500  0.01869800  1
  O  O37  1  0.50000000  0.19205700  0.42323000  1
  O  O38  1  0.50000000  0.80415800  0.13439100  1
  O  O39  1  0.50000000  0.19197700  0.53424700  1
  O  O40  1  0.50000000  0.79897200  0.24542900  1
  O  O41  1  0.50000000  0.19177500  0.75635600  1
  O  O42  1  0.50000000  0.80848200  0.35529000  1
  O  O43  1  0.50000000  0.80822500  0.46586700  1
  O  O44  1  0.50000000  0.19199300  0.64533400  1
  O  O45  1  0.50000000  0.19151800  0.86693300  1
  O  O46  1  0.50000000  0.80800700  0.57688800  1
  O  O47  1  0.50000000  0.20102800  0.97679300  1
  O  O48  1  0.50000000  0.80802300  0.68797500  1
  O  O49  1  0.50000000  0.80977600  0.90954100  1
  O  O50  1  0.50000000  0.80794300  0.79899200  1
  O  O51  1  0.00000000  0.69090000  0.30014800  1
  O  O52  1  0.00000000  0.69529200  0.96490700  1
