# generated using pymatgen
data_TiZn2O4
_symmetry_space_group_name_H-M   'P 1'
_cell_length_a   6.07440300
_cell_length_b   6.07440300
_cell_length_c   12.83441400
_cell_angle_alpha   90.00000000
_cell_angle_beta   90.00000000
_cell_angle_gamma   90.00000000
_symmetry_Int_Tables_number   1
_chemical_formula_structural   TiZn2O4
_chemical_formula_sum   'Ti4 Zn8 O16'
_cell_volume   473.56897969
_cell_formula_units_Z   4
loop_
 _symmetry_equiv_pos_site_id
 _symmetry_equiv_pos_as_xyz
  1  'x, y, z'
loop_
 _atom_site_type_symbol
 _atom_site_label
 _atom_site_symmetry_multiplicity
 _atom_site_fract_x
 _atom_site_fract_y
 _atom_site_fract_z
 _atom_site_occupancy
  Ti  Ti0  1  0.15366900  0.50000000  0.25000000  1
  Ti  Ti1  1  0.50000000  0.84633100  0.50000000  1
  Ti  Ti2  1  0.50000000  0.15366900  0.00000000  1
  Ti  Ti3  1  0.84633100  0.50000000  0.75000000  1
  Zn  Zn4  1  0.00000000  0.44966500  0.00000000  1
  Zn  Zn5  1  0.00000000  0.55033500  0.50000000  1
  Zn  Zn6  1  0.36144300  0.36144300  0.62500000  1
  Zn  Zn7  1  0.36144300  0.63855700  0.87500000  1
  Zn  Zn8  1  0.44966500  0.00000000  0.25000000  1
  Zn  Zn9  1  0.55033500  0.00000000  0.75000000  1
  Zn  Zn10  1  0.63855700  0.36144300  0.37500000  1
  Zn  Zn11  1  0.63855700  0.63855700  0.12500000  1
  O  O12  1  0.57299300  0.04414700  0.39599000  1
  O  O13  1  0.57299300  0.95585300  0.10401000  1
  O  O14  1  0.37887800  0.70166100  0.24880900  1
  O  O15  1  0.37887800  0.29833900  0.25119100  1
  O  O16  1  0.04414700  0.57299300  0.85401000  1
  O  O17  1  0.04414700  0.42700700  0.64599000  1
  O  O18  1  0.70166100  0.37887800  0.00119100  1
  O  O19  1  0.70166100  0.62112200  0.49880900  1
  O  O20  1  0.29833900  0.37887800  0.99880900  1
  O  O21  1  0.29833900  0.62112200  0.50119100  1
  O  O22  1  0.95585300  0.57299300  0.14599000  1
  O  O23  1  0.95585300  0.42700700  0.35401000  1
  O  O24  1  0.62112200  0.70166100  0.75119100  1
  O  O25  1  0.62112200  0.29833900  0.74880900  1
  O  O26  1  0.42700700  0.04414700  0.60401000  1
  O  O27  1  0.42700700  0.95585300  0.89599000  1
