# generated using pymatgen
data_U3Bi2O9
_symmetry_space_group_name_H-M   'P 1'
_cell_length_a   14.32678795
_cell_length_b   14.32678795
_cell_length_c   14.32678795
_cell_angle_alpha   164.71893409
_cell_angle_beta   164.71893409
_cell_angle_gamma   21.67572659
_symmetry_Int_Tables_number   1
_chemical_formula_structural   U3Bi2O9
_chemical_formula_sum   'U3 Bi2 O9'
_cell_volume   204.22849158
_cell_formula_units_Z   1
loop_
 _symmetry_equiv_pos_site_id
 _symmetry_equiv_pos_as_xyz
  1  'x, y, z'
loop_
 _atom_site_type_symbol
 _atom_site_label
 _atom_site_symmetry_multiplicity
 _atom_site_fract_x
 _atom_site_fract_y
 _atom_site_fract_z
 _atom_site_occupancy
  U  U0  1  0.40081500  0.40081500  0.00000000  1
  U  U1  1  0.00000000  0.00000000  0.00000000  1
  U  U2  1  0.59918500  0.59918500  0.00000000  1
  Bi  Bi3  1  0.20110000  0.20110000  0.00000000  1
  Bi  Bi4  1  0.79890000  0.79890000  0.00000000  1
  O  O5  1  0.85730600  0.35730600  0.50000000  1
  O  O6  1  0.45364600  0.95364600  0.50000000  1
  O  O7  1  0.04635400  0.54635400  0.50000000  1
  O  O8  1  0.64269400  0.14269400  0.50000000  1
  O  O9  1  0.13879900  0.63879900  0.50000000  1
  O  O10  1  0.75000000  0.25000000  0.50000000  1
  O  O11  1  0.36120100  0.86120100  0.50000000  1
  O  O12  1  0.95216400  0.45216400  0.50000000  1
  O  O13  1  0.54783600  0.04783600  0.50000000  1
