# generated using pymatgen
data_Nd3Pt4
_symmetry_space_group_name_H-M   'P 1'
_cell_length_a   8.16296706
_cell_length_b   8.16296706
_cell_length_c   8.16296691
_cell_angle_alpha   114.48518400
_cell_angle_beta   114.48518400
_cell_angle_gamma   114.48519072
_symmetry_Int_Tables_number   1
_chemical_formula_structural   Nd3Pt4
_chemical_formula_sum   'Nd6 Pt8'
_cell_volume   318.22842459
_cell_formula_units_Z   2
loop_
 _symmetry_equiv_pos_site_id
 _symmetry_equiv_pos_as_xyz
  1  'x, y, z'
loop_
 _atom_site_type_symbol
 _atom_site_label
 _atom_site_symmetry_multiplicity
 _atom_site_fract_x
 _atom_site_fract_y
 _atom_site_fract_z
 _atom_site_occupancy
  Nd  Nd0  1  0.28128900  0.40533800  0.02927100  1
  Nd  Nd1  1  0.40533800  0.02927100  0.28128900  1
  Nd  Nd2  1  0.02927100  0.28128900  0.40533800  1
  Nd  Nd3  1  0.71871100  0.59466200  0.97072900  1
  Nd  Nd4  1  0.59466200  0.97072900  0.71871100  1
  Nd  Nd5  1  0.97072900  0.71871100  0.59466200  1
  Pt  Pt6  1  0.00000000  0.00000000  0.00000000  1
  Pt  Pt7  1  0.50000000  0.50000000  0.50000000  1
  Pt  Pt8  1  0.55386600  0.22266300  0.05853900  1
  Pt  Pt9  1  0.22266300  0.05853900  0.55386600  1
  Pt  Pt10  1  0.05853900  0.55386600  0.22266300  1
  Pt  Pt11  1  0.44613400  0.77733700  0.94146100  1
  Pt  Pt12  1  0.77733700  0.94146100  0.44613400  1
  Pt  Pt13  1  0.94146100  0.44613400  0.77733700  1
