# generated using pymatgen
data_Sr3Ta2ZnO9
_symmetry_space_group_name_H-M   'P 1'
_cell_length_a   5.72531145
_cell_length_b   5.72531145
_cell_length_c   7.07413900
_cell_angle_alpha   90.00000000
_cell_angle_beta   90.00000000
_cell_angle_gamma   119.99999363
_symmetry_Int_Tables_number   1
_chemical_formula_structural   Sr3Ta2ZnO9
_chemical_formula_sum   'Sr3 Ta2 Zn1 O9'
_cell_volume   200.81792805
_cell_formula_units_Z   1
loop_
 _symmetry_equiv_pos_site_id
 _symmetry_equiv_pos_as_xyz
  1  'x, y, z'
loop_
 _atom_site_type_symbol
 _atom_site_label
 _atom_site_symmetry_multiplicity
 _atom_site_fract_x
 _atom_site_fract_y
 _atom_site_fract_z
 _atom_site_occupancy
  Sr  Sr0  1  0.00000000  0.00000000  0.00000000  1
  Sr  Sr1  1  0.66666700  0.33333300  0.33780500  1
  Sr  Sr2  1  0.33333300  0.66666700  0.66219500  1
  Ta  Ta3  1  0.66666700  0.33333300  0.82349900  1
  Ta  Ta4  1  0.33333300  0.66666700  0.17650100  1
  Zn  Zn5  1  0.00000000  0.00000000  0.50000000  1
  O  O6  1  0.50000000  0.00000000  0.00000000  1
  O  O7  1  0.50000000  0.50000000  0.00000000  1
  O  O8  1  0.00000000  0.50000000  0.00000000  1
  O  O9  1  0.83035600  0.66071200  0.67677900  1
  O  O10  1  0.83035600  0.16964400  0.67677900  1
  O  O11  1  0.33928800  0.16964400  0.67677900  1
  O  O12  1  0.16964400  0.33928800  0.32322100  1
  O  O13  1  0.16964400  0.83035600  0.32322100  1
  O  O14  1  0.66071200  0.83035600  0.32322100  1
