# generated using pymatgen
data_YbFe2
_symmetry_space_group_name_H-M   'P 1'
_cell_length_a   5.07300904
_cell_length_b   5.07300904
_cell_length_c   8.27955200
_cell_angle_alpha   90.00000000
_cell_angle_beta   90.00000000
_cell_angle_gamma   120.06591421
_symmetry_Int_Tables_number   1
_chemical_formula_structural   YbFe2
_chemical_formula_sum   'Yb4 Fe8'
_cell_volume   184.40806164
_cell_formula_units_Z   4
loop_
 _symmetry_equiv_pos_site_id
 _symmetry_equiv_pos_as_xyz
  1  'x, y, z'
loop_
 _atom_site_type_symbol
 _atom_site_label
 _atom_site_symmetry_multiplicity
 _atom_site_fract_x
 _atom_site_fract_y
 _atom_site_fract_z
 _atom_site_occupancy
  Yb  Yb0  1  0.66663400  0.33336600  0.56416600  1
  Yb  Yb1  1  0.33336600  0.66663400  0.43583400  1
  Yb  Yb2  1  0.33336600  0.66663400  0.06416600  1
  Yb  Yb3  1  0.66663400  0.33336600  0.93583400  1
  Fe  Fe4  1  0.00000000  0.00000000  0.50000000  1
  Fe  Fe5  1  0.00000000  0.00000000  0.00000000  1
  Fe  Fe6  1  0.16411200  0.32842800  0.75000000  1
  Fe  Fe7  1  0.16383100  0.83616900  0.75000000  1
  Fe  Fe8  1  0.67157200  0.83588800  0.75000000  1
  Fe  Fe9  1  0.83588800  0.67157200  0.25000000  1
  Fe  Fe10  1  0.83616900  0.16383100  0.25000000  1
  Fe  Fe11  1  0.32842800  0.16411200  0.25000000  1
