# generated using pymatgen
data_Ba3Yb2TeO5
_symmetry_space_group_name_H-M   'P 1'
_cell_length_a   4.34712600
_cell_length_b   4.34712600
_cell_length_c   13.02346100
_cell_angle_alpha   90.00000000
_cell_angle_beta   90.00000000
_cell_angle_gamma   90.00000000
_symmetry_Int_Tables_number   1
_chemical_formula_structural   Ba3Yb2TeO5
_chemical_formula_sum   'Ba3 Yb2 Te1 O5'
_cell_volume   246.11091233
_cell_formula_units_Z   1
loop_
 _symmetry_equiv_pos_site_id
 _symmetry_equiv_pos_as_xyz
  1  'x, y, z'
loop_
 _atom_site_type_symbol
 _atom_site_label
 _atom_site_symmetry_multiplicity
 _atom_site_fract_x
 _atom_site_fract_y
 _atom_site_fract_z
 _atom_site_occupancy
  Ba  Ba0  1  0.00000000  0.00000000  0.00000000  1
  Ba  Ba1  1  0.00000000  0.00000000  0.68101700  1
  Ba  Ba2  1  0.00000000  0.00000000  0.31898300  1
  Yb  Yb3  1  0.50000000  0.50000000  0.83287300  1
  Yb  Yb4  1  0.50000000  0.50000000  0.16712700  1
  Te  Te5  1  0.50000000  0.50000000  0.50000000  1
  O  O6  1  0.50000000  0.00000000  0.79446700  1
  O  O7  1  0.00000000  0.50000000  0.79446700  1
  O  O8  1  0.50000000  0.00000000  0.20553300  1
  O  O9  1  0.00000000  0.50000000  0.20553300  1
  O  O10  1  0.50000000  0.50000000  0.00000000  1
