# generated using pymatgen
data_LaSeCl
_symmetry_space_group_name_H-M   'P 1'
_cell_length_a   4.36597600
_cell_length_b   7.69174200
_cell_length_c   9.18739400
_cell_angle_alpha   90.00000000
_cell_angle_beta   90.00000000
_cell_angle_gamma   90.00000000
_symmetry_Int_Tables_number   1
_chemical_formula_structural   LaSeCl
_chemical_formula_sum   'La4 Se4 Cl4'
_cell_volume   308.53070673
_cell_formula_units_Z   4
loop_
 _symmetry_equiv_pos_site_id
 _symmetry_equiv_pos_as_xyz
  1  'x, y, z'
loop_
 _atom_site_type_symbol
 _atom_site_label
 _atom_site_symmetry_multiplicity
 _atom_site_fract_x
 _atom_site_fract_y
 _atom_site_fract_z
 _atom_site_occupancy
  La  La0  1  0.25000000  0.25992000  0.36855500  1
  La  La1  1  0.25000000  0.75992000  0.13144500  1
  La  La2  1  0.75000000  0.74008000  0.63144500  1
  La  La3  1  0.75000000  0.24008000  0.86855500  1
  Se  Se4  1  0.25000000  0.45932300  0.67082400  1
  Se  Se5  1  0.25000000  0.95932300  0.82917600  1
  Se  Se6  1  0.75000000  0.54067700  0.32917600  1
  Se  Se7  1  0.75000000  0.04067700  0.17082400  1
  Cl  Cl8  1  0.25000000  0.86419400  0.44018000  1
  Cl  Cl9  1  0.25000000  0.36419400  0.05982000  1
  Cl  Cl10  1  0.75000000  0.13580600  0.55982000  1
  Cl  Cl11  1  0.75000000  0.63580600  0.94018000  1
