# generated using pymatgen
data_La3TaO7
_symmetry_space_group_name_H-M   'P 1'
_cell_length_a   6.79345398
_cell_length_b   6.79345398
_cell_length_c   3.96850200
_cell_angle_alpha   90.00000000
_cell_angle_beta   90.00000000
_cell_angle_gamma   110.33271899
_symmetry_Int_Tables_number   1
_chemical_formula_structural   La3TaO7
_chemical_formula_sum   'La3 Ta1 O7'
_cell_volume   171.73842287
_cell_formula_units_Z   1
loop_
 _symmetry_equiv_pos_site_id
 _symmetry_equiv_pos_as_xyz
  1  'x, y, z'
loop_
 _atom_site_type_symbol
 _atom_site_label
 _atom_site_symmetry_multiplicity
 _atom_site_fract_x
 _atom_site_fract_y
 _atom_site_fract_z
 _atom_site_occupancy
  La  La0  1  0.00000000  0.00000000  0.00000000  1
  La  La1  1  0.50000000  0.00000000  0.50000000  1
  La  La2  1  0.00000000  0.50000000  0.50000000  1
  Ta  Ta3  1  0.50000000  0.50000000  0.00000000  1
  O  O4  1  0.50000000  0.50000000  0.50000000  1
  O  O5  1  0.43376900  0.18574200  0.00000000  1
  O  O6  1  0.81425800  0.56623100  0.00000000  1
  O  O7  1  0.56623100  0.81425800  0.00000000  1
  O  O8  1  0.18574200  0.43376900  0.00000000  1
  O  O9  1  0.13043700  0.86956300  0.50000000  1
  O  O10  1  0.86956300  0.13043700  0.50000000  1
