# generated using pymatgen
data_CO2
_symmetry_space_group_name_H-M   'P 1'
_cell_length_a   5.06931100
_cell_length_b   5.06931100
_cell_length_c   7.23202500
_cell_angle_alpha   90.00000000
_cell_angle_beta   90.00000000
_cell_angle_gamma   90.00000000
_symmetry_Int_Tables_number   1
_chemical_formula_structural   CO2
_chemical_formula_sum   'C4 O8'
_cell_volume   185.84795660
_cell_formula_units_Z   4
loop_
 _symmetry_equiv_pos_site_id
 _symmetry_equiv_pos_as_xyz
  1  'x, y, z'
loop_
 _atom_site_type_symbol
 _atom_site_label
 _atom_site_symmetry_multiplicity
 _atom_site_fract_x
 _atom_site_fract_y
 _atom_site_fract_z
 _atom_site_occupancy
  C  C0  1  0.98879200  0.01120800  0.75000000  1
  C  C1  1  0.01120800  0.98879200  0.25000000  1
  C  C2  1  0.51120800  0.51120800  0.50000000  1
  C  C3  1  0.48879200  0.48879200  0.00000000  1
  O  O4  1  0.67498600  0.34760700  0.49267100  1
  O  O5  1  0.32501400  0.65239300  0.99267100  1
  O  O6  1  0.84760700  0.82501400  0.24267100  1
  O  O7  1  0.15239300  0.17498600  0.74267100  1
  O  O8  1  0.65239300  0.32501400  0.00732900  1
  O  O9  1  0.34760700  0.67498600  0.50732900  1
  O  O10  1  0.82501400  0.84760700  0.75732900  1
  O  O11  1  0.17498600  0.15239300  0.25732900  1
