# generated using pymatgen
data_Cu(Mo3Se4)2
_symmetry_space_group_name_H-M   'P 1'
_cell_length_a   6.74989068
_cell_length_b   6.74989068
_cell_length_c   6.74989023
_cell_angle_alpha   93.07823762
_cell_angle_beta   93.07823762
_cell_angle_gamma   93.07824141
_symmetry_Int_Tables_number   1
_chemical_formula_structural   Cu(Mo3Se4)2
_chemical_formula_sum   'Cu1 Mo6 Se8'
_cell_volume   306.15097156
_cell_formula_units_Z   1
loop_
 _symmetry_equiv_pos_site_id
 _symmetry_equiv_pos_as_xyz
  1  'x, y, z'
loop_
 _atom_site_type_symbol
 _atom_site_label
 _atom_site_symmetry_multiplicity
 _atom_site_fract_x
 _atom_site_fract_y
 _atom_site_fract_z
 _atom_site_occupancy
  Cu  Cu0  1  0.00000000  0.00000000  0.00000000  1
  Mo  Mo1  1  0.77376100  0.58793700  0.45393800  1
  Mo  Mo2  1  0.45393800  0.77376100  0.58793700  1
  Mo  Mo3  1  0.58793700  0.45393800  0.77376100  1
  Mo  Mo4  1  0.22623900  0.41206300  0.54606200  1
  Mo  Mo5  1  0.54606200  0.22623900  0.41206300  1
  Mo  Mo6  1  0.41206300  0.54606200  0.22623900  1
  Se  Se7  1  0.78844700  0.78844700  0.78844700  1
  Se  Se8  1  0.21155300  0.21155300  0.21155300  1
  Se  Se9  1  0.26244700  0.62229400  0.87098400  1
  Se  Se10  1  0.87098400  0.26244700  0.62229400  1
  Se  Se11  1  0.62229400  0.87098400  0.26244700  1
  Se  Se12  1  0.73755300  0.37770600  0.12901600  1
  Se  Se13  1  0.12901600  0.73755300  0.37770600  1
  Se  Se14  1  0.37770600  0.12901600  0.73755300  1
