# generated using pymatgen
data_Lu(Fe2Ge)2
_symmetry_space_group_name_H-M   'P 1'
_cell_length_a   7.17592800
_cell_length_b   7.17592800
_cell_length_c   3.85787100
_cell_angle_alpha   90.00000000
_cell_angle_beta   90.00000000
_cell_angle_gamma   90.00000000
_symmetry_Int_Tables_number   1
_chemical_formula_structural   Lu(Fe2Ge)2
_chemical_formula_sum   'Lu2 Fe8 Ge4'
_cell_volume   198.65698807
_cell_formula_units_Z   2
loop_
 _symmetry_equiv_pos_site_id
 _symmetry_equiv_pos_as_xyz
  1  'x, y, z'
loop_
 _atom_site_type_symbol
 _atom_site_label
 _atom_site_symmetry_multiplicity
 _atom_site_fract_x
 _atom_site_fract_y
 _atom_site_fract_z
 _atom_site_occupancy
  Lu  Lu0  1  0.50000000  0.50000000  0.00000000  1
  Lu  Lu1  1  0.00000000  0.00000000  0.50000000  1
  Fe  Fe2  1  0.14544400  0.59088500  0.50000000  1
  Fe  Fe3  1  0.85455600  0.40911500  0.50000000  1
  Fe  Fe4  1  0.35455600  0.09088500  0.00000000  1
  Fe  Fe5  1  0.64544400  0.90911500  0.00000000  1
  Fe  Fe6  1  0.59088500  0.14544400  0.50000000  1
  Fe  Fe7  1  0.40911500  0.85455600  0.50000000  1
  Fe  Fe8  1  0.09088500  0.35455600  0.00000000  1
  Fe  Fe9  1  0.90911500  0.64544400  0.00000000  1
  Ge  Ge10  1  0.71550900  0.71550900  0.50000000  1
  Ge  Ge11  1  0.28449100  0.28449100  0.50000000  1
  Ge  Ge12  1  0.78449100  0.21550900  0.00000000  1
  Ge  Ge13  1  0.21550900  0.78449100  0.00000000  1
