# generated using pymatgen
data_Fe(BO2)2
_symmetry_space_group_name_H-M   'P 1'
_cell_length_a   4.48481701
_cell_length_b   9.26522532
_cell_length_c   5.70004104
_cell_angle_alpha   90.00405599
_cell_angle_beta   89.98741866
_cell_angle_gamma   98.57489893
_symmetry_Int_Tables_number   1
_chemical_formula_structural   Fe(BO2)2
_chemical_formula_sum   'Fe4 B8 O16'
_cell_volume   234.20529828
_cell_formula_units_Z   4
loop_
 _symmetry_equiv_pos_site_id
 _symmetry_equiv_pos_as_xyz
  1  'x, y, z'
loop_
 _atom_site_type_symbol
 _atom_site_label
 _atom_site_symmetry_multiplicity
 _atom_site_fract_x
 _atom_site_fract_y
 _atom_site_fract_z
 _atom_site_occupancy
  Fe  Fe0  1  0.75013800  0.00006100  0.33764500  1
  Fe  Fe1  1  0.74992700  0.49996300  0.16238900  1
  Fe  Fe2  1  0.24980900  0.50002600  0.83749200  1
  Fe  Fe3  1  0.25035200  0.00001500  0.66252800  1
  B  B4  1  0.30955000  0.18883300  0.10735700  1
  B  B5  1  0.81011000  0.68873200  0.60812800  1
  B  B6  1  0.19043700  0.81115900  0.10730400  1
  B  B7  1  0.68979000  0.31128200  0.60816900  1
  B  B8  1  0.68984300  0.81128900  0.89185600  1
  B  B9  1  0.19046200  0.31115600  0.39266500  1
  B  B10  1  0.81024800  0.18869000  0.89181300  1
  B  B11  1  0.30952000  0.68884300  0.39269200  1
  O  O12  1  0.82963800  0.35254600  0.84715800  1
  O  O13  1  0.32642400  0.85309700  0.34656400  1
  O  O14  1  0.67050300  0.64742400  0.84723100  1
  O  O15  1  0.17317300  0.14695300  0.34635900  1
  O  O16  1  0.17348200  0.64695400  0.15350300  1
  O  O17  1  0.67053600  0.14752600  0.65292700  1
  O  O18  1  0.32679100  0.35300300  0.15360500  1
  O  O19  1  0.82922500  0.85252400  0.65269600  1
  O  O20  1  0.60346800  0.14165200  0.08396800  1
  O  O21  1  0.10357000  0.64093300  0.58361800  1
  O  O22  1  0.89660700  0.85826000  0.08385800  1
  O  O23  1  0.39632000  0.35908900  0.58370100  1
  O  O24  1  0.39641600  0.85908400  0.91641500  1
  O  O25  1  0.89656000  0.35833000  0.41603700  1
  O  O26  1  0.10372000  0.14085700  0.91626200  1
  O  O27  1  0.60338000  0.64171800  0.41606000  1
