# generated using pymatgen
data_MnP4
_symmetry_space_group_name_H-M   'P 1'
_cell_length_a   5.10366899
_cell_length_b   5.85849732
_cell_length_c   10.88226515
_cell_angle_alpha   88.36539765
_cell_angle_beta   86.24509327
_cell_angle_gamma   64.17789513
_symmetry_Int_Tables_number   1
_chemical_formula_structural   MnP4
_chemical_formula_sum   'Mn4 P16'
_cell_volume   292.26042568
_cell_formula_units_Z   4
loop_
 _symmetry_equiv_pos_site_id
 _symmetry_equiv_pos_as_xyz
  1  'x, y, z'
loop_
 _atom_site_type_symbol
 _atom_site_label
 _atom_site_symmetry_multiplicity
 _atom_site_fract_x
 _atom_site_fract_y
 _atom_site_fract_z
 _atom_site_occupancy
  Mn  Mn0  1  0.01545600  0.54416400  0.97593200  1
  Mn  Mn1  1  0.55962000  0.45583600  0.47593200  1
  Mn  Mn2  1  0.90609500  0.20037700  0.25388500  1
  Mn  Mn3  1  0.10647300  0.79962300  0.75388500  1
  P  P4  1  0.05601100  0.50612600  0.19441100  1
  P  P5  1  0.56213800  0.49387400  0.69441100  1
  P  P6  1  0.44878700  0.50708600  0.27490500  1
  P  P7  1  0.95587300  0.49291400  0.77490500  1
  P  P8  1  0.77298600  0.88949500  0.27589400  1
  P  P9  1  0.66248100  0.11050500  0.77589400  1
  P  P10  1  0.36830400  0.89967500  0.21137700  1
  P  P11  1  0.26797900  0.10032500  0.71137700  1
  P  P12  1  0.00944700  0.14426200  0.45107900  1
  P  P13  1  0.15370900  0.85573800  0.95107900  1
  P  P14  1  0.87283700  0.23123600  0.04173500  1
  P  P15  1  0.10407300  0.76876400  0.54173500  1
  P  P16  1  0.71209700  0.76003200  0.46572100  1
  P  P17  1  0.47212900  0.23996800  0.96572100  1
  P  P18  1  0.55873000  0.83624300  0.01664100  1
  P  P19  1  0.39497400  0.16375700  0.51664100  1
