# generated using pymatgen
data_Ho3Ga8Rh3
_symmetry_space_group_name_H-M   'P 1'
_cell_length_a   8.15055534
_cell_length_b   8.15055534
_cell_length_c   8.15055534
_cell_angle_alpha   150.16581047
_cell_angle_beta   105.17161710
_cell_angle_gamma   82.57779866
_symmetry_Int_Tables_number   1
_chemical_formula_structural   Ho3Ga8Rh3
_chemical_formula_sum   'Ho3 Ga8 Rh3'
_cell_volume   254.52502196
_cell_formula_units_Z   1
loop_
 _symmetry_equiv_pos_site_id
 _symmetry_equiv_pos_as_xyz
  1  'x, y, z'
loop_
 _atom_site_type_symbol
 _atom_site_label
 _atom_site_symmetry_multiplicity
 _atom_site_fract_x
 _atom_site_fract_y
 _atom_site_fract_z
 _atom_site_occupancy
  Ho  Ho0  1  0.50000000  0.50000000  0.00000000  1
  Ho  Ho1  1  0.17226200  0.17226200  0.00000000  1
  Ho  Ho2  1  0.82773800  0.82773800  0.00000000  1
  Ga  Ga3  1  0.66110200  0.37504000  0.28606200  1
  Ga  Ga4  1  0.33889800  0.62496000  0.71393800  1
  Ga  Ga5  1  0.08897800  0.37504000  0.71393800  1
  Ga  Ga6  1  0.91102200  0.62496000  0.28606200  1
  Ga  Ga7  1  0.53654600  0.16491000  0.37163600  1
  Ga  Ga8  1  0.46345400  0.83509000  0.62836400  1
  Ga  Ga9  1  0.79327400  0.16491000  0.62836400  1
  Ga  Ga10  1  0.20672600  0.83509000  0.37163600  1
  Rh  Rh11  1  0.00000000  0.50000000  0.50000000  1
  Rh  Rh12  1  0.21469000  0.00000000  0.21469000  1
  Rh  Rh13  1  0.78531000  0.00000000  0.78531000  1
