# generated using pymatgen
data_Mo(Br2N)2
_symmetry_space_group_name_H-M   'P 1'
_cell_length_a   8.69423697
_cell_length_b   8.69423697
_cell_length_c   8.69423697
_cell_angle_alpha   104.27546376
_cell_angle_beta   104.27546376
_cell_angle_gamma   120.45303757
_symmetry_Int_Tables_number   1
_chemical_formula_structural   Mo(Br2N)2
_chemical_formula_sum   'Mo2 Br8 N4'
_cell_volume   491.74698668
_cell_formula_units_Z   2
loop_
 _symmetry_equiv_pos_site_id
 _symmetry_equiv_pos_as_xyz
  1  'x, y, z'
loop_
 _atom_site_type_symbol
 _atom_site_label
 _atom_site_symmetry_multiplicity
 _atom_site_fract_x
 _atom_site_fract_y
 _atom_site_fract_z
 _atom_site_occupancy
  Mo  Mo0  1  0.85066200  0.85066200  0.00000000  1
  Mo  Mo1  1  0.14933800  0.14933800  0.00000000  1
  Br  Br2  1  0.78758100  0.01235000  0.22476800  1
  Br  Br3  1  0.78758100  0.56281300  0.77523200  1
  Br  Br4  1  0.56281300  0.78758100  0.77523200  1
  Br  Br5  1  0.01235000  0.78758100  0.22476800  1
  Br  Br6  1  0.21241900  0.98765000  0.77523200  1
  Br  Br7  1  0.21241900  0.43718700  0.22476800  1
  Br  Br8  1  0.43718700  0.21241900  0.22476800  1
  Br  Br9  1  0.98765000  0.21241900  0.77523200  1
  N  N10  1  0.27057300  0.27057300  0.54114700  1
  N  N11  1  0.72942700  0.72942700  0.45885300  1
  N  N12  1  0.72942700  0.27057300  0.00000000  1
  N  N13  1  0.27057300  0.72942700  0.00000000  1
