# generated using pymatgen
data_Eu3As4
_symmetry_space_group_name_H-M   'P 1'
_cell_length_a   11.44118687
_cell_length_b   9.22616407
_cell_length_c   7.92801408
_cell_angle_alpha   83.29725743
_cell_angle_beta   53.21493849
_cell_angle_gamma   43.48780409
_symmetry_Int_Tables_number   1
_chemical_formula_structural   Eu3As4
_chemical_formula_sum   'Eu6 As8'
_cell_volume   376.90102374
_cell_formula_units_Z   2
loop_
 _symmetry_equiv_pos_site_id
 _symmetry_equiv_pos_as_xyz
  1  'x, y, z'
loop_
 _atom_site_type_symbol
 _atom_site_label
 _atom_site_symmetry_multiplicity
 _atom_site_fract_x
 _atom_site_fract_y
 _atom_site_fract_z
 _atom_site_occupancy
  Eu  Eu0  1  0.24769100  0.25230900  0.25230900  1
  Eu  Eu1  1  0.99769100  0.00230900  0.00230900  1
  Eu  Eu2  1  0.61318000  0.55370400  0.89130000  1
  Eu  Eu3  1  0.94181500  0.89130000  0.55370400  1
  Eu  Eu4  1  0.35870000  0.30818500  0.63682000  1
  Eu  Eu5  1  0.69629600  0.63682000  0.30818500  1
  As  As6  1  0.02809000  0.13622900  0.30550800  1
  As  As7  1  0.53017300  0.30550800  0.13622900  1
  As  As8  1  0.94449200  0.71982700  0.22191000  1
  As  As9  1  0.11377100  0.22191000  0.71982700  1
  As  As10  1  0.83714700  0.67183300  0.84111600  1
  As  As11  1  0.64990400  0.84111600  0.67183300  1
  As  As12  1  0.40888400  0.60009600  0.41285300  1
  As  As13  1  0.57816700  0.41285300  0.60009600  1
