# generated using pymatgen
data_La4(CoB2)3
_symmetry_space_group_name_H-M   'P 1'
_cell_length_a   5.34710400
_cell_length_b   5.35066558
_cell_length_c   8.28335245
_cell_angle_alpha   71.30313731
_cell_angle_beta   71.16995421
_cell_angle_gamma   60.02201651
_symmetry_Int_Tables_number   1
_chemical_formula_structural   La4(CoB2)3
_chemical_formula_sum   'La4 Co3 B6'
_cell_volume   190.59678805
_cell_formula_units_Z   1
loop_
 _symmetry_equiv_pos_site_id
 _symmetry_equiv_pos_as_xyz
  1  'x, y, z'
loop_
 _atom_site_type_symbol
 _atom_site_label
 _atom_site_symmetry_multiplicity
 _atom_site_fract_x
 _atom_site_fract_y
 _atom_site_fract_z
 _atom_site_occupancy
  La  La0  1  0.25870400  0.25541500  0.22717800  1
  La  La1  1  0.74129600  0.74458500  0.77282200  1
  La  La2  1  0.40874800  0.40952000  0.77298400  1
  La  La3  1  0.59125200  0.59048000  0.22701600  1
  Co  Co4  1  0.00000000  0.00000000  0.00000000  1
  Co  Co5  1  0.11540200  0.11698800  0.65220700  1
  Co  Co6  1  0.88459800  0.88301200  0.34779300  1
  B  B7  1  0.83238300  0.50000000  0.50000000  1
  B  B8  1  0.50009800  0.16755700  0.50008600  1
  B  B9  1  0.16774100  0.83244300  0.49991400  1
  B  B10  1  0.49990200  0.83244300  0.49991400  1
  B  B11  1  0.83225900  0.16755700  0.50008600  1
  B  B12  1  0.16761700  0.50000000  0.50000000  1
