# generated using pymatgen
data_Nd(Mo3Se4)2
_symmetry_space_group_name_H-M   'P 1'
_cell_length_a   6.81665834
_cell_length_b   6.81665834
_cell_length_c   6.81665845
_cell_angle_alpha   88.97763487
_cell_angle_beta   88.97763487
_cell_angle_gamma   88.97763573
_symmetry_Int_Tables_number   1
_chemical_formula_structural   Nd(Mo3Se4)2
_chemical_formula_sum   'Nd1 Mo6 Se8'
_cell_volume   316.59901885
_cell_formula_units_Z   1
loop_
 _symmetry_equiv_pos_site_id
 _symmetry_equiv_pos_as_xyz
  1  'x, y, z'
loop_
 _atom_site_type_symbol
 _atom_site_label
 _atom_site_symmetry_multiplicity
 _atom_site_fract_x
 _atom_site_fract_y
 _atom_site_fract_z
 _atom_site_occupancy
  Nd  Nd0  1  0.00000000  0.00000000  0.00000000  1
  Mo  Mo1  1  0.76454800  0.57687300  0.43999600  1
  Mo  Mo2  1  0.43999600  0.76454800  0.57687300  1
  Mo  Mo3  1  0.57687300  0.43999600  0.76454800  1
  Mo  Mo4  1  0.23545200  0.42312700  0.56000400  1
  Mo  Mo5  1  0.56000400  0.23545200  0.42312700  1
  Mo  Mo6  1  0.42312700  0.56000400  0.23545200  1
  Se  Se7  1  0.75990200  0.75990200  0.75990200  1
  Se  Se8  1  0.24009800  0.24009800  0.24009800  1
  Se  Se9  1  0.24520800  0.62551900  0.87703500  1
  Se  Se10  1  0.87703500  0.24520800  0.62551900  1
  Se  Se11  1  0.62551900  0.87703500  0.24520800  1
  Se  Se12  1  0.75479200  0.37448100  0.12296500  1
  Se  Se13  1  0.12296500  0.75479200  0.37448100  1
  Se  Se14  1  0.37448100  0.12296500  0.75479200  1
