# generated using pymatgen
data_MoPO5
_symmetry_space_group_name_H-M   'P 1'
_cell_length_a   5.30272317
_cell_length_b   5.30272317
_cell_length_c   7.46640202
_cell_angle_alpha   70.18946017
_cell_angle_beta   70.18946017
_cell_angle_gamma   89.30726782
_symmetry_Int_Tables_number   1
_chemical_formula_structural   MoPO5
_chemical_formula_sum   'Mo2 P2 O10'
_cell_volume   184.57535330
_cell_formula_units_Z   2
loop_
 _symmetry_equiv_pos_site_id
 _symmetry_equiv_pos_as_xyz
  1  'x, y, z'
loop_
 _atom_site_type_symbol
 _atom_site_label
 _atom_site_symmetry_multiplicity
 _atom_site_fract_x
 _atom_site_fract_y
 _atom_site_fract_z
 _atom_site_occupancy
  Mo  Mo0  1  0.75916100  0.23280000  0.00464400  1
  Mo  Mo1  1  0.23280000  0.75916100  0.50464400  1
  P  P2  1  0.40404600  0.15630700  0.72141400  1
  P  P3  1  0.15630700  0.40404600  0.22141400  1
  O  O4  1  0.60144500  0.95348100  0.22673500  1
  O  O5  1  0.95348100  0.60144500  0.72673500  1
  O  O6  1  0.12321400  0.11293100  0.89033900  1
  O  O7  1  0.11293100  0.12321400  0.39033900  1
  O  O8  1  0.42994300  0.93151300  0.63018000  1
  O  O9  1  0.93151300  0.42994300  0.13018000  1
  O  O10  1  0.63111300  0.12920000  0.80993400  1
  O  O11  1  0.12920000  0.63111300  0.30993400  1
  O  O12  1  0.44338900  0.43785700  0.55442400  1
  O  O13  1  0.43785700  0.44338900  0.05442400  1
