# generated using pymatgen
data_NaZn2(MoO5)2
_symmetry_space_group_name_H-M   'P 1'
_cell_length_a   5.69195851
_cell_length_b   5.69195851
_cell_length_c   7.79522739
_cell_angle_alpha   68.58244172
_cell_angle_beta   68.58244172
_cell_angle_gamma   69.07521280
_symmetry_Int_Tables_number   1
_chemical_formula_structural   NaZn2(MoO5)2
_chemical_formula_sum   'Na1 Zn2 Mo2 O10'
_cell_volume   211.45291820
_cell_formula_units_Z   1
loop_
 _symmetry_equiv_pos_site_id
 _symmetry_equiv_pos_as_xyz
  1  'x, y, z'
loop_
 _atom_site_type_symbol
 _atom_site_label
 _atom_site_symmetry_multiplicity
 _atom_site_fract_x
 _atom_site_fract_y
 _atom_site_fract_z
 _atom_site_occupancy
  Na  Na0  1  0.50000000  0.50000000  0.50000000  1
  Zn  Zn1  1  0.00000000  0.50000000  0.00000000  1
  Zn  Zn2  1  0.50000000  0.00000000  0.00000000  1
  Mo  Mo3  1  0.07656200  0.07656200  0.71726900  1
  Mo  Mo4  1  0.92343800  0.92343800  0.28273100  1
  O  O5  1  0.23283700  0.23283700  0.48785900  1
  O  O6  1  0.76716300  0.76716300  0.51214100  1
  O  O7  1  0.18219200  0.72876100  0.74174100  1
  O  O8  1  0.72876100  0.18219200  0.74174100  1
  O  O9  1  0.81780800  0.27123900  0.25825900  1
  O  O10  1  0.27123900  0.81780800  0.25825900  1
  O  O11  1  0.16675900  0.16675900  0.88769500  1
  O  O12  1  0.83324100  0.83324100  0.11230500  1
  O  O13  1  0.63575200  0.63575200  0.94713100  1
  O  O14  1  0.36424800  0.36424800  0.05286900  1
