# generated using pymatgen
data_BaYbFe4O7
_symmetry_space_group_name_H-M   'P 1'
_cell_length_a   6.39999223
_cell_length_b   6.39999223
_cell_length_c   6.35111475
_cell_angle_alpha   61.73457222
_cell_angle_beta   61.73457222
_cell_angle_gamma   92.97341104
_symmetry_Int_Tables_number   1
_chemical_formula_structural   BaYbFe4O7
_chemical_formula_sum   'Ba1 Yb1 Fe4 O7'
_cell_volume   188.58549083
_cell_formula_units_Z   1
loop_
 _symmetry_equiv_pos_site_id
 _symmetry_equiv_pos_as_xyz
  1  'x, y, z'
loop_
 _atom_site_type_symbol
 _atom_site_label
 _atom_site_symmetry_multiplicity
 _atom_site_fract_x
 _atom_site_fract_y
 _atom_site_fract_z
 _atom_site_occupancy
  Ba  Ba0  1  0.74900600  0.25099400  0.50000000  1
  Yb  Yb1  1  0.99432800  0.00567200  0.00000000  1
  Fe  Fe2  1  0.38206200  0.14717800  0.21492600  1
  Fe  Fe3  1  0.85282200  0.61793800  0.78507400  1
  Fe  Fe4  1  0.35371100  0.60016600  0.27167500  1
  Fe  Fe5  1  0.39983400  0.64628900  0.72832500  1
  O  O6  1  0.75543100  0.81869200  0.50368500  1
  O  O7  1  0.18130800  0.24456900  0.49631500  1
  O  O8  1  0.31456500  0.29253100  0.90914200  1
  O  O9  1  0.70746900  0.68543500  0.09085800  1
  O  O10  1  0.25790300  0.74209700  0.00000000  1
  O  O11  1  0.75165600  0.24834400  0.00000000  1
  O  O12  1  0.25390300  0.74609700  0.50000000  1
