# generated using pymatgen
data_ZnHIO4
_symmetry_space_group_name_H-M   'P 1'
_cell_length_a   5.49062097
_cell_length_b   6.49405905
_cell_length_c   6.42136798
_cell_angle_alpha   92.57055306
_cell_angle_beta   96.09010060
_cell_angle_gamma   64.99218738
_symmetry_Int_Tables_number   1
_chemical_formula_structural   ZnHIO4
_chemical_formula_sum   'Zn2 H2 I2 O8'
_cell_volume   206.32667214
_cell_formula_units_Z   2
loop_
 _symmetry_equiv_pos_site_id
 _symmetry_equiv_pos_as_xyz
  1  'x, y, z'
loop_
 _atom_site_type_symbol
 _atom_site_label
 _atom_site_symmetry_multiplicity
 _atom_site_fract_x
 _atom_site_fract_y
 _atom_site_fract_z
 _atom_site_occupancy
  Zn  Zn0  1  0.54881900  0.91586800  0.36426400  1
  Zn  Zn1  1  0.46468800  0.08413200  0.86426400  1
  H  H2  1  0.74962600  0.12068700  0.60603400  1
  H  H3  1  0.87031400  0.87931300  0.10603400  1
  I  I4  1  0.93739600  0.36847600  0.13465300  1
  I  I5  1  0.30587200  0.63152400  0.63465300  1
  O  O6  1  0.14452300  0.07709700  0.23102000  1
  O  O7  1  0.22162000  0.92290300  0.73102000  1
  O  O8  1  0.65326100  0.33110100  0.99866800  1
  O  O9  1  0.98436200  0.66889900  0.49866800  1
  O  O10  1  0.12676400  0.36731000  0.91268100  1
  O  O11  1  0.49407400  0.63269000  0.41268100  1
  O  O12  1  0.56394500  0.13639000  0.58468000  1
  O  O13  1  0.70033500  0.86361000  0.08468000  1
