# generated using pymatgen
data_Ti4Pb2O9F2
_symmetry_space_group_name_H-M   'P 1'
_cell_length_a   7.75378275
_cell_length_b   7.75378275
_cell_length_c   10.49604003
_cell_angle_alpha   48.14317467
_cell_angle_beta   48.14317467
_cell_angle_gamma   28.69995801
_symmetry_Int_Tables_number   1
_chemical_formula_structural   Ti4Pb2O9F2
_chemical_formula_sum   'Ti4 Pb2 O9 F2'
_cell_volume   219.69831051
_cell_formula_units_Z   1
loop_
 _symmetry_equiv_pos_site_id
 _symmetry_equiv_pos_as_xyz
  1  'x, y, z'
loop_
 _atom_site_type_symbol
 _atom_site_label
 _atom_site_symmetry_multiplicity
 _atom_site_fract_x
 _atom_site_fract_y
 _atom_site_fract_z
 _atom_site_occupancy
  Ti  Ti0  1  0.65803900  0.65803900  0.77319000  1
  Ti  Ti1  1  0.34196100  0.34196100  0.22681000  1
  Ti  Ti2  1  0.62141500  0.62141500  0.45304500  1
  Ti  Ti3  1  0.37858500  0.37858500  0.54695500  1
  Pb  Pb4  1  0.08469800  0.08469800  0.16371600  1
  Pb  Pb5  1  0.91530200  0.91530200  0.83628400  1
  O  O6  1  0.19813000  0.19813000  0.75485000  1
  O  O7  1  0.80187000  0.80187000  0.24515000  1
  O  O8  1  0.85170300  0.85170300  0.56797800  1
  O  O9  1  0.14829700  0.14829700  0.43202200  1
  O  O10  1  0.50000000  0.50000000  0.00000000  1
  O  O11  1  0.43724400  0.43724400  0.66162300  1
  O  O12  1  0.56275600  0.56275600  0.33837700  1
  O  O13  1  0.61546500  0.61546500  0.65207900  1
  O  O14  1  0.38453500  0.38453500  0.34792100  1
  F  F15  1  0.71231700  0.71231700  0.93818600  1
  F  F16  1  0.28768300  0.28768300  0.06181400  1
