# generated using pymatgen
data_Nd2SbO2
_symmetry_space_group_name_H-M   'P 1'
_cell_length_a   4.07182500
_cell_length_b   13.83946600
_cell_length_c   7.86886000
_cell_angle_alpha   90.00000000
_cell_angle_beta   90.00000000
_cell_angle_gamma   90.00000000
_symmetry_Int_Tables_number   1
_chemical_formula_structural   Nd2SbO2
_chemical_formula_sum   'Nd8 Sb4 O8'
_cell_volume   443.42508314
_cell_formula_units_Z   4
loop_
 _symmetry_equiv_pos_site_id
 _symmetry_equiv_pos_as_xyz
  1  'x, y, z'
loop_
 _atom_site_type_symbol
 _atom_site_label
 _atom_site_symmetry_multiplicity
 _atom_site_fract_x
 _atom_site_fract_y
 _atom_site_fract_z
 _atom_site_occupancy
  Nd  Nd0  1  0.00000000  0.33781200  0.87647600  1
  Nd  Nd1  1  0.00000000  0.66218800  0.87647600  1
  Nd  Nd2  1  0.50000000  0.16218800  0.12352400  1
  Nd  Nd3  1  0.50000000  0.83781200  0.12352400  1
  Nd  Nd4  1  0.00000000  0.33421700  0.37360600  1
  Nd  Nd5  1  0.00000000  0.66578300  0.37360600  1
  Nd  Nd6  1  0.50000000  0.16578300  0.62639400  1
  Nd  Nd7  1  0.50000000  0.83421700  0.62639400  1
  Sb  Sb8  1  0.00000000  0.00000000  0.84382600  1
  Sb  Sb9  1  0.50000000  0.50000000  0.15617400  1
  Sb  Sb10  1  0.00000000  0.00000000  0.40664600  1
  Sb  Sb11  1  0.50000000  0.50000000  0.59335400  1
  O  O12  1  0.00000000  0.25144600  0.62781500  1
  O  O13  1  0.00000000  0.74855400  0.62781500  1
  O  O14  1  0.50000000  0.24855400  0.37218500  1
  O  O15  1  0.50000000  0.75144600  0.37218500  1
  O  O16  1  0.00000000  0.24475600  0.12217600  1
  O  O17  1  0.00000000  0.75524400  0.12217600  1
  O  O18  1  0.50000000  0.25524400  0.87782400  1
  O  O19  1  0.50000000  0.74475600  0.87782400  1
