# generated using pymatgen
data_Tb5Ge3C
_symmetry_space_group_name_H-M   'P 1'
_cell_length_a   8.54581845
_cell_length_b   8.54581845
_cell_length_c   6.49644700
_cell_angle_alpha   90.00000000
_cell_angle_beta   90.00000000
_cell_angle_gamma   120.00000346
_symmetry_Int_Tables_number   1
_chemical_formula_structural   Tb5Ge3C
_chemical_formula_sum   'Tb10 Ge6 C2'
_cell_volume   410.87890108
_cell_formula_units_Z   2
loop_
 _symmetry_equiv_pos_site_id
 _symmetry_equiv_pos_as_xyz
  1  'x, y, z'
loop_
 _atom_site_type_symbol
 _atom_site_label
 _atom_site_symmetry_multiplicity
 _atom_site_fract_x
 _atom_site_fract_y
 _atom_site_fract_z
 _atom_site_occupancy
  Tb  Tb0  1  0.66666700  0.33333300  0.00000000  1
  Tb  Tb1  1  0.33333300  0.66666700  0.00000000  1
  Tb  Tb2  1  0.33333300  0.66666700  0.50000000  1
  Tb  Tb3  1  0.66666700  0.33333300  0.50000000  1
  Tb  Tb4  1  0.77754400  0.77754400  0.75000000  1
  Tb  Tb5  1  0.22245600  0.00000000  0.75000000  1
  Tb  Tb6  1  0.00000000  0.22245600  0.75000000  1
  Tb  Tb7  1  0.22245600  0.22245600  0.25000000  1
  Tb  Tb8  1  0.77754400  0.00000000  0.25000000  1
  Tb  Tb9  1  0.00000000  0.77754400  0.25000000  1
  Ge  Ge10  1  0.40827000  0.40827000  0.75000000  1
  Ge  Ge11  1  0.59173000  0.00000000  0.75000000  1
  Ge  Ge12  1  0.00000000  0.59173000  0.75000000  1
  Ge  Ge13  1  0.59173000  0.59173000  0.25000000  1
  Ge  Ge14  1  0.40827000  0.00000000  0.25000000  1
  Ge  Ge15  1  0.00000000  0.40827000  0.25000000  1
  C  C16  1  0.00000000  0.00000000  0.00000000  1
  C  C17  1  0.00000000  0.00000000  0.50000000  1
