# generated using pymatgen
data_CNClO
_symmetry_space_group_name_H-M   'P 1'
_cell_length_a   5.72275578
_cell_length_b   5.72275578
_cell_length_c   13.25611900
_cell_angle_alpha   90.00000000
_cell_angle_beta   90.00000000
_cell_angle_gamma   101.11219759
_symmetry_Int_Tables_number   1
_chemical_formula_structural   CNClO
_chemical_formula_sum   'C4 N4 Cl4 O4'
_cell_volume   425.99766832
_cell_formula_units_Z   4
loop_
 _symmetry_equiv_pos_site_id
 _symmetry_equiv_pos_as_xyz
  1  'x, y, z'
loop_
 _atom_site_type_symbol
 _atom_site_label
 _atom_site_symmetry_multiplicity
 _atom_site_fract_x
 _atom_site_fract_y
 _atom_site_fract_z
 _atom_site_occupancy
  C  C0  1  0.29672000  0.70328000  0.46900000  1
  C  C1  1  0.70328000  0.29672000  0.53100000  1
  C  C2  1  0.20328000  0.79672000  0.96900000  1
  C  C3  1  0.79672000  0.20328000  0.03100000  1
  N  N4  1  0.11487900  0.88512100  0.33861800  1
  N  N5  1  0.88512100  0.11487900  0.66138200  1
  N  N6  1  0.38512100  0.61487900  0.83861800  1
  N  N7  1  0.61487900  0.38512100  0.16138200  1
  Cl  Cl8  1  0.72041900  0.27958100  0.40246000  1
  Cl  Cl9  1  0.27958100  0.72041900  0.59754000  1
  Cl  Cl10  1  0.77958100  0.22041900  0.90246000  1
  Cl  Cl11  1  0.22041900  0.77958100  0.09754000  1
  O  O12  1  0.14700300  0.85299700  0.43361400  1
  O  O13  1  0.85299700  0.14700300  0.56638600  1
  O  O14  1  0.35299700  0.64700300  0.93361400  1
  O  O15  1  0.64700300  0.35299700  0.06638600  1
