# generated using pymatgen
data_Lu3Sn
_symmetry_space_group_name_H-M   'P 1'
_cell_length_a   6.70920528
_cell_length_b   6.70920528
_cell_length_c   5.45857800
_cell_angle_alpha   90.00000000
_cell_angle_beta   90.00000000
_cell_angle_gamma   119.99999287
_symmetry_Int_Tables_number   1
_chemical_formula_structural   Lu3Sn
_chemical_formula_sum   'Lu6 Sn2'
_cell_volume   212.79055297
_cell_formula_units_Z   2
loop_
 _symmetry_equiv_pos_site_id
 _symmetry_equiv_pos_as_xyz
  1  'x, y, z'
loop_
 _atom_site_type_symbol
 _atom_site_label
 _atom_site_symmetry_multiplicity
 _atom_site_fract_x
 _atom_site_fract_y
 _atom_site_fract_z
 _atom_site_occupancy
  Lu  Lu0  1  0.16921000  0.33842100  0.25000000  1
  Lu  Lu1  1  0.66157900  0.83079000  0.25000000  1
  Lu  Lu2  1  0.16921000  0.83079000  0.25000000  1
  Lu  Lu3  1  0.83079000  0.66157900  0.75000000  1
  Lu  Lu4  1  0.33842100  0.16921000  0.75000000  1
  Lu  Lu5  1  0.83079000  0.16921000  0.75000000  1
  Sn  Sn6  1  0.33333300  0.66666700  0.75000000  1
  Sn  Sn7  1  0.66666700  0.33333300  0.25000000  1
