# generated using pymatgen
data_Ba2DyInSe5
_symmetry_space_group_name_H-M   'P 1'
_cell_length_a   9.78962828
_cell_length_b   9.78962828
_cell_length_c   13.51910500
_cell_angle_alpha   90.00000000
_cell_angle_beta   90.00000000
_cell_angle_gamma   154.49720189
_symmetry_Int_Tables_number   1
_chemical_formula_structural   Ba2DyInSe5
_chemical_formula_sum   'Ba4 Dy2 In2 Se10'
_cell_volume   557.83936489
_cell_formula_units_Z   2
loop_
 _symmetry_equiv_pos_site_id
 _symmetry_equiv_pos_as_xyz
  1  'x, y, z'
loop_
 _atom_site_type_symbol
 _atom_site_label
 _atom_site_symmetry_multiplicity
 _atom_site_fract_x
 _atom_site_fract_y
 _atom_site_fract_z
 _atom_site_occupancy
  Ba  Ba0  1  0.13249100  0.86750900  0.81374200  1
  Ba  Ba1  1  0.86750900  0.13249100  0.31374200  1
  Ba  Ba2  1  0.11719400  0.88280600  0.18132200  1
  Ba  Ba3  1  0.88280600  0.11719400  0.68132200  1
  Dy  Dy4  1  0.21131500  0.78868500  0.51791900  1
  Dy  Dy5  1  0.78868500  0.21131500  0.01791900  1
  In  In6  1  0.44761300  0.55238700  0.93704500  1
  In  In7  1  0.55238700  0.44761300  0.43704500  1
  Se  Se8  1  0.35616500  0.64383500  0.50049400  1
  Se  Se9  1  0.64383500  0.35616500  0.00049400  1
  Se  Se10  1  0.29096100  0.70903900  0.15683600  1
  Se  Se11  1  0.70903900  0.29096100  0.65683600  1
  Se  Se12  1  0.31285500  0.68714500  0.86971800  1
  Se  Se13  1  0.68714500  0.31285500  0.36971800  1
  Se  Se14  1  0.50498000  0.49502000  0.76585700  1
  Se  Se15  1  0.49502000  0.50498000  0.26585700  1
  Se  Se16  1  0.05051900  0.94948100  0.55078700  1
  Se  Se17  1  0.94948100  0.05051900  0.05078700  1
