# generated using pymatgen
data_Li3CrF6
_symmetry_space_group_name_H-M   'P 1'
_cell_length_a   5.46166800
_cell_length_b   5.46166780
_cell_length_c   5.46166787
_cell_angle_alpha   59.99999613
_cell_angle_beta   59.99999922
_cell_angle_gamma   59.99999877
_symmetry_Int_Tables_number   1
_chemical_formula_structural   Li3CrF6
_chemical_formula_sum   'Li3 Cr1 F6'
_cell_volume   115.20221980
_cell_formula_units_Z   1
loop_
 _symmetry_equiv_pos_site_id
 _symmetry_equiv_pos_as_xyz
  1  'x, y, z'
loop_
 _atom_site_type_symbol
 _atom_site_label
 _atom_site_symmetry_multiplicity
 _atom_site_fract_x
 _atom_site_fract_y
 _atom_site_fract_z
 _atom_site_occupancy
  Li  Li0  1  0.25000000  0.25000000  0.25000000  1
  Li  Li1  1  0.75000000  0.75000000  0.75000000  1
  Li  Li2  1  0.50000000  0.50000000  0.50000000  1
  Cr  Cr3  1  0.00000000  0.00000000  0.00000000  1
  F  F4  1  0.24685000  0.75315000  0.24685000  1
  F  F5  1  0.75315000  0.75315000  0.24685000  1
  F  F6  1  0.75315000  0.24685000  0.75315000  1
  F  F7  1  0.75315000  0.24685000  0.24685000  1
  F  F8  1  0.24685000  0.75315000  0.75315000  1
  F  F9  1  0.24685000  0.24685000  0.75315000  1
