data_image0
_chemical_formula_structural       C3Cr2Lu2
_chemical_formula_sum              "C3 Cr2 Lu2"
_cell_length_a       3.28055
_cell_length_b       5.44925
_cell_length_c       5.46798
_cell_angle_alpha    106.024
_cell_angle_beta     107.456
_cell_angle_gamma    90

_space_group_name_H-M_alt    "P 1"
_space_group_IT_number       1

loop_
  _space_group_symop_operation_xyz
  'x, y, z'

loop_
  _atom_site_type_symbol
  _atom_site_label
  _atom_site_symmetry_multiplicity
  _atom_site_fract_x
  _atom_site_fract_y
  _atom_site_fract_z
  _atom_site_occupancy
  C   C1        1.0  0.00000  0.50000  0.00000  1.0000
  C   C2        1.0  0.72000  0.26200  0.44100  1.0000
  C   C3        1.0  0.28000  0.73800  0.55900  1.0000
  Cr  Cr1       1.0  0.15500  0.38400  0.30900  1.0000
  Cr  Cr2       1.0  0.84500  0.61600  0.69100  1.0000
  Lu  Lu1       1.0  0.60900  0.81600  0.21800  1.0000
  Lu  Lu2       1.0  0.39100  0.18400  0.78200  1.0000
