# generated using pymatgen
data_Rb2LiNiF6
_symmetry_space_group_name_H-M   'P 1'
_cell_length_a   5.84609300
_cell_length_b   5.84609321
_cell_length_c   5.84609339
_cell_angle_alpha   59.99999475
_cell_angle_beta   59.99999652
_cell_angle_gamma   59.99999551
_symmetry_Int_Tables_number   1
_chemical_formula_structural   Rb2LiNiF6
_chemical_formula_sum   'Rb2 Li1 Ni1 F6'
_cell_volume   141.28048017
_cell_formula_units_Z   1
loop_
 _symmetry_equiv_pos_site_id
 _symmetry_equiv_pos_as_xyz
  1  'x, y, z'
loop_
 _atom_site_type_symbol
 _atom_site_label
 _atom_site_symmetry_multiplicity
 _atom_site_fract_x
 _atom_site_fract_y
 _atom_site_fract_z
 _atom_site_occupancy
  Rb  Rb0  1  0.25000000  0.25000000  0.25000000  1
  Rb  Rb1  1  0.75000000  0.75000000  0.75000000  1
  Li  Li2  1  0.50000000  0.50000000  0.50000000  1
  Ni  Ni3  1  0.00000000  0.00000000  0.00000000  1
  F  F4  1  0.23286400  0.76713600  0.23286400  1
  F  F5  1  0.76713600  0.76713600  0.23286400  1
  F  F6  1  0.76713600  0.23286400  0.76713600  1
  F  F7  1  0.76713600  0.23286400  0.23286400  1
  F  F8  1  0.23286400  0.76713600  0.76713600  1
  F  F9  1  0.23286400  0.23286400  0.76713600  1
