# generated using pymatgen
data_SrCu2GeS4
_symmetry_space_group_name_H-M   'P 1'
_cell_length_a   6.09056293
_cell_length_b   6.09056293
_cell_length_c   6.09056293
_cell_angle_alpha   117.48994611
_cell_angle_beta   117.48994611
_cell_angle_gamma   94.40546228
_symmetry_Int_Tables_number   1
_chemical_formula_structural   SrCu2GeS4
_chemical_formula_sum   'Sr1 Cu2 Ge1 S4'
_cell_volume   165.28849261
_cell_formula_units_Z   1
loop_
 _symmetry_equiv_pos_site_id
 _symmetry_equiv_pos_as_xyz
  1  'x, y, z'
loop_
 _atom_site_type_symbol
 _atom_site_label
 _atom_site_symmetry_multiplicity
 _atom_site_fract_x
 _atom_site_fract_y
 _atom_site_fract_z
 _atom_site_occupancy
  Sr  Sr0  1  0.00000000  0.00000000  0.00000000  1
  Cu  Cu1  1  0.25000000  0.75000000  0.50000000  1
  Cu  Cu2  1  0.75000000  0.25000000  0.50000000  1
  Ge  Ge3  1  0.50000000  0.50000000  0.00000000  1
  S  S4  1  0.53756200  0.13764500  0.00000000  1
  S  S5  1  0.13764500  0.53756200  0.00000000  1
  S  S6  1  0.86235500  0.86235500  0.39991700  1
  S  S7  1  0.46243800  0.46243800  0.60008300  1
