# generated using pymatgen
data_Na2Fe4O7
_symmetry_space_group_name_H-M   'P 1'
_cell_length_a   5.24479600
_cell_length_b   5.24472208
_cell_length_c   6.72209301
_cell_angle_alpha   89.99459307
_cell_angle_beta   90.00270719
_cell_angle_gamma   119.99956426
_symmetry_Int_Tables_number   1
_chemical_formula_structural   Na2Fe4O7
_chemical_formula_sum   'Na2 Fe4 O7'
_cell_volume   160.13568968
_cell_formula_units_Z   1
loop_
 _symmetry_equiv_pos_site_id
 _symmetry_equiv_pos_as_xyz
  1  'x, y, z'
loop_
 _atom_site_type_symbol
 _atom_site_label
 _atom_site_symmetry_multiplicity
 _atom_site_fract_x
 _atom_site_fract_y
 _atom_site_fract_z
 _atom_site_occupancy
  Na  Na0  1  0.33333700  0.66664000  0.99997900  1
  Na  Na1  1  0.66666400  0.33330500  0.99997900  1
  Fe  Fe2  1  0.00000000  0.99998600  0.27278000  1
  Fe  Fe3  1  0.00000100  0.99999200  0.72723300  1
  Fe  Fe4  1  0.33333300  0.66665000  0.49999700  1
  Fe  Fe5  1  0.66666400  0.33331700  0.49999600  1
  O  O6  1  0.00000100  0.64004300  0.32569400  1
  O  O7  1  0.00000000  0.35993500  0.67431600  1
  O  O8  1  0.00000000  0.99998500  0.00000900  1
  O  O9  1  0.35994600  0.35989800  0.32567200  1
  O  O10  1  0.64005300  0.64007400  0.67433600  1
  O  O11  1  0.35994700  0.00002200  0.67433600  1
  O  O12  1  0.64005500  0.99995300  0.32567200  1
