# generated using pymatgen
data_CaBe3Co2(SiO4)3
_symmetry_space_group_name_H-M   'P 1'
_cell_length_a   7.54611300
_cell_length_b   8.10961200
_cell_length_c   16.19501275
_cell_angle_alpha   59.95974621
_cell_angle_beta   90.00000000
_cell_angle_gamma   90.00000000
_symmetry_Int_Tables_number   1
_chemical_formula_structural   CaBe3Co2(SiO4)3
_chemical_formula_sum   'Ca4 Be12 Co8 Si12 O48'
_cell_volume   857.94412209
_cell_formula_units_Z   4
loop_
 _symmetry_equiv_pos_site_id
 _symmetry_equiv_pos_as_xyz
  1  'x, y, z'
loop_
 _atom_site_type_symbol
 _atom_site_label
 _atom_site_symmetry_multiplicity
 _atom_site_fract_x
 _atom_site_fract_y
 _atom_site_fract_z
 _atom_site_occupancy
  Ca  Ca0  1  0.00248000  0.00055000  0.25185700  1
  Ca  Ca1  1  0.50248000  0.99945000  0.24814300  1
  Ca  Ca2  1  0.99752000  0.99945000  0.74814300  1
  Ca  Ca3  1  0.49752000  0.00055000  0.75185700  1
  Be  Be4  1  0.65840800  0.65347100  0.76640300  1
  Be  Be5  1  0.83778600  0.03101500  0.40834200  1
  Be  Be6  1  0.33778600  0.96898500  0.09165800  1
  Be  Be7  1  0.16221400  0.96898500  0.59165800  1
  Be  Be8  1  0.66221400  0.03101500  0.90834200  1
  Be  Be9  1  0.34149500  0.68497900  0.42201800  1
  Be  Be10  1  0.84149500  0.31502100  0.07798200  1
  Be  Be11  1  0.65850500  0.31502100  0.57798200  1
  Be  Be12  1  0.15850500  0.68497900  0.92201800  1
  Be  Be13  1  0.84159200  0.65347100  0.26640300  1
  Be  Be14  1  0.34159200  0.34652900  0.23359700  1
  Be  Be15  1  0.15840800  0.34652900  0.73359700  1
  Co  Co16  1  0.03750500  0.66095200  0.09105300  1
  Co  Co17  1  0.46249500  0.66095200  0.59105300  1
  Co  Co18  1  0.96249500  0.33904800  0.90894700  1
  Co  Co19  1  0.53750500  0.33904800  0.40894700  1
  Co  Co20  1  0.95465400  0.32910400  0.42682900  1
  Co  Co21  1  0.45465400  0.67089600  0.07317100  1
  Co  Co22  1  0.04534600  0.67089600  0.57317100  1
  Co  Co23  1  0.54534600  0.32910400  0.92682900  1
  Si  Si24  1  0.27119400  0.65224000  0.76686600  1
  Si  Si25  1  0.77119400  0.34776000  0.73313400  1
  Si  Si26  1  0.72880600  0.34776000  0.23313400  1
  Si  Si27  1  0.22880600  0.65224000  0.26686600  1
  Si  Si28  1  0.76675100  0.68507000  0.92584000  1
  Si  Si29  1  0.26675100  0.31493000  0.57416000  1
  Si  Si30  1  0.23324900  0.31493000  0.07416000  1
  Si  Si31  1  0.73324900  0.68507000  0.42584000  1
  Si  Si32  1  0.26484100  0.03934700  0.90716900  1
  Si  Si33  1  0.76484100  0.96065300  0.59283100  1
  Si  Si34  1  0.73515900  0.96065300  0.09283100  1
  Si  Si35  1  0.23515900  0.03934700  0.40716900  1
  O  O36  1  0.37564800  0.20441700  0.04259300  1
  O  O37  1  0.46476300  0.59982400  0.82009200  1
  O  O38  1  0.96476300  0.40017600  0.67990800  1
  O  O39  1  0.53523700  0.40017600  0.17990800  1
  O  O40  1  0.03523700  0.59982400  0.32009200  1
  O  O41  1  0.96453300  0.72777500  0.95350000  1
  O  O42  1  0.46453300  0.27222500  0.54650000  1
  O  O43  1  0.03546700  0.27222500  0.04650000  1
  O  O44  1  0.53546700  0.72777500  0.45350000  1
  O  O45  1  0.46481700  0.13422200  0.88536800  1
  O  O46  1  0.96481700  0.86577800  0.61463200  1
  O  O47  1  0.53518300  0.86577800  0.11463200  1
  O  O48  1  0.37509500  0.21779500  0.35026100  1
  O  O49  1  0.87509500  0.78220500  0.14973900  1
  O  O50  1  0.62490500  0.78220500  0.64973900  1
  O  O51  1  0.12490500  0.21779500  0.85026100  1
  O  O52  1  0.87564800  0.79558300  0.45740700  1
  O  O53  1  0.03518300  0.13422200  0.38536800  1
  O  O54  1  0.12435200  0.20441700  0.54259300  1
  O  O55  1  0.62435200  0.79558300  0.95740700  1
  O  O56  1  0.73187900  0.09491800  0.47617600  1
  O  O57  1  0.87722300  0.41360300  0.14640100  1
  O  O58  1  0.62277700  0.41360300  0.64640100  1
  O  O59  1  0.12277700  0.58639700  0.85359900  1
  O  O60  1  0.75793600  0.11953500  0.80471500  1
  O  O61  1  0.25793600  0.88046500  0.69528500  1
  O  O62  1  0.24206400  0.88046500  0.19528500  1
  O  O63  1  0.74206400  0.11953500  0.30471500  1
  O  O64  1  0.75692000  0.77117800  0.80997600  1
  O  O65  1  0.25692000  0.22882200  0.69002400  1
  O  O66  1  0.24308000  0.22882200  0.19002400  1
  O  O67  1  0.74308000  0.77117800  0.30997600  1
  O  O68  1  0.25130900  0.89445000  0.86371700  1
  O  O69  1  0.75130900  0.10555000  0.63628300  1
  O  O70  1  0.74869100  0.10555000  0.13628300  1
  O  O71  1  0.24869100  0.89445000  0.36371700  1
  O  O72  1  0.75282700  0.44917400  0.80030500  1
  O  O73  1  0.25282700  0.55082600  0.69969500  1
  O  O74  1  0.24717300  0.55082600  0.19969500  1
  O  O75  1  0.74717300  0.44917400  0.30030500  1
  O  O76  1  0.73240900  0.45309900  0.97851200  1
  O  O77  1  0.23240900  0.54690100  0.52148800  1
  O  O78  1  0.26759100  0.54690100  0.02148800  1
  O  O79  1  0.76759100  0.45309900  0.47851200  1
  O  O80  1  0.76812100  0.09491800  0.97617600  1
  O  O81  1  0.26812100  0.90508200  0.52382400  1
  O  O82  1  0.23187900  0.90508200  0.02382400  1
  O  O83  1  0.37722300  0.58639700  0.35359900  1
