# generated using pymatgen
data_ZnFe(SiO3)2
_symmetry_space_group_name_H-M   'P 1'
_cell_length_a   5.31041300
_cell_length_b   9.16196600
_cell_length_c   18.61301900
_cell_angle_alpha   90.00000000
_cell_angle_beta   90.00000000
_cell_angle_gamma   90.00000000
_symmetry_Int_Tables_number   1
_chemical_formula_structural   ZnFe(SiO3)2
_chemical_formula_sum   'Zn8 Fe8 Si16 O48'
_cell_volume   905.59453847
_cell_formula_units_Z   8
loop_
 _symmetry_equiv_pos_site_id
 _symmetry_equiv_pos_as_xyz
  1  'x, y, z'
loop_
 _atom_site_type_symbol
 _atom_site_label
 _atom_site_symmetry_multiplicity
 _atom_site_fract_x
 _atom_site_fract_y
 _atom_site_fract_z
 _atom_site_occupancy
  Zn  Zn0  1  0.61711500  0.15144500  0.37545400  1
  Zn  Zn1  1  0.38288500  0.84855500  0.62454600  1
  Zn  Zn2  1  0.61711500  0.65144500  0.12454600  1
  Zn  Zn3  1  0.11711500  0.84855500  0.12454600  1
  Zn  Zn4  1  0.88288500  0.15144500  0.87545400  1
  Zn  Zn5  1  0.38288500  0.34855500  0.87545400  1
  Zn  Zn6  1  0.11711500  0.34855500  0.37545400  1
  Zn  Zn7  1  0.88288500  0.65144500  0.62454600  1
  Fe  Fe8  1  0.37728400  0.98840600  0.87693500  1
  Fe  Fe9  1  0.62271600  0.01159400  0.12306500  1
  Fe  Fe10  1  0.87728400  0.01159400  0.62306500  1
  Fe  Fe11  1  0.12271600  0.98840600  0.37693500  1
  Fe  Fe12  1  0.37728400  0.48840600  0.62306500  1
  Fe  Fe13  1  0.62271600  0.51159400  0.37693500  1
  Fe  Fe14  1  0.87728400  0.51159400  0.87693500  1
  Fe  Fe15  1  0.12271600  0.48840600  0.12306500  1
  Si  Si16  1  0.56397200  0.66129800  0.77198000  1
  Si  Si17  1  0.71073000  0.83498000  0.47444600  1
  Si  Si18  1  0.78927000  0.83498000  0.97444600  1
  Si  Si19  1  0.93602800  0.16129800  0.22802000  1
  Si  Si20  1  0.06397200  0.33870200  0.72802000  1
  Si  Si21  1  0.43602800  0.83870200  0.27198000  1
  Si  Si22  1  0.21073000  0.66502000  0.47444600  1
  Si  Si23  1  0.71073000  0.33498000  0.02555400  1
  Si  Si24  1  0.78927000  0.33498000  0.52555400  1
  Si  Si25  1  0.93602800  0.66129800  0.27198000  1
  Si  Si26  1  0.43602800  0.33870200  0.22802000  1
  Si  Si27  1  0.56397200  0.16129800  0.72802000  1
  Si  Si28  1  0.28927000  0.16502000  0.52555400  1
  Si  Si29  1  0.06397200  0.83870200  0.77198000  1
  Si  Si30  1  0.28927000  0.66502000  0.97444600  1
  Si  Si31  1  0.21073000  0.16502000  0.02555400  1
  O  O32  1  0.93053700  0.50353900  0.31123400  1
  O  O33  1  0.30061900  0.01732900  0.06589100  1
  O  O34  1  0.06946300  0.49646100  0.68876600  1
  O  O35  1  0.71082800  0.33776900  0.93738300  1
  O  O36  1  0.21082800  0.16223100  0.93738300  1
  O  O37  1  0.91755700  0.20652100  0.05156400  1
  O  O38  1  0.94483700  0.66191200  0.18414700  1
  O  O39  1  0.05516300  0.83808800  0.68414700  1
  O  O40  1  0.71082800  0.83776900  0.56261700  1
  O  O41  1  0.94483700  0.16191200  0.31585300  1
  O  O42  1  0.43053700  0.49646100  0.18876600  1
  O  O43  1  0.78917200  0.33776900  0.43738300  1
  O  O44  1  0.69938100  0.98267100  0.93410900  1
  O  O45  1  0.44483700  0.83808800  0.18414700  1
  O  O46  1  0.56946300  0.00353900  0.68876600  1
  O  O47  1  0.30061900  0.51732900  0.43410900  1
  O  O48  1  0.43053700  0.99646100  0.31123400  1
  O  O49  1  0.16728400  0.76603700  0.30197700  1
  O  O50  1  0.33271600  0.76603700  0.80197700  1
  O  O51  1  0.58244300  0.70652100  0.94843600  1
  O  O52  1  0.78917200  0.83776900  0.06261700  1
  O  O53  1  0.55516300  0.66191200  0.68414700  1
  O  O54  1  0.80061900  0.48267100  0.06589100  1
  O  O55  1  0.16728400  0.26603700  0.19802300  1
  O  O56  1  0.28917200  0.16223100  0.43738300  1
  O  O57  1  0.55516300  0.16191200  0.81585300  1
  O  O58  1  0.69938100  0.48267100  0.56589100  1
  O  O59  1  0.21082800  0.66223100  0.56261700  1
  O  O60  1  0.19938100  0.51732900  0.93410900  1
  O  O61  1  0.66728400  0.73396300  0.30197700  1
  O  O62  1  0.06946300  0.99646100  0.81123400  1
  O  O63  1  0.83271600  0.73396300  0.80197700  1
  O  O64  1  0.83271600  0.23396300  0.69802300  1
  O  O65  1  0.80061900  0.98267100  0.43410900  1
  O  O66  1  0.28917200  0.66223100  0.06261700  1
  O  O67  1  0.19938100  0.01732900  0.56589100  1
  O  O68  1  0.33271600  0.26603700  0.69802300  1
  O  O69  1  0.08244300  0.79347900  0.94843600  1
  O  O70  1  0.41755700  0.79347900  0.44843600  1
  O  O71  1  0.66728400  0.23396300  0.19802300  1
  O  O72  1  0.41755700  0.29347900  0.05156400  1
  O  O73  1  0.58244300  0.20652100  0.55156400  1
  O  O74  1  0.08244300  0.29347900  0.55156400  1
  O  O75  1  0.44483700  0.33808800  0.31585300  1
  O  O76  1  0.56946300  0.50353900  0.81123400  1
  O  O77  1  0.91755700  0.70652100  0.44843600  1
  O  O78  1  0.05516300  0.33808800  0.81585300  1
  O  O79  1  0.93053700  0.00353900  0.18876600  1
