data_image0
_chemical_formula_structural       Ce5Mg41
_chemical_formula_sum              "Ce5 Mg41"
_cell_length_a       10.4251
_cell_length_b       11.6661
_cell_length_c       11.6661
_cell_angle_alpha    101.516
_cell_angle_beta     63.4606
_cell_angle_gamma    116.539

_space_group_name_H-M_alt    "P 1"
_space_group_IT_number       1

loop_
  _space_group_symop_operation_xyz
  'x, y, z'

loop_
  _atom_site_type_symbol
  _atom_site_label
  _atom_site_symmetry_multiplicity
  _atom_site_fract_x
  _atom_site_fract_y
  _atom_site_fract_z
  _atom_site_occupancy
  Ce  Ce1       1.0  0.00000  0.00000  0.00000  1.0000
  Ce  Ce2       1.0  0.23700  0.66600  0.19200  1.0000
  Ce  Ce3       1.0  0.42900  0.19200  0.33400  1.0000
  Ce  Ce4       1.0  0.57100  0.80800  0.66600  1.0000
  Ce  Ce5       1.0  0.76300  0.33400  0.80800  1.0000
  Mg  Mg1       1.0  0.50000  0.00000  0.00000  1.0000
  Mg  Mg2       1.0  0.00000  0.50000  0.00000  1.0000
  Mg  Mg3       1.0  0.50000  0.50000  0.00000  1.0000
  Mg  Mg4       1.0  0.38500  0.21200  0.05920  1.0000
  Mg  Mg5       1.0  0.76800  0.21200  0.05920  1.0000
  Mg  Mg6       1.0  0.12200  0.34200  0.09840  1.0000
  Mg  Mg7       1.0  0.66000  0.44400  0.12400  1.0000
  Mg  Mg8       1.0  0.62600  0.71200  0.16600  1.0000
  Mg  Mg9       1.0  0.91900  0.71200  0.16600  1.0000
  Mg  Mg10      1.0  0.17300  0.94100  0.21200  1.0000
  Mg  Mg11      1.0  0.55600  0.94100  0.21200  1.0000
  Mg  Mg12      1.0  0.08540  0.16600  0.28800  1.0000
  Mg  Mg13      1.0  0.79300  0.16600  0.28800  1.0000
  Mg  Mg14      1.0  0.33400  0.44400  0.29100  1.0000
  Mg  Mg15      1.0  0.81900  0.44400  0.29100  1.0000
  Mg  Mg16      1.0  0.78000  0.90200  0.34200  1.0000
  Mg  Mg17      1.0  0.59700  0.58700  0.39300  1.0000
  Mg  Mg18      1.0  0.99000  0.39300  0.41300  1.0000
  Mg  Mg19      1.0  0.21600  0.87600  0.44400  1.0000
  Mg  Mg20      1.0  0.37500  0.70900  0.44400  1.0000
  Mg  Mg21      1.0  0.89000  0.70900  0.44400  1.0000
  Mg  Mg22      1.0  0.00000  0.00000  0.50000  1.0000
  Mg  Mg23      1.0  0.50000  0.00000  0.50000  1.0000
  Mg  Mg24      1.0  0.11000  0.29100  0.55600  1.0000
  Mg  Mg25      1.0  0.62500  0.29100  0.55600  1.0000
  Mg  Mg26      1.0  0.78400  0.12400  0.55600  1.0000
  Mg  Mg27      1.0  0.01040  0.60700  0.58700  1.0000
  Mg  Mg28      1.0  0.40300  0.41300  0.60700  1.0000
  Mg  Mg29      1.0  0.22000  0.09840  0.65800  1.0000
  Mg  Mg30      1.0  0.18100  0.55600  0.70900  1.0000
  Mg  Mg31      1.0  0.66600  0.55600  0.70900  1.0000
  Mg  Mg32      1.0  0.20700  0.83400  0.71200  1.0000
  Mg  Mg33      1.0  0.91500  0.83400  0.71200  1.0000
  Mg  Mg34      1.0  0.44400  0.05920  0.78800  1.0000
  Mg  Mg35      1.0  0.82700  0.05920  0.78800  1.0000
  Mg  Mg36      1.0  0.08090  0.28800  0.83400  1.0000
  Mg  Mg37      1.0  0.37400  0.28800  0.83400  1.0000
  Mg  Mg38      1.0  0.34000  0.55600  0.87600  1.0000
  Mg  Mg39      1.0  0.87800  0.65800  0.90200  1.0000
  Mg  Mg40      1.0  0.23200  0.78800  0.94100  1.0000
  Mg  Mg41      1.0  0.61500  0.78800  0.94100  1.0000
