# generated using pymatgen
data_NaTi3F10
_symmetry_space_group_name_H-M   'P 1'
_cell_length_a   7.69641505
_cell_length_b   7.71131214
_cell_length_c   8.87327644
_cell_angle_alpha   77.50094422
_cell_angle_beta   64.29835248
_cell_angle_gamma   60.06389795
_symmetry_Int_Tables_number   1
_chemical_formula_structural   NaTi3F10
_chemical_formula_sum   'Na2 Ti6 F20'
_cell_volume   411.21276192
_cell_formula_units_Z   2
loop_
 _symmetry_equiv_pos_site_id
 _symmetry_equiv_pos_as_xyz
  1  'x, y, z'
loop_
 _atom_site_type_symbol
 _atom_site_label
 _atom_site_symmetry_multiplicity
 _atom_site_fract_x
 _atom_site_fract_y
 _atom_site_fract_z
 _atom_site_occupancy
  Na  Na0  1  0.98594000  0.00000000  0.00000000  1
  Na  Na1  1  0.73594000  0.50000000  0.50000000  1
  Ti  Ti2  1  0.50459900  0.00000000  0.00000000  1
  Ti  Ti3  1  0.25459900  0.50000000  0.50000000  1
  Ti  Ti4  1  0.75701000  0.00050500  0.50080500  1
  Ti  Ti5  1  0.25832000  0.99949500  0.49919500  1
  Ti  Ti6  1  0.50751400  0.49949500  0.00080500  1
  Ti  Ti7  1  0.00781500  0.50050500  0.99919500  1
  F  F8  1  0.87824400  0.00602300  0.26791600  1
  F  F9  1  0.15218200  0.99397700  0.73208400  1
  F  F10  1  0.63426700  0.49397700  0.76791600  1
  F  F11  1  0.89616000  0.50602300  0.23208400  1
  F  F12  1  0.79917900  0.41053300  0.00714000  1
  F  F13  1  0.21685100  0.58946700  0.99286000  1
  F  F14  1  0.95971100  0.08946700  0.50714000  1
  F  F15  1  0.55632000  0.91053300  0.49286000  1
  F  F16  1  0.34141600  0.70669100  0.49610800  1
  F  F17  1  0.54421500  0.29330900  0.50389200  1
  F  F18  1  0.79810600  0.79330900  0.99610800  1
  F  F19  1  0.58752400  0.20669100  0.00389200  1
  F  F20  1  0.37762100  0.00006000  0.25098000  1
  F  F21  1  0.62866100  0.99994000  0.74902000  1
  F  F22  1  0.12768100  0.49994000  0.75098000  1
  F  F23  1  0.37860000  0.50006000  0.24902000  1
  F  F24  1  0.96719900  0.71137200  0.50279600  1
  F  F25  1  0.18136600  0.28862800  0.49720400  1
  F  F26  1  0.42857100  0.78862800  0.00279600  1
  F  F27  1  0.21999300  0.21137200  0.99720400  1
