# generated using pymatgen
data_Na5Lu(SiO3)4
_symmetry_space_group_name_H-M   'P 1'
_cell_length_a   13.48808242
_cell_length_b   13.48808242
_cell_length_c   13.48808226
_cell_angle_alpha   110.68465152
_cell_angle_beta   110.68465152
_cell_angle_gamma   110.68465382
_symmetry_Int_Tables_number   1
_chemical_formula_structural   Na5Lu(SiO3)4
_chemical_formula_sum   'Na30 Lu6 Si24 O72'
_cell_volume   1799.13000137
_cell_formula_units_Z   6
loop_
 _symmetry_equiv_pos_site_id
 _symmetry_equiv_pos_as_xyz
  1  'x, y, z'
loop_
 _atom_site_type_symbol
 _atom_site_label
 _atom_site_symmetry_multiplicity
 _atom_site_fract_x
 _atom_site_fract_y
 _atom_site_fract_z
 _atom_site_occupancy
  Na  Na0  1  0.69075700  0.58601300  0.17241300  1
  Na  Na1  1  0.35774100  0.82992000  0.86518200  1
  Na  Na2  1  0.86518200  0.35774100  0.82992000  1
  Na  Na3  1  0.25518700  0.25518700  0.25518700  1
  Na  Na4  1  0.65376000  0.65742400  0.46500000  1
  Na  Na5  1  0.41398700  0.30924300  0.82758700  1
  Na  Na6  1  0.71712900  0.00000000  0.28287100  1
  Na  Na7  1  0.64225900  0.13481800  0.17008000  1
  Na  Na8  1  0.82684700  0.81825600  0.03326700  1
  Na  Na9  1  0.65742400  0.46500000  0.65376000  1
  Na  Na10  1  0.18174400  0.17315300  0.96673300  1
  Na  Na11  1  0.17008000  0.64225900  0.13481800  1
  Na  Na12  1  0.96673300  0.18174400  0.17315300  1
  Na  Na13  1  0.17315300  0.96673300  0.18174400  1
  Na  Na14  1  0.53500000  0.34257600  0.34624000  1
  Na  Na15  1  0.46500000  0.65376000  0.65742400  1
  Na  Na16  1  0.13481800  0.17008000  0.64225900  1
  Na  Na17  1  0.03326700  0.82684700  0.81825600  1
  Na  Na18  1  0.34624000  0.53500000  0.34257600  1
  Na  Na19  1  0.17241300  0.69075700  0.58601300  1
  Na  Na20  1  0.58601300  0.17241300  0.69075700  1
  Na  Na21  1  0.30924300  0.82758700  0.41398700  1
  Na  Na22  1  0.00000000  0.28287100  0.71712900  1
  Na  Na23  1  0.28287100  0.71712900  0.00000000  1
  Na  Na24  1  0.82758700  0.41398700  0.30924300  1
  Na  Na25  1  0.82992000  0.86518200  0.35774100  1
  Na  Na26  1  0.34257600  0.34624000  0.53500000  1
  Na  Na27  1  0.00000000  0.00000000  0.00000000  1
  Na  Na28  1  0.74481300  0.74481300  0.74481300  1
  Na  Na29  1  0.81825600  0.03326700  0.82684700  1
  Lu  Lu30  1  0.25083300  0.00000000  0.74916700  1
  Lu  Lu31  1  0.74759700  0.25240300  0.50000000  1
  Lu  Lu32  1  0.50000000  0.74759700  0.25240300  1
  Lu  Lu33  1  0.25240300  0.50000000  0.74759700  1
  Lu  Lu34  1  0.00000000  0.74916700  0.25083300  1
  Lu  Lu35  1  0.74916700  0.25083300  0.00000000  1
  Si  Si36  1  0.53936200  0.81773700  0.54310900  1
  Si  Si37  1  0.05973500  0.51171800  0.25438000  1
  Si  Si38  1  0.94026500  0.74562000  0.48828200  1
  Si  Si39  1  0.31301100  0.03500800  0.04154800  1
  Si  Si40  1  0.81773700  0.54310900  0.53936200  1
  Si  Si41  1  0.48828200  0.94026500  0.74562000  1
  Si  Si42  1  0.54310900  0.53936200  0.81773700  1
  Si  Si43  1  0.55786800  0.75633000  0.01602900  1
  Si  Si44  1  0.51171800  0.25438000  0.05973500  1
  Si  Si45  1  0.68698900  0.95845200  0.96499200  1
  Si  Si46  1  0.04154800  0.31301100  0.03500800  1
  Si  Si47  1  0.96499200  0.68698900  0.95845200  1
  Si  Si48  1  0.25438000  0.05973500  0.51171800  1
  Si  Si49  1  0.24367000  0.44213200  0.98397100  1
  Si  Si50  1  0.01602900  0.55786800  0.75633000  1
  Si  Si51  1  0.95845200  0.96499200  0.68698900  1
  Si  Si52  1  0.03500800  0.04154800  0.31301100  1
  Si  Si53  1  0.75633000  0.01602900  0.55786800  1
  Si  Si54  1  0.98397100  0.24367000  0.44213200  1
  Si  Si55  1  0.44213200  0.98397100  0.24367000  1
  Si  Si56  1  0.45689100  0.18226300  0.46063800  1
  Si  Si57  1  0.18226300  0.46063800  0.45689100  1
  Si  Si58  1  0.46063800  0.45689100  0.18226300  1
  Si  Si59  1  0.74562000  0.48828200  0.94026500  1
  O  O60  1  0.93581500  0.78177000  0.92708300  1
  O  O61  1  0.25408400  0.94938000  0.89080500  1
  O  O62  1  0.04256100  0.32939600  0.39002300  1
  O  O63  1  0.69531500  0.91486800  0.41051300  1
  O  O64  1  0.95352600  0.09920200  0.35386500  1
  O  O65  1  0.07291700  0.21823000  0.06418500  1
  O  O66  1  0.78177000  0.92708300  0.93581500  1
  O  O67  1  0.17062200  0.11531100  0.45362900  1
  O  O68  1  0.09604000  0.64705200  0.27128700  1
  O  O69  1  0.27128700  0.09604000  0.64705200  1
  O  O70  1  0.64705200  0.27128700  0.09604000  1
  O  O71  1  0.75134300  0.39112000  0.44790700  1
  O  O72  1  0.08651200  0.80960100  0.59156200  1
  O  O73  1  0.35386500  0.95352600  0.09920200  1
  O  O74  1  0.82937800  0.54637100  0.88468900  1
  O  O75  1  0.21964500  0.40619600  0.84672400  1
  O  O76  1  0.72914400  0.57946100  0.57494300  1
  O  O77  1  0.95743900  0.60997700  0.67060400  1
  O  O78  1  0.55209300  0.60888000  0.24865700  1
  O  O79  1  0.24865700  0.55209300  0.60888000  1
  O  O80  1  0.89080500  0.25408400  0.94938000  1
  O  O81  1  0.14506400  0.54322500  0.39922700  1
  O  O82  1  0.04647400  0.64613500  0.90079800  1
  O  O83  1  0.09920200  0.35386500  0.95352600  1
  O  O84  1  0.40619600  0.84672400  0.21964500  1
  O  O85  1  0.15327600  0.59380400  0.78035500  1
  O  O86  1  0.54322500  0.39922700  0.14506400  1
  O  O87  1  0.57494300  0.72914400  0.57946100  1
  O  O88  1  0.39112000  0.44790700  0.75134300  1
  O  O89  1  0.90079800  0.04647400  0.64613500  1
  O  O90  1  0.78035500  0.15327600  0.59380400  1
  O  O91  1  0.88468900  0.82937800  0.54637100  1
  O  O92  1  0.90396000  0.72871300  0.35294800  1
  O  O93  1  0.72871300  0.35294800  0.90396000  1
  O  O94  1  0.42053900  0.27085600  0.42505700  1
  O  O95  1  0.44790700  0.75134300  0.39112000  1
  O  O96  1  0.35294800  0.90396000  0.72871300  1
  O  O97  1  0.30468500  0.58948700  0.08513200  1
  O  O98  1  0.91348800  0.40843800  0.19039900  1
  O  O99  1  0.91486800  0.41051300  0.69531500  1
  O  O100  1  0.84672400  0.21964500  0.40619600  1
  O  O101  1  0.05062000  0.74591600  0.10919500  1
  O  O102  1  0.59380400  0.78035500  0.15327600  1
  O  O103  1  0.42505700  0.42053900  0.27085600  1
  O  O104  1  0.67060400  0.95743900  0.60997700  1
  O  O105  1  0.54637100  0.88468900  0.82937800  1
  O  O106  1  0.06418500  0.07291700  0.21823000  1
  O  O107  1  0.08513200  0.30468500  0.58948700  1
  O  O108  1  0.80960100  0.59156200  0.08651200  1
  O  O109  1  0.60997700  0.67060400  0.95743900  1
  O  O110  1  0.41051300  0.69531500  0.91486800  1
  O  O111  1  0.74591600  0.10919500  0.05062000  1
  O  O112  1  0.11531100  0.45362900  0.17062200  1
  O  O113  1  0.58948700  0.08513200  0.30468500  1
  O  O114  1  0.45362900  0.17062200  0.11531100  1
  O  O115  1  0.57946100  0.57494300  0.72914400  1
  O  O116  1  0.64613500  0.90079800  0.04647400  1
  O  O117  1  0.27085600  0.42505700  0.42053900  1
  O  O118  1  0.39002300  0.04256100  0.32939600  1
  O  O119  1  0.59156200  0.08651200  0.80960100  1
  O  O120  1  0.10919500  0.05062000  0.74591600  1
  O  O121  1  0.60888000  0.24865700  0.55209300  1
  O  O122  1  0.21823000  0.06418500  0.07291700  1
  O  O123  1  0.40843800  0.19039900  0.91348800  1
  O  O124  1  0.32939600  0.39002300  0.04256100  1
  O  O125  1  0.85493600  0.60077300  0.45677500  1
  O  O126  1  0.39922700  0.14506400  0.54322500  1
  O  O127  1  0.19039900  0.91348800  0.40843800  1
  O  O128  1  0.60077300  0.45677500  0.85493600  1
  O  O129  1  0.45677500  0.85493600  0.60077300  1
  O  O130  1  0.94938000  0.89080500  0.25408400  1
  O  O131  1  0.92708300  0.93581500  0.78177000  1
