# generated using pymatgen
data_Sr3Nd4O9
_symmetry_space_group_name_H-M   'P 1'
_cell_length_a   8.66798673
_cell_length_b   7.11088553
_cell_length_c   10.05594214
_cell_angle_alpha   99.70118715
_cell_angle_beta   96.86020666
_cell_angle_gamma   107.92844304
_symmetry_Int_Tables_number   1
_chemical_formula_structural   Sr3Nd4O9
_chemical_formula_sum   'Sr6 Nd8 O18'
_cell_volume   571.50718637
_cell_formula_units_Z   2
loop_
 _symmetry_equiv_pos_site_id
 _symmetry_equiv_pos_as_xyz
  1  'x, y, z'
loop_
 _atom_site_type_symbol
 _atom_site_label
 _atom_site_symmetry_multiplicity
 _atom_site_fract_x
 _atom_site_fract_y
 _atom_site_fract_z
 _atom_site_occupancy
  Sr  Sr0  1  0.26397800  0.74345800  0.02119200  1
  Sr  Sr1  1  0.26702700  0.34309800  0.61088600  1
  Sr  Sr2  1  0.40769500  0.35818200  0.93430100  1
  Sr  Sr3  1  0.87537500  0.00780400  0.56482100  1
  Sr  Sr4  1  0.63817400  0.08458300  0.11997900  1
  Sr  Sr5  1  0.97407600  0.40693700  0.33212600  1
  Nd  Nd6  1  0.84841300  0.43572800  0.92628300  1
  Nd  Nd7  1  0.02431900  0.04725100  0.96615400  1
  Nd  Nd8  1  0.45493600  0.89763500  0.39818000  1
  Nd  Nd9  1  0.41844600  0.40884400  0.28963600  1
  Nd  Nd10  1  0.61220400  0.79203400  0.74881900  1
  Nd  Nd11  1  0.13064000  0.76081600  0.64789400  1
  Nd  Nd12  1  0.84127900  0.78860600  0.23259900  1
  Nd  Nd13  1  0.69695900  0.37844500  0.56857500  1
  O  O14  1  0.89620700  0.76609900  0.74324000  1
  O  O15  1  0.01209100  0.80042500  0.42870800  1
  O  O16  1  0.27040200  0.56555700  0.41832000  1
  O  O17  1  0.98034600  0.39263100  0.58857600  1
  O  O18  1  0.34311000  0.68126200  0.78715400  1
  O  O19  1  0.10710900  0.39118500  0.97351000  1
  O  O20  1  0.60468900  0.01222800  0.61156100  1
  O  O21  1  0.49366500  0.71201000  0.17467300  1
  O  O22  1  0.41173700  0.20437300  0.44449200  1
  O  O23  1  0.19752800  0.09424400  0.75335700  1
  O  O24  1  0.35107800  0.13066900  0.09238400  1
  O  O25  1  0.64337500  0.62000300  0.45729900  1
  O  O26  1  0.60253100  0.45088700  0.77551300  1
  O  O27  1  0.99350600  0.74864000  0.05736600  1
  O  O28  1  0.73153000  0.44035600  0.12106800  1
  O  O29  1  0.75816800  0.07083900  0.91024000  1
  O  O30  1  0.71260700  0.11204700  0.36986000  1
  O  O31  1  0.93739600  0.09852100  0.17723200  1
