# generated using pymatgen
data_Sm2EuSe4
_symmetry_space_group_name_H-M   'P 1'
_cell_length_a   7.73541182
_cell_length_b   7.73541182
_cell_length_c   7.73541182
_cell_angle_alpha   109.33441901
_cell_angle_beta   109.33441901
_cell_angle_gamma   109.74517171
_symmetry_Int_Tables_number   1
_chemical_formula_structural   Sm2EuSe4
_chemical_formula_sum   'Sm4 Eu2 Se8'
_cell_volume   356.30422945
_cell_formula_units_Z   2
loop_
 _symmetry_equiv_pos_site_id
 _symmetry_equiv_pos_as_xyz
  1  'x, y, z'
loop_
 _atom_site_type_symbol
 _atom_site_label
 _atom_site_symmetry_multiplicity
 _atom_site_fract_x
 _atom_site_fract_y
 _atom_site_fract_z
 _atom_site_occupancy
  Sm  Sm0  1  0.99907700  0.37500000  0.12407700  1
  Sm  Sm1  1  0.62500000  0.74907700  0.62407700  1
  Sm  Sm2  1  0.25092300  0.87500000  0.87592300  1
  Sm  Sm3  1  0.12500000  0.00092300  0.37592300  1
  Eu  Eu4  1  0.75000000  0.25000000  0.50000000  1
  Eu  Eu5  1  0.50000000  0.50000000  0.00000000  1
  Se  Se6  1  0.52111900  0.11742800  0.74919300  1
  Se  Se7  1  0.72888100  0.97807300  0.09630900  1
  Se  Se8  1  0.88257200  0.63176400  0.40369100  1
  Se  Se9  1  0.36742800  0.27111900  0.24919300  1
  Se  Se10  1  0.88176400  0.63257200  0.90369100  1
  Se  Se11  1  0.22807300  0.47888100  0.59630900  1
  Se  Se12  1  0.36823600  0.77192700  0.25080700  1
  Se  Se13  1  0.02192700  0.11823600  0.75080700  1
