# generated using pymatgen
data_Zn3Si3(WO6)2
_symmetry_space_group_name_H-M   'P 1'
_cell_length_a   10.51124131
_cell_length_b   10.51124131
_cell_length_c   10.51124131
_cell_angle_alpha   109.47122063
_cell_angle_beta   109.47122063
_cell_angle_gamma   109.47122063
_symmetry_Int_Tables_number   1
_chemical_formula_structural   Zn3Si3(WO6)2
_chemical_formula_sum   'Zn12 Si12 W8 O48'
_cell_volume   894.00537234
_cell_formula_units_Z   4
loop_
 _symmetry_equiv_pos_site_id
 _symmetry_equiv_pos_as_xyz
  1  'x, y, z'
loop_
 _atom_site_type_symbol
 _atom_site_label
 _atom_site_symmetry_multiplicity
 _atom_site_fract_x
 _atom_site_fract_y
 _atom_site_fract_z
 _atom_site_occupancy
  Zn  Zn0  1  0.25000000  0.37500000  0.12500000  1
  Zn  Zn1  1  0.75000000  0.12500000  0.37500000  1
  Zn  Zn2  1  0.37500000  0.12500000  0.25000000  1
  Zn  Zn3  1  0.12500000  0.37500000  0.75000000  1
  Zn  Zn4  1  0.25000000  0.87500000  0.62500000  1
  Zn  Zn5  1  0.12500000  0.25000000  0.37500000  1
  Zn  Zn6  1  0.62500000  0.25000000  0.87500000  1
  Zn  Zn7  1  0.75000000  0.62500000  0.87500000  1
  Zn  Zn8  1  0.87500000  0.75000000  0.62500000  1
  Zn  Zn9  1  0.87500000  0.62500000  0.25000000  1
  Zn  Zn10  1  0.62500000  0.87500000  0.75000000  1
  Zn  Zn11  1  0.37500000  0.75000000  0.12500000  1
  Si  Si12  1  0.12500000  0.75000000  0.87500000  1
  Si  Si13  1  0.87500000  0.25000000  0.12500000  1
  Si  Si14  1  0.75000000  0.37500000  0.62500000  1
  Si  Si15  1  0.12500000  0.87500000  0.25000000  1
  Si  Si16  1  0.25000000  0.12500000  0.87500000  1
  Si  Si17  1  0.37500000  0.62500000  0.75000000  1
  Si  Si18  1  0.37500000  0.25000000  0.62500000  1
  Si  Si19  1  0.87500000  0.12500000  0.75000000  1
  Si  Si20  1  0.62500000  0.37500000  0.25000000  1
  Si  Si21  1  0.75000000  0.87500000  0.12500000  1
  Si  Si22  1  0.25000000  0.62500000  0.37500000  1
  Si  Si23  1  0.62500000  0.75000000  0.37500000  1
  W  W24  1  0.50000000  0.00000000  0.00000000  1
  W  W25  1  0.50000000  0.50000000  0.00000000  1
  W  W26  1  0.00000000  0.50000000  0.50000000  1
  W  W27  1  0.00000000  0.00000000  0.50000000  1
  W  W28  1  0.50000000  0.50000000  0.50000000  1
  W  W29  1  0.00000000  0.50000000  0.00000000  1
  W  W30  1  0.50000000  0.00000000  0.50000000  1
  W  W31  1  0.00000000  0.00000000  0.00000000  1
  O  O32  1  0.59271700  0.89377100  0.37324100  1
  O  O33  1  0.37324100  0.59271700  0.89377100  1
  O  O34  1  0.28052400  0.30105400  0.90728300  1
  O  O35  1  0.47947000  0.60622900  0.19894600  1
  O  O36  1  0.30105400  0.89377100  0.02053000  1
  O  O37  1  0.12675900  0.02053000  0.21947600  1
  O  O38  1  0.37324100  0.28052400  0.47947000  1
  O  O39  1  0.89377100  0.37324100  0.59271700  1
  O  O40  1  0.19894600  0.21947600  0.59271700  1
  O  O41  1  0.47947000  0.37324100  0.28052400  1
  O  O42  1  0.89377100  0.02053000  0.30105400  1
  O  O43  1  0.60622900  0.90728300  0.12675900  1
  O  O44  1  0.90728300  0.12675900  0.60622900  1
  O  O45  1  0.28052400  0.47947000  0.37324100  1
  O  O46  1  0.59271700  0.19894600  0.21947600  1
  O  O47  1  0.21947600  0.59271700  0.19894600  1
  O  O48  1  0.02053000  0.30105400  0.89377100  1
  O  O49  1  0.90728300  0.28052400  0.30105400  1
  O  O50  1  0.02053000  0.21947600  0.12675900  1
  O  O51  1  0.80105400  0.78052400  0.40728300  1
  O  O52  1  0.19894600  0.47947000  0.60622900  1
  O  O53  1  0.60622900  0.19894600  0.47947000  1
  O  O54  1  0.21947600  0.12675900  0.02053000  1
  O  O55  1  0.12675900  0.60622900  0.90728300  1
  O  O56  1  0.40728300  0.10622900  0.62675900  1
  O  O57  1  0.62675900  0.40728300  0.10622900  1
  O  O58  1  0.71947600  0.69894600  0.09271700  1
  O  O59  1  0.52053000  0.39377100  0.80105400  1
  O  O60  1  0.69894600  0.10622900  0.97947000  1
  O  O61  1  0.87324100  0.97947000  0.78052400  1
  O  O62  1  0.62675900  0.71947600  0.52053000  1
  O  O63  1  0.10622900  0.62675900  0.40728300  1
  O  O64  1  0.87324100  0.39377100  0.09271700  1
  O  O65  1  0.78052400  0.87324100  0.97947000  1
  O  O66  1  0.39377100  0.80105400  0.52053000  1
  O  O67  1  0.69894600  0.09271700  0.71947600  1
  O  O68  1  0.80105400  0.52053000  0.39377100  1
  O  O69  1  0.97947000  0.78052400  0.87324100  1
  O  O70  1  0.09271700  0.71947600  0.69894600  1
  O  O71  1  0.97947000  0.69894600  0.10622900  1
  O  O72  1  0.78052400  0.40728300  0.80105400  1
  O  O73  1  0.40728300  0.80105400  0.78052400  1
  O  O74  1  0.71947600  0.52053000  0.62675900  1
  O  O75  1  0.09271700  0.87324100  0.39377100  1
  O  O76  1  0.39377100  0.09271700  0.87324100  1
  O  O77  1  0.10622900  0.97947000  0.69894600  1
  O  O78  1  0.52053000  0.62675900  0.71947600  1
  O  O79  1  0.30105400  0.90728300  0.28052400  1
