# generated using pymatgen
data_Na3La8Ti9Mn3O36
_symmetry_space_group_name_H-M   'P 1'
_cell_length_a   5.50118000
_cell_length_b   5.53283427
_cell_length_c   27.14935518
_cell_angle_alpha   89.86644163
_cell_angle_beta   89.84333275
_cell_angle_gamma   60.77792796
_symmetry_Int_Tables_number   1
_chemical_formula_structural   Na3La8Ti9Mn3O36
_chemical_formula_sum   'Na3 La8 Ti9 Mn3 O36'
_cell_volume   721.17898454
_cell_formula_units_Z   1
loop_
 _symmetry_equiv_pos_site_id
 _symmetry_equiv_pos_as_xyz
  1  'x, y, z'
loop_
 _atom_site_type_symbol
 _atom_site_label
 _atom_site_symmetry_multiplicity
 _atom_site_fract_x
 _atom_site_fract_y
 _atom_site_fract_z
 _atom_site_occupancy
  Na  Na0  1  0.66449100  0.66809000  0.95671700  1
  Na  Na1  1  0.33249700  0.33155000  0.79031400  1
  Na  Na2  1  0.33377900  0.33993800  0.29390400  1
  La  La3  1  0.99528200  0.99779000  0.87347500  1
  La  La4  1  0.67264800  0.65709700  0.45931300  1
  La  La5  1  0.66718700  0.66212000  0.70863900  1
  La  La6  1  0.33409200  0.33020700  0.54695600  1
  La  La7  1  0.99606000  0.99939600  0.12310300  1
  La  La8  1  0.00980100  0.99797800  0.37263400  1
  La  La9  1  0.66260400  0.66530900  0.21308700  1
  La  La10  1  0.33340400  0.34084400  0.03657400  1
  Ti  Ti11  1  0.00380600  0.00082800  0.99726700  1
  Ti  Ti12  1  0.66210100  0.66901200  0.83161500  1
  Ti  Ti13  1  0.34186100  0.32114300  0.66765600  1
  Ti  Ti14  1  0.33102200  0.33290700  0.91327400  1
  Ti  Ti15  1  0.00012500  0.99943900  0.50378900  1
  Ti  Ti16  1  0.99941400  0.99536100  0.74758000  1
  Ti  Ti17  1  0.67621900  0.66176700  0.33326200  1
  Ti  Ti18  1  0.67213400  0.65806200  0.58889500  1
  Ti  Ti19  1  0.32439200  0.33990400  0.16755800  1
  Mn  Mn20  1  0.33690800  0.33162000  0.41704900  1
  Mn  Mn21  1  0.00041000  0.99630900  0.25092300  1
  Mn  Mn22  1  0.65915600  0.67340000  0.08181900  1
  O  O23  1  0.15638300  0.69557300  0.94775300  1
  O  O24  1  0.56611800  0.43503600  0.87443500  1
  O  O25  1  0.03998500  0.47962000  0.86590800  1
  O  O26  1  0.64109700  0.17343600  0.96621800  1
  O  O27  1  0.81660700  0.37560700  0.78167400  1
  O  O28  1  0.12034900  0.21611800  0.95796000  1
  O  O29  1  0.23300800  0.10878700  0.71081900  1
  O  O30  1  0.51928700  0.96170600  0.88296600  1
  O  O31  1  0.69276600  0.16034100  0.70254700  1
  O  O32  1  0.29719700  0.84787300  0.80148900  1
  O  O33  1  0.48298800  0.03195000  0.61775700  1
  O  O34  1  0.78458900  0.88516900  0.79219300  1
  O  O35  1  0.88466400  0.77211200  0.53863800  1
  O  O36  1  0.17828300  0.63678000  0.71676000  1
  O  O37  1  0.36355300  0.83000700  0.53267800  1
  O  O38  1  0.96689500  0.51609800  0.63399700  1
  O  O39  1  0.12839300  0.74441600  0.44910400  1
  O  O40  1  0.46045200  0.53681700  0.62499300  1
  O  O41  1  0.58477100  0.42839200  0.38036800  1
  O  O42  1  0.83089600  0.32542100  0.54644500  1
  O  O43  1  0.05120100  0.47274100  0.36704900  1
  O  O44  1  0.60884300  0.19865200  0.47155800  1
  O  O45  1  0.82929800  0.35354200  0.28298800  1
  O  O46  1  0.10504700  0.23546500  0.45952400  1
  O  O47  1  0.21731400  0.10372100  0.20423600  1
  O  O48  1  0.54393300  0.92954800  0.38566600  1
  O  O49  1  0.68424800  0.17032700  0.19414300  1
  O  O50  1  0.32189200  0.81787700  0.30396900  1
  O  O51  1  0.43976600  0.08801200  0.11258400  1
  O  O52  1  0.77630900  0.88137600  0.29090300  1
  O  O53  1  0.90352600  0.77137000  0.04413100  1
  O  O54  1  0.16707600  0.64278500  0.21569900  1
  O  O55  1  0.37385200  0.80694700  0.03136100  1
  O  O56  1  0.92850500  0.54853100  0.13663000  1
  O  O57  1  0.42508300  0.57812400  0.12429800  1
  O  O58  1  0.86643500  0.26965200  0.05015300  1
