# generated using pymatgen
data_Sm4ZrO8
_symmetry_space_group_name_H-M   'P 1'
_cell_length_a   14.20203502
_cell_length_b   14.20203502
_cell_length_c   14.20203502
_cell_angle_alpha   164.71570338
_cell_angle_beta   164.31972307
_cell_angle_gamma   21.96468957
_symmetry_Int_Tables_number   1
_chemical_formula_structural   Sm4ZrO8
_chemical_formula_sum   'Sm4 Zr1 O8'
_cell_volume   204.04859280
_cell_formula_units_Z   1
loop_
 _symmetry_equiv_pos_site_id
 _symmetry_equiv_pos_as_xyz
  1  'x, y, z'
loop_
 _atom_site_type_symbol
 _atom_site_label
 _atom_site_symmetry_multiplicity
 _atom_site_fract_x
 _atom_site_fract_y
 _atom_site_fract_z
 _atom_site_occupancy
  Sm  Sm0  1  0.59039600  0.59039600  0.00000000  1
  Sm  Sm1  1  0.20416300  0.20416300  0.00000000  1
  Sm  Sm2  1  0.40960400  0.40960400  0.00000000  1
  Sm  Sm3  1  0.79583700  0.79583700  0.00000000  1
  Zr  Zr4  1  0.00000000  0.00000000  0.00000000  1
  O  O5  1  0.14810700  0.64810700  0.50000000  1
  O  O6  1  0.74069800  0.24069800  0.50000000  1
  O  O7  1  0.95520600  0.45520600  0.50000000  1
  O  O8  1  0.45387700  0.95387700  0.50000000  1
  O  O9  1  0.54612300  0.04612300  0.50000000  1
  O  O10  1  0.04479400  0.54479400  0.50000000  1
  O  O11  1  0.25930200  0.75930200  0.50000000  1
  O  O12  1  0.85189300  0.35189300  0.50000000  1
