# generated using pymatgen
data_Ag3SI
_symmetry_space_group_name_H-M   'P 1'
_cell_length_a   7.11559778
_cell_length_b   7.03282870
_cell_length_c   6.99099549
_cell_angle_alpha   60.97987425
_cell_angle_beta   59.80033117
_cell_angle_gamma   59.21979458
_symmetry_Int_Tables_number   1
_chemical_formula_structural   Ag3SI
_chemical_formula_sum   'Ag6 S2 I2'
_cell_volume   247.25855073
_cell_formula_units_Z   2
loop_
 _symmetry_equiv_pos_site_id
 _symmetry_equiv_pos_as_xyz
  1  'x, y, z'
loop_
 _atom_site_type_symbol
 _atom_site_label
 _atom_site_symmetry_multiplicity
 _atom_site_fract_x
 _atom_site_fract_y
 _atom_site_fract_z
 _atom_site_occupancy
  Ag  Ag0  1  0.94201800  0.94201800  0.55798300  1
  Ag  Ag1  1  0.45091900  0.05624500  0.94375500  1
  Ag  Ag2  1  0.95238600  0.95238600  0.04761400  1
  Ag  Ag3  1  0.44201800  0.44201800  0.05798300  1
  Ag  Ag4  1  0.05624500  0.45091900  0.54908100  1
  Ag  Ag5  1  0.55412600  0.55412600  0.44587400  1
  S  S6  1  0.25718000  0.75857600  0.24142400  1
  S  S7  1  0.75857600  0.25718000  0.74282000  1
  I  I8  1  0.99499200  0.49654100  0.00500800  1
  I  I9  1  0.49654100  0.99499200  0.50345900  1
