# generated using pymatgen
data_Na2Ga2Si3(HO3)4
_symmetry_space_group_name_H-M   'P 1'
_cell_length_a   9.96491400
_cell_length_b   10.07761436
_cell_length_c   13.44150377
_cell_angle_alpha   109.21190197
_cell_angle_beta   109.30371048
_cell_angle_gamma   83.82325745
_symmetry_Int_Tables_number   1
_chemical_formula_structural   Na2Ga2Si3(HO3)4
_chemical_formula_sum   'Na8 Ga8 Si12 H16 O48'
_cell_volume   1202.99275182
_cell_formula_units_Z   4
loop_
 _symmetry_equiv_pos_site_id
 _symmetry_equiv_pos_as_xyz
  1  'x, y, z'
loop_
 _atom_site_type_symbol
 _atom_site_label
 _atom_site_symmetry_multiplicity
 _atom_site_fract_x
 _atom_site_fract_y
 _atom_site_fract_z
 _atom_site_occupancy
  Na  Na0  1  0.55336000  0.94017400  0.17700100  1
  Na  Na1  1  0.05425600  0.56146500  0.08239900  1
  Na  Na2  1  0.94590700  0.44240900  0.27588200  1
  Na  Na3  1  0.43852300  0.06100700  0.42789400  1
  Na  Na4  1  0.55816100  0.94135400  0.67760300  1
  Na  Na5  1  0.05857400  0.55908400  0.57938900  1
  Na  Na6  1  0.93994100  0.44009900  0.77108500  1
  Na  Na7  1  0.44347600  0.05902500  0.92840200  1
  Ga  Ga8  1  0.92114100  0.81093500  0.23933300  1
  Ga  Ga9  1  0.80372800  0.08155200  0.15359800  1
  Ga  Ga10  1  0.42271500  0.68998200  0.20756300  1
  Ga  Ga11  1  0.07173800  0.18908100  0.36888300  1
  Ga  Ga12  1  0.92936900  0.81203200  0.73842700  1
  Ga  Ga13  1  0.57409100  0.31224100  0.65068300  1
  Ga  Ga14  1  0.43004300  0.68557600  0.70728700  1
  Ga  Ga15  1  0.07449600  0.18327500  0.86618700  1
  Si  Si16  1  0.99698600  0.99735800  0.99477500  1
  Si  Si17  1  0.69103200  0.57531400  0.12449000  1
  Si  Si18  1  0.56643000  0.31796100  0.15022100  1
  Si  Si19  1  0.18978500  0.92257000  0.21054600  1
  Si  Si20  1  0.00122500  0.99768800  0.49870500  1
  Si  Si21  1  0.50092900  0.50313900  0.37217600  1
  Si  Si22  1  0.30948700  0.42073900  0.48928300  1
  Si  Si23  1  0.69522800  0.57632100  0.62103600  1
  Si  Si24  1  0.80720600  0.07803000  0.65330400  1
  Si  Si25  1  0.19749800  0.92095000  0.70985300  1
  Si  Si26  1  0.50360700  0.49898200  0.87495600  1
  Si  Si27  1  0.30583600  0.42737300  0.99261700  1
  H  H28  1  0.29549800  0.88374000  0.00151000  1
  H  H29  1  0.10037200  0.28929200  0.11348100  1
  H  H30  1  0.20327900  0.38269900  0.22815200  1
  H  H31  1  0.90301300  0.71095500  0.41880600  1
  H  H32  1  0.79764700  0.61870600  0.43690200  1
  H  H33  1  0.60494700  0.20663900  0.34258400  1
  H  H34  1  0.39988200  0.79123000  0.43891100  1
  H  H35  1  0.70547200  0.11382500  0.41075900  1
  H  H36  1  0.29595300  0.88451800  0.50226900  1
  H  H37  1  0.09913100  0.28987400  0.61305500  1
  H  H38  1  0.20448700  0.38242200  0.72663900  1
  H  H39  1  0.90477700  0.70954800  0.91827200  1
  H  H40  1  0.79752800  0.61930600  0.93571700  1
  H  H41  1  0.60295800  0.20835500  0.84460100  1
  H  H42  1  0.39978200  0.79028800  0.93867900  1
  H  H43  1  0.70477800  0.11089300  0.91259800  1
  O  O44  1  0.84891700  0.03940100  0.02397000  1
  O  O45  1  0.78370000  0.92149100  0.18216400  1
  O  O46  1  0.13290400  0.95939200  0.09246200  1
  O  O47  1  0.41646800  0.31670000  0.04839800  1
  O  O48  1  0.85843400  0.62107600  0.17622300  1
  O  O49  1  0.29303400  0.56980200  0.09014800  1
  O  O50  1  0.58850000  0.69512400  0.17613300  1
  O  O51  1  0.67937000  0.42808300  0.15244800  1
  O  O52  1  0.61655800  0.15598100  0.12250800  1
  O  O53  1  0.35684000  0.87104100  0.22881100  1
  O  O54  1  0.08979600  0.79968600  0.20509800  1
  O  O55  1  0.91088600  0.22056800  0.26704000  1
  O  O56  1  0.96175700  0.85541900  0.39197000  1
  O  O57  1  0.11130300  0.38223500  0.17131800  1
  O  O58  1  0.53798200  0.37108300  0.27231500  1
  O  O59  1  0.45868300  0.64511900  0.33689800  1
  O  O60  1  0.88992700  0.61836900  0.42631400  1
  O  O61  1  0.60967100  0.11880300  0.35946700  1
  O  O62  1  0.36656200  0.45224300  0.39530700  1
  O  O63  1  0.20055800  0.06525000  0.31508400  1
  O  O64  1  0.38992600  0.88272100  0.49351500  1
  O  O65  1  0.64261000  0.53441900  0.48254100  1
  O  O66  1  0.14445900  0.37096600  0.42902600  1
  O  O67  1  0.86097700  0.03898100  0.54285400  1
  O  O68  1  0.80129900  0.93643600  0.68506500  1
  O  O69  1  0.14138600  0.95840300  0.59189700  1
  O  O70  1  0.40958100  0.29918200  0.53321200  1
  O  O71  1  0.86033800  0.63004300  0.66704100  1
  O  O72  1  0.30357400  0.56506600  0.58852200  1
  O  O73  1  0.04278600  0.13824900  0.48100000  1
  O  O74  1  0.59201100  0.69754000  0.67193500  1
  O  O75  1  0.70104700  0.43477800  0.65559600  1
  O  O76  1  0.64128900  0.13040300  0.61842700  1
  O  O77  1  0.36327000  0.86772400  0.73037000  1
  O  O78  1  0.09529400  0.79961100  0.70267100  1
  O  O79  1  0.90958600  0.20049100  0.75593800  1
  O  O80  1  0.96973400  0.85239600  0.88864800  1
  O  O81  1  0.10974000  0.38122500  0.67297600  1
  O  O82  1  0.54139000  0.35918500  0.78548300  1
  O  O83  1  0.46220200  0.63892300  0.83565900  1
  O  O84  1  0.89066700  0.61757800  0.92630700  1
  O  O85  1  0.61030500  0.11744300  0.85927900  1
  O  O86  1  0.36665600  0.45825800  0.90251200  1
  O  O87  1  0.20604400  0.06534800  0.81310700  1
  O  O88  1  0.38945800  0.88199700  0.99274400  1
  O  O89  1  0.64349600  0.53707600  0.98820200  1
  O  O90  1  0.14559700  0.36506600  0.92829000  1
  O  O91  1  0.04916100  0.13561800  0.97859400  1
