# generated using pymatgen
data_Nb39C34
_symmetry_space_group_name_H-M   'P 1'
_cell_length_a   3.18217888
_cell_length_b   3.18217888
_cell_length_c   100.69320900
_cell_angle_alpha   90.00000000
_cell_angle_beta   90.00000000
_cell_angle_gamma   120.00001823
_symmetry_Int_Tables_number   1
_chemical_formula_structural   Nb39C34
_chemical_formula_sum   'Nb39 C34'
_cell_volume   883.03905256
_cell_formula_units_Z   1
loop_
 _symmetry_equiv_pos_site_id
 _symmetry_equiv_pos_as_xyz
  1  'x, y, z'
loop_
 _atom_site_type_symbol
 _atom_site_label
 _atom_site_symmetry_multiplicity
 _atom_site_fract_x
 _atom_site_fract_y
 _atom_site_fract_z
 _atom_site_occupancy
  Nb  Nb0  1  0.33333300  0.66666700  0.85871300  1
  Nb  Nb1  1  0.00000000  0.00000000  0.88528300  1
  Nb  Nb2  1  0.66666700  0.33333300  0.91024600  1
  Nb  Nb3  1  0.00000000  0.00000000  0.96203300  1
  Nb  Nb4  1  0.33333300  0.66666700  0.93527400  1
  Nb  Nb5  1  0.66666700  0.33333300  0.98693100  1
  Nb  Nb6  1  0.33333300  0.66666700  0.01306900  1
  Nb  Nb7  1  0.00000000  0.00000000  0.03796700  1
  Nb  Nb8  1  0.66666700  0.33333300  0.06472600  1
  Nb  Nb9  1  0.33333300  0.66666700  0.08975400  1
  Nb  Nb10  1  0.66666700  0.33333300  0.14128700  1
  Nb  Nb11  1  0.00000000  0.00000000  0.11471700  1
  Nb  Nb12  1  0.00000000  0.00000000  0.19250700  1
  Nb  Nb13  1  0.33333300  0.66666700  0.16591100  1
  Nb  Nb14  1  0.66666700  0.33333300  0.21783700  1
  Nb  Nb15  1  0.33333300  0.66666700  0.24380800  1
  Nb  Nb16  1  0.00000000  0.00000000  0.26905900  1
  Nb  Nb17  1  0.66666700  0.33333300  0.29490600  1
  Nb  Nb18  1  0.00000000  0.00000000  0.34624100  1
  Nb  Nb19  1  0.33333300  0.66666700  0.32038700  1
  Nb  Nb20  1  0.33333300  0.66666700  0.39745900  1
  Nb  Nb21  1  0.66666700  0.33333300  0.37173400  1
  Nb  Nb22  1  0.00000000  0.00000000  0.42304700  1
  Nb  Nb23  1  0.66666700  0.33333300  0.44868900  1
  Nb  Nb24  1  0.33333300  0.66666700  0.47433500  1
  Nb  Nb25  1  0.00000000  0.00000000  0.50000000  1
  Nb  Nb26  1  0.66666700  0.33333300  0.52566500  1
  Nb  Nb27  1  0.33333300  0.66666700  0.55131100  1
  Nb  Nb28  1  0.00000000  0.00000000  0.57695300  1
  Nb  Nb29  1  0.66666700  0.33333300  0.60254100  1
  Nb  Nb30  1  0.33333300  0.66666700  0.62826600  1
  Nb  Nb31  1  0.00000000  0.00000000  0.65375900  1
  Nb  Nb32  1  0.66666700  0.33333300  0.67961300  1
  Nb  Nb33  1  0.33333300  0.66666700  0.70509400  1
  Nb  Nb34  1  0.00000000  0.00000000  0.73094100  1
  Nb  Nb35  1  0.66666700  0.33333300  0.75619200  1
  Nb  Nb36  1  0.33333300  0.66666700  0.78216300  1
  Nb  Nb37  1  0.00000000  0.00000000  0.80749300  1
  Nb  Nb38  1  0.66666700  0.33333300  0.83408900  1
  C  C39  1  0.33333300  0.66666700  0.89670300  1
  C  C40  1  0.00000000  0.00000000  0.92388100  1
  C  C41  1  0.33333300  0.66666700  0.97442700  1
  C  C42  1  0.66666700  0.33333300  0.02557300  1
  C  C43  1  0.00000000  0.00000000  0.07611900  1
  C  C44  1  0.66666700  0.33333300  0.10329700  1
  C  C45  1  0.00000000  0.00000000  0.15292000  1
  C  C46  1  0.66666700  0.33333300  0.17919400  1
  C  C47  1  0.33333300  0.66666700  0.20499900  1
  C  C48  1  0.00000000  0.00000000  0.23070600  1
  C  C49  1  0.66666700  0.33333300  0.25637800  1
  C  C50  1  0.33333300  0.66666700  0.28196700  1
  C  C51  1  0.00000000  0.00000000  0.30767700  1
  C  C52  1  0.66666700  0.33333300  0.33328600  1
  C  C53  1  0.33333300  0.66666700  0.35898300  1
  C  C54  1  0.00000000  0.00000000  0.38458900  1
  C  C55  1  0.66666700  0.33333300  0.41025500  1
  C  C56  1  0.33333300  0.66666700  0.43585200  1
  C  C57  1  0.00000000  0.00000000  0.46153300  1
  C  C58  1  0.66666700  0.33333300  0.48717000  1
  C  C59  1  0.33333300  0.66666700  0.51283000  1
  C  C60  1  0.00000000  0.00000000  0.53846700  1
  C  C61  1  0.66666700  0.33333300  0.56414800  1
  C  C62  1  0.33333300  0.66666700  0.58974500  1
  C  C63  1  0.00000000  0.00000000  0.61541100  1
  C  C64  1  0.66666700  0.33333300  0.64101700  1
  C  C65  1  0.33333300  0.66666700  0.66671400  1
  C  C66  1  0.00000000  0.00000000  0.69232300  1
  C  C67  1  0.66666700  0.33333300  0.71803300  1
  C  C68  1  0.33333300  0.66666700  0.74362200  1
  C  C69  1  0.00000000  0.00000000  0.76929400  1
  C  C70  1  0.66666700  0.33333300  0.79500100  1
  C  C71  1  0.33333300  0.66666700  0.82080600  1
  C  C72  1  0.00000000  0.00000000  0.84708000  1
