# generated using pymatgen
data_Na3EuTi2Nb2O12
_symmetry_space_group_name_H-M   'P 1'
_cell_length_a   5.53267396
_cell_length_b   5.61522741
_cell_length_c   15.62611605
_cell_angle_alpha   89.99457171
_cell_angle_beta   89.99924844
_cell_angle_gamma   89.87762351
_symmetry_Int_Tables_number   1
_chemical_formula_structural   Na3EuTi2Nb2O12
_chemical_formula_sum   'Na6 Eu2 Ti4 Nb4 O24'
_cell_volume   485.45891392
_cell_formula_units_Z   2
loop_
 _symmetry_equiv_pos_site_id
 _symmetry_equiv_pos_as_xyz
  1  'x, y, z'
loop_
 _atom_site_type_symbol
 _atom_site_label
 _atom_site_symmetry_multiplicity
 _atom_site_fract_x
 _atom_site_fract_y
 _atom_site_fract_z
 _atom_site_occupancy
  Na  Na0  1  0.00098500  0.98780400  0.37053000  1
  Na  Na1  1  0.00101100  0.98788900  0.87953800  1
  Na  Na2  1  0.50017600  0.48813600  0.87956800  1
  Na  Na3  1  0.50015700  0.48804700  0.37052200  1
  Na  Na4  1  0.50754100  0.53180100  0.62501100  1
  Na  Na5  1  0.99408400  0.03074800  0.62503400  1
  Eu  Eu6  1  0.50206800  0.53952600  0.12504600  1
  Eu  Eu7  1  0.99759700  0.03935100  0.12502100  1
  Ti  Ti8  1  0.00513900  0.51926000  0.25248100  1
  Ti  Ti9  1  0.49597700  0.01919200  0.25236900  1
  Ti  Ti10  1  0.49588600  0.01934700  0.99771100  1
  Ti  Ti11  1  0.00519600  0.51939500  0.99763200  1
  Nb  Nb12  1  0.49633100  0.01915800  0.75154300  1
  Nb  Nb13  1  0.49616200  0.01908800  0.49855500  1
  Nb  Nb14  1  0.00673900  0.51819000  0.49832500  1
  Nb  Nb15  1  0.00665100  0.51813700  0.75184700  1
  O  O16  1  0.06846300  0.47253800  0.12495800  1
  O  O17  1  0.06904400  0.47634500  0.62498000  1
  O  O18  1  0.20626100  0.20276900  0.48075800  1
  O  O19  1  0.21543700  0.20463200  0.99158300  1
  O  O20  1  0.21549400  0.20470800  0.25836000  1
  O  O21  1  0.20622200  0.20264000  0.76914900  1
  O  O22  1  0.28365400  0.70443700  0.25835300  1
  O  O23  1  0.29269500  0.70349100  0.48068500  1
  O  O24  1  0.29271500  0.70346900  0.76927700  1
  O  O25  1  0.28361400  0.70441300  0.99158000  1
  O  O26  1  0.43100900  0.97265600  0.12495800  1
  O  O27  1  0.43008700  0.97645300  0.62497500  1
  O  O28  1  0.56502800  0.00466100  0.87822500  1
  O  O29  1  0.56505400  0.00465600  0.37172300  1
  O  O30  1  0.71623500  0.27005700  0.02489800  1
  O  O31  1  0.71636800  0.27003900  0.22506300  1
  O  O32  1  0.71026400  0.28193100  0.51656800  1
  O  O33  1  0.71019400  0.28194000  0.73332400  1
  O  O34  1  0.78277000  0.77047600  0.22498500  1
  O  O35  1  0.78805100  0.78113800  0.73332100  1
  O  O36  1  0.78281400  0.77052300  0.02496600  1
  O  O37  1  0.78812000  0.78121400  0.51661600  1
  O  O38  1  0.93439700  0.50494000  0.37166500  1
  O  O39  1  0.93431100  0.50480800  0.87829700  1
