# generated using pymatgen
data_Sr5Cr3F19
_symmetry_space_group_name_H-M   'P 1'
_cell_length_a   8.72721000
_cell_length_b   10.19806387
_cell_length_c   10.21134373
_cell_angle_alpha   83.54028487
_cell_angle_beta   71.48604130
_cell_angle_gamma   71.70669928
_symmetry_Int_Tables_number   1
_chemical_formula_structural   Sr5Cr3F19
_chemical_formula_sum   'Sr10 Cr6 F38'
_cell_volume   818.14587684
_cell_formula_units_Z   2
loop_
 _symmetry_equiv_pos_site_id
 _symmetry_equiv_pos_as_xyz
  1  'x, y, z'
loop_
 _atom_site_type_symbol
 _atom_site_label
 _atom_site_symmetry_multiplicity
 _atom_site_fract_x
 _atom_site_fract_y
 _atom_site_fract_z
 _atom_site_occupancy
  Sr  Sr0  1  0.01072600  0.84896000  0.29131500  1
  Sr  Sr1  1  0.76654300  0.83403700  0.69587100  1
  Sr  Sr2  1  0.67381800  0.48669500  0.52216100  1
  Sr  Sr3  1  0.76211200  0.30220800  0.17132700  1
  Sr  Sr4  1  0.56768600  0.70403900  0.13263300  1
  Sr  Sr5  1  0.48661100  0.27258300  0.85215000  1
  Sr  Sr6  1  0.18665800  0.66883500  0.85893300  1
  Sr  Sr7  1  0.23770100  0.49285200  0.46075500  1
  Sr  Sr8  1  0.29014400  0.16194200  0.26242500  1
  Sr  Sr9  1  0.10346900  0.15631600  0.70036700  1
  Cr  Cr10  1  0.78080400  0.01312400  0.01302900  1
  Cr  Cr11  1  0.84677800  0.47659300  0.81272700  1
  Cr  Cr12  1  0.57156000  0.13019200  0.50589200  1
  Cr  Cr13  1  0.27793500  0.94281900  0.96129100  1
  Cr  Cr14  1  0.35927200  0.84289300  0.46144700  1
  Cr  Cr15  1  0.04670000  0.48825700  0.17586700  1
  F  F16  1  0.90347200  0.63882600  0.85242500  1
  F  F17  1  0.77270100  0.83108900  0.06083500  1
  F  F18  1  0.93022100  0.54025900  0.36607300  1
  F  F19  1  0.00647400  0.72023100  0.50898400  1
  F  F20  1  0.74577200  0.95201900  0.46051200  1
  F  F21  1  0.04136500  0.67613400  0.13008700  1
  F  F22  1  0.75142100  0.20556800  0.96408700  1
  F  F23  1  0.61295900  0.08512600  0.68565700  1
  F  F24  1  0.78363200  0.04536400  0.19588800  1
  F  F25  1  0.73095600  0.60756900  0.69145900  1
  F  F26  1  0.19906700  0.00013500  0.15626800  1
  F  F27  1  0.80257300  0.33402300  0.71981500  1
  F  F28  1  0.58480900  0.71868800  0.42007300  1
  F  F29  1  0.52144900  0.87331800  0.92108400  1
  F  F30  1  0.28998700  0.88334400  0.78542800  1
  F  F31  1  0.64125000  0.50615700  0.97171400  1
  F  F32  1  0.29194500  0.70882000  0.60303200  1
  F  F33  1  0.54351600  0.48101700  0.32966200  1
  F  F34  1  0.44859100  0.49545100  0.74673400  1
  F  F35  1  0.73647900  0.23339600  0.44616200  1
  F  F36  1  0.20164300  0.43972100  0.98720200  1
  F  F37  1  0.50680800  0.20864000  0.34070400  1
  F  F38  1  0.40785600  0.29499000  0.60120100  1
  F  F39  1  0.30155700  0.74091300  0.33809300  1
  F  F40  1  0.53286700  0.09048200  0.04312800  1
  F  F41  1  0.86706800  0.96927400  0.81545100  1
  F  F42  1  0.25775300  0.43264600  0.22566100  1
  F  F43  1  0.40961800  0.01188500  0.54742300  1
  F  F44  1  0.13805600  0.97807600  0.50475500  1
  F  F45  1  0.29526700  0.75730700  0.03691600  1
  F  F46  1  0.96413300  0.33513600  0.91712000  1
  F  F47  1  0.44885200  0.92946300  0.28930000  1
  F  F48  1  0.15401400  0.26698600  0.47835800  1
  F  F49  1  0.06611900  0.43615400  0.67909600  1
  F  F50  1  0.03088000  0.97543200  0.98707700  1
  F  F51  1  0.27531300  0.12649800  0.88532800  1
  F  F52  1  0.02596500  0.30110100  0.21857900  1
  F  F53  1  0.83226900  0.52682000  0.13923600  1
