data_image0
_chemical_formula_structural       Cu2O4Rb2
_chemical_formula_sum              "Cu2 O4 Rb2"
_cell_length_a       4.68749
_cell_length_b       5.42656
_cell_length_c       6.37572
_cell_angle_alpha    90
_cell_angle_beta     68.432
_cell_angle_gamma    90

_space_group_name_H-M_alt    "P 1"
_space_group_IT_number       1

loop_
  _space_group_symop_operation_xyz
  'x, y, z'

loop_
  _atom_site_type_symbol
  _atom_site_label
  _atom_site_symmetry_multiplicity
  _atom_site_fract_x
  _atom_site_fract_y
  _atom_site_fract_z
  _atom_site_occupancy
  Cu  Cu1       1.0  0.00215  0.75000  0.99600  1.0000
  Cu  Cu2       1.0  0.99800  0.25000  0.00430  1.0000
  O   O1        1.0  0.89700  0.99600  0.20600  1.0000
  O   O2        1.0  0.89700  0.50400  0.20600  1.0000
  O   O3        1.0  0.10300  0.00419  0.79400  1.0000
  O   O4        1.0  0.10300  0.49600  0.79400  1.0000
  Rb  Rb1       1.0  0.30800  0.75000  0.38400  1.0000
  Rb  Rb2       1.0  0.69200  0.25000  0.61600  1.0000
