# generated using pymatgen
data_Y2Ti3(SiO4)3
_symmetry_space_group_name_H-M   'P 1'
_cell_length_a   10.68420910
_cell_length_b   10.68420910
_cell_length_c   10.68420910
_cell_angle_alpha   109.47122063
_cell_angle_beta   109.47122063
_cell_angle_gamma   109.47122063
_symmetry_Int_Tables_number   1
_chemical_formula_structural   Y2Ti3(SiO4)3
_chemical_formula_sum   'Y8 Ti12 Si12 O48'
_cell_volume   938.86953319
_cell_formula_units_Z   4
loop_
 _symmetry_equiv_pos_site_id
 _symmetry_equiv_pos_as_xyz
  1  'x, y, z'
loop_
 _atom_site_type_symbol
 _atom_site_label
 _atom_site_symmetry_multiplicity
 _atom_site_fract_x
 _atom_site_fract_y
 _atom_site_fract_z
 _atom_site_occupancy
  Y  Y0  1  0.00000000  0.00000000  0.50000000  1
  Y  Y1  1  0.00000000  0.00000000  0.00000000  1
  Y  Y2  1  0.50000000  0.00000000  0.00000000  1
  Y  Y3  1  0.00000000  0.50000000  0.00000000  1
  Y  Y4  1  0.50000000  0.50000000  0.00000000  1
  Y  Y5  1  0.00000000  0.50000000  0.50000000  1
  Y  Y6  1  0.50000000  0.00000000  0.50000000  1
  Y  Y7  1  0.50000000  0.50000000  0.50000000  1
  Ti  Ti8  1  0.87500000  0.62500000  0.25000000  1
  Ti  Ti9  1  0.62500000  0.25000000  0.87500000  1
  Ti  Ti10  1  0.87500000  0.75000000  0.62500000  1
  Ti  Ti11  1  0.75000000  0.62500000  0.87500000  1
  Ti  Ti12  1  0.25000000  0.87500000  0.62500000  1
  Ti  Ti13  1  0.62500000  0.87500000  0.75000000  1
  Ti  Ti14  1  0.12500000  0.37500000  0.75000000  1
  Ti  Ti15  1  0.37500000  0.75000000  0.12500000  1
  Ti  Ti16  1  0.12500000  0.25000000  0.37500000  1
  Ti  Ti17  1  0.25000000  0.37500000  0.12500000  1
  Ti  Ti18  1  0.75000000  0.12500000  0.37500000  1
  Ti  Ti19  1  0.37500000  0.12500000  0.25000000  1
  Si  Si20  1  0.12500000  0.87500000  0.25000000  1
  Si  Si21  1  0.25000000  0.12500000  0.87500000  1
  Si  Si22  1  0.75000000  0.37500000  0.62500000  1
  Si  Si23  1  0.62500000  0.37500000  0.25000000  1
  Si  Si24  1  0.62500000  0.75000000  0.37500000  1
  Si  Si25  1  0.37500000  0.62500000  0.75000000  1
  Si  Si26  1  0.12500000  0.75000000  0.87500000  1
  Si  Si27  1  0.75000000  0.87500000  0.12500000  1
  Si  Si28  1  0.87500000  0.25000000  0.12500000  1
  Si  Si29  1  0.37500000  0.25000000  0.62500000  1
  Si  Si30  1  0.25000000  0.62500000  0.37500000  1
  Si  Si31  1  0.87500000  0.12500000  0.75000000  1
  O  O32  1  0.47808200  0.37194100  0.27263100  1
  O  O33  1  0.29454900  0.89385900  0.02191800  1
  O  O34  1  0.60614100  0.90068900  0.12805900  1
  O  O35  1  0.59931100  0.20545100  0.22736900  1
  O  O36  1  0.12805900  0.02191800  0.22736900  1
  O  O37  1  0.20545100  0.22736900  0.59931100  1
  O  O38  1  0.20545100  0.47808200  0.60614100  1
  O  O39  1  0.22736900  0.59931100  0.20545100  1
  O  O40  1  0.37194100  0.59931100  0.89385900  1
  O  O41  1  0.90068900  0.27263100  0.29454900  1
  O  O42  1  0.27263100  0.29454900  0.90068900  1
  O  O43  1  0.22736900  0.12805900  0.02191800  1
  O  O44  1  0.47808200  0.60614100  0.20545100  1
  O  O45  1  0.89385900  0.37194100  0.59931100  1
  O  O46  1  0.02191800  0.22736900  0.12805900  1
  O  O47  1  0.60614100  0.20545100  0.47808200  1
  O  O48  1  0.59931100  0.89385900  0.37194100  1
  O  O49  1  0.02191800  0.29454900  0.89385900  1
  O  O50  1  0.90068900  0.12805900  0.60614100  1
  O  O51  1  0.62805900  0.40068900  0.10614100  1
  O  O52  1  0.37194100  0.27263100  0.47808200  1
  O  O53  1  0.27263100  0.47808200  0.37194100  1
  O  O54  1  0.89385900  0.02191800  0.29454900  1
  O  O55  1  0.29454900  0.90068900  0.27263100  1
  O  O56  1  0.52191800  0.62805900  0.72736900  1
  O  O57  1  0.70545100  0.10614100  0.97808200  1
  O  O58  1  0.39385900  0.09931100  0.87194100  1
  O  O59  1  0.40068900  0.79454900  0.77263100  1
  O  O60  1  0.87194100  0.97808200  0.77263100  1
  O  O61  1  0.79454900  0.77263100  0.40068900  1
  O  O62  1  0.79454900  0.52191800  0.39385900  1
  O  O63  1  0.77263100  0.40068900  0.79454900  1
  O  O64  1  0.70545100  0.09931100  0.72736900  1
  O  O65  1  0.10614100  0.97808200  0.70545100  1
  O  O66  1  0.72736900  0.52191800  0.62805900  1
  O  O67  1  0.62805900  0.72736900  0.52191800  1
  O  O68  1  0.87194100  0.39385900  0.09931100  1
  O  O69  1  0.09931100  0.87194100  0.39385900  1
  O  O70  1  0.97808200  0.70545100  0.10614100  1
  O  O71  1  0.40068900  0.10614100  0.62805900  1
  O  O72  1  0.39385900  0.79454900  0.52191800  1
  O  O73  1  0.97808200  0.77263100  0.87194100  1
  O  O74  1  0.10614100  0.62805900  0.40068900  1
  O  O75  1  0.52191800  0.39385900  0.79454900  1
  O  O76  1  0.77263100  0.87194100  0.97808200  1
  O  O77  1  0.72736900  0.70545100  0.09931100  1
  O  O78  1  0.09931100  0.72736900  0.70545100  1
  O  O79  1  0.12805900  0.60614100  0.90068900  1
