# generated using pymatgen
data_Sr4N3
_symmetry_space_group_name_H-M   'P 1'
_cell_length_a   7.08070878
_cell_length_b   7.08070878
_cell_length_c   6.56016063
_cell_angle_alpha   64.75485810
_cell_angle_beta   64.75485810
_cell_angle_gamma   32.10136709
_symmetry_Int_Tables_number   1
_chemical_formula_structural   Sr4N3
_chemical_formula_sum   'Sr4 N3'
_cell_volume   156.63028381
_cell_formula_units_Z   1
loop_
 _symmetry_equiv_pos_site_id
 _symmetry_equiv_pos_as_xyz
  1  'x, y, z'
loop_
 _atom_site_type_symbol
 _atom_site_label
 _atom_site_symmetry_multiplicity
 _atom_site_fract_x
 _atom_site_fract_y
 _atom_site_fract_z
 _atom_site_occupancy
  Sr  Sr0  1  0.63149600  0.63149600  0.55457300  1
  Sr  Sr1  1  0.13765200  0.13765200  0.00280400  1
  Sr  Sr2  1  0.36850400  0.36850400  0.44542700  1
  Sr  Sr3  1  0.86234800  0.86234800  0.99719600  1
  N  N4  1  0.77516400  0.77516400  0.71154800  1
  N  N5  1  0.50000000  0.50000000  0.00000000  1
  N  N6  1  0.22483600  0.22483600  0.28845200  1
