# generated using pymatgen
data_Sm3B3O7
_symmetry_space_group_name_H-M   'P 1'
_cell_length_a   4.11781105
_cell_length_b   4.11781088
_cell_length_c   25.47972100
_cell_angle_alpha   90.00000000
_cell_angle_beta   90.00000000
_cell_angle_gamma   122.99466691
_symmetry_Int_Tables_number   1
_chemical_formula_structural   Sm3B3O7
_chemical_formula_sum   'Sm6 B6 O14'
_cell_volume   362.36407253
_cell_formula_units_Z   2
loop_
 _symmetry_equiv_pos_site_id
 _symmetry_equiv_pos_as_xyz
  1  'x, y, z'
loop_
 _atom_site_type_symbol
 _atom_site_label
 _atom_site_symmetry_multiplicity
 _atom_site_fract_x
 _atom_site_fract_y
 _atom_site_fract_z
 _atom_site_occupancy
  Sm  Sm0  1  0.00147900  0.99852100  0.16800700  1
  Sm  Sm1  1  0.00147900  0.99852100  0.33199300  1
  Sm  Sm2  1  0.00477600  0.99522400  0.66766400  1
  Sm  Sm3  1  0.00477600  0.99522400  0.83233600  1
  Sm  Sm4  1  0.99925500  0.00074500  0.00488100  1
  Sm  Sm5  1  0.99925500  0.00074500  0.49511900  1
  B  B6  1  0.24596600  0.75403400  0.41404700  1
  B  B7  1  0.24596600  0.75403400  0.08595300  1
  B  B8  1  0.25343300  0.74656700  0.75000000  1
  B  B9  1  0.76349000  0.23651000  0.25000000  1
  B  B10  1  0.64777500  0.35222500  0.58111700  1
  B  B11  1  0.64777500  0.35222500  0.91888300  1
  O  O12  1  0.34496900  0.65503100  0.46083000  1
  O  O13  1  0.34109300  0.65890700  0.13343000  1
  O  O14  1  0.35066500  0.64933500  0.79726800  1
  O  O15  1  0.34496900  0.65503100  0.03917000  1
  O  O16  1  0.34109300  0.65890700  0.36657000  1
  O  O17  1  0.35066500  0.64933500  0.70273200  1
  O  O18  1  0.03150600  0.96849400  0.58131100  1
  O  O19  1  0.66802000  0.33198000  0.29733600  1
  O  O20  1  0.67975300  0.32024700  0.63222700  1
  O  O21  1  0.66802000  0.33198000  0.20266400  1
  O  O22  1  0.67628200  0.32371800  0.97025900  1
  O  O23  1  0.67628200  0.32371800  0.52974100  1
  O  O24  1  0.67975300  0.32024700  0.86777300  1
  O  O25  1  0.03150600  0.96849400  0.91868900  1
