# generated using pymatgen
data_Sr13Mn8O30
_symmetry_space_group_name_H-M   'P 1'
_cell_length_a   6.85981316
_cell_length_b   9.84018913
_cell_length_c   10.65521624
_cell_angle_alpha   89.43072402
_cell_angle_beta   91.69356542
_cell_angle_gamma   89.60537473
_symmetry_Int_Tables_number   1
_chemical_formula_structural   Sr13Mn8O30
_chemical_formula_sum   'Sr13 Mn8 O30'
_cell_volume   718.87868557
_cell_formula_units_Z   1
loop_
 _symmetry_equiv_pos_site_id
 _symmetry_equiv_pos_as_xyz
  1  'x, y, z'
loop_
 _atom_site_type_symbol
 _atom_site_label
 _atom_site_symmetry_multiplicity
 _atom_site_fract_x
 _atom_site_fract_y
 _atom_site_fract_z
 _atom_site_occupancy
  Sr  Sr0  1  0.00155000  0.81749900  0.53292400  1
  Sr  Sr1  1  0.99982800  0.68794400  0.03419100  1
  Sr  Sr2  1  0.17550400  0.00496900  0.82273600  1
  Sr  Sr3  1  0.17369300  0.49667500  0.32635600  1
  Sr  Sr4  1  0.35541800  0.34588200  0.69614600  1
  Sr  Sr5  1  0.35463900  0.14324400  0.20881100  1
  Sr  Sr6  1  0.50044400  0.49898200  0.00124500  1
  Sr  Sr7  1  0.64540800  0.85558300  0.79189000  1
  Sr  Sr8  1  0.64415400  0.65402300  0.30598200  1
  Sr  Sr9  1  0.82526400  0.50175000  0.67351400  1
  Sr  Sr10  1  0.82142400  0.99731200  0.17563400  1
  Sr  Sr11  1  0.99989800  0.31339800  0.96699400  1
  Sr  Sr12  1  0.99705600  0.18153000  0.46933200  1
  Mn  Mn13  1  0.21926100  0.66770300  0.78275400  1
  Mn  Mn14  1  0.21841900  0.83098200  0.28019800  1
  Mn  Mn15  1  0.41702700  0.66604900  0.57705900  1
  Mn  Mn16  1  0.42058700  0.83249000  0.07336800  1
  Mn  Mn17  1  0.57902800  0.16775300  0.92810200  1
  Mn  Mn18  1  0.58230000  0.33323000  0.42489600  1
  Mn  Mn19  1  0.78145800  0.16798900  0.72212400  1
  Mn  Mn20  1  0.78087300  0.33350000  0.21976300  1
  O  O21  1  0.02803400  0.25113600  0.71362700  1
  O  O22  1  0.03237600  0.25763000  0.21142800  1
  O  O23  1  0.15996800  0.51867100  0.88452100  1
  O  O24  1  0.16158900  0.58125400  0.62005200  1
  O  O25  1  0.12985200  0.98264400  0.36208900  1
  O  O26  1  0.15857700  0.91445700  0.11606200  1
  O  O27  1  0.30990800  0.78307700  0.91382300  1
  O  O28  1  0.31485100  0.81569600  0.66621900  1
  O  O29  1  0.33678000  0.24524400  0.95570100  1
  O  O30  1  0.30858000  0.71692200  0.41692300  1
  O  O31  1  0.32080200  0.67395200  0.16119000  1
  O  O32  1  0.32450200  0.28380900  0.45133300  1
  O  O33  1  0.48802900  0.59699900  0.74926000  1
  O  O34  1  0.50053400  0.49913300  0.50231900  1
  O  O35  1  0.48756800  0.89414000  0.24100300  1
  O  O36  1  0.51228700  0.10369100  0.76202600  1
  O  O37  1  0.50259300  0.00161200  0.00506200  1
  O  O38  1  0.51217100  0.40442800  0.25348500  1
  O  O39  1  0.67456200  0.71597700  0.55038400  1
  O  O40  1  0.67817000  0.32585100  0.83921100  1
  O  O41  1  0.69063400  0.28002200  0.58442600  1
  O  O42  1  0.66140000  0.75407000  0.04428800  1
  O  O43  1  0.68443100  0.18432600  0.33442400  1
  O  O44  1  0.68878300  0.22242800  0.08668400  1
  O  O45  1  0.84124300  0.08596200  0.88686900  1
  O  O46  1  0.87214600  0.01627100  0.64061500  1
  O  O47  1  0.83857900  0.41806500  0.38324000  1
  O  O48  1  0.84299100  0.48328100  0.11952100  1
  O  O49  1  0.96718200  0.74205200  0.78999100  1
  O  O50  1  0.97164400  0.74871400  0.28820500  1
