# generated using pymatgen
data_Li9Mn2Co5O16
_symmetry_space_group_name_H-M   'P 1'
_cell_length_a   5.14005689
_cell_length_b   10.33696050
_cell_length_c   5.83025335
_cell_angle_alpha   104.80574527
_cell_angle_beta   71.83835254
_cell_angle_gamma   84.82185321
_symmetry_Int_Tables_number   1
_chemical_formula_structural   Li9Mn2Co5O16
_chemical_formula_sum   'Li9 Mn2 Co5 O16'
_cell_volume   279.66101351
_cell_formula_units_Z   1
loop_
 _symmetry_equiv_pos_site_id
 _symmetry_equiv_pos_as_xyz
  1  'x, y, z'
loop_
 _atom_site_type_symbol
 _atom_site_label
 _atom_site_symmetry_multiplicity
 _atom_site_fract_x
 _atom_site_fract_y
 _atom_site_fract_z
 _atom_site_occupancy
  Li  Li0  1  0.49927300  0.12215700  0.92834900  1
  Li  Li1  1  0.50525100  0.37183800  0.31231700  1
  Li  Li2  1  0.49811500  0.62050900  0.69146900  1
  Li  Li3  1  0.49422000  0.88148900  0.08144300  1
  Li  Li4  1  0.49733400  0.12394800  0.44355000  1
  Li  Li5  1  0.50218100  0.37283700  0.80749600  1
  Li  Li6  1  0.49874000  0.62300000  0.18179600  1
  Li  Li7  1  0.50524200  0.88467300  0.55607200  1
  Li  Li8  1  0.99839100  0.00214100  0.49811800  1
  Mn  Mn9  1  0.99212500  0.00219600  0.00333100  1
  Mn  Mn10  1  0.00462600  0.75226100  0.62709100  1
  Co  Co11  1  0.99855700  0.24877700  0.37079700  1
  Co  Co12  1  0.00800300  0.49823300  0.75063600  1
  Co  Co13  1  0.00333900  0.75102200  0.13254800  1
  Co  Co14  1  0.99769000  0.25034400  0.86503800  1
  Co  Co15  1  0.99946400  0.50022500  0.25040300  1
  O  O16  1  0.22634000  0.06581800  0.73763900  1
  O  O17  1  0.20182900  0.31253000  0.09414400  1
  O  O18  1  0.23338300  0.56906200  0.49551100  1
  O  O19  1  0.21902800  0.81370500  0.85124500  1
  O  O20  1  0.21318900  0.06607800  0.20622600  1
  O  O21  1  0.24314400  0.32327900  0.59691100  1
  O  O22  1  0.22561400  0.56815300  0.99999400  1
  O  O23  1  0.22534500  0.80347500  0.34754300  1
  O  O24  1  0.75037700  0.17345100  0.14122700  1
  O  O25  1  0.77758000  0.43562600  0.50670700  1
  O  O26  1  0.79123900  0.68370300  0.90563100  1
  O  O27  1  0.77063900  0.93005000  0.25989300  1
  O  O28  1  0.78562700  0.19789500  0.64895900  1
  O  O29  1  0.77051100  0.43425800  0.00959700  1
  O  O30  1  0.78778100  0.68959400  0.41260700  1
  O  O31  1  0.77582300  0.92767500  0.78570900  1
