# generated using pymatgen
data_Li7Mn5O12
_symmetry_space_group_name_H-M   'P 1'
_cell_length_a   5.25155399
_cell_length_b   17.18084800
_cell_length_c   5.29309835
_cell_angle_alpha   89.99990832
_cell_angle_beta   67.11970750
_cell_angle_gamma   90.00007112
_symmetry_Int_Tables_number   1
_chemical_formula_structural   Li7Mn5O12
_chemical_formula_sum   'Li14 Mn10 O24'
_cell_volume   439.99983501
_cell_formula_units_Z   2
loop_
 _symmetry_equiv_pos_site_id
 _symmetry_equiv_pos_as_xyz
  1  'x, y, z'
loop_
 _atom_site_type_symbol
 _atom_site_label
 _atom_site_symmetry_multiplicity
 _atom_site_fract_x
 _atom_site_fract_y
 _atom_site_fract_z
 _atom_site_occupancy
  Li  Li0  1  0.49999900  0.16666400  0.50000200  1
  Li  Li1  1  0.50000100  0.66666400  0.50000000  1
  Li  Li2  1  0.49999900  0.41666600  0.00000100  1
  Li  Li3  1  0.49999800  0.91666200  0.00000400  1
  Li  Li4  1  0.00000000  0.41666800  0.50000200  1
  Li  Li5  1  0.00000100  0.91666500  0.49999700  1
  Li  Li6  1  0.50000000  0.08243600  0.00000100  1
  Li  Li7  1  0.50000100  0.58243200  0.00000100  1
  Li  Li8  1  0.49999900  0.25089800  0.00000100  1
  Li  Li9  1  0.49999900  0.75090200  0.00000300  1
  Li  Li10  1  0.49999900  0.33620500  0.50000300  1
  Li  Li11  1  0.50000100  0.83620500  0.49999800  1
  Li  Li12  1  0.50000000  0.49712600  0.50000200  1
  Li  Li13  1  0.50000100  0.99712900  0.50000000  1
  Mn  Mn14  1  0.99999900  0.66667800  0.00000500  1
  Mn  Mn15  1  0.99999700  0.99922900  0.99999800  1
  Mn  Mn16  1  0.99999800  0.33412600  0.00000400  1
  Mn  Mn17  1  0.00001200  0.08173100  0.49999700  1
  Mn  Mn18  1  0.99999600  0.25159200  0.50000400  1
  Mn  Mn19  1  0.00000500  0.16667700  0.99999700  1
  Mn  Mn20  1  0.00000000  0.49922800  0.00000400  1
  Mn  Mn21  1  0.99999400  0.83413300  0.99998600  1
  Mn  Mn22  1  0.00000400  0.58173500  0.49999800  1
  Mn  Mn23  1  0.00000200  0.75158900  0.49998900  1
  O  O24  1  0.23189000  0.16665600  0.27657300  1
  O  O25  1  0.23190800  0.66665500  0.27658000  1
  O  O26  1  0.76811100  0.16665600  0.72343100  1
  O  O27  1  0.76809000  0.66665600  0.72342200  1
  O  O28  1  0.23579500  0.41666700  0.78051100  1
  O  O29  1  0.23580600  0.91666900  0.78049800  1
  O  O30  1  0.76420300  0.41666700  0.21949400  1
  O  O31  1  0.76419900  0.91666800  0.21949500  1
  O  O32  1  0.23585800  0.08172000  0.77671100  1
  O  O33  1  0.23587100  0.58171700  0.77671000  1
  O  O34  1  0.23583600  0.25161200  0.77671300  1
  O  O35  1  0.23584400  0.75161900  0.77671200  1
  O  O36  1  0.76414400  0.08171900  0.22328900  1
  O  O37  1  0.76413000  0.58171600  0.22329000  1
  O  O38  1  0.76415700  0.25161200  0.22329400  1
  O  O39  1  0.76415700  0.75161800  0.22328200  1
  O  O40  1  0.20995800  0.32997500  0.23713100  1
  O  O41  1  0.20994900  0.82997500  0.23713700  1
  O  O42  1  0.20996600  0.00335400  0.23712500  1
  O  O43  1  0.20995700  0.50335800  0.23713200  1
  O  O44  1  0.79004000  0.32997600  0.76287300  1
  O  O45  1  0.79004300  0.82997500  0.76285900  1
  O  O46  1  0.79003800  0.00335400  0.76287600  1
  O  O47  1  0.79004300  0.50335900  0.76286700  1
