# generated using pymatgen
data_Te2MoWS2
_symmetry_space_group_name_H-M   'P 1'
_cell_length_a   3.36458021
_cell_length_b   3.36458021
_cell_length_c   40.08220300
_cell_angle_alpha   90.00000000
_cell_angle_beta   90.00000000
_cell_angle_gamma   120.00000421
_symmetry_Int_Tables_number   1
_chemical_formula_structural   Te2MoWS2
_chemical_formula_sum   'Te4 Mo2 W2 S4'
_cell_volume   392.95604111
_cell_formula_units_Z   2
loop_
 _symmetry_equiv_pos_site_id
 _symmetry_equiv_pos_as_xyz
  1  'x, y, z'
loop_
 _atom_site_type_symbol
 _atom_site_label
 _atom_site_symmetry_multiplicity
 _atom_site_fract_x
 _atom_site_fract_y
 _atom_site_fract_z
 _atom_site_occupancy
  Te  Te0  1  0.33333300  0.66666700  0.95165900  1
  Te  Te1  1  0.66666700  0.33333300  0.04834100  1
  Te  Te2  1  0.66666700  0.33333300  0.14301500  1
  Te  Te3  1  0.33333300  0.66666700  0.85698500  1
  Mo  Mo4  1  0.33333300  0.66666700  0.71808300  1
  Mo  Mo5  1  0.66666700  0.33333300  0.28191700  1
  W  W6  1  0.33333300  0.66666700  0.09567100  1
  W  W7  1  0.66666700  0.33333300  0.90432900  1
  S  S8  1  0.33333300  0.66666700  0.31960600  1
  S  S9  1  0.66666700  0.33333300  0.68039400  1
  S  S10  1  0.66666700  0.33333300  0.75585100  1
  S  S11  1  0.33333300  0.66666700  0.24414900  1
