# generated using pymatgen
data_Li4MnCo2O7
_symmetry_space_group_name_H-M   'P 1'
_cell_length_a   2.91245400
_cell_length_b   10.78412676
_cell_length_c   8.32744206
_cell_angle_alpha   78.00133105
_cell_angle_beta   90.00000000
_cell_angle_gamma   82.23939675
_symmetry_Int_Tables_number   1
_chemical_formula_structural   Li4MnCo2O7
_chemical_formula_sum   'Li8 Mn2 Co4 O14'
_cell_volume   253.38675110
_cell_formula_units_Z   2
loop_
 _symmetry_equiv_pos_site_id
 _symmetry_equiv_pos_as_xyz
  1  'x, y, z'
loop_
 _atom_site_type_symbol
 _atom_site_label
 _atom_site_symmetry_multiplicity
 _atom_site_fract_x
 _atom_site_fract_y
 _atom_site_fract_z
 _atom_site_occupancy
  Li  Li0  1  0.43388900  0.13222100  0.21422700  1
  Li  Li1  1  0.28108600  0.43782600  0.64647800  1
  Li  Li2  1  0.14192900  0.71614100  0.08327100  1
  Li  Li3  1  0.00741500  0.98517100  0.48717400  1
  Li  Li4  1  0.85585900  0.28828200  0.93126200  1
  Li  Li5  1  0.70879800  0.58240400  0.35685400  1
  Li  Li6  1  0.57552600  0.84894800  0.78488100  1
  Li  Li7  1  0.57050100  0.85899800  0.28726500  1
  Mn  Mn8  1  0.00043100  0.99913800  0.01290700  1
  Mn  Mn9  1  0.85836800  0.28326400  0.42626000  1
  Co  Co10  1  0.71050500  0.57899200  0.84523000  1
  Co  Co11  1  0.42986000  0.14027900  0.71651100  1
  Co  Co12  1  0.28345100  0.43309600  0.13152700  1
  Co  Co13  1  0.13775900  0.72448100  0.54825900  1
  O  O14  1  0.43509000  0.12982000  0.96895000  1
  O  O15  1  0.29610200  0.40779600  0.39999800  1
  O  O16  1  0.14682100  0.70635800  0.82507600  1
  O  O17  1  0.99978900  0.00042300  0.23059100  1
  O  O18  1  0.86574100  0.26851800  0.66615800  1
  O  O19  1  0.72006000  0.55987800  0.10328400  1
  O  O20  1  0.57359300  0.85281300  0.54102200  1
  O  O21  1  0.42071700  0.15856600  0.45583700  1
  O  O22  1  0.28484700  0.43030800  0.89903300  1
  O  O23  1  0.14549900  0.70900300  0.33500000  1
  O  O24  1  0.99096900  0.01806000  0.76213900  1
  O  O25  1  0.85063000  0.29873800  0.19175000  1
  O  O26  1  0.71335400  0.57329300  0.62067700  1
  O  O27  1  0.56140800  0.87718400  0.02837800  1
