# generated using pymatgen
data_MnFeCo(PO4)3
_symmetry_space_group_name_H-M   'P 1'
_cell_length_a   5.95631400
_cell_length_b   9.92872900
_cell_length_c   14.59209316
_cell_angle_alpha   89.48775836
_cell_angle_beta   90.00000000
_cell_angle_gamma   90.00000000
_symmetry_Int_Tables_number   1
_chemical_formula_structural   MnFeCo(PO4)3
_chemical_formula_sum   'Mn4 Fe4 Co4 P12 O48'
_cell_volume   862.92187521
_cell_formula_units_Z   4
loop_
 _symmetry_equiv_pos_site_id
 _symmetry_equiv_pos_as_xyz
  1  'x, y, z'
loop_
 _atom_site_type_symbol
 _atom_site_label
 _atom_site_symmetry_multiplicity
 _atom_site_fract_x
 _atom_site_fract_y
 _atom_site_fract_z
 _atom_site_occupancy
  Mn  Mn0  1  0.50000000  0.78240000  0.14678400  1
  Mn  Mn1  1  0.50000000  0.78138900  0.48098800  1
  Mn  Mn2  1  0.00000000  0.71358900  0.64720300  1
  Mn  Mn3  1  0.50000000  0.28313000  0.01984500  1
  Fe  Fe4  1  0.50000000  0.77782900  0.81952000  1
  Fe  Fe5  1  0.00000000  0.72302600  0.32180200  1
  Fe  Fe6  1  0.00000000  0.72686200  0.98752000  1
  Fe  Fe7  1  0.50000000  0.27608400  0.34685800  1
  Co  Co8  1  0.50000000  0.27636200  0.67933800  1
  Co  Co9  1  0.00000000  0.22306700  0.18283100  1
  Co  Co10  1  0.00000000  0.22028700  0.51863400  1
  Co  Co11  1  0.00000000  0.21841200  0.84805000  1
  P  P12  1  0.00000000  0.90345500  0.47219600  1
  P  P13  1  0.00000000  0.90622300  0.13820000  1
  P  P14  1  0.00000000  0.90243700  0.80324600  1
  P  P15  1  0.50000000  0.59972700  0.97359300  1
  P  P16  1  0.50000000  0.60108100  0.30635100  1
  P  P17  1  0.50000000  0.59646300  0.63974700  1
  P  P18  1  0.00000000  0.40179800  0.02780300  1
  P  P19  1  0.00000000  0.39938700  0.36303700  1
  P  P20  1  0.00000000  0.39971700  0.69542300  1
  P  P21  1  0.50000000  0.09844600  0.19222600  1
  P  P22  1  0.50000000  0.09618600  0.52754900  1
  P  P23  1  0.50000000  0.10023400  0.85914500  1
  O  O24  1  0.50000000  0.94737500  0.21554200  1
  O  O25  1  0.50000000  0.94477100  0.55200000  1
  O  O26  1  0.50000000  0.95003000  0.88335400  1
  O  O27  1  0.00000000  0.87938100  0.57631500  1
  O  O28  1  0.00000000  0.88264900  0.24142100  1
  O  O29  1  0.00000000  0.88270300  0.90821400  1
  O  O30  1  0.19929200  0.83033500  0.08861200  1
  O  O31  1  0.80070800  0.83033500  0.08861200  1
  O  O32  1  0.80066500  0.82835700  0.42263500  1
  O  O33  1  0.19933500  0.82835700  0.42263500  1
  O  O34  1  0.20477500  0.82824900  0.75819700  1
  O  O35  1  0.79522500  0.82824900  0.75819700  1
  O  O36  1  0.70120000  0.67291300  0.92509300  1
  O  O37  1  0.29880000  0.67291300  0.92509300  1
  O  O38  1  0.29581900  0.67351700  0.25959100  1
  O  O39  1  0.70418100  0.67351700  0.25959100  1
  O  O40  1  0.70174200  0.66762800  0.59009400  1
  O  O41  1  0.29825800  0.66762800  0.59009400  1
  O  O42  1  0.50000000  0.61892300  0.07857000  1
  O  O43  1  0.50000000  0.61708300  0.74309500  1
  O  O44  1  0.50000000  0.61934600  0.41168300  1
  O  O45  1  0.00000000  0.55231300  0.05075900  1
  O  O46  1  0.00000000  0.54965400  0.38609600  1
  O  O47  1  0.00000000  0.55157800  0.71861000  1
  O  O48  1  0.50000000  0.44853100  0.95260100  1
  O  O49  1  0.50000000  0.45005200  0.28626600  1
  O  O50  1  0.50000000  0.44318400  0.61902000  1
  O  O51  1  0.00000000  0.38194700  0.25824300  1
  O  O52  1  0.00000000  0.38319000  0.59063700  1
  O  O53  1  0.00000000  0.38150800  0.92487600  1
  O  O54  1  0.19977000  0.32752100  0.07907700  1
  O  O55  1  0.80023000  0.32752100  0.07907700  1
  O  O56  1  0.20237000  0.32427800  0.41061700  1
  O  O57  1  0.79763000  0.32427800  0.41061700  1
  O  O58  1  0.20102200  0.32807100  0.74455600  1
  O  O59  1  0.79897800  0.32807100  0.74455600  1
  O  O60  1  0.70442500  0.16990600  0.57502800  1
  O  O61  1  0.29557500  0.16990600  0.57502800  1
  O  O62  1  0.70164500  0.17232400  0.24061200  1
  O  O63  1  0.29835500  0.17232400  0.24061200  1
  O  O64  1  0.70439700  0.17373100  0.90505200  1
  O  O65  1  0.29560300  0.17373100  0.90505200  1
  O  O66  1  0.50000000  0.11556100  0.42356600  1
  O  O67  1  0.50000000  0.12084100  0.75363400  1
  O  O68  1  0.50000000  0.11719000  0.08763500  1
  O  O69  1  0.00000000  0.05591500  0.11303000  1
  O  O70  1  0.00000000  0.05291700  0.44874100  1
  O  O71  1  0.00000000  0.05283000  0.77795700  1
