# generated using pymatgen
data_Na14Fe2O9
_symmetry_space_group_name_H-M   'P 1'
_cell_length_a   6.72176404
_cell_length_b   9.42555618
_cell_length_c   11.57242279
_cell_angle_alpha   89.33929365
_cell_angle_beta   89.61762530
_cell_angle_gamma   90.25165081
_symmetry_Int_Tables_number   1
_chemical_formula_structural   Na14Fe2O9
_chemical_formula_sum   'Na28 Fe4 O18'
_cell_volume   733.11424137
_cell_formula_units_Z   2
loop_
 _symmetry_equiv_pos_site_id
 _symmetry_equiv_pos_as_xyz
  1  'x, y, z'
loop_
 _atom_site_type_symbol
 _atom_site_label
 _atom_site_symmetry_multiplicity
 _atom_site_fract_x
 _atom_site_fract_y
 _atom_site_fract_z
 _atom_site_occupancy
  Na  Na0  1  0.49953900  0.25196500  0.49983100  1
  Na  Na1  1  0.99955500  0.25199600  0.99989800  1
  Na  Na2  1  0.50018900  0.74808300  0.49982000  1
  Na  Na3  1  0.00022200  0.74809000  0.99988600  1
  Na  Na4  1  0.66014400  0.90827200  0.02015900  1
  Na  Na5  1  0.16016100  0.90827400  0.52014500  1
  Na  Na6  1  0.19962400  0.90755200  0.16128600  1
  Na  Na7  1  0.69963000  0.90753900  0.66126000  1
  Na  Na8  1  0.64280600  0.90785200  0.31983400  1
  Na  Na9  1  0.14255000  0.90793700  0.81984600  1
  Na  Na10  1  0.86050900  0.09133900  0.18068600  1
  Na  Na11  1  0.36068800  0.09127500  0.68066000  1
  Na  Na12  1  0.30196300  0.09228300  0.33886500  1
  Na  Na13  1  0.80186500  0.09223100  0.83896100  1
  Na  Na14  1  0.84144200  0.09262800  0.48079500  1
  Na  Na15  1  0.34136000  0.09259100  0.98073900  1
  Na  Na16  1  0.77723100  0.59041600  0.15461800  1
  Na  Na17  1  0.27724100  0.59049000  0.65464700  1
  Na  Na18  1  0.34402400  0.59269300  0.03077000  1
  Na  Na19  1  0.84409500  0.59275100  0.53072800  1
  Na  Na20  1  0.12085300  0.40844400  0.18801000  1
  Na  Na21  1  0.62058200  0.40849600  0.68803400  1
  Na  Na22  1  0.37629500  0.59256900  0.31199800  1
  Na  Na23  1  0.87663900  0.59247300  0.81199200  1
  Na  Na24  1  0.15513500  0.40734200  0.46907800  1
  Na  Na25  1  0.65496200  0.40721400  0.96923400  1
  Na  Na26  1  0.72074000  0.40853200  0.34430100  1
  Na  Na27  1  0.22063400  0.40841400  0.84422900  1
  Fe  Fe28  1  0.99787600  0.25953300  0.66784700  1
  Fe  Fe29  1  0.50133100  0.74043800  0.83158200  1
  Fe  Fe30  1  0.49835600  0.25941200  0.16814000  1
  Fe  Fe31  1  0.00061900  0.74029700  0.33164100  1
  O  O32  1  0.00129800  0.00000800  0.00000200  1
  O  O33  1  0.50131400  0.00003300  0.50022200  1
  O  O34  1  0.50274200  0.04115400  0.16517600  1
  O  O35  1  0.00318500  0.04107200  0.66551400  1
  O  O36  1  0.00124600  0.95891200  0.33576600  1
  O  O37  1  0.50073400  0.95885600  0.83567500  1
  O  O38  1  0.79354100  0.33457200  0.15333500  1
  O  O39  1  0.29397000  0.33434000  0.65323900  1
  O  O40  1  0.32909000  0.33669200  0.02809200  1
  O  O41  1  0.82939500  0.33700300  0.52848100  1
  O  O42  1  0.12179400  0.66096200  0.18000500  1
  O  O43  1  0.62207000  0.66079700  0.68029500  1
  O  O44  1  0.37492400  0.33956300  0.31916100  1
  O  O45  1  0.87443900  0.33943500  0.81903500  1
  O  O46  1  0.16936900  0.66503400  0.47276000  1
  O  O47  1  0.66939800  0.66487100  0.97240600  1
  O  O48  1  0.70668200  0.66349700  0.34558300  1
  O  O49  1  0.20614900  0.66377900  0.84553200  1
