data_image0
_chemical_formula_structural       Ag2C4Cs2
_chemical_formula_sum              "Ag2 C4 Cs2"
_cell_length_a       5.31463
_cell_length_b       5.31463
_cell_length_c       8.56799
_cell_angle_alpha    90
_cell_angle_beta     90
_cell_angle_gamma    90

_space_group_name_H-M_alt    "P 1"
_space_group_IT_number       1

loop_
  _space_group_symop_operation_xyz
  'x, y, z'

loop_
  _atom_site_type_symbol
  _atom_site_label
  _atom_site_symmetry_multiplicity
  _atom_site_fract_x
  _atom_site_fract_y
  _atom_site_fract_z
  _atom_site_occupancy
  Ag  Ag1       1.0  0.50000  0.50000  0.00000  1.0000
  Ag  Ag2       1.0  0.50000  0.50000  0.50000  1.0000
  C   C1        1.0  0.50000  0.11800  0.00000  1.0000
  C   C2        1.0  0.50000  0.88200  0.00000  1.0000
  C   C3        1.0  0.11800  0.50000  0.50000  1.0000
  C   C4        1.0  0.88200  0.50000  0.50000  1.0000
  Cs  Cs1       1.0  0.00000  0.00000  0.25000  1.0000
  Cs  Cs2       1.0  0.00000  0.00000  0.75000  1.0000
