# generated using pymatgen
data_Na2P2H12O11F2
_symmetry_space_group_name_H-M   'P 1'
_cell_length_a   10.02812897
_cell_length_b   10.02812897
_cell_length_c   12.80715779
_cell_angle_alpha   70.98019060
_cell_angle_beta   70.98019060
_cell_angle_gamma   31.25919825
_symmetry_Int_Tables_number   1
_chemical_formula_structural   Na2P2H12O11F2
_chemical_formula_sum   'Na4 P4 H24 O22 F4'
_cell_volume   628.88957202
_cell_formula_units_Z   2
loop_
 _symmetry_equiv_pos_site_id
 _symmetry_equiv_pos_as_xyz
  1  'x, y, z'
loop_
 _atom_site_type_symbol
 _atom_site_label
 _atom_site_symmetry_multiplicity
 _atom_site_fract_x
 _atom_site_fract_y
 _atom_site_fract_z
 _atom_site_occupancy
  Na  Na0  1  0.89576700  0.06280300  0.87927100  1
  Na  Na1  1  0.93719700  0.10423300  0.62072900  1
  Na  Na2  1  0.10423300  0.93719700  0.12072900  1
  Na  Na3  1  0.06280300  0.89576700  0.37927100  1
  P  P4  1  0.99528800  0.68018400  0.77947400  1
  P  P5  1  0.31981600  0.00471200  0.72052600  1
  P  P6  1  0.00471300  0.31981600  0.22052600  1
  P  P7  1  0.68018400  0.99528700  0.27947400  1
  H  H8  1  0.26849800  0.27123100  0.81056400  1
  H  H9  1  0.72876900  0.73150200  0.68943600  1
  H  H10  1  0.73150200  0.72876900  0.18943600  1
  H  H11  1  0.27123100  0.26849800  0.31056400  1
  H  H12  1  0.44968200  0.25155500  0.93725300  1
  H  H13  1  0.74844500  0.55031800  0.56274700  1
  H  H14  1  0.55031800  0.74844500  0.06274700  1
  H  H15  1  0.25155500  0.44968200  0.43725300  1
  H  H16  1  0.56923800  0.12648200  0.05039600  1
  H  H17  1  0.87351800  0.43076200  0.44960400  1
  H  H18  1  0.43076200  0.87351800  0.94960400  1
  H  H19  1  0.12648200  0.56923800  0.55039600  1
  H  H20  1  0.55888200  0.27843500  0.51374600  1
  H  H21  1  0.72156500  0.44111800  0.98625400  1
  H  H22  1  0.44111800  0.72156500  0.48625400  1
  H  H23  1  0.27843500  0.55888200  0.01374600  1
  H  H24  1  0.76675700  0.01079900  0.58433900  1
  H  H25  1  0.98920100  0.23324300  0.91566100  1
  H  H26  1  0.23324300  0.98920100  0.41566100  1
  H  H27  1  0.01079900  0.76675700  0.08433900  1
  H  H28  1  0.42521500  0.49383400  0.75596900  1
  H  H29  1  0.50616600  0.57478500  0.74403100  1
  H  H30  1  0.57478500  0.50616600  0.24403100  1
  H  H31  1  0.49383400  0.42521500  0.25596900  1
  O  O32  1  0.02826500  0.80473200  0.76654500  1
  O  O33  1  0.19526800  0.97173500  0.73345500  1
  O  O34  1  0.97173500  0.19526800  0.23345500  1
  O  O35  1  0.80473200  0.02826500  0.26654500  1
  O  O36  1  0.89312100  0.72902300  0.68509600  1
  O  O37  1  0.27097700  0.10687900  0.81490400  1
  O  O38  1  0.10687900  0.27097700  0.31490400  1
  O  O39  1  0.72902300  0.89312100  0.18509600  1
  O  O40  1  0.25675600  0.38075900  0.81506200  1
  O  O41  1  0.61924100  0.74324400  0.68493800  1
  O  O42  1  0.74324400  0.61924100  0.18493800  1
  O  O43  1  0.38075900  0.25675600  0.31506200  1
  O  O44  1  0.52352400  0.23827300  0.98270300  1
  O  O45  1  0.76172700  0.47647600  0.51729700  1
  O  O46  1  0.47647600  0.76172700  0.01729700  1
  O  O47  1  0.23827300  0.52352400  0.48270300  1
  O  O48  1  0.73869800  0.12935600  0.53277300  1
  O  O49  1  0.87064400  0.26130200  0.96722700  1
  O  O50  1  0.26130200  0.87064400  0.46722700  1
  O  O51  1  0.12935600  0.73869800  0.03277300  1
  O  O52  1  0.58051300  0.41948700  0.75000000  1
  O  O53  1  0.41948700  0.58051300  0.25000000  1
  F  F54  1  0.79837000  0.77620500  0.88670300  1
  F  F55  1  0.22379500  0.20163000  0.61329700  1
  F  F56  1  0.20163000  0.22379500  0.11329700  1
  F  F57  1  0.77620500  0.79837000  0.38670300  1
