# generated using pymatgen
data_V4O7
_symmetry_space_group_name_H-M   'P 1'
_cell_length_a   6.71820777
_cell_length_b   6.73456567
_cell_length_c   6.43496473
_cell_angle_alpha   68.53106728
_cell_angle_beta   87.67708476
_cell_angle_gamma   86.62510424
_symmetry_Int_Tables_number   1
_chemical_formula_structural   V4O7
_chemical_formula_sum   'V8 O14'
_cell_volume   270.41777113
_cell_formula_units_Z   2
loop_
 _symmetry_equiv_pos_site_id
 _symmetry_equiv_pos_as_xyz
  1  'x, y, z'
loop_
 _atom_site_type_symbol
 _atom_site_label
 _atom_site_symmetry_multiplicity
 _atom_site_fract_x
 _atom_site_fract_y
 _atom_site_fract_z
 _atom_site_occupancy
  V  V0  1  0.63861300  0.06228900  0.28872200  1
  V  V1  1  0.36138700  0.93771000  0.71127700  1
  V  V2  1  0.59997200  0.39078100  0.71444100  1
  V  V3  1  0.40002800  0.60921900  0.28555900  1
  V  V4  1  0.10295200  0.18419500  0.30309500  1
  V  V5  1  0.89704900  0.81580500  0.69690600  1
  V  V6  1  0.13720100  0.35713400  0.70313300  1
  V  V7  1  0.86279900  0.64286600  0.29686800  1
  O  O8  1  0.64790100  0.41715800  0.39439100  1
  O  O9  1  0.35210000  0.58284200  0.60561000  1
  O  O10  1  0.13487100  0.44786900  0.35648500  1
  O  O11  1  0.86513000  0.55213100  0.64351600  1
  O  O12  1  0.61347300  0.81801900  0.23263600  1
  O  O13  1  0.38652700  0.18198100  0.76736500  1
  O  O14  1  0.92290700  0.72406600  0.98363000  1
  O  O15  1  0.07709200  0.27593400  0.01637100  1
  O  O16  1  0.64808200  0.95647900  0.62249900  1
  O  O17  1  0.35191700  0.04352100  0.37750200  1
  O  O18  1  0.36397500  0.72378700  0.96613600  1
  O  O19  1  0.06601000  0.06875400  0.65012200  1
  O  O20  1  0.93399000  0.93124500  0.34987900  1
  O  O21  1  0.63602400  0.27621200  0.03386500  1
