# generated using pymatgen
data_Fe5O3F7
_symmetry_space_group_name_H-M   'P 1'
_cell_length_a   4.79681300
_cell_length_b   4.81059900
_cell_length_c   15.68016100
_cell_angle_alpha   90.00000000
_cell_angle_beta   90.00000000
_cell_angle_gamma   90.00000000
_symmetry_Int_Tables_number   1
_chemical_formula_structural   Fe5O3F7
_chemical_formula_sum   'Fe10 O6 F14'
_cell_volume   361.82824228
_cell_formula_units_Z   2
loop_
 _symmetry_equiv_pos_site_id
 _symmetry_equiv_pos_as_xyz
  1  'x, y, z'
loop_
 _atom_site_type_symbol
 _atom_site_label
 _atom_site_symmetry_multiplicity
 _atom_site_fract_x
 _atom_site_fract_y
 _atom_site_fract_z
 _atom_site_occupancy
  Fe  Fe0  1  0.00933500  0.75214600  0.90478600  1
  Fe  Fe1  1  0.00933500  0.75214600  0.09521400  1
  Fe  Fe2  1  0.97933600  0.70960600  0.29102800  1
  Fe  Fe3  1  0.03090900  0.78086000  0.50000000  1
  Fe  Fe4  1  0.97933600  0.70960600  0.70897200  1
  Fe  Fe5  1  0.53090900  0.21914000  0.00000000  1
  Fe  Fe6  1  0.50933500  0.24785400  0.40478600  1
  Fe  Fe7  1  0.47933600  0.29039400  0.20897200  1
  Fe  Fe8  1  0.50933500  0.24785400  0.59521400  1
  Fe  Fe9  1  0.47933600  0.29039400  0.79102800  1
  O  O10  1  0.18514600  0.55969100  0.19860400  1
  O  O11  1  0.18514600  0.55969100  0.80139600  1
  O  O12  1  0.68514600  0.44030900  0.30139600  1
  O  O13  1  0.68514600  0.44030900  0.69860400  1
  O  O14  1  0.31828300  0.07170400  0.50000000  1
  O  O15  1  0.81828300  0.92829600  0.00000000  1
  F  F16  1  0.21981700  0.52454700  0.00000000  1
  F  F17  1  0.19606400  0.55286600  0.39275100  1
  F  F18  1  0.19606400  0.55286600  0.60724900  1
  F  F19  1  0.69606400  0.44713400  0.89275100  1
  F  F20  1  0.69606400  0.44713400  0.10724900  1
  F  F21  1  0.71981700  0.47545300  0.50000000  1
  F  F22  1  0.30810500  0.05727900  0.89086200  1
  F  F23  1  0.30810500  0.05727900  0.10913800  1
  F  F24  1  0.28750800  0.04407100  0.29881400  1
  F  F25  1  0.28750800  0.04407100  0.70118600  1
  F  F26  1  0.80810500  0.94272100  0.39086200  1
  F  F27  1  0.78750800  0.95592900  0.20118600  1
  F  F28  1  0.78750800  0.95592900  0.79881400  1
  F  F29  1  0.80810500  0.94272100  0.60913800  1
