# generated using pymatgen
data_Li2MnP2O7
_symmetry_space_group_name_H-M   'P 1'
_cell_length_a   7.26821489
_cell_length_b   9.74065878
_cell_length_c   9.33203133
_cell_angle_alpha   118.47280977
_cell_angle_beta   96.99460015
_cell_angle_gamma   78.61849157
_symmetry_Int_Tables_number   1
_chemical_formula_structural   Li2MnP2O7
_chemical_formula_sum   'Li8 Mn4 P8 O28'
_cell_volume   569.05297163
_cell_formula_units_Z   4
loop_
 _symmetry_equiv_pos_site_id
 _symmetry_equiv_pos_as_xyz
  1  'x, y, z'
loop_
 _atom_site_type_symbol
 _atom_site_label
 _atom_site_symmetry_multiplicity
 _atom_site_fract_x
 _atom_site_fract_y
 _atom_site_fract_z
 _atom_site_occupancy
  Li  Li0  1  0.48992900  0.67853400  0.95399500  1
  Li  Li1  1  0.98980600  0.17865500  0.95420800  1
  Li  Li2  1  0.01013100  0.82135400  0.04597400  1
  Li  Li3  1  0.51023100  0.32132100  0.04591100  1
  Li  Li4  1  0.62620100  0.92917500  0.77025300  1
  Li  Li5  1  0.12622200  0.42935100  0.77024900  1
  Li  Li6  1  0.87374500  0.57079300  0.22972300  1
  Li  Li7  1  0.37377400  0.07073900  0.22974300  1
  Mn  Mn8  1  0.31544400  0.43529100  0.36881600  1
  Mn  Mn9  1  0.68459400  0.56476800  0.63101000  1
  Mn  Mn10  1  0.81525800  0.93510400  0.36895600  1
  Mn  Mn11  1  0.18436700  0.06550700  0.63171600  1
  P  P12  1  0.50287300  0.74495600  0.40693500  1
  P  P13  1  0.00298100  0.24488400  0.40688300  1
  P  P14  1  0.99703000  0.75512300  0.59312000  1
  P  P15  1  0.49703400  0.25512000  0.59308200  1
  P  P16  1  0.27980900  0.89207900  0.87082200  1
  P  P17  1  0.77985400  0.39204500  0.87068200  1
  P  P18  1  0.22023200  0.60785400  0.12915200  1
  P  P19  1  0.72021500  0.10783600  0.12921600  1
  O  O20  1  0.18033600  0.24766800  0.33581900  1
  O  O21  1  0.68025600  0.74769400  0.33583400  1
  O  O22  1  0.31971800  0.25242000  0.66425300  1
  O  O23  1  0.81971500  0.75232500  0.66415200  1
  O  O24  1  0.51907600  0.59452300  0.42759700  1
  O  O25  1  0.01911800  0.09451000  0.42764600  1
  O  O26  1  0.98085000  0.90558000  0.57243200  1
  O  O27  1  0.48090200  0.40551100  0.57233300  1
  O  O28  1  0.48455300  0.81040100  0.83591800  1
  O  O29  1  0.98467700  0.31032600  0.83579800  1
  O  O30  1  0.01543900  0.68946100  0.16399600  1
  O  O31  1  0.51545300  0.18954600  0.16409400  1
  O  O32  1  0.27166900  0.45431900  0.14382800  1
  O  O33  1  0.77158200  0.95435400  0.14394000  1
  O  O34  1  0.22838800  0.04565000  0.85620800  1
  O  O35  1  0.72849400  0.54553000  0.85600000  1
  O  O36  1  0.77499600  0.08485100  0.96479100  1
  O  O37  1  0.27504700  0.58490600  0.96478600  1
  O  O38  1  0.72511900  0.41497900  0.03511100  1
  O  O39  1  0.22502400  0.91500400  0.03521800  1
  O  O40  1  0.05774500  0.60358500  0.43817800  1
  O  O41  1  0.55767100  0.10353700  0.43815700  1
  O  O42  1  0.44212000  0.89649400  0.56182800  1
  O  O43  1  0.94224600  0.39646100  0.56179200  1
  O  O44  1  0.16012900  0.76165000  0.73002700  1
  O  O45  1  0.66023900  0.26160200  0.72992600  1
  O  O46  1  0.33981900  0.73832900  0.26995700  1
  O  O47  1  0.83988800  0.23829800  0.26993800  1
