# generated using pymatgen
data_U(MoO6)2
_symmetry_space_group_name_H-M   'P 1'
_cell_length_a   6.69387700
_cell_length_b   11.59232600
_cell_length_c   13.53998800
_cell_angle_alpha   90.00000000
_cell_angle_beta   90.00000000
_cell_angle_gamma   90.00000000
_symmetry_Int_Tables_number   1
_chemical_formula_structural   U(MoO6)2
_chemical_formula_sum   'U4 Mo8 O48'
_cell_volume   1050.67063224
_cell_formula_units_Z   4
loop_
 _symmetry_equiv_pos_site_id
 _symmetry_equiv_pos_as_xyz
  1  'x, y, z'
loop_
 _atom_site_type_symbol
 _atom_site_label
 _atom_site_symmetry_multiplicity
 _atom_site_fract_x
 _atom_site_fract_y
 _atom_site_fract_z
 _atom_site_occupancy
  U  U0  1  0.69343200  0.75000000  0.99803200  1
  U  U1  1  0.30656800  0.25000000  0.00196800  1
  U  U2  1  0.69343200  0.25000000  0.50196800  1
  U  U3  1  0.30656800  0.75000000  0.49803200  1
  Mo  Mo4  1  0.16538700  0.59220100  0.04268700  1
  Mo  Mo5  1  0.83461300  0.09220100  0.95731300  1
  Mo  Mo6  1  0.16538700  0.40779900  0.45731300  1
  Mo  Mo7  1  0.83461300  0.90779900  0.54268700  1
  Mo  Mo8  1  0.83461300  0.40779900  0.95731300  1
  Mo  Mo9  1  0.16538700  0.90779900  0.04268700  1
  Mo  Mo10  1  0.83461300  0.59220100  0.54268700  1
  Mo  Mo11  1  0.16538700  0.09220100  0.45731300  1
  O  O12  1  0.68903500  0.75000000  0.13087200  1
  O  O13  1  0.31096500  0.25000000  0.86912800  1
  O  O14  1  0.68903500  0.25000000  0.36912800  1
  O  O15  1  0.31096500  0.75000000  0.63087200  1
  O  O16  1  0.70697100  0.75000000  0.86570900  1
  O  O17  1  0.29302900  0.25000000  0.13429100  1
  O  O18  1  0.70697100  0.25000000  0.63429100  1
  O  O19  1  0.29302900  0.75000000  0.36570900  1
  O  O20  1  0.41189800  0.62569100  0.00159400  1
  O  O21  1  0.58810200  0.12569100  0.99840600  1
  O  O22  1  0.41189800  0.37430900  0.49840600  1
  O  O23  1  0.58810200  0.87430900  0.50159400  1
  O  O24  1  0.58810200  0.37430900  0.99840600  1
  O  O25  1  0.41189800  0.87430900  0.00159400  1
  O  O26  1  0.58810200  0.62569100  0.50159400  1
  O  O27  1  0.41189800  0.12569100  0.49840600  1
  O  O28  1  0.14285100  0.43390500  0.99794500  1
  O  O29  1  0.85714900  0.93390500  0.00205500  1
  O  O30  1  0.14285100  0.56609500  0.50205500  1
  O  O31  1  0.85714900  0.06609500  0.49794500  1
  O  O32  1  0.85714900  0.56609500  0.00205500  1
  O  O33  1  0.14285100  0.06609500  0.99794500  1
  O  O34  1  0.85714900  0.43390500  0.49794500  1
  O  O35  1  0.14285100  0.93390500  0.50205500  1
  O  O36  1  0.06366400  0.75000000  0.01439400  1
  O  O37  1  0.93633600  0.25000000  0.98560600  1
  O  O38  1  0.06366400  0.25000000  0.48560600  1
  O  O39  1  0.93633600  0.75000000  0.51439400  1
  O  O40  1  0.21403200  0.56730700  0.80711300  1
  O  O41  1  0.78596800  0.06730700  0.19288700  1
  O  O42  1  0.21403200  0.43269300  0.69288700  1
  O  O43  1  0.78596800  0.93269300  0.30711300  1
  O  O44  1  0.78596800  0.43269300  0.19288700  1
  O  O45  1  0.21403200  0.93269300  0.80711300  1
  O  O46  1  0.78596800  0.56730700  0.30711300  1
  O  O47  1  0.21403200  0.06730700  0.69288700  1
  O  O48  1  0.18266500  0.58767800  0.16817100  1
  O  O49  1  0.81733500  0.08767800  0.83182900  1
  O  O50  1  0.18266500  0.41232200  0.33182900  1
  O  O51  1  0.81733500  0.91232200  0.66817100  1
  O  O52  1  0.81733500  0.41232200  0.83182900  1
  O  O53  1  0.18266500  0.91232200  0.16817100  1
  O  O54  1  0.81733500  0.58767800  0.66817100  1
  O  O55  1  0.18266500  0.08767800  0.33182900  1
  O  O56  1  0.31326700  0.50000000  0.75000000  1
  O  O57  1  0.68673300  0.00000000  0.25000000  1
  O  O58  1  0.68673300  0.50000000  0.25000000  1
  O  O59  1  0.31326700  0.00000000  0.75000000  1
