# generated using pymatgen
data_YbBeF4
_symmetry_space_group_name_H-M   'P 1'
_cell_length_a   12.44663666
_cell_length_b   13.42508388
_cell_length_c   4.28531300
_cell_angle_alpha   90.00000000
_cell_angle_beta   90.00000000
_cell_angle_gamma   145.12699221
_symmetry_Int_Tables_number   1
_chemical_formula_structural   YbBeF4
_chemical_formula_sum   'Yb4 Be4 F16'
_cell_volume   409.41609091
_cell_formula_units_Z   4
loop_
 _symmetry_equiv_pos_site_id
 _symmetry_equiv_pos_as_xyz
  1  'x, y, z'
loop_
 _atom_site_type_symbol
 _atom_site_label
 _atom_site_symmetry_multiplicity
 _atom_site_fract_x
 _atom_site_fract_y
 _atom_site_fract_z
 _atom_site_occupancy
  Yb  Yb0  1  0.54738700  0.33794800  0.73935400  1
  Yb  Yb1  1  0.04738700  0.33794800  0.76064600  1
  Yb  Yb2  1  0.45261300  0.66205200  0.26064600  1
  Yb  Yb3  1  0.95261300  0.66205200  0.23935400  1
  Be  Be4  1  0.17520400  0.00847800  0.15373700  1
  Be  Be5  1  0.82479600  0.99152200  0.84626300  1
  Be  Be6  1  0.32479600  0.99152200  0.65373700  1
  Be  Be7  1  0.67520400  0.00847800  0.34626300  1
  F  F8  1  0.22525700  0.83250300  0.49001400  1
  F  F9  1  0.13905700  0.43234000  0.25757700  1
  F  F10  1  0.71156600  0.92873900  0.53192200  1
  F  F11  1  0.78843400  0.07126100  0.03192200  1
  F  F12  1  0.96704500  0.83617100  0.22280800  1
  F  F13  1  0.03295500  0.16382900  0.77719200  1
  F  F14  1  0.63905700  0.43234000  0.24242300  1
  F  F15  1  0.77474300  0.16749700  0.50998600  1
  F  F16  1  0.53295500  0.16382900  0.72280800  1
  F  F17  1  0.21156600  0.92873900  0.96807800  1
  F  F18  1  0.36094300  0.56766000  0.75757700  1
  F  F19  1  0.72525700  0.83250300  0.00998600  1
  F  F20  1  0.46704500  0.83617100  0.27719200  1
  F  F21  1  0.28843400  0.07126100  0.46807800  1
  F  F22  1  0.27474300  0.16749700  0.99001400  1
  F  F23  1  0.86094300  0.56766000  0.74242300  1
