# generated using pymatgen
data_Cs2(B2O3)9
_symmetry_space_group_name_H-M   'P 1'
_cell_length_a   8.89209532
_cell_length_b   8.89209532
_cell_length_c   15.39216800
_cell_angle_alpha   90.00000000
_cell_angle_beta   90.00000000
_cell_angle_gamma   93.29451008
_symmetry_Int_Tables_number   1
_chemical_formula_structural   Cs2(B2O3)9
_chemical_formula_sum   'Cs4 B36 O54'
_cell_volume   1215.03747638
_cell_formula_units_Z   2
loop_
 _symmetry_equiv_pos_site_id
 _symmetry_equiv_pos_as_xyz
  1  'x, y, z'
loop_
 _atom_site_type_symbol
 _atom_site_label
 _atom_site_symmetry_multiplicity
 _atom_site_fract_x
 _atom_site_fract_y
 _atom_site_fract_z
 _atom_site_occupancy
  Cs  Cs0  1  0.51592100  0.99468600  0.38221700  1
  Cs  Cs1  1  0.48407900  0.00531400  0.88221700  1
  Cs  Cs2  1  0.00531400  0.48407900  0.11778300  1
  Cs  Cs3  1  0.99468600  0.51592100  0.61778300  1
  B  B4  1  0.84075900  0.08245300  0.20181300  1
  B  B5  1  0.16465100  0.03611300  0.06475200  1
  B  B6  1  0.68289300  0.14746500  0.07960400  1
  B  B7  1  0.31843300  0.11843400  0.18540100  1
  B  B8  1  0.71605400  0.14858900  0.65186000  1
  B  B9  1  0.26481000  0.11498800  0.60437400  1
  B  B10  1  0.91754700  0.15924100  0.29818700  1
  B  B11  1  0.03611300  0.16465100  0.93524800  1
  B  B12  1  0.85141100  0.28394600  0.84814000  1
  B  B13  1  0.11498800  0.26481000  0.39562600  1
  B  B14  1  0.85253500  0.31710600  0.42039600  1
  B  B15  1  0.11843400  0.31843300  0.81459900  1
  B  B16  1  0.64035100  0.35964900  0.75000000  1
  B  B17  1  0.33497600  0.33497600  0.50000000  1
  B  B18  1  0.42828700  0.37613400  0.24181800  1
  B  B19  1  0.57603000  0.39551800  0.01703500  1
  B  B20  1  0.60448200  0.42397000  0.48296500  1
  B  B21  1  0.37613400  0.42828700  0.75818200  1
  B  B22  1  0.62386600  0.57171300  0.25818200  1
  B  B23  1  0.39551800  0.57603000  0.98296500  1
  B  B24  1  0.57171300  0.62386600  0.74181800  1
  B  B25  1  0.42397000  0.60448200  0.51703500  1
  B  B26  1  0.66502400  0.66502400  0.00000000  1
  B  B27  1  0.35964900  0.64035100  0.25000000  1
  B  B28  1  0.88156600  0.68156700  0.31459900  1
  B  B29  1  0.14746500  0.68289400  0.92039600  1
  B  B30  1  0.88501200  0.73519000  0.89562600  1
  B  B31  1  0.14858900  0.71605400  0.34814000  1
  B  B32  1  0.96388700  0.83534900  0.43524800  1
  B  B33  1  0.08245300  0.84075900  0.79818700  1
  B  B34  1  0.73519000  0.88501200  0.10437400  1
  B  B35  1  0.28394600  0.85141100  0.15186000  1
  B  B36  1  0.68156700  0.88156600  0.68540100  1
  B  B37  1  0.31710600  0.85253500  0.57960400  1
  B  B38  1  0.83534900  0.96388700  0.56475200  1
  B  B39  1  0.15924100  0.91754700  0.70181300  1
  O  O40  1  0.65601700  0.03053400  0.70324700  1
  O  O41  1  0.33923000  0.00390600  0.55949500  1
  O  O42  1  0.06565300  0.06565300  0.00000000  1
  O  O43  1  0.79917700  0.11018200  0.57799300  1
  O  O44  1  0.18088800  0.06787600  0.67958100  1
  O  O45  1  0.22038000  0.15187100  0.11819200  1
  O  O46  1  0.78360000  0.18961900  0.14606500  1
  O  O47  1  0.88981800  0.20082300  0.92200700  1
  O  O48  1  0.06787600  0.18088900  0.32041900  1
  O  O49  1  0.81038100  0.21640000  0.35393500  1
  O  O50  1  0.15187100  0.22038000  0.88180800  1
  O  O51  1  0.59691200  0.24511800  0.03716700  1
  O  O52  1  0.39784300  0.22214500  0.23274700  1
  O  O53  1  0.70251200  0.29301800  0.67073100  1
  O  O54  1  0.27028900  0.25845000  0.57900200  1
  O  O55  1  0.70698200  0.29748800  0.82926900  1
  O  O56  1  0.25845000  0.27028900  0.42099800  1
  O  O57  1  0.49822900  0.30929800  0.48831300  1
  O  O58  1  0.47697300  0.32236200  0.75784200  1
  O  O59  1  0.96946600  0.34398300  0.79675300  1
  O  O60  1  0.00390600  0.33923000  0.44050500  1
  O  O61  1  0.75488200  0.40308800  0.46283300  1
  O  O62  1  0.22214500  0.39784300  0.76725300  1
  O  O63  1  0.58114000  0.41886000  0.25000000  1
  O  O64  1  0.42742500  0.42742500  0.00000000  1
  O  O65  1  0.32236200  0.47697300  0.24215800  1
  O  O66  1  0.69070200  0.50177100  0.01168700  1
  O  O67  1  0.67763800  0.52302700  0.74215800  1
  O  O68  1  0.30929800  0.49822900  0.51168700  1
  O  O69  1  0.57257500  0.57257500  0.50000000  1
  O  O70  1  0.41886000  0.58114000  0.75000000  1
  O  O71  1  0.77785500  0.60215700  0.26725300  1
  O  O72  1  0.24511800  0.59691200  0.96283300  1
  O  O73  1  0.99609400  0.66077000  0.94050500  1
  O  O74  1  0.03053400  0.65601700  0.29675300  1
  O  O75  1  0.52302700  0.67763800  0.25784200  1
  O  O76  1  0.50177100  0.69070200  0.98831300  1
  O  O77  1  0.74155000  0.72971100  0.92099800  1
  O  O78  1  0.29301800  0.70251200  0.32926900  1
  O  O79  1  0.72971100  0.74155000  0.07900200  1
  O  O80  1  0.29748800  0.70698200  0.17073100  1
  O  O81  1  0.60215700  0.77785500  0.73274700  1
  O  O82  1  0.40308800  0.75488200  0.53716700  1
  O  O83  1  0.84812900  0.77962000  0.38180800  1
  O  O84  1  0.18961900  0.78360000  0.85393500  1
  O  O85  1  0.93212400  0.81911100  0.82041900  1
  O  O86  1  0.11018200  0.79917700  0.42200700  1
  O  O87  1  0.77962000  0.84812900  0.61819200  1
  O  O88  1  0.21640000  0.81038100  0.64606500  1
  O  O89  1  0.81911200  0.93212400  0.17958100  1
  O  O90  1  0.20082300  0.88981800  0.07799300  1
  O  O91  1  0.93434700  0.93434700  0.50000000  1
  O  O92  1  0.66077000  0.99609400  0.05949500  1
  O  O93  1  0.34398300  0.96946600  0.20324700  1
