# generated using pymatgen
data_Li17Cr6(Si2O7)6
_symmetry_space_group_name_H-M   'P 1'
_cell_length_a   8.60204014
_cell_length_b   8.60731316
_cell_length_c   13.05717548
_cell_angle_alpha   90.05998705
_cell_angle_beta   89.98033569
_cell_angle_gamma   59.99158223
_symmetry_Int_Tables_number   1
_chemical_formula_structural   Li17Cr6(Si2O7)6
_chemical_formula_sum   'Li17 Cr6 Si12 O42'
_cell_volume   837.16611485
_cell_formula_units_Z   1
loop_
 _symmetry_equiv_pos_site_id
 _symmetry_equiv_pos_as_xyz
  1  'x, y, z'
loop_
 _atom_site_type_symbol
 _atom_site_label
 _atom_site_symmetry_multiplicity
 _atom_site_fract_x
 _atom_site_fract_y
 _atom_site_fract_z
 _atom_site_occupancy
  Li  Li0  1  0.99880200  0.00639200  0.95280800  1
  Li  Li1  1  0.99904200  0.00321800  0.45369900  1
  Li  Li2  1  0.97224000  0.33415900  0.89784300  1
  Li  Li3  1  0.97651900  0.33350800  0.56743900  1
  Li  Li4  1  0.66710800  0.30332800  0.39932500  1
  Li  Li5  1  0.67509100  0.29897500  0.06746300  1
  Li  Li6  1  0.30602200  0.02605000  0.39834800  1
  Li  Li7  1  0.30263800  0.02221600  0.06901700  1
  Li  Li8  1  0.33291500  0.33448600  0.71014800  1
  Li  Li9  1  0.66851400  0.66482500  0.73272800  1
  Li  Li10  1  0.66725800  0.66434300  0.27614900  1
  Li  Li11  1  0.69737300  0.97187500  0.89996700  1
  Li  Li12  1  0.69114900  0.97842700  0.56637500  1
  Li  Li13  1  0.32904500  0.69343800  0.56558000  1
  Li  Li14  1  0.32897900  0.69880600  0.90032200  1
  Li  Li15  1  0.02984800  0.66438600  0.39882300  1
  Li  Li16  1  0.02566900  0.67056300  0.06800300  1
  Cr  Cr17  1  0.99900400  0.00195800  0.72884800  1
  Cr  Cr18  1  0.00062800  0.99722800  0.23058100  1
  Cr  Cr19  1  0.33368600  0.33193000  0.01501500  1
  Cr  Cr20  1  0.33295500  0.33285300  0.45529300  1
  Cr  Cr21  1  0.66640900  0.66644000  0.95659300  1
  Cr  Cr22  1  0.66668400  0.66645800  0.51102000  1
  Si  Si23  1  0.97453600  0.35249700  0.34695200  1
  Si  Si24  1  0.97157100  0.35372200  0.12025200  1
  Si  Si25  1  0.64728900  0.32822700  0.62119300  1
  Si  Si26  1  0.63993800  0.32983800  0.84666200  1
  Si  Si27  1  0.32925900  0.03162000  0.84672700  1
  Si  Si28  1  0.32623900  0.02639000  0.62104700  1
  Si  Si29  1  0.67255400  0.97122500  0.34724700  1
  Si  Si30  1  0.67312000  0.96879200  0.12054800  1
  Si  Si31  1  0.35557900  0.66963200  0.34671800  1
  Si  Si32  1  0.35671600  0.67061400  0.12048800  1
  Si  Si33  1  0.02997700  0.64243300  0.84678700  1
  Si  Si34  1  0.02388700  0.64993100  0.62147900  1
  O  O35  1  0.80092500  0.06144700  0.34340800  1
  O  O36  1  0.79565500  0.06453000  0.12780400  1
  O  O37  1  0.85880100  0.20214500  0.84457200  1
  O  O38  1  0.86661200  0.20750400  0.62784800  1
  O  O39  1  0.87596300  0.43887900  0.23330800  1
  O  O40  1  0.81069900  0.43020200  0.03417700  1
  O  O41  1  0.80384700  0.43482900  0.42801900  1
  O  O42  1  0.46523600  0.11084100  0.37260500  1
  O  O43  1  0.46231800  0.11451000  0.09346900  1
  O  O44  1  0.55992800  0.24405000  0.93078400  1
  O  O45  1  0.56779700  0.24253300  0.53857600  1
  O  O46  1  0.87951000  0.58086700  0.85977800  1
  O  O47  1  0.87814200  0.58223800  0.60743900  1
  O  O48  1  0.56175100  0.30922200  0.73344600  1
  O  O49  1  0.30979000  0.12957100  0.73349600  1
  O  O50  1  0.94201700  0.86080900  0.84591200  1
  O  O51  1  0.92609300  0.86904900  0.62834900  1
  O  O52  1  0.24481900  0.19925700  0.93001200  1
  O  O53  1  0.24001500  0.19234000  0.53912100  1
  O  O54  1  0.57636800  0.54172400  0.86143700  1
  O  O55  1  0.57822100  0.54151400  0.60594000  1
  O  O56  1  0.76320100  0.79851700  0.42644000  1
  O  O57  1  0.76060700  0.80647100  0.03548200  1
  O  O58  1  0.42349300  0.46227500  0.37121700  1
  O  O59  1  0.42266500  0.45964200  0.09315800  1
  O  O60  1  0.06598200  0.13517700  0.12590100  1
  O  O61  1  0.06464200  0.13395500  0.34303000  1
  O  O62  1  0.67984100  0.87508600  0.23342000  1
  O  O63  1  0.44432800  0.67714800  0.23304300  1
  O  O64  1  0.11480200  0.42050600  0.36948300  1
  O  O65  1  0.43853300  0.75968200  0.42597500  1
  O  O66  1  0.11825000  0.41858500  0.09559600  1
  O  O67  1  0.43126000  0.75827400  0.03549700  1
  O  O68  1  0.54032100  0.88210100  0.86228300  1
  O  O69  1  0.53899200  0.88149200  0.60448800  1
  O  O70  1  0.19442200  0.55897700  0.93176100  1
  O  O71  1  0.18739600  0.56971700  0.53760300  1
  O  O72  1  0.12970700  0.56439200  0.73346800  1
  O  O73  1  0.13848900  0.79205400  0.12838800  1
  O  O74  1  0.13708600  0.79867100  0.34316400  1
  O  O75  1  0.20478200  0.92871300  0.62789600  1
  O  O76  1  0.19880200  0.94396300  0.84596300  1
