# generated using pymatgen
data_SrB12(H3O2)4
_symmetry_space_group_name_H-M   'P 1'
_cell_length_a   7.29300318
_cell_length_b   7.29300318
_cell_length_c   7.29300378
_cell_angle_alpha   87.20992616
_cell_angle_beta   87.20992616
_cell_angle_gamma   87.20992638
_symmetry_Int_Tables_number   1
_chemical_formula_structural   SrB12(H3O2)4
_chemical_formula_sum   'Sr1 B12 H12 O8'
_cell_volume   386.56331120
_cell_formula_units_Z   1
loop_
 _symmetry_equiv_pos_site_id
 _symmetry_equiv_pos_as_xyz
  1  'x, y, z'
loop_
 _atom_site_type_symbol
 _atom_site_label
 _atom_site_symmetry_multiplicity
 _atom_site_fract_x
 _atom_site_fract_y
 _atom_site_fract_z
 _atom_site_occupancy
  Sr  Sr0  1  0.00000000  0.00000000  0.00000000  1
  B  B1  1  0.71674100  0.51609300  0.56888300  1
  B  B2  1  0.56888300  0.71674100  0.51609300  1
  B  B3  1  0.51609300  0.56888300  0.71674100  1
  B  B4  1  0.28325900  0.48390700  0.43111700  1
  B  B5  1  0.43111700  0.28325900  0.48390700  1
  B  B6  1  0.48390700  0.43111700  0.28325900  1
  B  B7  1  0.65948200  0.34034000  0.42139500  1
  B  B8  1  0.42139500  0.65948200  0.34034000  1
  B  B9  1  0.34034000  0.42139500  0.65948200  1
  B  B10  1  0.34051800  0.65966000  0.57860500  1
  B  B11  1  0.57860500  0.34051800  0.65966000  1
  B  B12  1  0.65966000  0.57860500  0.34051800  1
  H  H13  1  0.87136400  0.51794600  0.61619100  1
  H  H14  1  0.61619100  0.87136400  0.51794600  1
  H  H15  1  0.51794600  0.61619100  0.87136400  1
  H  H16  1  0.12863600  0.48205400  0.38380900  1
  H  H17  1  0.38380900  0.12863600  0.48205400  1
  H  H18  1  0.48205400  0.38380900  0.12863600  1
  H  H19  1  0.77121600  0.22916300  0.36338000  1
  H  H20  1  0.36338000  0.77121600  0.22916300  1
  H  H21  1  0.22916300  0.36338000  0.77121600  1
  H  H22  1  0.22878400  0.77083700  0.63662000  1
  H  H23  1  0.63662000  0.22878400  0.77083700  1
  H  H24  1  0.77083700  0.63662000  0.22878400  1
  O  O25  1  0.81936200  0.81936200  0.81936200  1
  O  O26  1  0.18063800  0.18063800  0.18063800  1
  O  O27  1  0.98529500  0.02619600  0.57744300  1
  O  O28  1  0.57744300  0.98529500  0.02619600  1
  O  O29  1  0.02619600  0.57744300  0.98529500  1
  O  O30  1  0.01470500  0.97380400  0.42255700  1
  O  O31  1  0.42255700  0.01470500  0.97380400  1
  O  O32  1  0.97380400  0.42255700  0.01470500  1
