# generated using pymatgen
data_Cu3O4
_symmetry_space_group_name_H-M   'P 1'
_cell_length_a   5.95145238
_cell_length_b   5.95145238
_cell_length_c   5.95145238
_cell_angle_alpha   118.35600879
_cell_angle_beta   107.42083729
_cell_angle_gamma   103.04189786
_symmetry_Int_Tables_number   1
_chemical_formula_structural   Cu3O4
_chemical_formula_sum   'Cu6 O8'
_cell_volume   159.10670113
_cell_formula_units_Z   2
loop_
 _symmetry_equiv_pos_site_id
 _symmetry_equiv_pos_as_xyz
  1  'x, y, z'
loop_
 _atom_site_type_symbol
 _atom_site_label
 _atom_site_symmetry_multiplicity
 _atom_site_fract_x
 _atom_site_fract_y
 _atom_site_fract_z
 _atom_site_occupancy
  Cu  Cu0  1  0.00000000  0.00000000  0.50000000  1
  Cu  Cu1  1  0.00000000  0.50000000  0.50000000  1
  Cu  Cu2  1  0.00000000  0.50000000  0.00000000  1
  Cu  Cu3  1  0.50000000  0.50000000  0.50000000  1
  Cu  Cu4  1  0.00000000  0.00000000  0.00000000  1
  Cu  Cu5  1  0.50000000  0.00000000  0.00000000  1
  O  O6  1  0.81288800  0.75000000  0.56288800  1
  O  O7  1  0.65347500  0.24450700  0.40896800  1
  O  O8  1  0.81288800  0.25000000  0.06288800  1
  O  O9  1  0.83553900  0.74450700  0.09103200  1
  O  O10  1  0.16446100  0.25549300  0.90896800  1
  O  O11  1  0.18711200  0.75000000  0.93711200  1
  O  O12  1  0.34652500  0.75549300  0.59103200  1
  O  O13  1  0.18711200  0.25000000  0.43711200  1
