# generated using pymatgen
data_LaAl3O6
_symmetry_space_group_name_H-M   'P 1'
_cell_length_a   7.05859762
_cell_length_b   7.05859762
_cell_length_c   6.24900861
_cell_angle_alpha   68.14826608
_cell_angle_beta   68.14826608
_cell_angle_gamma   79.08154620
_symmetry_Int_Tables_number   1
_chemical_formula_structural   LaAl3O6
_chemical_formula_sum   'La2 Al6 O12'
_cell_volume   267.74772515
_cell_formula_units_Z   2
loop_
 _symmetry_equiv_pos_site_id
 _symmetry_equiv_pos_as_xyz
  1  'x, y, z'
loop_
 _atom_site_type_symbol
 _atom_site_label
 _atom_site_symmetry_multiplicity
 _atom_site_fract_x
 _atom_site_fract_y
 _atom_site_fract_z
 _atom_site_occupancy
  La  La0  1  0.81442600  0.18557400  0.25000000  1
  La  La1  1  0.18557400  0.81442600  0.75000000  1
  Al  Al2  1  0.19247200  0.80752800  0.25000000  1
  Al  Al3  1  0.76392000  0.64512400  0.32264900  1
  Al  Al4  1  0.35487600  0.23608000  0.17735100  1
  Al  Al5  1  0.64512400  0.76392000  0.82264900  1
  Al  Al6  1  0.23608000  0.35487600  0.67735100  1
  Al  Al7  1  0.80752800  0.19247200  0.75000000  1
  O  O8  1  0.18322200  0.61353200  0.52253800  1
  O  O9  1  0.19168900  0.02761400  0.32063400  1
  O  O10  1  0.39795200  0.25613500  0.43827900  1
  O  O11  1  0.97238600  0.80831100  0.17936600  1
  O  O12  1  0.38646800  0.81677800  0.97746200  1
  O  O13  1  0.25613500  0.39795200  0.93827900  1
  O  O14  1  0.74386500  0.60204800  0.06172100  1
  O  O15  1  0.61353200  0.18322200  0.02253800  1
  O  O16  1  0.02761400  0.19168900  0.82063400  1
  O  O17  1  0.60204800  0.74386500  0.56172100  1
  O  O18  1  0.80831100  0.97238600  0.67936600  1
  O  O19  1  0.81677800  0.38646800  0.47746200  1
