# generated using pymatgen
data_Yb(Mo3S4)2
_symmetry_space_group_name_H-M   'P 1'
_cell_length_a   10.76763367
_cell_length_b   6.60277100
_cell_length_c   11.59998834
_cell_angle_alpha   38.87184822
_cell_angle_beta   145.30425000
_cell_angle_gamma   130.07647520
_symmetry_Int_Tables_number   1
_chemical_formula_structural   Yb(Mo3S4)2
_chemical_formula_sum   'Yb1 Mo6 S8'
_cell_volume   294.59771239
_cell_formula_units_Z   1
loop_
 _symmetry_equiv_pos_site_id
 _symmetry_equiv_pos_as_xyz
  1  'x, y, z'
loop_
 _atom_site_type_symbol
 _atom_site_label
 _atom_site_symmetry_multiplicity
 _atom_site_fract_x
 _atom_site_fract_y
 _atom_site_fract_z
 _atom_site_occupancy
  Yb  Yb0  1  0.00000000  0.00000000  0.00000000  1
  Mo  Mo1  1  0.18584400  0.04217100  0.79254200  1
  Mo  Mo2  1  0.38478400  0.63180600  0.26826100  1
  Mo  Mo3  1  0.36892500  0.30616200  0.00840100  1
  Mo  Mo4  1  0.81415600  0.95782900  0.20745800  1
  Mo  Mo5  1  0.61521600  0.36819400  0.73173900  1
  Mo  Mo6  1  0.63107500  0.69383800  0.99159900  1
  S  S7  1  0.08894200  0.36762600  0.23669300  1
  S  S8  1  0.44897600  0.89762000  0.38691400  1
  S  S9  1  0.97916700  0.51135400  0.36307700  1
  S  S10  1  0.91105800  0.63237400  0.76330700  1
  S  S11  1  0.55102400  0.10238000  0.61308600  1
  S  S12  1  0.02083300  0.48864600  0.63692300  1
  S  S13  1  0.43792500  0.68524400  0.05465400  1
  S  S14  1  0.56207500  0.31475600  0.94534600  1
