# generated using pymatgen
data_Ba5Y3I19
_symmetry_space_group_name_H-M   'P 1'
_cell_length_a   11.82552700
_cell_length_b   14.90082925
_cell_length_c   16.66359945
_cell_angle_alpha   86.87298529
_cell_angle_beta   109.94208547
_cell_angle_gamma   101.46042795
_symmetry_Int_Tables_number   1
_chemical_formula_structural   Ba5Y3I19
_chemical_formula_sum   'Ba10 Y6 I38'
_cell_volume   2704.91750492
_cell_formula_units_Z   2
loop_
 _symmetry_equiv_pos_site_id
 _symmetry_equiv_pos_as_xyz
  1  'x, y, z'
loop_
 _atom_site_type_symbol
 _atom_site_label
 _atom_site_symmetry_multiplicity
 _atom_site_fract_x
 _atom_site_fract_y
 _atom_site_fract_z
 _atom_site_occupancy
  Ba  Ba0  1  0.33598400  0.58573400  0.56615500  1
  Ba  Ba1  1  0.19606300  0.81068000  0.76140400  1
  Ba  Ba2  1  0.26217000  0.33292200  0.19918900  1
  Ba  Ba3  1  0.60852100  0.28220700  0.83202300  1
  Ba  Ba4  1  0.94121500  0.18966100  0.65031100  1
  Ba  Ba5  1  0.05878500  0.81033900  0.34968900  1
  Ba  Ba6  1  0.39147900  0.71779300  0.16797700  1
  Ba  Ba7  1  0.73783000  0.66707800  0.80081100  1
  Ba  Ba8  1  0.80393700  0.18932000  0.23859600  1
  Ba  Ba9  1  0.66401600  0.41426600  0.43384500  1
  Y  Y10  1  0.16411800  0.46226300  0.83134100  1
  Y  Y11  1  0.74312700  0.99954000  0.98390800  1
  Y  Y12  1  0.66628500  0.81479100  0.51990100  1
  Y  Y13  1  0.33371500  0.18520900  0.48009900  1
  Y  Y14  1  0.25687300  0.00046000  0.01609200  1
  Y  Y15  1  0.83588200  0.53773700  0.16865900  1
  I  I16  1  0.33899400  0.33684200  0.86043400  1
  I  I17  1  0.24189900  0.50351100  0.02470100  1
  I  I18  1  0.10501900  0.15304800  0.31730300  1
  I  I19  1  0.06572800  0.42795500  0.63791800  1
  I  I20  1  0.99715900  0.60583100  0.78961600  1
  I  I21  1  0.34868600  0.62259700  0.79513500  1
  I  I22  1  0.65930500  0.80539700  0.92627800  1
  I  I23  1  0.19932300  0.79372800  0.97194500  1
  I  I24  1  0.32618500  0.38917000  0.44857100  1
  I  I25  1  0.50000000  0.00000000  0.00000000  1
  I  I26  1  0.00000000  0.00000000  0.00000000  1
  I  I27  1  0.13408000  0.73095000  0.55857600  1
  I  I28  1  0.53582000  0.79151100  0.65612800  1
  I  I29  1  0.65386000  0.06255800  0.80093100  1
  I  I30  1  0.18360600  0.03702600  0.82285000  1
  I  I31  1  0.45838600  0.53175900  0.28796700  1
  I  I32  1  0.39217600  0.75126400  0.39907600  1
  I  I33  1  0.77272700  0.80920200  0.38170100  1
  I  I34  1  0.94160800  0.31134900  0.83005600  1
  I  I35  1  0.29847200  0.98173800  0.48847800  1
  I  I36  1  0.70152800  0.01826200  0.51152200  1
  I  I37  1  0.05839200  0.68865100  0.16994400  1
  I  I38  1  0.22727300  0.19079800  0.61829900  1
  I  I39  1  0.60782400  0.24873600  0.60092400  1
  I  I40  1  0.54161400  0.46824100  0.71203300  1
  I  I41  1  0.81639400  0.96297400  0.17715000  1
  I  I42  1  0.34614000  0.93744200  0.19906900  1
  I  I43  1  0.46418000  0.20848900  0.34387200  1
  I  I44  1  0.86592000  0.26905000  0.44142400  1
  I  I45  1  0.67381500  0.61083000  0.55142900  1
  I  I46  1  0.80067700  0.20627200  0.02805500  1
  I  I47  1  0.34069500  0.19460300  0.07372200  1
  I  I48  1  0.65131400  0.37740300  0.20486500  1
  I  I49  1  0.00284100  0.39416900  0.21038400  1
  I  I50  1  0.93427200  0.57204500  0.36208200  1
  I  I51  1  0.89498100  0.84695200  0.68269700  1
  I  I52  1  0.75810100  0.49648900  0.97529900  1
  I  I53  1  0.66100600  0.66315800  0.13956600  1
