# generated using pymatgen
data_SrSn2Cl6O5
_symmetry_space_group_name_H-M   'P 1'
_cell_length_a   9.76057749
_cell_length_b   9.76057749
_cell_length_c   10.56484214
_cell_angle_alpha   75.97309453
_cell_angle_beta   75.97309453
_cell_angle_gamma   112.28683118
_symmetry_Int_Tables_number   1
_chemical_formula_structural   SrSn2Cl6O5
_chemical_formula_sum   'Sr2 Sn4 Cl12 O10'
_cell_volume   838.55571192
_cell_formula_units_Z   2
loop_
 _symmetry_equiv_pos_site_id
 _symmetry_equiv_pos_as_xyz
  1  'x, y, z'
loop_
 _atom_site_type_symbol
 _atom_site_label
 _atom_site_symmetry_multiplicity
 _atom_site_fract_x
 _atom_site_fract_y
 _atom_site_fract_z
 _atom_site_occupancy
  Sr  Sr0  1  0.09497800  0.90502200  0.75000000  1
  Sr  Sr1  1  0.90502200  0.09497800  0.25000000  1
  Sn  Sn2  1  0.62453500  0.79773700  0.90500500  1
  Sn  Sn3  1  0.20226300  0.37546500  0.59499500  1
  Sn  Sn4  1  0.37546500  0.20226300  0.09499500  1
  Sn  Sn5  1  0.79773700  0.62453500  0.40500500  1
  Cl  Cl6  1  0.53227300  0.85869900  0.71672300  1
  Cl  Cl7  1  0.14130100  0.46772700  0.78327700  1
  Cl  Cl8  1  0.46772700  0.14130100  0.28327700  1
  Cl  Cl9  1  0.85869900  0.53227300  0.21672300  1
  Cl  Cl10  1  0.38897300  0.58898700  0.08058300  1
  Cl  Cl11  1  0.41101300  0.61102700  0.41941700  1
  Cl  Cl12  1  0.61102700  0.41101300  0.91941700  1
  Cl  Cl13  1  0.58898700  0.38897300  0.58058300  1
  Cl  Cl14  1  0.32651300  0.00008800  0.00036900  1
  Cl  Cl15  1  0.99991200  0.67348700  0.49963100  1
  Cl  Cl16  1  0.67348700  0.99991200  0.99963100  1
  Cl  Cl17  1  0.00008800  0.32651300  0.50036900  1
  O  O18  1  0.82036100  0.79243000  0.83321000  1
  O  O19  1  0.20757000  0.17963900  0.66679000  1
  O  O20  1  0.17963900  0.20757000  0.16679000  1
  O  O21  1  0.79243000  0.82036100  0.33321000  1
  O  O22  1  0.98890700  0.93009000  0.01847600  1
  O  O23  1  0.06991000  0.01109300  0.48152400  1
  O  O24  1  0.01109300  0.06991000  0.98152400  1
  O  O25  1  0.93009000  0.98890700  0.51847600  1
  O  O26  1  0.24696100  0.75303900  0.75000000  1
  O  O27  1  0.75303900  0.24696100  0.25000000  1
