# generated using pymatgen
data_Dy3TaO7
_symmetry_space_group_name_H-M   'P 1'
_cell_length_a   7.45705200
_cell_length_b   7.58704900
_cell_length_c   10.58409400
_cell_angle_alpha   90.00000000
_cell_angle_beta   90.00000000
_cell_angle_gamma   90.00000000
_symmetry_Int_Tables_number   1
_chemical_formula_structural   Dy3TaO7
_chemical_formula_sum   'Dy12 Ta4 O28'
_cell_volume   598.81648648
_cell_formula_units_Z   4
loop_
 _symmetry_equiv_pos_site_id
 _symmetry_equiv_pos_as_xyz
  1  'x, y, z'
loop_
 _atom_site_type_symbol
 _atom_site_label
 _atom_site_symmetry_multiplicity
 _atom_site_fract_x
 _atom_site_fract_y
 _atom_site_fract_z
 _atom_site_occupancy
  Dy  Dy0  1  0.01584500  0.79725000  0.25000000  1
  Dy  Dy1  1  0.25243200  0.96856200  0.52079600  1
  Dy  Dy2  1  0.25243200  0.96856200  0.97920400  1
  Dy  Dy3  1  0.24756800  0.46856200  0.02079600  1
  Dy  Dy4  1  0.24756800  0.46856200  0.47920400  1
  Dy  Dy5  1  0.48415500  0.29725000  0.75000000  1
  Dy  Dy6  1  0.51584500  0.70275000  0.25000000  1
  Dy  Dy7  1  0.75243200  0.53143800  0.52079600  1
  Dy  Dy8  1  0.75243200  0.53143800  0.97920400  1
  Dy  Dy9  1  0.74756800  0.03143800  0.02079600  1
  Dy  Dy10  1  0.74756800  0.03143800  0.47920400  1
  Dy  Dy11  1  0.98415500  0.20275000  0.75000000  1
  Ta  Ta12  1  0.99789000  0.75002900  0.75000000  1
  Ta  Ta13  1  0.50211000  0.25002900  0.25000000  1
  Ta  Ta14  1  0.49789000  0.74997100  0.75000000  1
  Ta  Ta15  1  0.00211000  0.24997100  0.25000000  1
  O  O16  1  0.03673400  0.04614100  0.12481200  1
  O  O17  1  0.03673400  0.04614100  0.37518800  1
  O  O18  1  0.03966900  0.58840200  0.61063200  1
  O  O19  1  0.03966900  0.58840200  0.88936800  1
  O  O20  1  0.24877800  0.33497600  0.25000000  1
  O  O21  1  0.25766000  0.73328100  0.11603800  1
  O  O22  1  0.25766000  0.73328100  0.38396200  1
  O  O23  1  0.24234000  0.23328100  0.61603800  1
  O  O24  1  0.24234000  0.23328100  0.88396200  1
  O  O25  1  0.25122200  0.83497600  0.75000000  1
  O  O26  1  0.46033100  0.08840200  0.11063200  1
  O  O27  1  0.46033100  0.08840200  0.38936800  1
  O  O28  1  0.46326600  0.54614100  0.62481200  1
  O  O29  1  0.46326600  0.54614100  0.87518800  1
  O  O30  1  0.53673400  0.45385900  0.12481200  1
  O  O31  1  0.53673400  0.45385900  0.37518800  1
  O  O32  1  0.53966900  0.91159800  0.61063200  1
  O  O33  1  0.53966900  0.91159800  0.88936800  1
  O  O34  1  0.74877800  0.16502400  0.25000000  1
  O  O35  1  0.75766000  0.76671900  0.11603800  1
  O  O36  1  0.75766000  0.76671900  0.38396200  1
  O  O37  1  0.74234000  0.26671900  0.61603800  1
  O  O38  1  0.74234000  0.26671900  0.88396200  1
  O  O39  1  0.75122200  0.66502400  0.75000000  1
  O  O40  1  0.96033100  0.41159800  0.11063200  1
  O  O41  1  0.96033100  0.41159800  0.38936800  1
  O  O42  1  0.96326600  0.95385900  0.62481200  1
  O  O43  1  0.96326600  0.95385900  0.87518800  1
