# generated using pymatgen
data_KAl(SO10)2
_symmetry_space_group_name_H-M   'P 1'
_cell_length_a   11.58769700
_cell_length_b   11.58769700
_cell_length_c   11.58769700
_cell_angle_alpha   90.00000000
_cell_angle_beta   90.00000000
_cell_angle_gamma   90.00000000
_symmetry_Int_Tables_number   1
_chemical_formula_structural   KAl(SO10)2
_chemical_formula_sum   'K4 Al4 S8 O80'
_cell_volume   1555.93479056
_cell_formula_units_Z   4
loop_
 _symmetry_equiv_pos_site_id
 _symmetry_equiv_pos_as_xyz
  1  'x, y, z'
loop_
 _atom_site_type_symbol
 _atom_site_label
 _atom_site_symmetry_multiplicity
 _atom_site_fract_x
 _atom_site_fract_y
 _atom_site_fract_z
 _atom_site_occupancy
  K  K0  1  0.50000000  0.50000000  0.00000000  1
  K  K1  1  0.50000000  0.00000000  0.50000000  1
  K  K2  1  0.00000000  0.50000000  0.50000000  1
  K  K3  1  0.00000000  0.00000000  0.00000000  1
  Al  Al4  1  0.00000000  0.00000000  0.50000000  1
  Al  Al5  1  0.00000000  0.50000000  0.00000000  1
  Al  Al6  1  0.50000000  0.00000000  0.00000000  1
  Al  Al7  1  0.50000000  0.50000000  0.50000000  1
  S  S8  1  0.30745600  0.69254400  0.19254400  1
  S  S9  1  0.69254400  0.19254400  0.30745600  1
  S  S10  1  0.19254400  0.30745600  0.69254400  1
  S  S11  1  0.80745600  0.80745600  0.80745600  1
  S  S12  1  0.69254400  0.30745600  0.80745600  1
  S  S13  1  0.30745600  0.80745600  0.69254400  1
  S  S14  1  0.80745600  0.69254400  0.30745600  1
  S  S15  1  0.19254400  0.19254400  0.19254400  1
  O  O16  1  0.23520500  0.76479500  0.26479500  1
  O  O17  1  0.76479500  0.26479500  0.23520500  1
  O  O18  1  0.26479500  0.23520500  0.76479500  1
  O  O19  1  0.73520500  0.73520500  0.73520500  1
  O  O20  1  0.76479500  0.23520500  0.73520500  1
  O  O21  1  0.23520500  0.73520500  0.76479500  1
  O  O22  1  0.73520500  0.76479500  0.23520500  1
  O  O23  1  0.26479500  0.26479500  0.26479500  1
  O  O24  1  0.26888200  0.56881900  0.18918200  1
  O  O25  1  0.73111800  0.06881900  0.31081800  1
  O  O26  1  0.23111800  0.43118100  0.68918200  1
  O  O27  1  0.76888200  0.93118100  0.81081800  1
  O  O28  1  0.18918200  0.26888200  0.56881900  1
  O  O29  1  0.31081800  0.73111800  0.06881900  1
  O  O30  1  0.68918200  0.23111800  0.43118100  1
  O  O31  1  0.81081800  0.76888200  0.93118100  1
  O  O32  1  0.56881900  0.18918200  0.26888200  1
  O  O33  1  0.06881900  0.31081800  0.73111800  1
  O  O34  1  0.43118100  0.68918200  0.23111800  1
  O  O35  1  0.93118100  0.81081800  0.76888200  1
  O  O36  1  0.73111800  0.43118100  0.81081800  1
  O  O37  1  0.26888200  0.93118100  0.68918200  1
  O  O38  1  0.76888200  0.56881900  0.31081800  1
  O  O39  1  0.23111800  0.06881900  0.18918200  1
  O  O40  1  0.81081800  0.73111800  0.43118100  1
  O  O41  1  0.68918200  0.26888200  0.93118100  1
  O  O42  1  0.31081800  0.76888200  0.56881900  1
  O  O43  1  0.18918200  0.23111800  0.06881900  1
  O  O44  1  0.43118100  0.81081800  0.73111800  1
  O  O45  1  0.93118100  0.68918200  0.26888200  1
  O  O46  1  0.56881900  0.31081800  0.76888200  1
  O  O47  1  0.06881900  0.18918200  0.23111800  1
  O  O48  1  0.08676800  0.77161600  0.46594300  1
  O  O49  1  0.91323200  0.27161600  0.03405700  1
  O  O50  1  0.41323200  0.22838400  0.96594300  1
  O  O51  1  0.58676800  0.72838400  0.53405700  1
  O  O52  1  0.46594300  0.08676800  0.77161600  1
  O  O53  1  0.03405700  0.91323200  0.27161600  1
  O  O54  1  0.96594300  0.41323200  0.22838400  1
  O  O55  1  0.53405700  0.58676800  0.72838400  1
  O  O56  1  0.77161600  0.46594300  0.08676800  1
  O  O57  1  0.27161600  0.03405700  0.91323200  1
  O  O58  1  0.22838400  0.96594300  0.41323200  1
  O  O59  1  0.72838400  0.53405700  0.58676800  1
  O  O60  1  0.91323200  0.22838400  0.53405700  1
  O  O61  1  0.08676800  0.72838400  0.96594300  1
  O  O62  1  0.58676800  0.77161600  0.03405700  1
  O  O63  1  0.41323200  0.27161600  0.46594300  1
  O  O64  1  0.53405700  0.91323200  0.22838400  1
  O  O65  1  0.96594300  0.08676800  0.72838400  1
  O  O66  1  0.03405700  0.58676800  0.77161600  1
  O  O67  1  0.46594300  0.41323200  0.27161600  1
  O  O68  1  0.22838400  0.53405700  0.91323200  1
  O  O69  1  0.72838400  0.96594300  0.08676800  1
  O  O70  1  0.77161600  0.03405700  0.58676800  1
  O  O71  1  0.27161600  0.46594300  0.41323200  1
  O  O72  1  0.16500700  0.47748900  0.98255000  1
  O  O73  1  0.83499300  0.97748900  0.51745000  1
  O  O74  1  0.33499300  0.52251100  0.48255000  1
  O  O75  1  0.66500700  0.02251100  0.01745000  1
  O  O76  1  0.98255000  0.16500700  0.47748900  1
  O  O77  1  0.51745000  0.83499300  0.97748900  1
  O  O78  1  0.48255000  0.33499300  0.52251100  1
  O  O79  1  0.01745000  0.66500700  0.02251100  1
  O  O80  1  0.47748900  0.98255000  0.16500700  1
  O  O81  1  0.97748900  0.51745000  0.83499300  1
  O  O82  1  0.52251100  0.48255000  0.33499300  1
  O  O83  1  0.02251100  0.01745000  0.66500700  1
  O  O84  1  0.83499300  0.52251100  0.01745000  1
  O  O85  1  0.16500700  0.02251100  0.48255000  1
  O  O86  1  0.66500700  0.47748900  0.51745000  1
  O  O87  1  0.33499300  0.97748900  0.98255000  1
  O  O88  1  0.01745000  0.83499300  0.52251100  1
  O  O89  1  0.48255000  0.16500700  0.02251100  1
  O  O90  1  0.51745000  0.66500700  0.47748900  1
  O  O91  1  0.98255000  0.33499300  0.97748900  1
  O  O92  1  0.52251100  0.01745000  0.83499300  1
  O  O93  1  0.02251100  0.48255000  0.16500700  1
  O  O94  1  0.47748900  0.51745000  0.66500700  1
  O  O95  1  0.97748900  0.98255000  0.33499300  1
