# generated using pymatgen
data_Rb3GaP6(HO3)6
_symmetry_space_group_name_H-M   'P 1'
_cell_length_a   9.67579611
_cell_length_b   9.67579611
_cell_length_c   9.67579628
_cell_angle_alpha   112.23379971
_cell_angle_beta   112.23379971
_cell_angle_gamma   112.23379831
_symmetry_Int_Tables_number   1
_chemical_formula_structural   Rb3GaP6(HO3)6
_chemical_formula_sum   'Rb3 Ga1 P6 H6 O18'
_cell_volume   615.79540931
_cell_formula_units_Z   1
loop_
 _symmetry_equiv_pos_site_id
 _symmetry_equiv_pos_as_xyz
  1  'x, y, z'
loop_
 _atom_site_type_symbol
 _atom_site_label
 _atom_site_symmetry_multiplicity
 _atom_site_fract_x
 _atom_site_fract_y
 _atom_site_fract_z
 _atom_site_occupancy
  Rb  Rb0  1  0.00000000  0.50000000  0.00000000  1
  Rb  Rb1  1  0.00000000  0.00000000  0.50000000  1
  Rb  Rb2  1  0.50000000  0.00000000  0.00000000  1
  Ga  Ga3  1  0.00000000  0.00000000  0.00000000  1
  P  P4  1  0.92360100  0.64269600  0.66723300  1
  P  P5  1  0.66723300  0.92360100  0.64269600  1
  P  P6  1  0.64269600  0.66723300  0.92360100  1
  P  P7  1  0.07639900  0.35730400  0.33276700  1
  P  P8  1  0.33276700  0.07639900  0.35730400  1
  P  P9  1  0.35730400  0.33276700  0.07639900  1
  H  H10  1  0.75100900  0.58943100  0.52661400  1
  H  H11  1  0.52661400  0.75100900  0.58943100  1
  H  H12  1  0.58943100  0.52661400  0.75100900  1
  H  H13  1  0.24899100  0.41056900  0.47338600  1
  H  H14  1  0.47338600  0.24899100  0.41056900  1
  H  H15  1  0.41056900  0.47338600  0.24899100  1
  O  O16  1  0.97077900  0.76695200  0.85987300  1
  O  O17  1  0.85987300  0.97077900  0.76695200  1
  O  O18  1  0.76695200  0.85987300  0.97077900  1
  O  O19  1  0.02922100  0.23304800  0.14012700  1
  O  O20  1  0.14012700  0.02922100  0.23304800  1
  O  O21  1  0.23304800  0.14012700  0.02922100  1
  O  O22  1  0.07666600  0.75048100  0.65504200  1
  O  O23  1  0.65504200  0.07666600  0.75048100  1
  O  O24  1  0.75048100  0.65504200  0.07666600  1
  O  O25  1  0.92333400  0.24951900  0.34495800  1
  O  O26  1  0.34495800  0.92333400  0.24951900  1
  O  O27  1  0.24951900  0.34495800  0.92333400  1
  O  O28  1  0.90062700  0.46654900  0.63833400  1
  O  O29  1  0.63833400  0.90062700  0.46654900  1
  O  O30  1  0.46654900  0.63833400  0.90062700  1
  O  O31  1  0.09937300  0.53345100  0.36166600  1
  O  O32  1  0.36166600  0.09937300  0.53345100  1
  O  O33  1  0.53345100  0.36166600  0.09937300  1
