# generated using pymatgen
data_NdCu(WO4)2
_symmetry_space_group_name_H-M   'P 1'
_cell_length_a   5.14918914
_cell_length_b   6.09952438
_cell_length_c   6.32336829
_cell_angle_alpha   108.42748157
_cell_angle_beta   92.54810335
_cell_angle_gamma   112.15624931
_symmetry_Int_Tables_number   1
_chemical_formula_structural   NdCu(WO4)2
_chemical_formula_sum   'Nd1 Cu1 W2 O8'
_cell_volume   171.45124469
_cell_formula_units_Z   1
loop_
 _symmetry_equiv_pos_site_id
 _symmetry_equiv_pos_as_xyz
  1  'x, y, z'
loop_
 _atom_site_type_symbol
 _atom_site_label
 _atom_site_symmetry_multiplicity
 _atom_site_fract_x
 _atom_site_fract_y
 _atom_site_fract_z
 _atom_site_occupancy
  Nd  Nd0  1  0.36717600  0.90034100  0.27268800  1
  Cu  Cu1  1  0.86184300  0.89339700  0.76642000  1
  W  W2  1  0.62324800  0.38527100  0.93573500  1
  W  W3  1  0.12270200  0.41359300  0.61521000  1
  O  O4  1  0.35560200  0.21736400  0.61023600  1
  O  O5  1  0.87091600  0.62801000  0.19164700  1
  O  O6  1  0.87078100  0.16349900  0.36459100  1
  O  O7  1  0.39637600  0.58690400  0.93931400  1
  O  O8  1  0.34120300  0.64272600  0.49947700  1
  O  O9  1  0.84629700  0.20094500  0.80272800  1
  O  O10  1  0.39726300  0.15216800  0.04401600  1
  O  O11  1  0.90269300  0.60038100  0.75183800  1
