# generated using pymatgen
data_U(N2O7)2
_symmetry_space_group_name_H-M   'P 1'
_cell_length_a   6.99335949
_cell_length_b   10.19358400
_cell_length_c   11.97229178
_cell_angle_alpha   90.00000000
_cell_angle_beta   70.66939905
_cell_angle_gamma   90.00000000
_symmetry_Int_Tables_number   1
_chemical_formula_structural   U(N2O7)2
_chemical_formula_sum   'U2 N8 O28'
_cell_volume   805.35834956
_cell_formula_units_Z   2
loop_
 _symmetry_equiv_pos_site_id
 _symmetry_equiv_pos_as_xyz
  1  'x, y, z'
loop_
 _atom_site_type_symbol
 _atom_site_label
 _atom_site_symmetry_multiplicity
 _atom_site_fract_x
 _atom_site_fract_y
 _atom_site_fract_z
 _atom_site_occupancy
  U  U0  1  0.00000000  0.50000000  0.50000000  1
  U  U1  1  0.00000000  0.00000000  0.00000000  1
  N  N2  1  0.24489000  0.10175900  0.70772400  1
  N  N3  1  0.75511000  0.60175900  0.79227600  1
  N  N4  1  0.75511000  0.89824100  0.29227600  1
  N  N5  1  0.24489000  0.39824100  0.20772400  1
  N  N6  1  0.61267700  0.15562600  0.42037000  1
  N  N7  1  0.38732300  0.65562600  0.07963000  1
  N  N8  1  0.38732300  0.84437400  0.57963000  1
  N  N9  1  0.61267700  0.34437400  0.92037000  1
  O  O10  1  0.18111300  0.51219100  0.57796200  1
  O  O11  1  0.81888700  0.01219100  0.92203800  1
  O  O12  1  0.81888700  0.48780900  0.42203800  1
  O  O13  1  0.18111300  0.98780900  0.07796200  1
  O  O14  1  0.86137600  0.32144200  0.65165600  1
  O  O15  1  0.13862400  0.82144200  0.84834400  1
  O  O16  1  0.13862400  0.67855800  0.34834400  1
  O  O17  1  0.86137600  0.17855800  0.15165600  1
  O  O18  1  0.16842000  0.32489500  0.40220300  1
  O  O19  1  0.83158000  0.82489500  0.09779700  1
  O  O20  1  0.83158000  0.67510500  0.59779700  1
  O  O21  1  0.16842000  0.17510500  0.90220300  1
  O  O22  1  0.24014300  0.12757200  0.61168200  1
  O  O23  1  0.75985700  0.62757200  0.88831800  1
  O  O24  1  0.75985700  0.87242800  0.38831800  1
  O  O25  1  0.24014300  0.37242800  0.11168200  1
  O  O26  1  0.15952500  0.28780100  0.29130900  1
  O  O27  1  0.84047500  0.78780100  0.20869100  1
  O  O28  1  0.84047500  0.71219900  0.70869100  1
  O  O29  1  0.15952500  0.21219900  0.79130900  1
  O  O30  1  0.78542200  0.22044600  0.62041900  1
  O  O31  1  0.21457800  0.72044600  0.87958100  1
  O  O32  1  0.21457800  0.77955400  0.37958100  1
  O  O33  1  0.78542200  0.27955400  0.12041900  1
  O  O34  1  0.64099800  0.24746200  0.46683400  1
  O  O35  1  0.35900200  0.74746200  0.03316600  1
  O  O36  1  0.35900200  0.75253800  0.53316600  1
  O  O37  1  0.64099800  0.25253800  0.96683400  1
