# generated using pymatgen
data_Na2H18SO9
_symmetry_space_group_name_H-M   'P 1'
_cell_length_a   9.38767900
_cell_length_b   9.38767900
_cell_length_c   12.85283200
_cell_angle_alpha   90.00000000
_cell_angle_beta   90.00000000
_cell_angle_gamma   90.00000000
_symmetry_Int_Tables_number   1
_chemical_formula_structural   Na2H18SO9
_chemical_formula_sum   'Na8 H72 S4 O36'
_cell_volume   1132.70102350
_cell_formula_units_Z   4
loop_
 _symmetry_equiv_pos_site_id
 _symmetry_equiv_pos_as_xyz
  1  'x, y, z'
loop_
 _atom_site_type_symbol
 _atom_site_label
 _atom_site_symmetry_multiplicity
 _atom_site_fract_x
 _atom_site_fract_y
 _atom_site_fract_z
 _atom_site_occupancy
  Na  Na0  1  0.69428800  0.50000000  0.75000000  1
  Na  Na1  1  0.30571200  0.50000000  0.25000000  1
  Na  Na2  1  0.50000000  0.69428800  0.50000000  1
  Na  Na3  1  0.50000000  0.30571200  0.00000000  1
  Na  Na4  1  0.00000000  0.85305800  0.00000000  1
  Na  Na5  1  0.00000000  0.14694200  0.50000000  1
  Na  Na6  1  0.14694200  0.00000000  0.75000000  1
  Na  Na7  1  0.85305800  0.00000000  0.25000000  1
  H  H8  1  0.40870900  0.50234100  0.66225500  1
  H  H9  1  0.59129100  0.49765900  0.16225500  1
  H  H10  1  0.49765900  0.40870900  0.41225500  1
  H  H11  1  0.50234100  0.59129100  0.91225500  1
  H  H12  1  0.59129100  0.50234100  0.33774500  1
  H  H13  1  0.40870900  0.49765900  0.83774500  1
  H  H14  1  0.50234100  0.40870900  0.58774500  1
  H  H15  1  0.49765900  0.59129100  0.08774500  1
  H  H16  1  0.11259200  0.79548800  0.21327800  1
  H  H17  1  0.88740800  0.20451200  0.71327800  1
  H  H18  1  0.20451200  0.11259200  0.96327800  1
  H  H19  1  0.79548800  0.88740800  0.46327800  1
  H  H20  1  0.88740800  0.79548800  0.78672200  1
  H  H21  1  0.11259200  0.20451200  0.28672200  1
  H  H22  1  0.79548800  0.11259200  0.03672200  1
  H  H23  1  0.20451200  0.88740800  0.53672200  1
  H  H24  1  0.96176000  0.72249600  0.21820900  1
  H  H25  1  0.03824000  0.27750400  0.71820900  1
  H  H26  1  0.27750400  0.96176000  0.96820900  1
  H  H27  1  0.72249600  0.03824000  0.46820900  1
  H  H28  1  0.03824000  0.72249600  0.78179100  1
  H  H29  1  0.96176000  0.27750400  0.28179100  1
  H  H30  1  0.72249600  0.96176000  0.03179100  1
  H  H31  1  0.27750400  0.03824000  0.53179100  1
  H  H32  1  0.97806600  0.52861900  0.65817300  1
  H  H33  1  0.02193400  0.47138100  0.15817300  1
  H  H34  1  0.47138100  0.97806600  0.40817300  1
  H  H35  1  0.52861900  0.02193400  0.90817300  1
  H  H36  1  0.02193400  0.52861900  0.34182700  1
  H  H37  1  0.97806600  0.47138100  0.84182700  1
  H  H38  1  0.52861900  0.97806600  0.59182700  1
  H  H39  1  0.47138100  0.02193400  0.09182700  1
  H  H40  1  0.87282600  0.45229900  0.57830100  1
  H  H41  1  0.12717400  0.54770100  0.07830100  1
  H  H42  1  0.54770100  0.87282600  0.32830100  1
  H  H43  1  0.45229900  0.12717400  0.82830100  1
  H  H44  1  0.12717400  0.45229900  0.42169900  1
  H  H45  1  0.87282600  0.54770100  0.92169900  1
  H  H46  1  0.45229900  0.87282600  0.67169900  1
  H  H47  1  0.54770100  0.12717400  0.17169900  1
  H  H48  1  0.72116500  0.70790300  0.01121200  1
  H  H49  1  0.27883500  0.29209700  0.51121200  1
  H  H50  1  0.29209700  0.72116500  0.76121200  1
  H  H51  1  0.70790300  0.27883500  0.26121200  1
  H  H52  1  0.27883500  0.70790300  0.98878800  1
  H  H53  1  0.72116500  0.29209700  0.48878800  1
  H  H54  1  0.70790300  0.72116500  0.23878800  1
  H  H55  1  0.29209700  0.27883500  0.73878800  1
  H  H56  1  0.81691200  0.61937700  0.08822200  1
  H  H57  1  0.18308800  0.38062300  0.58822200  1
  H  H58  1  0.38062300  0.81691200  0.83822200  1
  H  H59  1  0.61937700  0.18308800  0.33822200  1
  H  H60  1  0.18308800  0.61937700  0.91177800  1
  H  H61  1  0.81691200  0.38062300  0.41177800  1
  H  H62  1  0.61937700  0.81691200  0.16177800  1
  H  H63  1  0.38062300  0.18308800  0.66177800  1
  H  H64  1  0.81521100  0.65495300  0.52618300  1
  H  H65  1  0.18478900  0.34504700  0.02618300  1
  H  H66  1  0.34504700  0.81521100  0.27618300  1
  H  H67  1  0.65495300  0.18478900  0.77618300  1
  H  H68  1  0.18478900  0.65495300  0.47381700  1
  H  H69  1  0.81521100  0.34504700  0.97381700  1
  H  H70  1  0.65495300  0.81521100  0.72381700  1
  H  H71  1  0.34504700  0.18478900  0.22381700  1
  H  H72  1  0.78655900  0.64610600  0.40601200  1
  H  H73  1  0.21344100  0.35389400  0.90601200  1
  H  H74  1  0.35389400  0.78655900  0.15601200  1
  H  H75  1  0.64610600  0.21344100  0.65601200  1
  H  H76  1  0.21344100  0.64610600  0.59398800  1
  H  H77  1  0.78655900  0.35389400  0.09398800  1
  H  H78  1  0.64610600  0.78655900  0.84398800  1
  H  H79  1  0.35389400  0.21344100  0.34398800  1
  S  S80  1  0.81068200  0.50000000  0.25000000  1
  S  S81  1  0.18931800  0.50000000  0.75000000  1
  S  S82  1  0.50000000  0.81068200  0.00000000  1
  S  S83  1  0.50000000  0.18931800  0.50000000  1
  O  O84  1  0.50134200  0.50134200  0.62500000  1
  O  O85  1  0.49865800  0.49865800  0.12500000  1
  O  O86  1  0.49865800  0.50134200  0.37500000  1
  O  O87  1  0.50134200  0.49865800  0.87500000  1
  O  O88  1  0.00958500  0.81212400  0.19970300  1
  O  O89  1  0.99041500  0.18787600  0.69970300  1
  O  O90  1  0.18787600  0.00958500  0.94970300  1
  O  O91  1  0.81212400  0.99041500  0.44970300  1
  O  O92  1  0.99041500  0.81212400  0.80029700  1
  O  O93  1  0.00958500  0.18787600  0.30029700  1
  O  O94  1  0.81212400  0.00958500  0.05029700  1
  O  O95  1  0.18787600  0.99041500  0.55029700  1
  O  O96  1  0.88205100  0.53524200  0.62565400  1
  O  O97  1  0.11794900  0.46475800  0.12565400  1
  O  O98  1  0.46475800  0.88205100  0.37565400  1
  O  O99  1  0.53524200  0.11794900  0.87565400  1
  O  O100  1  0.11794900  0.53524200  0.37434600  1
  O  O101  1  0.88205100  0.46475800  0.87434600  1
  O  O102  1  0.53524200  0.88205100  0.62434600  1
  O  O103  1  0.46475800  0.11794900  0.12434600  1
  O  O104  1  0.81942700  0.66925100  0.02006800  1
  O  O105  1  0.18057300  0.33074900  0.52006800  1
  O  O106  1  0.33074900  0.81942700  0.77006800  1
  O  O107  1  0.66925100  0.18057300  0.27006800  1
  O  O108  1  0.18057300  0.66925100  0.97993200  1
  O  O109  1  0.81942700  0.33074900  0.47993200  1
  O  O110  1  0.66925100  0.81942700  0.22993200  1
  O  O111  1  0.33074900  0.18057300  0.72993200  1
  O  O112  1  0.76193900  0.70173600  0.46904000  1
  O  O113  1  0.23806100  0.29826400  0.96904000  1
  O  O114  1  0.29826400  0.76193900  0.21904000  1
  O  O115  1  0.70173600  0.23806100  0.71904000  1
  O  O116  1  0.23806100  0.70173600  0.53096000  1
  O  O117  1  0.76193900  0.29826400  0.03096000  1
  O  O118  1  0.70173600  0.76193900  0.78096000  1
  O  O119  1  0.29826400  0.23806100  0.28096000  1
