# generated using pymatgen
data_V2Co(H4O5)2
_symmetry_space_group_name_H-M   'P 1'
_cell_length_a   13.70272146
_cell_length_b   9.74990100
_cell_length_c   7.06925947
_cell_angle_alpha   90.00000000
_cell_angle_beta   111.74045477
_cell_angle_gamma   90.00000000
_symmetry_Int_Tables_number   1
_chemical_formula_structural   V2Co(H4O5)2
_chemical_formula_sum   'V8 Co4 H32 O40'
_cell_volume   877.27648808
_cell_formula_units_Z   4
loop_
 _symmetry_equiv_pos_site_id
 _symmetry_equiv_pos_as_xyz
  1  'x, y, z'
loop_
 _atom_site_type_symbol
 _atom_site_label
 _atom_site_symmetry_multiplicity
 _atom_site_fract_x
 _atom_site_fract_y
 _atom_site_fract_z
 _atom_site_occupancy
  V  V0  1  0.10298000  0.02829000  0.69273700  1
  V  V1  1  0.89702000  0.02829000  0.80726300  1
  V  V2  1  0.89702000  0.97171000  0.30726300  1
  V  V3  1  0.10298000  0.97171000  0.19273700  1
  V  V4  1  0.60298000  0.52829000  0.69273700  1
  V  V5  1  0.39702000  0.52829000  0.80726300  1
  V  V6  1  0.39702000  0.47171000  0.30726300  1
  V  V7  1  0.60298000  0.47171000  0.19273700  1
  Co  Co8  1  0.25000000  0.75000000  0.00000000  1
  Co  Co9  1  0.75000000  0.75000000  0.50000000  1
  Co  Co10  1  0.75000000  0.25000000  0.00000000  1
  Co  Co11  1  0.25000000  0.25000000  0.50000000  1
  H  H12  1  0.59658100  0.83713800  0.16366800  1
  H  H13  1  0.40341900  0.83713800  0.33633200  1
  H  H14  1  0.40341900  0.16286200  0.83633200  1
  H  H15  1  0.59658100  0.16286200  0.66366800  1
  H  H16  1  0.09658100  0.33713800  0.16366800  1
  H  H17  1  0.90341900  0.33713800  0.33633200  1
  H  H18  1  0.90341900  0.66286200  0.83633200  1
  H  H19  1  0.09658100  0.66286200  0.66366800  1
  H  H20  1  0.63792200  0.81608100  0.84606400  1
  H  H21  1  0.36207800  0.81608100  0.65393600  1
  H  H22  1  0.36207800  0.18391900  0.15393600  1
  H  H23  1  0.63792200  0.18391900  0.34606400  1
  H  H24  1  0.13792200  0.31608100  0.84606400  1
  H  H25  1  0.86207800  0.31608100  0.65393600  1
  H  H26  1  0.86207800  0.68391900  0.15393600  1
  H  H27  1  0.13792200  0.68391900  0.34606400  1
  H  H28  1  0.61241100  0.05026200  0.83605700  1
  H  H29  1  0.38758900  0.05026200  0.66394300  1
  H  H30  1  0.38758900  0.94973800  0.16394300  1
  H  H31  1  0.61241100  0.94973800  0.33605700  1
  H  H32  1  0.11241100  0.55026200  0.83605700  1
  H  H33  1  0.88758900  0.55026200  0.66394300  1
  H  H34  1  0.88758900  0.44973800  0.16394300  1
  H  H35  1  0.11241100  0.44973800  0.33605700  1
  H  H36  1  0.69271500  0.90864800  0.03834300  1
  H  H37  1  0.30728500  0.90864800  0.46165700  1
  H  H38  1  0.30728500  0.09135200  0.96165700  1
  H  H39  1  0.69271500  0.09135200  0.53834300  1
  H  H40  1  0.19271500  0.40864800  0.03834300  1
  H  H41  1  0.80728500  0.40864800  0.46165700  1
  H  H42  1  0.80728500  0.59135200  0.96165700  1
  H  H43  1  0.19271500  0.59135200  0.53834300  1
  O  O44  1  0.55773200  0.54018500  0.92123900  1
  O  O45  1  0.44226800  0.54018500  0.57876100  1
  O  O46  1  0.44226800  0.45981500  0.07876100  1
  O  O47  1  0.55773200  0.45981500  0.42123900  1
  O  O48  1  0.05773200  0.04018500  0.92123900  1
  O  O49  1  0.94226800  0.04018500  0.57876100  1
  O  O50  1  0.94226800  0.95981500  0.07876100  1
  O  O51  1  0.05773200  0.95981500  0.42123900  1
  O  O52  1  0.34088800  0.68105100  0.81578000  1
  O  O53  1  0.65911200  0.68105100  0.68422000  1
  O  O54  1  0.65911200  0.31894900  0.18422000  1
  O  O55  1  0.34088800  0.31894900  0.31578000  1
  O  O56  1  0.84088800  0.18105100  0.81578000  1
  O  O57  1  0.15911200  0.18105100  0.68422000  1
  O  O58  1  0.15911200  0.81894900  0.18422000  1
  O  O59  1  0.84088800  0.81894900  0.31578000  1
  O  O60  1  0.29818800  0.58288800  0.19038200  1
  O  O61  1  0.70181200  0.58288800  0.30961800  1
  O  O62  1  0.70181200  0.41711200  0.80961800  1
  O  O63  1  0.29818800  0.41711200  0.69038200  1
  O  O64  1  0.79818800  0.08288800  0.19038200  1
  O  O65  1  0.20181200  0.08288800  0.30961800  1
  O  O66  1  0.20181200  0.91711200  0.80961800  1
  O  O67  1  0.79818800  0.91711200  0.69038200  1
  O  O68  1  0.61784800  0.84963200  0.31221000  1
  O  O69  1  0.38215200  0.84963200  0.18779000  1
  O  O70  1  0.38215200  0.15036800  0.68779000  1
  O  O71  1  0.61784800  0.15036800  0.81221000  1
  O  O72  1  0.11784800  0.34963200  0.31221000  1
  O  O73  1  0.88215200  0.34963200  0.18779000  1
  O  O74  1  0.88215200  0.65036800  0.68779000  1
  O  O75  1  0.11784800  0.65036800  0.81221000  1
  O  O76  1  0.62429400  0.88830600  0.93225700  1
  O  O77  1  0.37570600  0.88830600  0.56774300  1
  O  O78  1  0.37570600  0.11169400  0.06774300  1
  O  O79  1  0.62429400  0.11169400  0.43225700  1
  O  O80  1  0.12429400  0.38830600  0.93225700  1
  O  O81  1  0.87570600  0.38830600  0.56774300  1
  O  O82  1  0.87570600  0.61169400  0.06774300  1
  O  O83  1  0.12429400  0.61169400  0.43225700  1
