# generated using pymatgen
data_NiP6(N2O11)2
_symmetry_space_group_name_H-M   'P 1'
_cell_length_a   13.17058400
_cell_length_b   9.10518100
_cell_length_c   9.46043892
_cell_angle_alpha   83.33318652
_cell_angle_beta   90.00000000
_cell_angle_gamma   90.00000000
_symmetry_Int_Tables_number   1
_chemical_formula_structural   NiP6(N2O11)2
_chemical_formula_sum   'Ni2 P12 N8 O44'
_cell_volume   1126.82962185
_cell_formula_units_Z   2
loop_
 _symmetry_equiv_pos_site_id
 _symmetry_equiv_pos_as_xyz
  1  'x, y, z'
loop_
 _atom_site_type_symbol
 _atom_site_label
 _atom_site_symmetry_multiplicity
 _atom_site_fract_x
 _atom_site_fract_y
 _atom_site_fract_z
 _atom_site_occupancy
  Ni  Ni0  1  0.50000000  0.50000000  0.00000000  1
  Ni  Ni1  1  0.00000000  0.00000000  0.00000000  1
  P  P2  1  0.83305400  0.19604400  0.14470700  1
  P  P3  1  0.33305400  0.30395600  0.85529300  1
  P  P4  1  0.16694600  0.80395600  0.85529300  1
  P  P5  1  0.66694600  0.69604400  0.14470700  1
  P  P6  1  0.83953900  0.23168500  0.45157500  1
  P  P7  1  0.33953900  0.26831500  0.54842500  1
  P  P8  1  0.16046100  0.76831500  0.54842500  1
  P  P9  1  0.66046100  0.73168500  0.45157500  1
  P  P10  1  0.94651800  0.44967900  0.24831700  1
  P  P11  1  0.44651800  0.05032100  0.75168300  1
  P  P12  1  0.05348200  0.55032100  0.75168300  1
  P  P13  1  0.55348200  0.94967900  0.24831700  1
  N  N14  1  0.14837600  0.18961800  0.50742600  1
  N  N15  1  0.64837600  0.31038200  0.49257400  1
  N  N16  1  0.85162400  0.81038200  0.49257400  1
  N  N17  1  0.35162400  0.68961800  0.50742600  1
  N  N18  1  0.64381500  0.03566300  0.77886200  1
  N  N19  1  0.14381500  0.46433700  0.22113800  1
  N  N20  1  0.35618500  0.96433700  0.22113800  1
  N  N21  1  0.85618500  0.53566300  0.77886200  1
  O  O22  1  0.91509300  0.08194800  0.15308900  1
  O  O23  1  0.41509300  0.41805200  0.84691100  1
  O  O24  1  0.08490700  0.91805200  0.84691100  1
  O  O25  1  0.58490700  0.58194800  0.15308900  1
  O  O26  1  0.89182400  0.36271600  0.13832300  1
  O  O27  1  0.39182400  0.13728400  0.86167700  1
  O  O28  1  0.10817600  0.63728400  0.86167700  1
  O  O29  1  0.60817600  0.86271600  0.13832300  1
  O  O30  1  0.78846500  0.18970900  0.31258000  1
  O  O31  1  0.28846500  0.31029100  0.68742000  1
  O  O32  1  0.21153500  0.81029100  0.68742000  1
  O  O33  1  0.71153500  0.68970900  0.31258000  1
  O  O34  1  0.74749600  0.21093700  0.04592700  1
  O  O35  1  0.24749600  0.28906300  0.95407300  1
  O  O36  1  0.25250400  0.78906300  0.95407300  1
  O  O37  1  0.75250400  0.71093700  0.04592700  1
  O  O38  1  0.74254400  0.32014800  0.52837900  1
  O  O39  1  0.24254400  0.17985200  0.47162100  1
  O  O40  1  0.25745600  0.67985200  0.47162100  1
  O  O41  1  0.75745600  0.82014800  0.52837900  1
  O  O42  1  0.55099300  0.11028700  0.22853700  1
  O  O43  1  0.05099300  0.38971300  0.77146300  1
  O  O44  1  0.44900700  0.88971300  0.77146300  1
  O  O45  1  0.94900700  0.61028700  0.22853700  1
  O  O46  1  0.88504500  0.12084400  0.55527400  1
  O  O47  1  0.38504500  0.37915600  0.44472600  1
  O  O48  1  0.11495500  0.87915600  0.44472600  1
  O  O49  1  0.61495500  0.62084400  0.55527400  1
  O  O50  1  0.56761300  0.12340800  0.75097400  1
  O  O51  1  0.06761300  0.37659200  0.24902600  1
  O  O52  1  0.43238700  0.87659200  0.24902600  1
  O  O53  1  0.93238700  0.62340800  0.75097400  1
  O  O54  1  0.90930100  0.37500500  0.40287800  1
  O  O55  1  0.40930100  0.12499500  0.59712200  1
  O  O56  1  0.09069900  0.62499500  0.59712200  1
  O  O57  1  0.59069900  0.87500500  0.40287800  1
  O  O58  1  0.90691600  0.08232100  0.85217100  1
  O  O59  1  0.40691600  0.41767900  0.14782900  1
  O  O60  1  0.09308400  0.91767900  0.14782900  1
  O  O61  1  0.59308400  0.58232100  0.85217100  1
  O  O62  1  0.62052100  0.44725800  0.89094900  1
  O  O63  1  0.12052100  0.05274200  0.10905100  1
  O  O64  1  0.37947900  0.55274200  0.10905100  1
  O  O65  1  0.87947900  0.94725800  0.89094900  1
