# generated using pymatgen
data_La(IO3)3
_symmetry_space_group_name_H-M   'P 1'
_cell_length_a   6.92033100
_cell_length_b   7.50992100
_cell_length_c   8.58794700
_cell_angle_alpha   90.00000000
_cell_angle_beta   90.00000000
_cell_angle_gamma   90.00000000
_symmetry_Int_Tables_number   1
_chemical_formula_structural   La(IO3)3
_chemical_formula_sum   'La2 I6 O18'
_cell_volume   446.32538815
_cell_formula_units_Z   2
loop_
 _symmetry_equiv_pos_site_id
 _symmetry_equiv_pos_as_xyz
  1  'x, y, z'
loop_
 _atom_site_type_symbol
 _atom_site_label
 _atom_site_symmetry_multiplicity
 _atom_site_fract_x
 _atom_site_fract_y
 _atom_site_fract_z
 _atom_site_occupancy
  La  La0  1  0.00000000  0.50000000  0.65329100  1
  La  La1  1  0.50000000  0.00000000  0.34670900  1
  I  I2  1  0.50000000  0.73122100  0.80381500  1
  I  I3  1  0.50000000  0.26877900  0.80381500  1
  I  I4  1  0.00000000  0.76877900  0.19618500  1
  I  I5  1  0.00000000  0.23122100  0.19618500  1
  I  I6  1  0.00000000  0.00000000  0.64532700  1
  I  I7  1  0.50000000  0.50000000  0.35467300  1
  O  O8  1  0.71664800  0.67564900  0.53723500  1
  O  O9  1  0.71664800  0.32435100  0.53723500  1
  O  O10  1  0.28335200  0.67564900  0.53723500  1
  O  O11  1  0.28335200  0.32435100  0.53723500  1
  O  O12  1  0.78335200  0.82435100  0.46276500  1
  O  O13  1  0.78335200  0.17564900  0.46276500  1
  O  O14  1  0.21664800  0.82435100  0.46276500  1
  O  O15  1  0.21664800  0.17564900  0.46276500  1
  O  O16  1  0.00000000  0.50000000  0.29994600  1
  O  O17  1  0.50000000  0.00000000  0.70005400  1
  O  O18  1  0.31792400  0.50000000  0.82562800  1
  O  O19  1  0.68207600  0.50000000  0.82562800  1
  O  O20  1  0.18207600  0.00000000  0.17437200  1
  O  O21  1  0.81792400  0.00000000  0.17437200  1
  O  O22  1  0.00000000  0.80428400  0.77925000  1
  O  O23  1  0.00000000  0.19571600  0.77925000  1
  O  O24  1  0.50000000  0.69571600  0.22075000  1
  O  O25  1  0.50000000  0.30428400  0.22075000  1
