# generated using pymatgen
data_SiO2
_symmetry_space_group_name_H-M   'P 1'
_cell_length_a   9.52516025
_cell_length_b   9.52516025
_cell_length_c   18.96042018
_cell_angle_alpha   78.07555662
_cell_angle_beta   78.07555662
_cell_angle_gamma   57.95228492
_symmetry_Int_Tables_number   1
_chemical_formula_structural   SiO2
_chemical_formula_sum   'Si28 O56'
_cell_volume   1416.84520423
_cell_formula_units_Z   28
loop_
 _symmetry_equiv_pos_site_id
 _symmetry_equiv_pos_as_xyz
  1  'x, y, z'
loop_
 _atom_site_type_symbol
 _atom_site_label
 _atom_site_symmetry_multiplicity
 _atom_site_fract_x
 _atom_site_fract_y
 _atom_site_fract_z
 _atom_site_occupancy
  Si  Si0  1  0.58430100  0.23586700  0.99607100  1
  Si  Si1  1  0.41569900  0.76413300  0.00392900  1
  Si  Si2  1  0.98195400  0.31198300  0.73111900  1
  Si  Si3  1  0.49154800  0.22041300  0.85270700  1
  Si  Si4  1  0.91230500  0.16093300  0.56842900  1
  Si  Si5  1  0.16093300  0.91230500  0.56842900  1
  Si  Si6  1  0.50845200  0.77958700  0.14729300  1
  Si  Si7  1  0.80212000  0.12272700  0.73711800  1
  Si  Si8  1  0.37392500  0.04809600  0.87212000  1
  Si  Si9  1  0.08769500  0.83906700  0.43157100  1
  Si  Si10  1  0.83906700  0.08769500  0.43157100  1
  Si  Si11  1  0.68801700  0.01804600  0.26888100  1
  Si  Si12  1  0.31198300  0.98195400  0.73111900  1
  Si  Si13  1  0.62607500  0.95190400  0.12788000  1
  Si  Si14  1  0.23490400  0.49270300  0.39642100  1
  Si  Si15  1  0.76509600  0.50729700  0.60357900  1
  Si  Si16  1  0.49270300  0.23490400  0.39642100  1
  Si  Si17  1  0.87727300  0.19788000  0.26288200  1
  Si  Si18  1  0.12272700  0.80212000  0.73711800  1
  Si  Si19  1  0.04809600  0.37392500  0.87212000  1
  Si  Si20  1  0.22041300  0.49154800  0.85270700  1
  Si  Si21  1  0.76413300  0.41569900  0.00392900  1
  Si  Si22  1  0.95190400  0.62607500  0.12788000  1
  Si  Si23  1  0.19788000  0.87727300  0.26288200  1
  Si  Si24  1  0.50729700  0.76509600  0.60357900  1
  Si  Si25  1  0.23586700  0.58430100  0.99607100  1
  Si  Si26  1  0.01804600  0.68801700  0.26888100  1
  Si  Si27  1  0.77958700  0.50845200  0.14729300  1
  O  O28  1  0.10290300  0.55366300  0.33825400  1
  O  O29  1  0.29798000  0.29798000  0.43805500  1
  O  O30  1  0.56980200  0.09968000  0.06053700  1
  O  O31  1  0.89709700  0.44633700  0.66174600  1
  O  O32  1  0.56875300  0.56875300  0.64267000  1
  O  O33  1  0.40661300  0.98432400  0.79278500  1
  O  O34  1  0.82794900  0.82794900  0.10731700  1
  O  O35  1  0.82616600  0.39647300  0.08149000  1
  O  O36  1  0.01567600  0.59338700  0.20721500  1
  O  O37  1  0.80322600  0.17075200  0.64965400  1
  O  O38  1  0.43019800  0.90032000  0.93946300  1
  O  O39  1  0.85152500  0.01614400  0.54326000  1
  O  O40  1  0.01614400  0.85152500  0.54326000  1
  O  O41  1  0.92137800  0.92137800  0.75730500  1
  O  O42  1  0.40397600  0.40397600  0.16331700  1
  O  O43  1  0.39647300  0.82616600  0.08149000  1
  O  O44  1  0.41035400  0.41035400  0.00441900  1
  O  O45  1  0.17383400  0.60352700  0.91851000  1
  O  O46  1  0.59602400  0.59602400  0.83668300  1
  O  O47  1  0.61198600  0.18636900  0.77504000  1
  O  O48  1  0.63590600  0.15591300  0.45263500  1
  O  O49  1  0.56345100  0.32600900  0.14381900  1
  O  O50  1  0.38801400  0.81363100  0.22496000  1
  O  O51  1  0.14847500  0.98385600  0.45674000  1
  O  O52  1  0.82924800  0.19677400  0.35034600  1
  O  O53  1  0.36409400  0.84408700  0.54736500  1
  O  O54  1  0.17075200  0.80322600  0.64965400  1
  O  O55  1  0.07862200  0.07862200  0.24269500  1
  O  O56  1  0.55366300  0.10290300  0.33825400  1
  O  O57  1  0.44633700  0.89709700  0.66174600  1
  O  O58  1  0.67399100  0.43654900  0.85618100  1
  O  O59  1  0.43124700  0.43124700  0.35733000  1
  O  O60  1  0.60352700  0.17383400  0.91851000  1
  O  O61  1  0.82738400  0.82738400  0.29734400  1
  O  O62  1  0.32600900  0.56345100  0.14381900  1
  O  O63  1  0.18636900  0.61198600  0.77504000  1
  O  O64  1  0.17205100  0.17205100  0.89268300  1
  O  O65  1  0.19677400  0.82924800  0.35034600  1
  O  O66  1  0.78176000  0.12292500  0.23469000  1
  O  O67  1  0.12292500  0.78176000  0.23469000  1
  O  O68  1  0.98432400  0.40661300  0.79278500  1
  O  O69  1  0.98385600  0.14847500  0.45674000  1
  O  O70  1  0.74084100  0.25915900  0.00000000  1
  O  O71  1  0.70202000  0.70202000  0.56194500  1
  O  O72  1  0.90032000  0.43019800  0.93946300  1
  O  O73  1  0.59338700  0.01567600  0.20721500  1
  O  O74  1  0.58964600  0.58964600  0.99558100  1
  O  O75  1  0.43654900  0.67399100  0.85618100  1
  O  O76  1  0.17261600  0.17261600  0.70265600  1
  O  O77  1  0.15591300  0.63590600  0.45263500  1
  O  O78  1  0.87707500  0.21824000  0.76531000  1
  O  O79  1  0.09968000  0.56980200  0.06053700  1
  O  O80  1  0.84408700  0.36409400  0.54736500  1
  O  O81  1  0.81363100  0.38801400  0.22496000  1
  O  O82  1  0.21824000  0.87707500  0.76531000  1
  O  O83  1  0.25915900  0.74084100  0.00000000  1
