# generated using pymatgen
data_Nb2FeO6
_symmetry_space_group_name_H-M   'P 1'
_cell_length_a   5.83146300
_cell_length_b   5.33325100
_cell_length_c   14.95508342
_cell_angle_alpha   89.58176816
_cell_angle_beta   90.00000000
_cell_angle_gamma   90.00000000
_symmetry_Int_Tables_number   1
_chemical_formula_structural   Nb2FeO6
_chemical_formula_sum   'Nb8 Fe4 O24'
_cell_volume   465.10051192
_cell_formula_units_Z   4
loop_
 _symmetry_equiv_pos_site_id
 _symmetry_equiv_pos_as_xyz
  1  'x, y, z'
loop_
 _atom_site_type_symbol
 _atom_site_label
 _atom_site_symmetry_multiplicity
 _atom_site_fract_x
 _atom_site_fract_y
 _atom_site_fract_z
 _atom_site_occupancy
  Nb  Nb0  1  0.17154600  0.48407800  0.33475800  1
  Nb  Nb1  1  0.66893900  0.01035100  0.83515400  1
  Nb  Nb2  1  0.33106100  0.51035100  0.83515400  1
  Nb  Nb3  1  0.82845400  0.98407800  0.33475800  1
  Nb  Nb4  1  0.82845400  0.51592200  0.66524200  1
  Nb  Nb5  1  0.17154600  0.01592200  0.66524200  1
  Nb  Nb6  1  0.66893900  0.48964900  0.16484600  1
  Nb  Nb7  1  0.33106100  0.98964900  0.16484600  1
  Fe  Fe8  1  0.14293400  0.25000000  0.00000000  1
  Fe  Fe9  1  0.34996100  0.75000000  0.50000000  1
  Fe  Fe10  1  0.85706600  0.75000000  0.00000000  1
  Fe  Fe11  1  0.65003900  0.25000000  0.50000000  1
  O  O12  1  0.90762500  0.29559400  0.39791500  1
  O  O13  1  0.60908400  0.59143300  0.58247500  1
  O  O14  1  0.11401200  0.59066400  0.91846100  1
  O  O15  1  0.11401200  0.90933600  0.08153900  1
  O  O16  1  0.85785300  0.66066200  0.25871100  1
  O  O17  1  0.88598800  0.40933600  0.08153900  1
  O  O18  1  0.09237500  0.70440600  0.60208500  1
  O  O19  1  0.35959100  0.83682400  0.75914800  1
  O  O20  1  0.85785300  0.83933800  0.74128900  1
  O  O21  1  0.60908400  0.90856700  0.41752500  1
  O  O22  1  0.90762500  0.20440600  0.60208500  1
  O  O23  1  0.40161000  0.30586400  0.10162700  1
  O  O24  1  0.35959100  0.66317600  0.24085200  1
  O  O25  1  0.09237500  0.79559400  0.39791500  1
  O  O26  1  0.59839000  0.69413600  0.89837300  1
  O  O27  1  0.39091600  0.09143300  0.58247500  1
  O  O28  1  0.59839000  0.80586400  0.10162700  1
  O  O29  1  0.64040900  0.33682400  0.75914800  1
  O  O30  1  0.14214700  0.33933800  0.74128900  1
  O  O31  1  0.88598800  0.09066400  0.91846100  1
  O  O32  1  0.39091600  0.40856700  0.41752500  1
  O  O33  1  0.14214700  0.16066200  0.25871100  1
  O  O34  1  0.64040900  0.16317600  0.24085200  1
  O  O35  1  0.40161000  0.19413600  0.89837300  1
