# generated using pymatgen
data_Na2Hg3(S2O)2
_symmetry_space_group_name_H-M   'P 1'
_cell_length_a   9.15966329
_cell_length_b   9.15966329
_cell_length_c   9.15966329
_cell_angle_alpha   131.45690358
_cell_angle_beta   119.61909666
_cell_angle_gamma   81.00848723
_symmetry_Int_Tables_number   1
_chemical_formula_structural   Na2Hg3(S2O)2
_chemical_formula_sum   'Na4 Hg6 S8 O4'
_cell_volume   483.15272333
_cell_formula_units_Z   2
loop_
 _symmetry_equiv_pos_site_id
 _symmetry_equiv_pos_as_xyz
  1  'x, y, z'
loop_
 _atom_site_type_symbol
 _atom_site_label
 _atom_site_symmetry_multiplicity
 _atom_site_fract_x
 _atom_site_fract_y
 _atom_site_fract_z
 _atom_site_occupancy
  Na  Na0  1  0.73967700  0.51572100  0.25539800  1
  Na  Na1  1  0.26032300  0.48427900  0.74460200  1
  Na  Na2  1  0.23967700  0.98427900  0.22395700  1
  Na  Na3  1  0.76032200  0.01572100  0.77604300  1
  Hg  Hg4  1  0.25000000  0.75000000  0.50000000  1
  Hg  Hg5  1  0.75000000  0.25000000  0.50000000  1
  Hg  Hg6  1  0.42656700  0.25000000  0.17656700  1
  Hg  Hg7  1  0.07343300  0.25000000  0.82343300  1
  Hg  Hg8  1  0.57343300  0.75000000  0.82343300  1
  Hg  Hg9  1  0.92656700  0.75000000  0.17656700  1
  S  S10  1  0.16502700  0.35586600  0.31214200  1
  S  S11  1  0.04372400  0.85288500  0.68785800  1
  S  S12  1  0.45627600  0.14413400  0.80916200  1
  S  S13  1  0.33497300  0.64711500  0.19083800  1
  S  S14  1  0.83497300  0.64413400  0.68785800  1
  S  S15  1  0.95627600  0.14711500  0.31214200  1
  S  S16  1  0.54372400  0.85586600  0.19083800  1
  S  S17  1  0.66502700  0.35288500  0.80916200  1
  O  O18  1  0.95314900  0.26327500  0.21642500  1
  O  O19  1  0.04685100  0.73672500  0.78357500  1
  O  O20  1  0.45314900  0.23672500  0.68987400  1
  O  O21  1  0.54685100  0.76327500  0.31012600  1
