# generated using pymatgen
data_HgSeNO3
_symmetry_space_group_name_H-M   'P 1'
_cell_length_a   5.31123300
_cell_length_b   6.67185700
_cell_length_c   14.96425991
_cell_angle_alpha   69.00461441
_cell_angle_beta   90.00000000
_cell_angle_gamma   90.00000000
_symmetry_Int_Tables_number   1
_chemical_formula_structural   HgSeNO3
_chemical_formula_sum   'Hg4 Se4 N4 O12'
_cell_volume   495.06530179
_cell_formula_units_Z   4
loop_
 _symmetry_equiv_pos_site_id
 _symmetry_equiv_pos_as_xyz
  1  'x, y, z'
loop_
 _atom_site_type_symbol
 _atom_site_label
 _atom_site_symmetry_multiplicity
 _atom_site_fract_x
 _atom_site_fract_y
 _atom_site_fract_z
 _atom_site_occupancy
  Hg  Hg0  1  0.94601000  0.36161000  0.20178700  1
  Hg  Hg1  1  0.55399000  0.36161000  0.70178700  1
  Hg  Hg2  1  0.05399000  0.63839000  0.79821300  1
  Hg  Hg3  1  0.44601000  0.63839000  0.29821300  1
  Se  Se4  1  0.51067700  0.69474300  0.08371700  1
  Se  Se5  1  0.98932300  0.69474300  0.58371700  1
  Se  Se6  1  0.48932300  0.30525700  0.91628300  1
  Se  Se7  1  0.01067700  0.30525700  0.41628300  1
  N  N8  1  0.98538900  0.11744300  0.12385000  1
  N  N9  1  0.51461100  0.11744300  0.62385000  1
  N  N10  1  0.01461100  0.88255700  0.87615000  1
  N  N11  1  0.48538900  0.88255700  0.37615000  1
  O  O12  1  0.40763500  0.46229700  0.17196700  1
  O  O13  1  0.09236500  0.46229700  0.67196700  1
  O  O14  1  0.59236500  0.53770300  0.82803300  1
  O  O15  1  0.90763500  0.53770300  0.32803300  1
  O  O16  1  0.51619900  0.85949100  0.15218200  1
  O  O17  1  0.98380100  0.85949100  0.65218200  1
  O  O18  1  0.48380100  0.14050900  0.84781800  1
  O  O19  1  0.01619900  0.14050900  0.34781800  1
  O  O20  1  0.82291300  0.62341900  0.07504200  1
  O  O21  1  0.67708700  0.62341900  0.57504200  1
  O  O22  1  0.17708700  0.37658100  0.92495800  1
  O  O23  1  0.32291300  0.37658100  0.42495800  1
