# generated using pymatgen
data_SiW12C16(NO10)4
_symmetry_space_group_name_H-M   'P 1'
_cell_length_a   11.64245427
_cell_length_b   11.64245427
_cell_length_c   11.64245427
_cell_angle_alpha   105.78979915
_cell_angle_beta   105.78979915
_cell_angle_gamma   117.11526967
_symmetry_Int_Tables_number   1
_chemical_formula_structural   SiW12C16(NO10)4
_chemical_formula_sum   'Si1 W12 C16 N4 O40'
_cell_volume   1198.39891258
_cell_formula_units_Z   1
loop_
 _symmetry_equiv_pos_site_id
 _symmetry_equiv_pos_as_xyz
  1  'x, y, z'
loop_
 _atom_site_type_symbol
 _atom_site_label
 _atom_site_symmetry_multiplicity
 _atom_site_fract_x
 _atom_site_fract_y
 _atom_site_fract_z
 _atom_site_occupancy
  Si  Si0  1  0.00000000  0.00000000  0.00000000  1
  W  W1  1  0.17825100  0.45083500  0.03292800  1
  W  W2  1  0.41790700  0.14532300  0.96707200  1
  W  W3  1  0.54916500  0.58209300  0.72741600  1
  W  W4  1  0.85467700  0.82174900  0.27258400  1
  W  W5  1  0.16376000  0.19553900  0.75782400  1
  W  W6  1  0.43771500  0.40593600  0.24217600  1
  W  W7  1  0.80446100  0.56228500  0.96822100  1
  W  W8  1  0.59406400  0.83624000  0.03177900  1
  W  W9  1  0.22508500  0.53824300  0.78625000  1
  W  W10  1  0.75199300  0.43883500  0.21375000  1
  W  W11  1  0.46175700  0.24800700  0.68684200  1
  W  W12  1  0.56116500  0.77491500  0.31315800  1
  C  C13  1  0.19389700  0.03570800  0.07650500  1
  C  C14  1  0.95920400  0.11739200  0.92349500  1
  C  C15  1  0.96429200  0.04079600  0.15818800  1
  C  C16  1  0.88260800  0.80610300  0.84181200  1
  C  C17  1  0.40930900  0.91237900  0.22889000  1
  C  C18  1  0.68348900  0.18041900  0.77111000  1
  C  C19  1  0.08762100  0.31651100  0.49693000  1
  C  C20  1  0.81958100  0.59069100  0.50307000  1
  C  C21  1  0.32189300  0.89708800  0.29111700  1
  C  C22  1  0.60597100  0.03077600  0.70888300  1
  C  C23  1  0.10291200  0.39402900  0.42480600  1
  C  C24  1  0.96922400  0.67810700  0.57519400  1
  C  C25  1  0.28269900  0.92352400  0.18405200  1
  C  C26  1  0.73947100  0.09864700  0.81594800  1
  C  C27  1  0.07647600  0.26052900  0.35917600  1
  C  C28  1  0.90135300  0.71730100  0.64082400  1
  N  N29  1  0.18387000  0.93546600  0.11011000  1
  N  N30  1  0.82535600  0.07376100  0.88989000  1
  N  N31  1  0.06453400  0.17464400  0.24840400  1
  N  N32  1  0.92623900  0.81613000  0.75159600  1
  O  O33  1  0.05372500  0.43338400  0.09374500  1
  O  O34  1  0.33963900  0.95998000  0.90625500  1
  O  O35  1  0.56661600  0.66036100  0.62034100  1
  O  O36  1  0.04002000  0.94627500  0.37965900  1
  O  O37  1  0.97985900  0.06276200  0.64744500  1
  O  O38  1  0.41531700  0.33241500  0.35255500  1
  O  O39  1  0.93723800  0.58468300  0.91709800  1
  O  O40  1  0.66758500  0.02014100  0.08290200  1
  O  O41  1  0.12551400  0.57845000  0.68439200  1
  O  O42  1  0.89405700  0.44112100  0.31560800  1
  O  O43  1  0.42155000  0.10594300  0.54706400  1
  O  O44  1  0.55887900  0.87448600  0.45293600  1
  O  O45  1  0.22897800  0.12828400  0.86692600  1
  O  O46  1  0.26135800  0.36205200  0.13307400  1
  O  O47  1  0.87171600  0.73864200  0.10069400  1
  O  O48  1  0.63794800  0.77102200  0.89930600  1
  O  O49  1  0.35261000  0.62644700  0.16462100  1
  O  O50  1  0.46182600  0.18798900  0.83537900  1
  O  O51  1  0.37355300  0.53817400  0.72616300  1
  O  O52  1  0.81201100  0.64739000  0.27383700  1
  O  O53  1  0.04710900  0.22050700  0.89999300  1
  O  O54  1  0.32051400  0.14711700  0.10000700  1
  O  O55  1  0.77949300  0.67948600  0.82660200  1
  O  O56  1  0.85288300  0.95289100  0.17339800  1
  O  O57  1  0.26670900  0.20686000  0.66010600  1
  O  O58  1  0.54675400  0.60660300  0.33989400  1
  O  O59  1  0.79314000  0.45324600  0.05984900  1
  O  O60  1  0.39339700  0.73329100  0.94015100  1
  O  O61  1  0.12818600  0.51525900  0.90927800  1
  O  O62  1  0.60598200  0.21890900  0.09072200  1
  O  O63  1  0.48474100  0.39401800  0.61292700  1
  O  O64  1  0.78109100  0.87181400  0.38707300  1
  O  O65  1  0.09083200  0.31063900  0.60380200  1
  O  O66  1  0.70683700  0.48703000  0.39619800  1
  O  O67  1  0.68936100  0.29316300  0.78019300  1
  O  O68  1  0.51297000  0.90916800  0.21980700  1
  O  O69  1  0.25309300  0.39771300  0.87097300  1
  O  O70  1  0.52673900  0.38212000  0.12902700  1
  O  O71  1  0.60228700  0.47326100  0.85538100  1
  O  O72  1  0.61788000  0.74690700  0.14461900  1
