# generated using pymatgen
data_Mn8Si6O25
_symmetry_space_group_name_H-M   'P 1'
_cell_length_a   12.79650040
_cell_length_b   12.79650040
_cell_length_c   7.71746511
_cell_angle_alpha   89.64628337
_cell_angle_beta   89.64628337
_cell_angle_gamma   60.51218204
_symmetry_Int_Tables_number   1
_chemical_formula_structural   Mn8Si6O25
_chemical_formula_sum   'Mn16 Si12 O50'
_cell_volume   1100.00590524
_cell_formula_units_Z   2
loop_
 _symmetry_equiv_pos_site_id
 _symmetry_equiv_pos_as_xyz
  1  'x, y, z'
loop_
 _atom_site_type_symbol
 _atom_site_label
 _atom_site_symmetry_multiplicity
 _atom_site_fract_x
 _atom_site_fract_y
 _atom_site_fract_z
 _atom_site_occupancy
  Mn  Mn0  1  0.00000000  0.00000000  0.00000000  1
  Mn  Mn1  1  0.99885300  0.24000500  0.99813600  1
  Mn  Mn2  1  0.75999500  0.00114700  0.00186400  1
  Mn  Mn3  1  0.24451800  0.75548200  0.00000000  1
  Mn  Mn4  1  0.24000500  0.99885300  0.99813600  1
  Mn  Mn5  1  0.75548200  0.24451800  0.00000000  1
  Mn  Mn6  1  0.00114700  0.75999500  0.00186400  1
  Mn  Mn7  1  0.00000000  0.50000000  0.00000000  1
  Mn  Mn8  1  0.50000000  0.00000000  0.00000000  1
  Mn  Mn9  1  0.50000000  0.50000000  0.00000000  1
  Mn  Mn10  1  0.74643900  0.50521600  0.96486100  1
  Mn  Mn11  1  0.74807000  0.74807000  0.96135800  1
  Mn  Mn12  1  0.50521600  0.74643900  0.96486100  1
  Mn  Mn13  1  0.25356100  0.49478400  0.03513900  1
  Mn  Mn14  1  0.25193000  0.25193000  0.03864200  1
  Mn  Mn15  1  0.49478400  0.25356100  0.03513900  1
  Si  Si16  1  0.91152400  0.42152400  0.35713800  1
  Si  Si17  1  0.66878400  0.91108100  0.35810300  1
  Si  Si18  1  0.42374700  0.66656400  0.35892200  1
  Si  Si19  1  0.42152400  0.91152400  0.35713800  1
  Si  Si20  1  0.66656400  0.42374700  0.35892200  1
  Si  Si21  1  0.91108100  0.66878400  0.35810300  1
  Si  Si22  1  0.08847600  0.57847600  0.64286200  1
  Si  Si23  1  0.33121600  0.08891900  0.64189700  1
  Si  Si24  1  0.57625300  0.33343600  0.64107800  1
  Si  Si25  1  0.57847600  0.08847600  0.64286200  1
  Si  Si26  1  0.33343600  0.57625300  0.64107800  1
  Si  Si27  1  0.08891900  0.33121600  0.64189700  1
  O  O28  1  0.00015700  0.32366200  0.49865700  1
  O  O29  1  0.67633800  0.99984300  0.50134300  1
  O  O30  1  0.32459900  0.67540100  0.50000000  1
  O  O31  1  0.32366200  0.00015700  0.49865700  1
  O  O32  1  0.67540100  0.32459900  0.50000000  1
  O  O33  1  0.99984300  0.67633800  0.50134300  1
  O  O34  1  0.90187500  0.54958000  0.39409200  1
  O  O35  1  0.54958000  0.90187500  0.39409200  1
  O  O36  1  0.55092400  0.55092400  0.40257000  1
  O  O37  1  0.09812500  0.45042000  0.60590800  1
  O  O38  1  0.45042000  0.09812500  0.60590800  1
  O  O39  1  0.44907600  0.44907600  0.59743000  1
  O  O40  1  0.78084200  0.43954200  0.39403900  1
  O  O41  1  0.78072300  0.78072300  0.39467000  1
  O  O42  1  0.43954200  0.78084200  0.39403900  1
  O  O43  1  0.21915800  0.56045800  0.60596100  1
  O  O44  1  0.21927700  0.21927700  0.60533000  1
  O  O45  1  0.56045800  0.21915800  0.60596100  1
  O  O46  1  0.94435200  0.39228100  0.14989600  1
  O  O47  1  0.66587900  0.94468900  0.15140200  1
  O  O48  1  0.39796000  0.66117800  0.15194400  1
  O  O49  1  0.39228100  0.94435200  0.14989600  1
  O  O50  1  0.66117800  0.39796000  0.15194400  1
  O  O51  1  0.94468900  0.66587900  0.15140200  1
  O  O52  1  0.05564800  0.60771900  0.85010400  1
  O  O53  1  0.33412100  0.05531100  0.84859800  1
  O  O54  1  0.60204000  0.33882200  0.84805600  1
  O  O55  1  0.60771900  0.05564800  0.85010400  1
  O  O56  1  0.33882200  0.60204000  0.84805600  1
  O  O57  1  0.05531100  0.33412100  0.84859800  1
  O  O58  1  0.92641300  0.15811600  0.11565400  1
  O  O59  1  0.91961600  0.91961600  0.12218100  1
  O  O60  1  0.15811600  0.92641300  0.11565400  1
  O  O61  1  0.07358700  0.84188400  0.88434600  1
  O  O62  1  0.08038400  0.08038400  0.87781900  1
  O  O63  1  0.84188400  0.07358700  0.88434600  1
  O  O64  1  0.83308300  0.33156300  0.89844900  1
  O  O65  1  0.83606400  0.83606400  0.90171200  1
  O  O66  1  0.33156300  0.83308300  0.89844900  1
  O  O67  1  0.16691700  0.66843700  0.10155100  1
  O  O68  1  0.16393600  0.16393600  0.09828800  1
  O  O69  1  0.66843700  0.16691700  0.10155100  1
  O  O70  1  0.85060200  0.57424300  0.88756600  1
  O  O71  1  0.57424300  0.85060200  0.88756600  1
  O  O72  1  0.57492700  0.57492700  0.88351900  1
  O  O73  1  0.14939800  0.42575700  0.11243400  1
  O  O74  1  0.42575700  0.14939800  0.11243400  1
  O  O75  1  0.42507300  0.42507300  0.11648100  1
  O  O76  1  0.66561400  0.66561400  0.06954500  1
  O  O77  1  0.33438600  0.33438600  0.93045500  1
