# generated using pymatgen
data_PtN3O4
_symmetry_space_group_name_H-M   'P 1'
_cell_length_a   7.15700864
_cell_length_b   8.70930342
_cell_length_c   7.36427601
_cell_angle_alpha   81.26084855
_cell_angle_beta   135.35800127
_cell_angle_gamma   107.96380200
_symmetry_Int_Tables_number   1
_chemical_formula_structural   PtN3O4
_chemical_formula_sum   'Pt2 N6 O8'
_cell_volume   305.25910376
_cell_formula_units_Z   2
loop_
 _symmetry_equiv_pos_site_id
 _symmetry_equiv_pos_as_xyz
  1  'x, y, z'
loop_
 _atom_site_type_symbol
 _atom_site_label
 _atom_site_symmetry_multiplicity
 _atom_site_fract_x
 _atom_site_fract_y
 _atom_site_fract_z
 _atom_site_occupancy
  Pt  Pt0  1  0.75107800  0.64429300  0.09341100  1
  Pt  Pt1  1  0.24892200  0.35570700  0.90658900  1
  N  N2  1  0.78984800  0.85634200  0.06421500  1
  N  N3  1  0.21015200  0.14365800  0.93578500  1
  N  N4  1  0.13996500  0.67184800  0.27479300  1
  N  N5  1  0.86003500  0.32815200  0.72520700  1
  N  N6  1  0.69373300  0.85082500  0.48518300  1
  N  N7  1  0.30626700  0.14917500  0.51481700  1
  O  O8  1  0.63542300  0.40780800  0.05386800  1
  O  O9  1  0.36457700  0.59219200  0.94613200  1
  O  O10  1  0.25130900  0.77781100  0.23136500  1
  O  O11  1  0.74869100  0.22218900  0.76863500  1
  O  O12  1  0.82920600  0.76452600  0.64493800  1
  O  O13  1  0.17079400  0.23547400  0.35506200  1
  O  O14  1  0.74161100  0.98659600  0.43565900  1
  O  O15  1  0.25838900  0.01340400  0.56434100  1
