# generated using pymatgen
data_Ca2Nb3CuBrO10
_symmetry_space_group_name_H-M   'P 1'
_cell_length_a   3.96904000
_cell_length_b   3.96904000
_cell_length_c   15.84020600
_cell_angle_alpha   90.00000000
_cell_angle_beta   90.00000000
_cell_angle_gamma   90.00000000
_symmetry_Int_Tables_number   1
_chemical_formula_structural   Ca2Nb3CuBrO10
_chemical_formula_sum   'Ca2 Nb3 Cu1 Br1 O10'
_cell_volume   249.53517696
_cell_formula_units_Z   1
loop_
 _symmetry_equiv_pos_site_id
 _symmetry_equiv_pos_as_xyz
  1  'x, y, z'
loop_
 _atom_site_type_symbol
 _atom_site_label
 _atom_site_symmetry_multiplicity
 _atom_site_fract_x
 _atom_site_fract_y
 _atom_site_fract_z
 _atom_site_occupancy
  Ca  Ca0  1  0.50000000  0.50000000  0.85629700  1
  Ca  Ca1  1  0.50000000  0.50000000  0.14370300  1
  Nb  Nb2  1  0.00000000  0.00000000  0.00000000  1
  Nb  Nb3  1  0.00000000  0.00000000  0.73207800  1
  Nb  Nb4  1  0.00000000  0.00000000  0.26792200  1
  Cu  Cu5  1  0.00000000  0.00000000  0.50000000  1
  Br  Br6  1  0.50000000  0.50000000  0.50000000  1
  O  O7  1  0.50000000  0.00000000  0.00000000  1
  O  O8  1  0.00000000  0.50000000  0.00000000  1
  O  O9  1  0.00000000  0.00000000  0.87543000  1
  O  O10  1  0.00000000  0.00000000  0.12457000  1
  O  O11  1  0.50000000  0.00000000  0.75968900  1
  O  O12  1  0.00000000  0.50000000  0.75968900  1
  O  O13  1  0.50000000  0.00000000  0.24031100  1
  O  O14  1  0.00000000  0.50000000  0.24031100  1
  O  O15  1  0.00000000  0.00000000  0.61767900  1
  O  O16  1  0.00000000  0.00000000  0.38232100  1
