# generated using pymatgen
data_CaH2
_symmetry_space_group_name_H-M   'P 1'
_cell_length_a   3.78750200
_cell_length_b   5.36071200
_cell_length_c   6.68301900
_cell_angle_alpha   90.00000000
_cell_angle_beta   90.00000000
_cell_angle_gamma   90.00000000
_symmetry_Int_Tables_number   1
_chemical_formula_structural   CaH2
_chemical_formula_sum   'Ca4 H8'
_cell_volume   135.69006247
_cell_formula_units_Z   4
loop_
 _symmetry_equiv_pos_site_id
 _symmetry_equiv_pos_as_xyz
  1  'x, y, z'
loop_
 _atom_site_type_symbol
 _atom_site_label
 _atom_site_symmetry_multiplicity
 _atom_site_fract_x
 _atom_site_fract_y
 _atom_site_fract_z
 _atom_site_occupancy
  Ca  Ca0  1  0.25000000  0.74846000  0.58931000  1
  Ca  Ca1  1  0.25000000  0.24846000  0.91069000  1
  Ca  Ca2  1  0.75000000  0.25154000  0.41069000  1
  Ca  Ca3  1  0.75000000  0.75154000  0.08931000  1
  H  H4  1  0.25000000  0.76005700  0.91924200  1
  H  H5  1  0.25000000  0.26005700  0.58075800  1
  H  H6  1  0.75000000  0.23994300  0.08075800  1
  H  H7  1  0.75000000  0.73994300  0.41924200  1
  H  H8  1  0.25000000  0.99821900  0.25552200  1
  H  H9  1  0.25000000  0.49821900  0.24447800  1
  H  H10  1  0.75000000  0.00178100  0.74447800  1
  H  H11  1  0.75000000  0.50178100  0.75552200  1
