# generated using pymatgen
data_K2MoSe2O11
_symmetry_space_group_name_H-M   'P 1'
_cell_length_a   12.34125200
_cell_length_b   9.42488100
_cell_length_c   10.81710779
_cell_angle_alpha   67.50784243
_cell_angle_beta   90.00000000
_cell_angle_gamma   90.00000000
_symmetry_Int_Tables_number   1
_chemical_formula_structural   K2MoSe2O11
_chemical_formula_sum   'K8 Mo4 Se8 O44'
_cell_volume   1162.48194724
_cell_formula_units_Z   4
loop_
 _symmetry_equiv_pos_site_id
 _symmetry_equiv_pos_as_xyz
  1  'x, y, z'
loop_
 _atom_site_type_symbol
 _atom_site_label
 _atom_site_symmetry_multiplicity
 _atom_site_fract_x
 _atom_site_fract_y
 _atom_site_fract_z
 _atom_site_occupancy
  K  K0  1  0.85248000  0.62472500  0.67469400  1
  K  K1  1  0.35248000  0.87527500  0.32530600  1
  K  K2  1  0.14752000  0.37527500  0.32530600  1
  K  K3  1  0.64752000  0.12472500  0.67469400  1
  K  K4  1  0.14166800  0.95788100  0.74599800  1
  K  K5  1  0.64166800  0.54211900  0.25400200  1
  K  K6  1  0.85833200  0.04211900  0.25400200  1
  K  K7  1  0.35833200  0.45788100  0.74599800  1
  Mo  Mo8  1  0.15177400  0.14209300  0.06480700  1
  Mo  Mo9  1  0.65177400  0.35790700  0.93519300  1
  Mo  Mo10  1  0.84822600  0.85790700  0.93519300  1
  Mo  Mo11  1  0.34822600  0.64209300  0.06480700  1
  Se  Se12  1  0.12878000  0.52251300  0.90699900  1
  Se  Se13  1  0.62878000  0.97748700  0.09300100  1
  Se  Se14  1  0.87122000  0.47748700  0.09300100  1
  Se  Se15  1  0.37122000  0.02251300  0.90699900  1
  Se  Se16  1  0.11567500  0.76628000  0.16591400  1
  Se  Se17  1  0.61567500  0.73372000  0.83408600  1
  Se  Se18  1  0.88432500  0.23372000  0.83408600  1
  Se  Se19  1  0.38432500  0.26628000  0.16591400  1
  O  O20  1  0.79317200  0.64837300  0.06391000  1
  O  O21  1  0.29317200  0.85162700  0.93609000  1
  O  O22  1  0.20682800  0.35162700  0.93609000  1
  O  O23  1  0.70682800  0.14837300  0.06391000  1
  O  O24  1  0.75545200  0.31808900  0.78701000  1
  O  O25  1  0.25545200  0.18191100  0.21299000  1
  O  O26  1  0.24454800  0.68191100  0.21299000  1
  O  O27  1  0.74454800  0.81808900  0.78701000  1
  O  O28  1  0.64304600  0.56782800  0.78966300  1
  O  O29  1  0.14304600  0.93217200  0.21033700  1
  O  O30  1  0.35695400  0.43217200  0.21033700  1
  O  O31  1  0.85695400  0.06782800  0.78966300  1
  O  O32  1  0.89765700  0.91803600  0.05835800  1
  O  O33  1  0.39765700  0.58196400  0.94164200  1
  O  O34  1  0.10234300  0.08196400  0.94164200  1
  O  O35  1  0.60234300  0.41803600  0.05835800  1
  O  O36  1  0.18049500  0.57576200  0.03203700  1
  O  O37  1  0.68049500  0.92423800  0.96796300  1
  O  O38  1  0.81950500  0.42423800  0.96796300  1
  O  O39  1  0.31950500  0.07576200  0.03203700  1
  O  O40  1  0.96006000  0.77603500  0.88517600  1
  O  O41  1  0.46006000  0.72396500  0.11482400  1
  O  O42  1  0.03994000  0.22396500  0.11482400  1
  O  O43  1  0.53994000  0.27603500  0.88517600  1
  O  O44  1  0.18018400  0.64547400  0.76086500  1
  O  O45  1  0.68018400  0.85452600  0.23913500  1
  O  O46  1  0.81981600  0.35452600  0.23913500  1
  O  O47  1  0.31981600  0.14547400  0.76086500  1
  O  O48  1  0.95821300  0.34899900  0.70544400  1
  O  O49  1  0.45821300  0.15100100  0.29455600  1
  O  O50  1  0.04178700  0.65100100  0.29455600  1
  O  O51  1  0.54178700  0.84899900  0.70544400  1
  O  O52  1  0.06729500  0.79150300  0.50451200  1
  O  O53  1  0.56729500  0.70849700  0.49548800  1
  O  O54  1  0.93270500  0.20849700  0.49548800  1
  O  O55  1  0.43270500  0.29150300  0.50451200  1
  O  O56  1  0.90634900  0.07408700  0.51782400  1
  O  O57  1  0.40634900  0.42591300  0.48217600  1
  O  O58  1  0.09365100  0.92591300  0.48217600  1
  O  O59  1  0.59365100  0.57408700  0.51782400  1
  O  O60  1  0.83589100  0.70837100  0.36398100  1
  O  O61  1  0.33589100  0.79162900  0.63601900  1
  O  O62  1  0.16410900  0.29162900  0.63601900  1
  O  O63  1  0.66410900  0.20837100  0.36398100  1
