# generated using pymatgen
data_Ho3Sn7
_symmetry_space_group_name_H-M   'P 1'
_cell_length_a   14.33178552
_cell_length_b   14.33178552
_cell_length_c   44.53407000
_cell_angle_alpha   90.00000000
_cell_angle_beta   90.00000000
_cell_angle_gamma   167.95461125
_symmetry_Int_Tables_number   1
_chemical_formula_structural   Ho3Sn7
_chemical_formula_sum   'Ho3 Sn7'
_cell_volume   1908.91828380
_cell_formula_units_Z   1
loop_
 _symmetry_equiv_pos_site_id
 _symmetry_equiv_pos_as_xyz
  1  'x, y, z'
loop_
 _atom_site_type_symbol
 _atom_site_label
 _atom_site_symmetry_multiplicity
 _atom_site_fract_x
 _atom_site_fract_y
 _atom_site_fract_z
 _atom_site_occupancy
  Ho  Ho0  1  0.00000000  0.00000000  0.50000000  1
  Ho  Ho1  1  0.30338900  0.69661100  0.00000000  1
  Ho  Ho2  1  0.69661100  0.30338900  0.00000000  1
  Sn  Sn3  1  0.50000000  0.50000000  0.00000000  1
  Sn  Sn4  1  0.40171300  0.59828700  0.50000000  1
  Sn  Sn5  1  0.59828700  0.40171300  0.50000000  1
  Sn  Sn6  1  0.09806300  0.90193700  0.00000000  1
  Sn  Sn7  1  0.90193700  0.09806300  0.00000000  1
  Sn  Sn8  1  0.19770600  0.80229400  0.50000000  1
  Sn  Sn9  1  0.80229400  0.19770600  0.50000000  1
