# generated using pymatgen
data_H3CI
_symmetry_space_group_name_H-M   'P 1'
_cell_length_a   4.77516700
_cell_length_b   7.23731300
_cell_length_c   10.25082100
_cell_angle_alpha   90.00000000
_cell_angle_beta   90.00000000
_cell_angle_gamma   90.00000000
_symmetry_Int_Tables_number   1
_chemical_formula_structural   H3CI
_chemical_formula_sum   'H12 C4 I4'
_cell_volume   354.26199986
_cell_formula_units_Z   4
loop_
 _symmetry_equiv_pos_site_id
 _symmetry_equiv_pos_as_xyz
  1  'x, y, z'
loop_
 _atom_site_type_symbol
 _atom_site_label
 _atom_site_symmetry_multiplicity
 _atom_site_fract_x
 _atom_site_fract_y
 _atom_site_fract_z
 _atom_site_occupancy
  H  H0  1  0.08093800  0.25000000  0.59016500  1
  H  H1  1  0.58093800  0.25000000  0.90983500  1
  H  H2  1  0.91906200  0.75000000  0.40983500  1
  H  H3  1  0.41906200  0.75000000  0.09016500  1
  H  H4  1  0.78210100  0.37586400  0.65168800  1
  H  H5  1  0.28210100  0.12413600  0.84831200  1
  H  H6  1  0.21789900  0.87586400  0.34831200  1
  H  H7  1  0.71789900  0.62413600  0.15168800  1
  H  H8  1  0.21789900  0.62413600  0.34831200  1
  H  H9  1  0.71789900  0.87586400  0.15168800  1
  H  H10  1  0.78210100  0.12413600  0.65168800  1
  H  H11  1  0.28210100  0.37586400  0.84831200  1
  C  C12  1  0.85417800  0.25000000  0.60276000  1
  C  C13  1  0.35417800  0.25000000  0.89724000  1
  C  C14  1  0.14582200  0.75000000  0.39724000  1
  C  C15  1  0.64582200  0.75000000  0.10276000  1
  I  I16  1  0.66787900  0.25000000  0.41115800  1
  I  I17  1  0.16787900  0.25000000  0.08884200  1
  I  I18  1  0.33212100  0.75000000  0.58884200  1
  I  I19  1  0.83212100  0.75000000  0.91115800  1
