# generated using pymatgen
data_H4C(N2O)2
_symmetry_space_group_name_H-M   'P 1'
_cell_length_a   15.64905994
_cell_length_b   12.69497605
_cell_length_c   9.45362785
_cell_angle_alpha   88.65347747
_cell_angle_beta   54.19426782
_cell_angle_gamma   37.15225471
_symmetry_Int_Tables_number   1
_chemical_formula_structural   H4C(N2O)2
_chemical_formula_sum   'H16 C4 N16 O8'
_cell_volume   393.19208146
_cell_formula_units_Z   4
loop_
 _symmetry_equiv_pos_site_id
 _symmetry_equiv_pos_as_xyz
  1  'x, y, z'
loop_
 _atom_site_type_symbol
 _atom_site_label
 _atom_site_symmetry_multiplicity
 _atom_site_fract_x
 _atom_site_fract_y
 _atom_site_fract_z
 _atom_site_occupancy
  H  H0  1  0.09075000  0.03171000  0.11200200  1
  H  H1  1  0.76553800  0.11200200  0.03171000  1
  H  H2  1  0.13799800  0.48446200  0.15925000  1
  H  H3  1  0.21829000  0.15925000  0.48446200  1
  H  H4  1  0.79944000  0.31469200  0.23170500  1
  H  H5  1  0.65416400  0.23170500  0.31469200  1
  H  H6  1  0.01829500  0.59583600  0.45056000  1
  H  H7  1  0.93530800  0.45056000  0.59583600  1
  H  H8  1  0.69950200  0.56744000  0.19864000  1
  H  H9  1  0.53441900  0.19864000  0.56744000  1
  H  H10  1  0.05136000  0.71558100  0.55049800  1
  H  H11  1  0.68256000  0.55049800  0.71558100  1
  H  H12  1  0.90771400  0.48461200  0.06580800  1
  H  H13  1  0.54186600  0.06580800  0.48461200  1
  H  H14  1  0.18419200  0.70813400  0.34228600  1
  H  H15  1  0.76538800  0.34228600  0.70813400  1
  C  C16  1  0.02408400  0.24146000  0.07912100  1
  C  C17  1  0.65533500  0.07912100  0.24146000  1
  C  C18  1  0.17087900  0.59466500  0.22591600  1
  C  C19  1  0.00854000  0.22591600  0.59466500  1
  N  N20  1  0.95954400  0.20047700  0.15459600  1
  N  N21  1  0.68538300  0.15459600  0.20047700  1
  N  N22  1  0.09540400  0.56461700  0.29045600  1
  N  N23  1  0.04952300  0.29045600  0.56461700  1
  N  N24  1  0.87263400  0.43916200  0.10836600  1
  N  N25  1  0.57983800  0.10836600  0.43916200  1
  N  N26  1  0.14163400  0.67016200  0.37736600  1
  N  N27  1  0.81083800  0.37736600  0.67016200  1
  N  N28  1  0.25152800  0.06098600  0.97432700  1
  N  N29  1  0.71316000  0.97432700  0.06098600  1
  N  N30  1  0.27567300  0.53684000  0.99847200  1
  N  N31  1  0.18901400  0.99847200  0.53684000  1
  N  N32  1  0.30103900  0.11676700  0.94059400  1
  N  N33  1  0.64160000  0.94059400  0.11676700  1
  N  N34  1  0.30940600  0.60840000  0.94896100  1
  N  N35  1  0.13323300  0.94896100  0.60840000  1
  O  O36  1  0.15406700  0.32788500  0.99285900  1
  O  O37  1  0.52518900  0.99285900  0.32788500  1
  O  O38  1  0.25714100  0.72481100  0.09593300  1
  O  O39  1  0.92211500  0.09593300  0.72481100  1
  O  O40  1  0.50165400  0.95053000  0.85886400  1
  O  O41  1  0.68895300  0.85886400  0.95053000  1
  O  O42  1  0.39113600  0.56104700  0.74834600  1
  O  O43  1  0.29947000  0.74834600  0.56104700  1
