# generated using pymatgen
data_CoH15N6(ClO)2
_symmetry_space_group_name_H-M   'P 1'
_cell_length_a   8.90074900
_cell_length_b   11.30254300
_cell_length_c   16.09415400
_cell_angle_alpha   90.00000000
_cell_angle_beta   90.00000000
_cell_angle_gamma   90.00000000
_symmetry_Int_Tables_number   1
_chemical_formula_structural   CoH15N6(ClO)2
_chemical_formula_sum   'Co4 H60 N24 Cl8 O8'
_cell_volume   1619.08956869
_cell_formula_units_Z   4
loop_
 _symmetry_equiv_pos_site_id
 _symmetry_equiv_pos_as_xyz
  1  'x, y, z'
loop_
 _atom_site_type_symbol
 _atom_site_label
 _atom_site_symmetry_multiplicity
 _atom_site_fract_x
 _atom_site_fract_y
 _atom_site_fract_z
 _atom_site_occupancy
  Co  Co0  1  0.24990700  0.22185800  0.59497400  1
  Co  Co1  1  0.75009300  0.72185800  0.40502600  1
  Co  Co2  1  0.74990700  0.72185800  0.90502600  1
  Co  Co3  1  0.25009300  0.22185800  0.09497400  1
  H  H4  1  0.62757200  0.14507500  0.71847100  1
  H  H5  1  0.37242800  0.64507500  0.28152900  1
  H  H6  1  0.12757200  0.64507500  0.78152900  1
  H  H7  1  0.87242800  0.14507500  0.21847100  1
  H  H8  1  0.53214200  0.18026100  0.87950600  1
  H  H9  1  0.46785800  0.68026100  0.12049400  1
  H  H10  1  0.03214200  0.68026100  0.62049400  1
  H  H11  1  0.96785800  0.18026100  0.37950600  1
  H  H12  1  0.66029600  0.31932100  0.64608000  1
  H  H13  1  0.33970400  0.81932100  0.35392000  1
  H  H14  1  0.16029600  0.81932100  0.85392000  1
  H  H15  1  0.83970400  0.31932100  0.14608000  1
  H  H16  1  0.10519700  0.24100200  0.68220300  1
  H  H17  1  0.89480300  0.74100200  0.31779700  1
  H  H18  1  0.60519700  0.74100200  0.81779700  1
  H  H19  1  0.39480300  0.24100200  0.18220300  1
  H  H20  1  0.47265800  0.08975200  0.03048400  1
  H  H21  1  0.52734200  0.58975200  0.96951600  1
  H  H22  1  0.97265800  0.58975200  0.46951600  1
  H  H23  1  0.02734200  0.08975200  0.53048400  1
  H  H24  1  0.09350900  0.30224400  0.66077400  1
  H  H25  1  0.90649100  0.80224400  0.33922600  1
  H  H26  1  0.59350900  0.80224400  0.83922600  1
  H  H27  1  0.40649100  0.30224400  0.16077400  1
  H  H28  1  0.14915700  0.08114300  0.46052400  1
  H  H29  1  0.85084300  0.58114300  0.53947600  1
  H  H30  1  0.64915700  0.58114300  0.03947600  1
  H  H31  1  0.35084300  0.08114300  0.96052400  1
  H  H32  1  0.66221200  0.35017400  0.53946000  1
  H  H33  1  0.33778800  0.85017400  0.46054000  1
  H  H34  1  0.16221200  0.85017400  0.96054000  1
  H  H35  1  0.83778800  0.35017400  0.03946000  1
  H  H36  1  0.03231300  0.31006200  0.43186100  1
  H  H37  1  0.96768700  0.81006200  0.56813900  1
  H  H38  1  0.53231300  0.81006200  0.06813900  1
  H  H39  1  0.46768700  0.31006200  0.93186100  1
  H  H40  1  0.34313200  0.01288900  0.61224200  1
  H  H41  1  0.65686800  0.51288900  0.38775800  1
  H  H42  1  0.84313200  0.51288900  0.88775800  1
  H  H43  1  0.15686800  0.01288900  0.11224200  1
  H  H44  1  0.21089000  0.02156800  0.68113900  1
  H  H45  1  0.78911000  0.52156800  0.31886100  1
  H  H46  1  0.71089000  0.52156800  0.81886100  1
  H  H47  1  0.28911000  0.02156800  0.18113900  1
  H  H48  1  0.37941000  0.06153600  0.70738000  1
  H  H49  1  0.62059000  0.56153600  0.29262000  1
  H  H50  1  0.87941000  0.56153600  0.79262000  1
  H  H51  1  0.12059000  0.06153600  0.20738000  1
  H  H52  1  0.28706000  0.45545100  0.44375400  1
  H  H53  1  0.71294000  0.95545100  0.55624600  1
  H  H54  1  0.78706000  0.95545100  0.05624600  1
  H  H55  1  0.21294000  0.45545100  0.94375400  1
  H  H56  1  0.09780500  0.61478900  0.74335800  1
  H  H57  1  0.90219500  0.11478900  0.25664200  1
  H  H58  1  0.59780500  0.11478900  0.75664200  1
  H  H59  1  0.40219500  0.61478900  0.24335800  1
  H  H60  1  0.44111800  0.52721200  0.65748900  1
  H  H61  1  0.55888200  0.02721200  0.34251100  1
  H  H62  1  0.94111800  0.02721200  0.84251100  1
  H  H63  1  0.05888200  0.52721200  0.15748900  1
  N  N64  1  0.81065700  0.30040200  0.42169100  1
  N  N65  1  0.18934300  0.80040200  0.57830900  1
  N  N66  1  0.31065700  0.80040200  0.07830900  1
  N  N67  1  0.68934300  0.30040200  0.92169100  1
  N  N68  1  0.60917200  0.31380800  0.58988700  1
  N  N69  1  0.39082800  0.81380800  0.41011300  1
  N  N70  1  0.10917200  0.81380800  0.91011300  1
  N  N71  1  0.89082800  0.31380800  0.08988700  1
  N  N72  1  0.94716900  0.26196400  0.40629600  1
  N  N73  1  0.05283100  0.76196400  0.59370400  1
  N  N74  1  0.44716900  0.76196400  0.09370400  1
  N  N75  1  0.55283100  0.26196400  0.90629600  1
  N  N76  1  0.37335500  0.33562400  0.53416100  1
  N  N77  1  0.62664500  0.83562400  0.46583900  1
  N  N78  1  0.87335500  0.83562400  0.96583900  1
  N  N79  1  0.12664500  0.33562400  0.03416100  1
  N  N80  1  0.30338800  0.06522800  0.65930000  1
  N  N81  1  0.69661200  0.56522800  0.34070000  1
  N  N82  1  0.80338800  0.56522800  0.84070000  1
  N  N83  1  0.19661200  0.06522800  0.15930000  1
  N  N84  1  0.45929400  0.30716500  0.59257300  1
  N  N85  1  0.54070600  0.80716500  0.40742700  1
  N  N86  1  0.95929400  0.80716500  0.90742700  1
  N  N87  1  0.04070600  0.30716500  0.09257300  1
  Cl  Cl88  1  0.40053200  0.99598500  0.85668500  1
  Cl  Cl89  1  0.59946800  0.49598500  0.14331500  1
  Cl  Cl90  1  0.90053200  0.49598500  0.64331500  1
  Cl  Cl91  1  0.09946800  0.99598500  0.35668500  1
  Cl  Cl92  1  0.31044700  0.50567400  0.89356700  1
  Cl  Cl93  1  0.68955300  0.00567400  0.10643300  1
  Cl  Cl94  1  0.81044700  0.00567400  0.60643300  1
  Cl  Cl95  1  0.18955300  0.50567400  0.39356700  1
  O  O96  1  0.70705600  0.23659200  0.39491300  1
  O  O97  1  0.29294400  0.73659200  0.60508700  1
  O  O98  1  0.20705600  0.73659200  0.10508700  1
  O  O99  1  0.79294400  0.23659200  0.89491300  1
  O  O100  1  0.12705700  0.12002200  0.51616600  1
  O  O101  1  0.87294300  0.62002200  0.48383400  1
  O  O102  1  0.62705700  0.62002200  0.98383400  1
  O  O103  1  0.37294300  0.12002200  0.01616600  1
