# generated using pymatgen
data_IrPt(NCl)5
_symmetry_space_group_name_H-M   'P 1'
_cell_length_a   8.26776700
_cell_length_b   7.83892700
_cell_length_c   18.62169000
_cell_angle_alpha   90.00000000
_cell_angle_beta   90.00000000
_cell_angle_gamma   90.00000000
_symmetry_Int_Tables_number   1
_chemical_formula_structural   IrPt(NCl)5
_chemical_formula_sum   'Ir4 Pt4 N20 Cl20'
_cell_volume   1206.87958662
_cell_formula_units_Z   4
loop_
 _symmetry_equiv_pos_site_id
 _symmetry_equiv_pos_as_xyz
  1  'x, y, z'
loop_
 _atom_site_type_symbol
 _atom_site_label
 _atom_site_symmetry_multiplicity
 _atom_site_fract_x
 _atom_site_fract_y
 _atom_site_fract_z
 _atom_site_occupancy
  Ir  Ir0  1  0.25000000  0.35150900  0.61063200  1
  Ir  Ir1  1  0.25000000  0.14849100  0.11063200  1
  Ir  Ir2  1  0.75000000  0.64849100  0.38936800  1
  Ir  Ir3  1  0.75000000  0.85150900  0.88936800  1
  Pt  Pt4  1  0.25000000  0.92934600  0.69984300  1
  Pt  Pt5  1  0.25000000  0.57065400  0.19984300  1
  Pt  Pt6  1  0.75000000  0.07065400  0.30015700  1
  Pt  Pt7  1  0.75000000  0.42934600  0.80015700  1
  N  N8  1  0.25000000  0.13476300  0.65656200  1
  N  N9  1  0.25000000  0.36523700  0.15656200  1
  N  N10  1  0.75000000  0.86523700  0.34343800  1
  N  N11  1  0.75000000  0.63476300  0.84343800  1
  N  N12  1  0.07572200  0.44618500  0.64630700  1
  N  N13  1  0.42427800  0.05381500  0.14630700  1
  N  N14  1  0.57572200  0.55381500  0.35369300  1
  N  N15  1  0.92427800  0.94618500  0.85369300  1
  N  N16  1  0.92427800  0.55381500  0.35369300  1
  N  N17  1  0.57572200  0.94618500  0.85369300  1
  N  N18  1  0.42427800  0.44618500  0.64630700  1
  N  N19  1  0.07572200  0.05381500  0.14630700  1
  N  N20  1  0.09374400  0.17312800  0.53304300  1
  N  N21  1  0.40625600  0.32687200  0.03304300  1
  N  N22  1  0.59374400  0.82687200  0.46695700  1
  N  N23  1  0.90625600  0.67312800  0.96695700  1
  N  N24  1  0.90625600  0.82687200  0.46695700  1
  N  N25  1  0.59374400  0.67312800  0.96695700  1
  N  N26  1  0.40625600  0.17312800  0.53304300  1
  N  N27  1  0.09374400  0.32687200  0.03304300  1
  Cl  Cl28  1  0.97589700  0.88416500  0.69182700  1
  Cl  Cl29  1  0.52410300  0.61583500  0.19182700  1
  Cl  Cl30  1  0.47589700  0.11583500  0.30817300  1
  Cl  Cl31  1  0.02410300  0.38416500  0.80817300  1
  Cl  Cl32  1  0.02410300  0.11583500  0.30817300  1
  Cl  Cl33  1  0.47589700  0.38416500  0.80817300  1
  Cl  Cl34  1  0.52410300  0.88416500  0.69182700  1
  Cl  Cl35  1  0.97589700  0.61583500  0.19182700  1
  Cl  Cl36  1  0.25000000  0.10101600  0.50028500  1
  Cl  Cl37  1  0.25000000  0.39898400  0.00028500  1
  Cl  Cl38  1  0.75000000  0.89898400  0.49971500  1
  Cl  Cl39  1  0.75000000  0.60101600  0.99971500  1
  Cl  Cl40  1  0.25000000  0.72490700  0.78521100  1
  Cl  Cl41  1  0.25000000  0.77509300  0.28521100  1
  Cl  Cl42  1  0.75000000  0.27509300  0.21478900  1
  Cl  Cl43  1  0.75000000  0.22490700  0.71478900  1
  Cl  Cl44  1  0.25000000  0.53246800  0.50956600  1
  Cl  Cl45  1  0.25000000  0.96753200  0.00956600  1
  Cl  Cl46  1  0.75000000  0.46753200  0.49043400  1
  Cl  Cl47  1  0.75000000  0.03246800  0.99043400  1
