# generated using pymatgen
data_CaAl2(SiO6)2
_symmetry_space_group_name_H-M   'P 1'
_cell_length_a   10.59640800
_cell_length_b   9.35968800
_cell_length_c   10.30362132
_cell_angle_alpha   89.97096180
_cell_angle_beta   90.00000000
_cell_angle_gamma   90.00000000
_symmetry_Int_Tables_number   1
_chemical_formula_structural   CaAl2(SiO6)2
_chemical_formula_sum   'Ca4 Al8 Si8 O48'
_cell_volume   1021.90347809
_cell_formula_units_Z   4
loop_
 _symmetry_equiv_pos_site_id
 _symmetry_equiv_pos_as_xyz
  1  'x, y, z'
loop_
 _atom_site_type_symbol
 _atom_site_label
 _atom_site_symmetry_multiplicity
 _atom_site_fract_x
 _atom_site_fract_y
 _atom_site_fract_z
 _atom_site_occupancy
  Ca  Ca0  1  0.43256500  0.71952400  0.97878500  1
  Ca  Ca1  1  0.93256500  0.28047600  0.02121500  1
  Ca  Ca2  1  0.56915100  0.26595500  0.51743200  1
  Ca  Ca3  1  0.06915100  0.73404500  0.48256800  1
  Al  Al4  1  0.36764400  0.06992000  0.08539700  1
  Al  Al5  1  0.86764400  0.93008000  0.91460300  1
  Al  Al6  1  0.62266200  0.92029400  0.41473700  1
  Al  Al7  1  0.12266200  0.07970600  0.58526300  1
  Al  Al8  1  0.66735300  0.56733400  0.11774800  1
  Al  Al9  1  0.16735300  0.43266600  0.88225200  1
  Al  Al10  1  0.33837200  0.42880500  0.38190000  1
  Al  Al11  1  0.83837200  0.57119500  0.61810000  1
  Si  Si12  1  0.38984500  0.41261500  0.07335900  1
  Si  Si13  1  0.88984500  0.58738500  0.92664100  1
  Si  Si14  1  0.61883100  0.57696400  0.42589500  1
  Si  Si15  1  0.11883100  0.42303600  0.57410500  1
  Si  Si16  1  0.63703000  0.91455800  0.09591800  1
  Si  Si17  1  0.13703000  0.08544200  0.90408200  1
  Si  Si18  1  0.35281900  0.07846300  0.40105600  1
  Si  Si19  1  0.85281900  0.92153700  0.59894400  1
  O  O20  1  0.33358700  0.04519800  0.24928700  1
  O  O21  1  0.83358700  0.95480200  0.75071300  1
  O  O22  1  0.65166700  0.94218300  0.24932300  1
  O  O23  1  0.15166700  0.05781700  0.75067700  1
  O  O24  1  0.40655900  0.24536900  0.04481200  1
  O  O25  1  0.90655900  0.75463100  0.95518800  1
  O  O26  1  0.59499700  0.74315500  0.45629900  1
  O  O27  1  0.09499700  0.25684500  0.54370100  1
  O  O28  1  0.32941200  0.44764600  0.21493900  1
  O  O29  1  0.82941200  0.55235400  0.78506100  1
  O  O30  1  0.68033900  0.54709900  0.28405000  1
  O  O31  1  0.18033900  0.45290100  0.71595000  1
  O  O32  1  0.13715000  0.25788300  0.93845500  1
  O  O33  1  0.63715000  0.74211700  0.06154500  1
  O  O34  1  0.86039300  0.74890600  0.56650500  1
  O  O35  1  0.36039300  0.25109400  0.43349500  1
  O  O36  1  0.49233800  0.95079000  0.04245100  1
  O  O37  1  0.99233800  0.04921000  0.95754900  1
  O  O38  1  0.49633000  0.03708600  0.45411700  1
  O  O39  1  0.99633000  0.96291400  0.54588300  1
  O  O40  1  0.24532900  0.00302200  0.98642600  1
  O  O41  1  0.74532900  0.99697800  0.01357400  1
  O  O42  1  0.74210900  0.99769600  0.51282500  1
  O  O43  1  0.24210900  0.00230400  0.48717500  1
  O  O44  1  0.30271500  0.50047600  0.96320200  1
  O  O45  1  0.80271500  0.49952400  0.03679800  1
  O  O46  1  0.70715100  0.49375100  0.53720900  1
  O  O47  1  0.20715100  0.50624900  0.46279100  1
  O  O48  1  0.52304000  0.50091600  0.05601900  1
  O  O49  1  0.02304000  0.49908400  0.94398100  1
  O  O50  1  0.48735400  0.48408100  0.44246600  1
  O  O51  1  0.98735400  0.51591900  0.55753400  1
  O  O52  1  0.44050200  0.18789400  0.73328500  1
  O  O53  1  0.94050200  0.81210600  0.26671500  1
  O  O54  1  0.56088600  0.67851700  0.74149200  1
  O  O55  1  0.06088600  0.32148300  0.25850800  1
  O  O56  1  0.48214100  0.58032600  0.73761000  1
  O  O57  1  0.98214100  0.41967400  0.26239000  1
  O  O58  1  0.67226800  0.32290800  0.78932500  1
  O  O59  1  0.17226800  0.67709200  0.21067500  1
  O  O60  1  0.31744700  0.82825300  0.73894600  1
  O  O61  1  0.81744700  0.17174700  0.26105400  1
  O  O62  1  0.49984600  0.07835900  0.76041400  1
  O  O63  1  0.99984600  0.92164100  0.23958600  1
  O  O64  1  0.20695300  0.74140300  0.11261000  1
  O  O65  1  0.70695300  0.25859700  0.88739000  1
  O  O66  1  0.77631800  0.23807900  0.35537700  1
  O  O67  1  0.27631800  0.76192100  0.64462300  1
