# generated using pymatgen
data_Ge3Pb3O10
_symmetry_space_group_name_H-M   'P 1'
_cell_length_a   9.50176713
_cell_length_b   9.50172463
_cell_length_c   9.50285549
_cell_angle_alpha   113.48692495
_cell_angle_beta   113.47621607
_cell_angle_gamma   113.53041493
_symmetry_Int_Tables_number   1
_chemical_formula_structural   Ge3Pb3O10
_chemical_formula_sum   'Ge6 Pb6 O20'
_cell_volume   540.10504975
_cell_formula_units_Z   2
loop_
 _symmetry_equiv_pos_site_id
 _symmetry_equiv_pos_as_xyz
  1  'x, y, z'
loop_
 _atom_site_type_symbol
 _atom_site_label
 _atom_site_symmetry_multiplicity
 _atom_site_fract_x
 _atom_site_fract_y
 _atom_site_fract_z
 _atom_site_occupancy
  Ge  Ge0  1  0.24246900  0.84676500  0.97819200  1
  Ge  Ge1  1  0.84643200  0.97903200  0.24257100  1
  Ge  Ge2  1  0.97815600  0.24301200  0.84595000  1
  Ge  Ge3  1  0.75697300  0.15379100  0.02115600  1
  Ge  Ge4  1  0.15310900  0.02166200  0.75692700  1
  Ge  Ge5  1  0.02135600  0.75777600  0.15352200  1
  Pb  Pb6  1  0.32734300  0.49088200  0.79438300  1
  Pb  Pb7  1  0.48957900  0.79444600  0.32683200  1
  Pb  Pb8  1  0.79407200  0.32716100  0.48943300  1
  Pb  Pb9  1  0.67214200  0.51001600  0.20524400  1
  Pb  Pb10  1  0.50988200  0.20585000  0.67290300  1
  Pb  Pb11  1  0.20493200  0.67274900  0.50922700  1
  O  O12  1  0.02215200  0.72056900  0.95340400  1
  O  O13  1  0.72005600  0.95370300  0.02203100  1
  O  O14  1  0.95293200  0.02244300  0.71979600  1
  O  O15  1  0.97745300  0.28053900  0.04626300  1
  O  O16  1  0.27948300  0.04696300  0.97746400  1
  O  O17  1  0.04663500  0.97834000  0.27982000  1
  O  O18  1  0.46792000  0.96384000  0.21243600  1
  O  O19  1  0.96382700  0.21346000  0.46810000  1
  O  O20  1  0.21295300  0.46859300  0.96361200  1
  O  O21  1  0.53138300  0.03593100  0.78657000  1
  O  O22  1  0.03564800  0.78705200  0.53149800  1
  O  O23  1  0.78676500  0.53216900  0.03612600  1
  O  O24  1  0.18235300  0.65434500  0.76224300  1
  O  O25  1  0.65382900  0.76296600  0.18239200  1
  O  O26  1  0.76225400  0.18283000  0.65343400  1
  O  O27  1  0.81671800  0.34610000  0.23686600  1
  O  O28  1  0.34580400  0.23777100  0.81720000  1
  O  O29  1  0.23738900  0.81802900  0.34596100  1
  O  O30  1  0.58681600  0.57991600  0.58809500  1
  O  O31  1  0.42118500  0.41129400  0.42035000  1
