# generated using pymatgen
data_CoAg(N3O4)2
_symmetry_space_group_name_H-M   'P 1'
_cell_length_a   7.94869500
_cell_length_b   7.94869500
_cell_length_c   7.36717200
_cell_angle_alpha   90.00000000
_cell_angle_beta   90.00000000
_cell_angle_gamma   90.00000000
_symmetry_Int_Tables_number   1
_chemical_formula_structural   CoAg(N3O4)2
_chemical_formula_sum   'Co2 Ag2 N12 O16'
_cell_volume   465.47083574
_cell_formula_units_Z   2
loop_
 _symmetry_equiv_pos_site_id
 _symmetry_equiv_pos_as_xyz
  1  'x, y, z'
loop_
 _atom_site_type_symbol
 _atom_site_label
 _atom_site_symmetry_multiplicity
 _atom_site_fract_x
 _atom_site_fract_y
 _atom_site_fract_z
 _atom_site_occupancy
  Co  Co0  1  0.00000000  0.00000000  0.50000000  1
  Co  Co1  1  0.50000000  0.50000000  0.00000000  1
  Ag  Ag2  1  0.50000000  0.50000000  0.50000000  1
  Ag  Ag3  1  0.00000000  0.00000000  0.00000000  1
  N  N4  1  0.72223800  0.72223800  0.50000000  1
  N  N5  1  0.27776200  0.27776200  0.50000000  1
  N  N6  1  0.22223800  0.22223800  0.00000000  1
  N  N7  1  0.77776200  0.77776200  0.00000000  1
  N  N8  1  0.27776200  0.72223800  0.50000000  1
  N  N9  1  0.72223800  0.27776200  0.50000000  1
  N  N10  1  0.77776200  0.22223800  0.00000000  1
  N  N11  1  0.22223800  0.77776200  0.00000000  1
  N  N12  1  0.50000000  0.50000000  0.77347900  1
  N  N13  1  0.00000000  0.00000000  0.72652100  1
  N  N14  1  0.50000000  0.50000000  0.22652100  1
  N  N15  1  0.00000000  0.00000000  0.27347900  1
  O  O16  1  0.84768500  0.69576500  0.59227600  1
  O  O17  1  0.15231500  0.30423500  0.59227600  1
  O  O18  1  0.34768500  0.19576500  0.90772400  1
  O  O19  1  0.65231500  0.80423500  0.90772400  1
  O  O20  1  0.15231500  0.69576500  0.40772400  1
  O  O21  1  0.84768500  0.30423500  0.40772400  1
  O  O22  1  0.65231500  0.19576500  0.09227600  1
  O  O23  1  0.34768500  0.80423500  0.09227600  1
  O  O24  1  0.30423500  0.84768500  0.59227600  1
  O  O25  1  0.69576500  0.15231500  0.59227600  1
  O  O26  1  0.80423500  0.34768500  0.90772400  1
  O  O27  1  0.19576500  0.65231500  0.90772400  1
  O  O28  1  0.30423500  0.15231500  0.40772400  1
  O  O29  1  0.69576500  0.84768500  0.40772400  1
  O  O30  1  0.80423500  0.65231500  0.09227600  1
  O  O31  1  0.19576500  0.34768500  0.09227600  1
