# generated using pymatgen
data_Fe3O4
_symmetry_space_group_name_H-M   'P 1'
_cell_length_a   6.06571000
_cell_length_b   6.06335300
_cell_length_c   8.68538431
_cell_angle_alpha   89.79004304
_cell_angle_beta   90.00000000
_cell_angle_gamma   90.00000000
_symmetry_Int_Tables_number   1
_chemical_formula_structural   Fe3O4
_chemical_formula_sum   'Fe12 O16'
_cell_volume   319.43361774
_cell_formula_units_Z   4
loop_
 _symmetry_equiv_pos_site_id
 _symmetry_equiv_pos_as_xyz
  1  'x, y, z'
loop_
 _atom_site_type_symbol
 _atom_site_label
 _atom_site_symmetry_multiplicity
 _atom_site_fract_x
 _atom_site_fract_y
 _atom_site_fract_z
 _atom_site_occupancy
  Fe  Fe0  1  0.00000000  0.00000000  0.50000000  1
  Fe  Fe1  1  0.00000000  0.50000000  0.50000000  1
  Fe  Fe2  1  0.50000000  0.00000000  0.00000000  1
  Fe  Fe3  1  0.50000000  0.50000000  0.00000000  1
  Fe  Fe4  1  0.50000000  0.75304000  0.62247500  1
  Fe  Fe5  1  0.50000000  0.24696000  0.37752500  1
  Fe  Fe6  1  0.00000000  0.75193100  0.87846800  1
  Fe  Fe7  1  0.00000000  0.24806900  0.12153200  1
  Fe  Fe8  1  0.75204500  0.25262800  0.74940900  1
  Fe  Fe9  1  0.75204500  0.74737200  0.25059100  1
  Fe  Fe10  1  0.24795500  0.25262800  0.74940900  1
  Fe  Fe11  1  0.24795500  0.74737200  0.25059100  1
  O  O12  1  0.00000000  0.97611000  0.26818000  1
  O  O13  1  0.00000000  0.47682600  0.74123100  1
  O  O14  1  0.00000000  0.52317400  0.25876900  1
  O  O15  1  0.00000000  0.02389000  0.73182000  1
  O  O16  1  0.24236900  0.76097500  0.49292600  1
  O  O17  1  0.24236900  0.23902500  0.50707400  1
  O  O18  1  0.75763100  0.23902500  0.50707400  1
  O  O19  1  0.75763100  0.76097500  0.49292600  1
  O  O20  1  0.26785300  0.24072100  0.97887300  1
  O  O21  1  0.26785300  0.75927900  0.02112700  1
  O  O22  1  0.73214700  0.75927900  0.02112700  1
  O  O23  1  0.73214700  0.24072100  0.97887300  1
  O  O24  1  0.50000000  0.51689300  0.25806100  1
  O  O25  1  0.50000000  0.01187000  0.75713600  1
  O  O26  1  0.50000000  0.48310700  0.74193900  1
  O  O27  1  0.50000000  0.98813000  0.24286400  1
