# generated using pymatgen
data_As2O9
_symmetry_space_group_name_H-M   'P 1'
_cell_length_a   13.95789600
_cell_length_b   7.39482500
_cell_length_c   8.68567119
_cell_angle_alpha   67.06311368
_cell_angle_beta   90.00000000
_cell_angle_gamma   90.00000000
_symmetry_Int_Tables_number   1
_chemical_formula_structural   As2O9
_chemical_formula_sum   'As8 O36'
_cell_volume   825.61976427
_cell_formula_units_Z   4
loop_
 _symmetry_equiv_pos_site_id
 _symmetry_equiv_pos_as_xyz
  1  'x, y, z'
loop_
 _atom_site_type_symbol
 _atom_site_label
 _atom_site_symmetry_multiplicity
 _atom_site_fract_x
 _atom_site_fract_y
 _atom_site_fract_z
 _atom_site_occupancy
  As  As0  1  0.62125300  0.25833800  0.94697600  1
  As  As1  1  0.12125300  0.74166200  0.55302400  1
  As  As2  1  0.37874700  0.74166200  0.05302400  1
  As  As3  1  0.87874700  0.25833800  0.44697600  1
  As  As4  1  0.62730900  0.92801000  0.55737000  1
  As  As5  1  0.12730900  0.07199000  0.94263000  1
  As  As6  1  0.37269100  0.07199000  0.44263000  1
  As  As7  1  0.87269100  0.92801000  0.05737000  1
  O  O8  1  0.49513300  0.74805400  0.02039200  1
  O  O9  1  0.99513300  0.25194600  0.47960800  1
  O  O10  1  0.50486700  0.25194600  0.97960800  1
  O  O11  1  0.00486700  0.74805400  0.52039200  1
  O  O12  1  0.70066100  0.43649900  0.89955400  1
  O  O13  1  0.20066100  0.56350100  0.60044600  1
  O  O14  1  0.29933900  0.56350100  0.10044600  1
  O  O15  1  0.79933900  0.43649900  0.39955400  1
  O  O16  1  0.66903300  0.00773900  0.11457700  1
  O  O17  1  0.16903300  0.99226100  0.38542300  1
  O  O18  1  0.33096700  0.99226100  0.88542300  1
  O  O19  1  0.83096700  0.00773900  0.61457700  1
  O  O20  1  0.63701900  0.17847300  0.74305200  1
  O  O21  1  0.13701900  0.82152700  0.75694800  1
  O  O22  1  0.36298100  0.82152700  0.25694800  1
  O  O23  1  0.86298100  0.17847300  0.24305200  1
  O  O24  1  0.62777100  0.98868800  0.77638900  1
  O  O25  1  0.12777100  0.01131200  0.72361100  1
  O  O26  1  0.37222900  0.01131200  0.22361100  1
  O  O27  1  0.87222900  0.98868800  0.27638900  1
  O  O28  1  0.59641900  0.13847800  0.40721600  1
  O  O29  1  0.09641900  0.86152200  0.09278400  1
  O  O30  1  0.40358100  0.86152200  0.59278400  1
  O  O31  1  0.90358100  0.13847800  0.90721600  1
  O  O32  1  0.60339800  0.57862400  0.51147000  1
  O  O33  1  0.10339800  0.42137600  0.98853000  1
  O  O34  1  0.39660200  0.42137600  0.48853000  1
  O  O35  1  0.89660200  0.57862400  0.01147000  1
  O  O36  1  0.72724800  0.89376600  0.06282700  1
  O  O37  1  0.22724800  0.10623400  0.43717300  1
  O  O38  1  0.27275200  0.10623400  0.93717300  1
  O  O39  1  0.77275200  0.89376600  0.56282700  1
  O  O40  1  0.60762000  0.57629700  0.37138700  1
  O  O41  1  0.10762000  0.42370300  0.12861300  1
  O  O42  1  0.39238000  0.42370300  0.62861300  1
  O  O43  1  0.89238000  0.57629700  0.87138700  1
