# generated using pymatgen
data_Cu2ClO3
_symmetry_space_group_name_H-M   'P 1'
_cell_length_a   8.55984117
_cell_length_b   8.55984117
_cell_length_c   8.55984192
_cell_angle_alpha   95.34768607
_cell_angle_beta   95.34768607
_cell_angle_gamma   95.34768500
_symmetry_Int_Tables_number   1
_chemical_formula_structural   Cu2ClO3
_chemical_formula_sum   'Cu16 Cl8 O24'
_cell_volume   618.44680469
_cell_formula_units_Z   8
loop_
 _symmetry_equiv_pos_site_id
 _symmetry_equiv_pos_as_xyz
  1  'x, y, z'
loop_
 _atom_site_type_symbol
 _atom_site_label
 _atom_site_symmetry_multiplicity
 _atom_site_fract_x
 _atom_site_fract_y
 _atom_site_fract_z
 _atom_site_occupancy
  Cu  Cu0  1  0.50000000  0.50000000  0.50000000  1
  Cu  Cu1  1  0.00000000  0.50000000  0.00000000  1
  Cu  Cu2  1  0.00000000  0.00000000  0.50000000  1
  Cu  Cu3  1  0.50000000  0.00000000  0.00000000  1
  Cu  Cu4  1  0.99968800  0.75290300  0.25169300  1
  Cu  Cu5  1  0.25169300  0.99968800  0.75290300  1
  Cu  Cu6  1  0.75290300  0.25169300  0.99968800  1
  Cu  Cu7  1  0.00031200  0.24709700  0.74830700  1
  Cu  Cu8  1  0.74830700  0.00031200  0.24709700  1
  Cu  Cu9  1  0.24709700  0.74830700  0.00031200  1
  Cu  Cu10  1  0.24578100  0.49881500  0.25274700  1
  Cu  Cu11  1  0.25274700  0.24578100  0.49881500  1
  Cu  Cu12  1  0.49881500  0.25274700  0.24578100  1
  Cu  Cu13  1  0.75421900  0.50118500  0.74725300  1
  Cu  Cu14  1  0.74725300  0.75421900  0.50118500  1
  Cu  Cu15  1  0.50118500  0.74725300  0.75421900  1
  Cl  Cl16  1  0.80932400  0.80932400  0.80932400  1
  Cl  Cl17  1  0.19067600  0.19067600  0.19067600  1
  Cl  Cl18  1  0.31217000  0.80664200  0.31011300  1
  Cl  Cl19  1  0.31011300  0.31217000  0.80664200  1
  Cl  Cl20  1  0.80664200  0.31011300  0.31217000  1
  Cl  Cl21  1  0.68783000  0.19335800  0.68988700  1
  Cl  Cl22  1  0.68988700  0.68783000  0.19335800  1
  Cl  Cl23  1  0.19335800  0.68988700  0.68783000  1
  O  O24  1  0.22466600  0.53207600  0.03561400  1
  O  O25  1  0.03561400  0.22466600  0.53207600  1
  O  O26  1  0.53207600  0.03561400  0.22466600  1
  O  O27  1  0.77533400  0.46792400  0.96438600  1
  O  O28  1  0.96438600  0.77533400  0.46792400  1
  O  O29  1  0.46792400  0.96438600  0.77533400  1
  O  O30  1  0.03182500  0.73384700  0.03681500  1
  O  O31  1  0.03681500  0.03182500  0.73384700  1
  O  O32  1  0.73384700  0.03681500  0.03182500  1
  O  O33  1  0.96817500  0.26615300  0.96318500  1
  O  O34  1  0.96318500  0.96817500  0.26615300  1
  O  O35  1  0.26615300  0.96318500  0.96817500  1
  O  O36  1  0.03251300  0.53883200  0.23991400  1
  O  O37  1  0.23991400  0.03251300  0.53883200  1
  O  O38  1  0.53883200  0.23991400  0.03251300  1
  O  O39  1  0.96748700  0.46116800  0.76008600  1
  O  O40  1  0.76008600  0.96748700  0.46116800  1
  O  O41  1  0.46116800  0.76008600  0.96748700  1
  O  O42  1  0.73186400  0.53738300  0.53208800  1
  O  O43  1  0.53208800  0.73186400  0.53738300  1
  O  O44  1  0.53738300  0.53208800  0.73186400  1
  O  O45  1  0.26813600  0.46261700  0.46791200  1
  O  O46  1  0.46791200  0.26813600  0.46261700  1
  O  O47  1  0.46261700  0.46791200  0.26813600  1
