# generated using pymatgen
data_Mo3W(SeS)4
_symmetry_space_group_name_H-M   'P 1'
_cell_length_a   3.25649217
_cell_length_b   3.25649217
_cell_length_c   36.85964700
_cell_angle_alpha   90.00000000
_cell_angle_beta   90.00000000
_cell_angle_gamma   120.00000353
_symmetry_Int_Tables_number   1
_chemical_formula_structural   Mo3W(SeS)4
_chemical_formula_sum   'Mo3 W1 Se4 S4'
_cell_volume   338.51807733
_cell_formula_units_Z   1
loop_
 _symmetry_equiv_pos_site_id
 _symmetry_equiv_pos_as_xyz
  1  'x, y, z'
loop_
 _atom_site_type_symbol
 _atom_site_label
 _atom_site_symmetry_multiplicity
 _atom_site_fract_x
 _atom_site_fract_y
 _atom_site_fract_z
 _atom_site_occupancy
  Mo  Mo0  1  0.33333300  0.66666700  0.09391300  1
  Mo  Mo1  1  0.33333300  0.66666700  0.46965500  1
  Mo  Mo2  1  0.66666700  0.33333300  0.65754900  1
  W  W3  1  0.66666700  0.33333300  0.28177200  1
  Se  Se4  1  0.33333300  0.66666700  0.32811000  1
  Se  Se5  1  0.33333300  0.66666700  0.70360600  1
  Se  Se6  1  0.33333300  0.66666700  0.23546100  1
  Se  Se7  1  0.33333300  0.66666700  0.61150500  1
  S  S8  1  0.66666700  0.33333300  0.05205200  1
  S  S9  1  0.66666700  0.33333300  0.42781500  1
  S  S10  1  0.66666700  0.33333300  0.13579000  1
  S  S11  1  0.66666700  0.33333300  0.51152000  1
