# generated using pymatgen
data_Cd5(SiO5)2
_symmetry_space_group_name_H-M   'P 1'
_cell_length_a   5.01266800
_cell_length_b   11.41202100
_cell_length_c   17.57364035
_cell_angle_alpha   70.59276961
_cell_angle_beta   90.00000000
_cell_angle_gamma   90.00000000
_symmetry_Int_Tables_number   1
_chemical_formula_structural   Cd5(SiO5)2
_chemical_formula_sum   'Cd20 Si8 O40'
_cell_volume   948.17425375
_cell_formula_units_Z   4
loop_
 _symmetry_equiv_pos_site_id
 _symmetry_equiv_pos_as_xyz
  1  'x, y, z'
loop_
 _atom_site_type_symbol
 _atom_site_label
 _atom_site_symmetry_multiplicity
 _atom_site_fract_x
 _atom_site_fract_y
 _atom_site_fract_z
 _atom_site_occupancy
  Cd  Cd0  1  0.50000000  0.50000000  0.00000000  1
  Cd  Cd1  1  0.00000000  0.00000000  0.00000000  1
  Cd  Cd2  1  0.00000000  0.50000000  0.50000000  1
  Cd  Cd3  1  0.50000000  0.00000000  0.50000000  1
  Cd  Cd4  1  0.49070700  0.26950400  0.90034800  1
  Cd  Cd5  1  0.99070700  0.23049600  0.09965200  1
  Cd  Cd6  1  0.50929300  0.73049600  0.09965200  1
  Cd  Cd7  1  0.00929300  0.76950400  0.90034800  1
  Cd  Cd8  1  0.51513000  0.23570300  0.60015900  1
  Cd  Cd9  1  0.01513000  0.26429700  0.39984100  1
  Cd  Cd10  1  0.48487000  0.76429700  0.39984100  1
  Cd  Cd11  1  0.98487000  0.73570300  0.60015900  1
  Cd  Cd12  1  0.98580400  0.40756600  0.71197800  1
  Cd  Cd13  1  0.48580400  0.09243400  0.28802200  1
  Cd  Cd14  1  0.01419600  0.59243400  0.28802200  1
  Cd  Cd15  1  0.51419600  0.90756600  0.71197800  1
  Cd  Cd16  1  0.02246700  0.10271100  0.78755500  1
  Cd  Cd17  1  0.52246700  0.39728900  0.21244500  1
  Cd  Cd18  1  0.97753300  0.89728900  0.21244500  1
  Cd  Cd19  1  0.47753300  0.60271100  0.78755500  1
  Si  Si20  1  0.92448500  0.45950700  0.89800700  1
  Si  Si21  1  0.42448500  0.04049300  0.10199300  1
  Si  Si22  1  0.07551500  0.54049300  0.10199300  1
  Si  Si23  1  0.57551500  0.95950700  0.89800700  1
  Si  Si24  1  0.07527100  0.04731000  0.59993500  1
  Si  Si25  1  0.57527100  0.45269000  0.40006500  1
  Si  Si26  1  0.92472900  0.95269000  0.40006500  1
  Si  Si27  1  0.42472900  0.54731000  0.59993500  1
  O  O28  1  0.78304400  0.43843400  0.81828500  1
  O  O29  1  0.28304400  0.06156600  0.18171500  1
  O  O30  1  0.21695600  0.56156600  0.18171500  1
  O  O31  1  0.71695600  0.93843400  0.81828500  1
  O  O32  1  0.21543700  0.07275400  0.67860800  1
  O  O33  1  0.71543700  0.42724600  0.32139200  1
  O  O34  1  0.78456300  0.92724600  0.32139200  1
  O  O35  1  0.28456300  0.57275400  0.67860800  1
  O  O36  1  0.70333000  0.09187400  0.90215400  1
  O  O37  1  0.20333000  0.40812600  0.09784600  1
  O  O38  1  0.29667000  0.90812600  0.09784600  1
  O  O39  1  0.79667000  0.59187400  0.90215400  1
  O  O40  1  0.29911200  0.41327400  0.59803900  1
  O  O41  1  0.79911200  0.08672600  0.40196100  1
  O  O42  1  0.70088800  0.58672600  0.40196100  1
  O  O43  1  0.20088800  0.91327400  0.59803900  1
  O  O44  1  0.79749700  0.34837000  0.97695800  1
  O  O45  1  0.29749700  0.15163000  0.02304200  1
  O  O46  1  0.20250300  0.65163000  0.02304200  1
  O  O47  1  0.70250300  0.84837000  0.97695800  1
  O  O48  1  0.20826900  0.15485400  0.52068400  1
  O  O49  1  0.70826900  0.34514600  0.47931600  1
  O  O50  1  0.79173100  0.84514600  0.47931600  1
  O  O51  1  0.29173100  0.65485400  0.52068400  1
  O  O52  1  0.74767600  0.04754800  0.60268000  1
  O  O53  1  0.24767600  0.45245200  0.39732000  1
  O  O54  1  0.25232400  0.95245200  0.39732000  1
  O  O55  1  0.75232400  0.54754800  0.60268000  1
  O  O56  1  0.25212900  0.45894700  0.89480700  1
  O  O57  1  0.75212900  0.04105300  0.10519300  1
  O  O58  1  0.74787100  0.54105300  0.10519300  1
  O  O59  1  0.24787100  0.95894700  0.89480700  1
  O  O60  1  0.26910500  0.26335400  0.79119500  1
  O  O61  1  0.76910500  0.23664600  0.20880500  1
  O  O62  1  0.73089500  0.73664600  0.20880500  1
  O  O63  1  0.23089500  0.76335400  0.79119500  1
  O  O64  1  0.74043600  0.24663300  0.70830700  1
  O  O65  1  0.24043600  0.25336700  0.29169300  1
  O  O66  1  0.25956400  0.75336700  0.29169300  1
  O  O67  1  0.75956400  0.74663300  0.70830700  1
