# generated using pymatgen
data_CO
_symmetry_space_group_name_H-M   'P 1'
_cell_length_a   4.17114800
_cell_length_b   6.29882900
_cell_length_c   7.94884600
_cell_angle_alpha   90.00000000
_cell_angle_beta   90.00000000
_cell_angle_gamma   90.00000000
_symmetry_Int_Tables_number   1
_chemical_formula_structural   CO
_chemical_formula_sum   'C4 O4'
_cell_volume   208.84279704
_cell_formula_units_Z   4
loop_
 _symmetry_equiv_pos_site_id
 _symmetry_equiv_pos_as_xyz
  1  'x, y, z'
loop_
 _atom_site_type_symbol
 _atom_site_label
 _atom_site_symmetry_multiplicity
 _atom_site_fract_x
 _atom_site_fract_y
 _atom_site_fract_z
 _atom_site_occupancy
  C  C0  1  0.54793700  0.49629300  0.60233200  1
  C  C1  1  0.04793700  0.00370700  0.39766800  1
  C  C2  1  0.45206300  0.99629300  0.89766800  1
  C  C3  1  0.95206300  0.50370700  0.10233200  1
  O  O4  1  0.93925000  0.96827000  0.52671600  1
  O  O5  1  0.43925000  0.53173000  0.47328400  1
  O  O6  1  0.06075000  0.46827000  0.97328400  1
  O  O7  1  0.56075000  0.03173000  0.02671600  1
