# generated using pymatgen
data_Co3B7IO13
_symmetry_space_group_name_H-M   'P 1'
_cell_length_a   8.43975700
_cell_length_b   9.34543300
_cell_length_c   13.37132500
_cell_angle_alpha   90.00000000
_cell_angle_beta   90.00000000
_cell_angle_gamma   90.00000000
_symmetry_Int_Tables_number   1
_chemical_formula_structural   Co3B7IO13
_chemical_formula_sum   'Co12 B28 I4 O52'
_cell_volume   1054.63897143
_cell_formula_units_Z   4
loop_
 _symmetry_equiv_pos_site_id
 _symmetry_equiv_pos_as_xyz
  1  'x, y, z'
loop_
 _atom_site_type_symbol
 _atom_site_label
 _atom_site_symmetry_multiplicity
 _atom_site_fract_x
 _atom_site_fract_y
 _atom_site_fract_z
 _atom_site_occupancy
  Co  Co0  1  0.14708700  0.72491900  0.23637400  1
  Co  Co1  1  0.14708700  0.77508100  0.73637400  1
  Co  Co2  1  0.85291300  0.27508100  0.73637400  1
  Co  Co3  1  0.21014100  0.26428600  0.82164200  1
  Co  Co4  1  0.78985900  0.73571400  0.32164200  1
  Co  Co5  1  0.47811800  0.98937700  0.47394600  1
  Co  Co6  1  0.85291300  0.22491900  0.23637400  1
  Co  Co7  1  0.21014100  0.23571400  0.32164200  1
  Co  Co8  1  0.52188200  0.48937700  0.47394600  1
  Co  Co9  1  0.52188200  0.01062300  0.97394600  1
  Co  Co10  1  0.78985900  0.76428600  0.82164200  1
  Co  Co11  1  0.47811800  0.51062300  0.97394600  1
  B  B12  1  0.17216000  0.51973100  0.43644600  1
  B  B13  1  0.22005100  0.75741200  0.52468300  1
  B  B14  1  0.98735300  0.50867800  0.77690700  1
  B  B15  1  0.97196400  0.87731500  0.58613400  1
  B  B16  1  0.02803600  0.37731500  0.58613400  1
  B  B17  1  0.01264700  0.49132200  0.27690700  1
  B  B18  1  0.46634400  0.75380300  0.12454600  1
  B  B19  1  0.72214400  0.71623900  0.01838100  1
  B  B20  1  0.15241000  0.49483900  0.94128600  1
  B  B21  1  0.17216000  0.98026900  0.93644600  1
  B  B22  1  0.72214400  0.78376100  0.51838100  1
  B  B23  1  0.77994900  0.25741200  0.52468300  1
  B  B24  1  0.77994900  0.24258800  0.02468300  1
  B  B25  1  0.84759000  0.50516100  0.44128600  1
  B  B26  1  0.82784000  0.48026900  0.93644600  1
  B  B27  1  0.27785600  0.28376100  0.51838100  1
  B  B28  1  0.97196400  0.62268500  0.08613400  1
  B  B29  1  0.15241000  0.00516100  0.44128600  1
  B  B30  1  0.98735300  0.99132200  0.27690700  1
  B  B31  1  0.46634400  0.74619700  0.62454600  1
  B  B32  1  0.22005100  0.74258800  0.02468300  1
  B  B33  1  0.53365600  0.25380300  0.12454600  1
  B  B34  1  0.82784000  0.01973100  0.43644600  1
  B  B35  1  0.53365600  0.24619700  0.62454600  1
  B  B36  1  0.02803600  0.12268500  0.08613400  1
  B  B37  1  0.01264700  0.00867800  0.77690700  1
  B  B38  1  0.84759000  0.99483900  0.94128600  1
  B  B39  1  0.27785600  0.21623900  0.01838100  1
  I  I40  1  0.56752700  0.90605900  0.23011400  1
  I  I41  1  0.43247300  0.09394100  0.73011400  1
  I  I42  1  0.43247300  0.40605900  0.23011400  1
  I  I43  1  0.56752700  0.59394100  0.73011400  1
  O  O44  1  0.85647500  0.43558700  0.83505400  1
  O  O45  1  0.97504900  0.84005900  0.27953500  1
  O  O46  1  0.27240200  0.36916400  0.97576400  1
  O  O47  1  0.54994200  0.69624100  0.04921100  1
  O  O48  1  0.28079400  0.61897600  0.48738000  1
  O  O49  1  0.93606400  0.24513500  0.05622800  1
  O  O50  1  0.45005800  0.19624100  0.04921100  1
  O  O51  1  0.68782100  0.22720500  0.13302600  1
  O  O52  1  0.03270500  0.94509200  0.67648700  1
  O  O53  1  0.13802100  0.03554100  0.33236700  1
  O  O54  1  0.73332200  0.61781000  0.93118200  1
  O  O55  1  0.26164600  0.61725900  0.96176300  1
  O  O56  1  0.06393600  0.75486500  0.55622800  1
  O  O57  1  0.81211100  0.83286900  0.59865100  1
  O  O58  1  0.96729500  0.05490800  0.17648700  1
  O  O59  1  0.02495100  0.34005900  0.27953500  1
  O  O60  1  0.93606400  0.25486500  0.55622800  1
  O  O61  1  0.03270500  0.55490800  0.17648700  1
  O  O62  1  0.00934400  0.48738700  0.48899200  1
  O  O63  1  0.73835400  0.11725900  0.96176300  1
  O  O64  1  0.26164600  0.88274100  0.46176300  1
  O  O65  1  0.72759800  0.86916400  0.97576400  1
  O  O66  1  0.14352500  0.56441300  0.33505400  1
  O  O67  1  0.31217900  0.72720500  0.13302600  1
  O  O68  1  0.26667800  0.38219000  0.43118200  1
  O  O69  1  0.14352500  0.93558700  0.83505400  1
  O  O70  1  0.71920600  0.38102400  0.98738000  1
  O  O71  1  0.31217900  0.77279500  0.63302600  1
  O  O72  1  0.13802100  0.46445900  0.83236700  1
  O  O73  1  0.00934400  0.01261300  0.98899200  1
  O  O74  1  0.99065600  0.98738700  0.48899200  1
  O  O75  1  0.96729500  0.44509200  0.67648700  1
  O  O76  1  0.06393600  0.74513500  0.05622800  1
  O  O77  1  0.71920600  0.11897600  0.48738000  1
  O  O78  1  0.27240200  0.13083600  0.47576400  1
  O  O79  1  0.73332200  0.88219000  0.43118200  1
  O  O80  1  0.73835400  0.38274100  0.46176300  1
  O  O81  1  0.72759800  0.63083600  0.47576400  1
  O  O82  1  0.45005800  0.30375900  0.54921100  1
  O  O83  1  0.86197900  0.96445900  0.83236700  1
  O  O84  1  0.28079400  0.88102400  0.98738000  1
  O  O85  1  0.26667800  0.11781000  0.93118200  1
  O  O86  1  0.97504900  0.65994100  0.77953500  1
  O  O87  1  0.99065600  0.51261300  0.98899200  1
  O  O88  1  0.54994200  0.80375900  0.54921100  1
  O  O89  1  0.02495100  0.15994100  0.77953500  1
  O  O90  1  0.85647500  0.06441300  0.33505400  1
  O  O91  1  0.86197900  0.53554100  0.33236700  1
  O  O92  1  0.18788900  0.33286900  0.59865100  1
  O  O93  1  0.68782100  0.27279500  0.63302600  1
  O  O94  1  0.81211100  0.66713100  0.09865100  1
  O  O95  1  0.18788900  0.16713100  0.09865100  1
