# generated using pymatgen
data_CuH14C4(NO2)4
_symmetry_space_group_name_H-M   'P 1'
_cell_length_a   7.65538800
_cell_length_b   8.52159900
_cell_length_c   9.19924898
_cell_angle_alpha   84.38287982
_cell_angle_beta   90.00000000
_cell_angle_gamma   90.00000000
_symmetry_Int_Tables_number   1
_chemical_formula_structural   CuH14C4(NO2)4
_chemical_formula_sum   'Cu2 H28 C8 N8 O16'
_cell_volume   597.24188122
_cell_formula_units_Z   2
loop_
 _symmetry_equiv_pos_site_id
 _symmetry_equiv_pos_as_xyz
  1  'x, y, z'
loop_
 _atom_site_type_symbol
 _atom_site_label
 _atom_site_symmetry_multiplicity
 _atom_site_fract_x
 _atom_site_fract_y
 _atom_site_fract_z
 _atom_site_occupancy
  Cu  Cu0  1  0.00000000  0.00000000  0.00000000  1
  Cu  Cu1  1  0.50000000  0.00000000  0.50000000  1
  H  H2  1  0.99117900  0.78177600  0.37007700  1
  H  H3  1  0.86311300  0.46964900  0.32455400  1
  H  H4  1  0.31975000  0.71051700  0.95592000  1
  H  H5  1  0.36311300  0.53035100  0.17544600  1
  H  H6  1  0.08449400  0.61937300  0.09174900  1
  H  H7  1  0.83997300  0.73908400  0.57180200  1
  H  H8  1  0.00882100  0.21822400  0.62992300  1
  H  H9  1  0.02665900  0.65583400  0.93110800  1
  H  H10  1  0.32246700  0.92899000  0.79509100  1
  H  H11  1  0.67753300  0.07101000  0.20490900  1
  H  H12  1  0.41550600  0.61937300  0.59174900  1
  H  H13  1  0.66002700  0.73908400  0.07180200  1
  H  H14  1  0.18025000  0.71051700  0.45592000  1
  H  H15  1  0.97334100  0.34416600  0.06889200  1
  H  H16  1  0.82246700  0.07101000  0.70490900  1
  H  H17  1  0.81975000  0.28948300  0.54408000  1
  H  H18  1  0.16002700  0.26091600  0.42819800  1
  H  H19  1  0.47334100  0.65583400  0.43110800  1
  H  H20  1  0.63688700  0.46964900  0.82455400  1
  H  H21  1  0.91550600  0.38062700  0.90825100  1
  H  H22  1  0.50882100  0.78177600  0.87007700  1
  H  H23  1  0.13688700  0.53035100  0.67544600  1
  H  H24  1  0.17753300  0.92899000  0.29509100  1
  H  H25  1  0.49117900  0.21822400  0.12992300  1
  H  H26  1  0.52665900  0.34416600  0.56889200  1
  H  H27  1  0.58449400  0.38062700  0.40825100  1
  H  H28  1  0.68025000  0.28948300  0.04408000  1
  H  H29  1  0.33997300  0.26091600  0.92819800  1
  C  C30  1  0.50826400  0.41332100  0.81367900  1
  C  C31  1  0.00826400  0.58667900  0.68632100  1
  C  C32  1  0.25818100  0.02052900  0.23464700  1
  C  C33  1  0.49173600  0.58667900  0.18632100  1
  C  C34  1  0.74181900  0.97947100  0.76535300  1
  C  C35  1  0.24181900  0.02052900  0.73464700  1
  C  C36  1  0.99173600  0.41332100  0.31367900  1
  C  C37  1  0.75818100  0.97947100  0.26535300  1
  N  N38  1  0.54741900  0.30646000  0.06168900  1
  N  N39  1  0.95928600  0.68488200  0.57249300  1
  N  N40  1  0.95258100  0.30646000  0.56168900  1
  N  N41  1  0.54071400  0.68488200  0.07249300  1
  N  N42  1  0.04071400  0.31511800  0.42750700  1
  N  N43  1  0.04741900  0.69354000  0.43831100  1
  N  N44  1  0.45258100  0.69354000  0.93831100  1
  N  N45  1  0.45928600  0.31511800  0.92750700  1
  O  O46  1  0.59268600  0.29655700  0.49073000  1
  O  O47  1  0.90731400  0.29655700  0.99073000  1
  O  O48  1  0.58189400  0.56723600  0.30229400  1
  O  O49  1  0.09268600  0.70344300  0.00927000  1
  O  O50  1  0.28392400  0.06714800  0.60351200  1
  O  O51  1  0.08189400  0.43276400  0.19770600  1
  O  O52  1  0.78392400  0.93285200  0.89648800  1
  O  O53  1  0.11175000  0.07573100  0.79914600  1
  O  O54  1  0.38825000  0.07573100  0.29914600  1
  O  O55  1  0.61175000  0.92426900  0.70085400  1
  O  O56  1  0.91810600  0.56723600  0.80229400  1
  O  O57  1  0.41810600  0.43276400  0.69770600  1
  O  O58  1  0.71607600  0.93285200  0.39648800  1
  O  O59  1  0.40731400  0.70344300  0.50927000  1
  O  O60  1  0.88825000  0.92426900  0.20085400  1
  O  O61  1  0.21607600  0.06714800  0.10351200  1
