# generated using pymatgen
data_NiH20Se2(NO7)2
_symmetry_space_group_name_H-M   'P 1'
_cell_length_a   9.32853224
_cell_length_b   12.84361300
_cell_length_c   6.55011895
_cell_angle_alpha   90.00000000
_cell_angle_beta   105.86680663
_cell_angle_gamma   90.00000000
_symmetry_Int_Tables_number   1
_chemical_formula_structural   NiH20Se2(NO7)2
_chemical_formula_sum   'Ni2 H40 Se4 N4 O28'
_cell_volume   754.88288161
_cell_formula_units_Z   2
loop_
 _symmetry_equiv_pos_site_id
 _symmetry_equiv_pos_as_xyz
  1  'x, y, z'
loop_
 _atom_site_type_symbol
 _atom_site_label
 _atom_site_symmetry_multiplicity
 _atom_site_fract_x
 _atom_site_fract_y
 _atom_site_fract_z
 _atom_site_occupancy
  Ni  Ni0  1  0.50000000  0.50000000  0.00000000  1
  Ni  Ni1  1  0.00000000  0.00000000  0.00000000  1
  H  H2  1  0.57406600  0.16972700  0.20323200  1
  H  H3  1  0.92593400  0.66972700  0.79676800  1
  H  H4  1  0.42593400  0.83027300  0.79676800  1
  H  H5  1  0.07406600  0.33027300  0.20323200  1
  H  H6  1  0.73050600  0.20020000  0.40298400  1
  H  H7  1  0.76949400  0.70020000  0.59701600  1
  H  H8  1  0.26949400  0.79980000  0.59701600  1
  H  H9  1  0.23050600  0.29980000  0.40298400  1
  H  H10  1  0.56450300  0.17873700  0.45310700  1
  H  H11  1  0.93549700  0.67873700  0.54689300  1
  H  H12  1  0.43549700  0.82126300  0.54689300  1
  H  H13  1  0.06450300  0.32126300  0.45310700  1
  H  H14  1  0.66091800  0.07758500  0.37954100  1
  H  H15  1  0.83908200  0.57758500  0.62045900  1
  H  H16  1  0.33908200  0.92241500  0.62045900  1
  H  H17  1  0.16091800  0.42241500  0.37954100  1
  H  H18  1  0.71406700  0.41619900  0.30974000  1
  H  H19  1  0.78593300  0.91619900  0.69026000  1
  H  H20  1  0.28593300  0.58380100  0.69026000  1
  H  H21  1  0.21406700  0.08380100  0.30974000  1
  H  H22  1  0.74677700  0.37903900  0.09339700  1
  H  H23  1  0.75322300  0.87903900  0.90660300  1
  H  H24  1  0.25322300  0.62096100  0.90660300  1
  H  H25  1  0.24677700  0.12096100  0.09339700  1
  H  H26  1  0.23850700  0.40457100  0.94620000  1
  H  H27  1  0.26149300  0.90457100  0.05380000  1
  H  H28  1  0.76149300  0.59542900  0.05380000  1
  H  H29  1  0.73850700  0.09542900  0.94620000  1
  H  H30  1  0.36613800  0.31996900  0.01285400  1
  H  H31  1  0.13386200  0.81996900  0.98714600  1
  H  H32  1  0.63386200  0.68003100  0.98714600  1
  H  H33  1  0.86613800  0.18003100  0.01285400  1
  H  H34  1  0.40073900  0.55810700  0.32359400  1
  H  H35  1  0.09926100  0.05810700  0.67640600  1
  H  H36  1  0.59926100  0.44189300  0.67640600  1
  H  H37  1  0.90073900  0.94189300  0.32359400  1
  H  H38  1  0.52473600  0.64084300  0.31566900  1
  H  H39  1  0.97526400  0.14084300  0.68433100  1
  H  H40  1  0.47526400  0.35915700  0.68433100  1
  H  H41  1  0.02473600  0.85915700  0.31566900  1
  Se  Se42  1  0.91236200  0.36426100  0.74161600  1
  Se  Se43  1  0.58763800  0.86426100  0.25838400  1
  Se  Se44  1  0.08763800  0.63573900  0.25838400  1
  Se  Se45  1  0.41236200  0.13573900  0.74161600  1
  N  N46  1  0.63344800  0.15662700  0.35961400  1
  N  N47  1  0.86655200  0.65662700  0.64038600  1
  N  N48  1  0.36655200  0.84337300  0.64038600  1
  N  N49  1  0.13344800  0.34337300  0.35961400  1
  O  O50  1  0.91951500  0.26318300  0.57925800  1
  O  O51  1  0.58048500  0.76318300  0.42074200  1
  O  O52  1  0.08048500  0.73681700  0.42074200  1
  O  O53  1  0.41951500  0.23681700  0.57925800  1
  O  O54  1  0.07018700  0.43135700  0.78789900  1
  O  O55  1  0.42981300  0.93135700  0.21210100  1
  O  O56  1  0.92981300  0.56864300  0.21210100  1
  O  O57  1  0.57018700  0.06864300  0.78789900  1
  O  O58  1  0.77155700  0.44188800  0.61100000  1
  O  O59  1  0.72844300  0.94188800  0.38900000  1
  O  O60  1  0.22844300  0.55811200  0.38900000  1
  O  O61  1  0.27155700  0.05811200  0.61100000  1
  O  O62  1  0.88432800  0.31865300  0.96898400  1
  O  O63  1  0.61567200  0.81865300  0.03101600  1
  O  O64  1  0.11567200  0.68134700  0.03101600  1
  O  O65  1  0.38432800  0.18134700  0.96898400  1
  O  O66  1  0.66667600  0.39483100  0.16127300  1
  O  O67  1  0.83332400  0.89483100  0.83872700  1
  O  O68  1  0.33332400  0.60516900  0.83872700  1
  O  O69  1  0.16667600  0.10516900  0.16127300  1
  O  O70  1  0.34124500  0.39262500  0.04077500  1
  O  O71  1  0.15875500  0.89262500  0.95922500  1
  O  O72  1  0.65875500  0.60737500  0.95922500  1
  O  O73  1  0.84124500  0.10737500  0.04077500  1
  O  O74  1  0.49576700  0.56671500  0.28500800  1
  O  O75  1  0.00423300  0.06671500  0.71499200  1
  O  O76  1  0.50423300  0.43328500  0.71499200  1
  O  O77  1  0.99576700  0.93328500  0.28500800  1
