# generated using pymatgen
data_CsAc
_symmetry_space_group_name_H-M   'P 1'
_cell_length_a   4.06914840
_cell_length_b   4.06914840
_cell_length_c   15.99937900
_cell_angle_alpha   90.00000000
_cell_angle_beta   90.00000000
_cell_angle_gamma   120.00000648
_symmetry_Int_Tables_number   1
_chemical_formula_structural   CsAc
_chemical_formula_sum   'Cs2 Ac2'
_cell_volume   229.42502444
_cell_formula_units_Z   2
loop_
 _symmetry_equiv_pos_site_id
 _symmetry_equiv_pos_as_xyz
  1  'x, y, z'
loop_
 _atom_site_type_symbol
 _atom_site_label
 _atom_site_symmetry_multiplicity
 _atom_site_fract_x
 _atom_site_fract_y
 _atom_site_fract_z
 _atom_site_occupancy
  Cs  Cs0  1  0.66666700  0.33333300  0.81119800  1
  Cs  Cs1  1  0.33333300  0.66666700  0.31119800  1
  Ac  Ac2  1  0.66666700  0.33333300  0.56380200  1
  Ac  Ac3  1  0.33333300  0.66666700  0.06380200  1
