# generated using pymatgen
data_Mg16Al12In
_symmetry_space_group_name_H-M   'P 1'
_cell_length_a   9.14387737
_cell_length_b   9.14387737
_cell_length_c   9.11429908
_cell_angle_alpha   70.67009108
_cell_angle_beta   70.67009108
_cell_angle_gamma   109.47109882
_symmetry_Int_Tables_number   1
_chemical_formula_structural   Mg16Al12In
_chemical_formula_sum   'Mg16 Al12 In1'
_cell_volume   588.66438300
_cell_formula_units_Z   1
loop_
 _symmetry_equiv_pos_site_id
 _symmetry_equiv_pos_as_xyz
  1  'x, y, z'
loop_
 _atom_site_type_symbol
 _atom_site_label
 _atom_site_symmetry_multiplicity
 _atom_site_fract_x
 _atom_site_fract_y
 _atom_site_fract_z
 _atom_site_occupancy
  Mg  Mg0  1  0.00010300  0.00010300  0.34590200  1
  Mg  Mg1  1  0.34139500  0.34139500  0.66354100  1
  Mg  Mg2  1  0.31341300  0.31341300  0.28840000  1
  Mg  Mg3  1  0.00111900  0.00111900  0.00001500  1
  Mg  Mg4  1  0.39698900  0.68044800  0.00227300  1
  Mg  Mg5  1  0.28600100  0.59962600  0.40010700  1
  Mg  Mg6  1  0.68589100  0.00302100  0.60023500  1
  Mg  Mg7  1  0.65460600  0.00326400  0.99449400  1
  Mg  Mg8  1  0.31859600  0.71225200  0.68338000  1
  Mg  Mg9  1  0.99810400  0.40065400  0.31712400  1
  Mg  Mg10  1  0.40065400  0.99810400  0.31712400  1
  Mg  Mg11  1  0.71225200  0.31859600  0.68338000  1
  Mg  Mg12  1  0.00326400  0.65460600  0.99449400  1
  Mg  Mg13  1  0.00302100  0.68589100  0.60023500  1
  Mg  Mg14  1  0.59962600  0.28600100  0.40010700  1
  Mg  Mg15  1  0.68044800  0.39698900  0.00227300  1
  Al  Al16  1  0.63288000  0.63288000  0.17898200  1
  Al  Al17  1  0.82158200  0.82158200  0.81751500  1
  Al  Al18  1  0.17850300  0.36125200  0.00712900  1
  Al  Al19  1  0.00000300  0.18601700  0.63320100  1
  Al  Al20  1  0.63490000  0.82226800  0.35821600  1
  Al  Al21  1  0.81200500  0.18051900  0.18663800  1
  Al  Al22  1  0.99792500  0.36745900  0.81665600  1
  Al  Al23  1  0.36745900  0.99792500  0.81665600  1
  Al  Al24  1  0.18051900  0.81200500  0.18663800  1
  Al  Al25  1  0.82226800  0.63490000  0.35821600  1
  Al  Al26  1  0.18601700  0.00000300  0.63320100  1
  Al  Al27  1  0.36125200  0.17850300  0.00712900  1
  In  In28  1  0.60957700  0.60957700  0.70677800  1
