# generated using pymatgen
data_Mg16Al12Pb
_symmetry_space_group_name_H-M   'P 1'
_cell_length_a   9.17364775
_cell_length_b   9.17364775
_cell_length_c   9.17364775
_cell_angle_alpha   109.47122063
_cell_angle_beta   109.47122063
_cell_angle_gamma   109.47122063
_symmetry_Int_Tables_number   1
_chemical_formula_structural   Mg16Al12Pb
_chemical_formula_sum   'Mg16 Al12 Pb1'
_cell_volume   594.29802905
_cell_formula_units_Z   1
loop_
 _symmetry_equiv_pos_site_id
 _symmetry_equiv_pos_as_xyz
  1  'x, y, z'
loop_
 _atom_site_type_symbol
 _atom_site_label
 _atom_site_symmetry_multiplicity
 _atom_site_fract_x
 _atom_site_fract_y
 _atom_site_fract_z
 _atom_site_occupancy
  Mg  Mg0  1  0.31521200  0.60008200  0.00000000  1
  Mg  Mg1  1  0.60008200  0.31521200  0.00000000  1
  Mg  Mg2  1  0.00000000  0.35031900  0.00000000  1
  Mg  Mg3  1  0.35031900  0.00000000  0.00000000  1
  Mg  Mg4  1  0.39991800  0.39991800  0.71513000  1
  Mg  Mg5  1  0.28487000  0.68478800  0.68478800  1
  Mg  Mg6  1  0.68478800  0.28487000  0.68478800  1
  Mg  Mg7  1  0.64968100  0.64968100  0.64968100  1
  Mg  Mg8  1  0.31521200  0.00000000  0.60008200  1
  Mg  Mg9  1  0.00000000  0.31521200  0.60008200  1
  Mg  Mg10  1  0.71513000  0.39991800  0.39991800  1
  Mg  Mg11  1  0.39991800  0.71513000  0.39991800  1
  Mg  Mg12  1  0.00000000  0.00000000  0.35031900  1
  Mg  Mg13  1  0.00000000  0.60008200  0.31521200  1
  Mg  Mg14  1  0.60008200  0.00000000  0.31521200  1
  Mg  Mg15  1  0.68478800  0.68478800  0.28487000  1
  Al  Al16  1  0.62743300  0.81191900  0.00000000  1
  Al  Al17  1  0.81191900  0.62743300  0.00000000  1
  Al  Al18  1  0.18808100  0.18808100  0.81551400  1
  Al  Al19  1  0.00000000  0.62743300  0.81191900  1
  Al  Al20  1  0.62743300  0.00000000  0.81191900  1
  Al  Al21  1  0.00000000  0.81191900  0.62743300  1
  Al  Al22  1  0.81191900  0.00000000  0.62743300  1
  Al  Al23  1  0.37256700  0.18448600  0.37256700  1
  Al  Al24  1  0.18448600  0.37256700  0.37256700  1
  Al  Al25  1  0.81551400  0.18808100  0.18808100  1
  Al  Al26  1  0.18808100  0.81551400  0.18808100  1
  Al  Al27  1  0.37256700  0.37256700  0.18448600  1
  Pb  Pb28  1  0.00000000  0.00000000  0.00000000  1
