# generated using pymatgen
data_Mg16Al12Pt
_symmetry_space_group_name_H-M   'P 1'
_cell_length_a   8.96929400
_cell_length_b   8.96929400
_cell_length_c   9.04272067
_cell_angle_alpha   70.99598315
_cell_angle_beta   70.99598315
_cell_angle_gamma   108.72217296
_symmetry_Int_Tables_number   1
_chemical_formula_structural   Mg16Al12Pt
_chemical_formula_sum   'Mg16 Al12 Pt1'
_cell_volume   571.34245170
_cell_formula_units_Z   1
loop_
 _symmetry_equiv_pos_site_id
 _symmetry_equiv_pos_as_xyz
  1  'x, y, z'
loop_
 _atom_site_type_symbol
 _atom_site_label
 _atom_site_symmetry_multiplicity
 _atom_site_fract_x
 _atom_site_fract_y
 _atom_site_fract_z
 _atom_site_occupancy
  Mg  Mg0  1  0.99483500  0.99483500  0.00669300  1
  Mg  Mg1  1  0.69432300  0.69432300  0.70268700  1
  Mg  Mg2  1  0.01013600  0.01013600  0.64848700  1
  Mg  Mg3  1  0.61515800  0.61515800  0.33089000  1
  Mg  Mg4  1  0.33401600  0.58288100  0.01478800  1
  Mg  Mg5  1  0.40792600  0.71388600  0.59701400  1
  Mg  Mg6  1  0.99891300  0.31735000  0.39954000  1
  Mg  Mg7  1  0.00359200  0.35416400  0.00362900  1
  Mg  Mg8  1  0.29752000  0.67732100  0.30990200  1
  Mg  Mg9  1  0.60318200  0.00678700  0.67666800  1
  Mg  Mg10  1  0.00678700  0.60318200  0.67666800  1
  Mg  Mg11  1  0.67732100  0.29752000  0.30990200  1
  Mg  Mg12  1  0.35416400  0.00359200  0.00362900  1
  Mg  Mg13  1  0.31735000  0.99891300  0.39954000  1
  Mg  Mg14  1  0.71388600  0.40792600  0.59701400  1
  Mg  Mg15  1  0.58288100  0.33401600  0.01478800  1
  Al  Al16  1  0.18368400  0.18368400  0.19110100  1
  Al  Al17  1  0.36345100  0.36345100  0.82668500  1
  Al  Al18  1  0.65156700  0.83510000  0.97982700  1
  Al  Al19  1  0.18415600  0.36965700  0.63253700  1
  Al  Al20  1  0.81529000  0.00134500  0.36144600  1
  Al  Al21  1  0.63526700  0.00576800  0.17884700  1
  Al  Al22  1  0.82012700  0.19805900  0.81400600  1
  Al  Al23  1  0.19805900  0.82012700  0.81400600  1
  Al  Al24  1  0.00576800  0.63526700  0.17884700  1
  Al  Al25  1  0.00134500  0.81529000  0.36144600  1
  Al  Al26  1  0.36965700  0.18415600  0.63253700  1
  Al  Al27  1  0.83510000  0.65156700  0.97982700  1
  Pt  Pt28  1  0.32162600  0.32162600  0.35731500  1
