# generated using pymatgen
data_Mg16Al12O
_symmetry_space_group_name_H-M   'P 1'
_cell_length_a   9.17802465
_cell_length_b   9.17802465
_cell_length_c   9.17802465
_cell_angle_alpha   109.47122063
_cell_angle_beta   109.47122063
_cell_angle_gamma   109.47122063
_symmetry_Int_Tables_number   1
_chemical_formula_structural   Mg16Al12O
_chemical_formula_sum   'Mg16 Al12 O1'
_cell_volume   595.14908193
_cell_formula_units_Z   1
loop_
 _symmetry_equiv_pos_site_id
 _symmetry_equiv_pos_as_xyz
  1  'x, y, z'
loop_
 _atom_site_type_symbol
 _atom_site_label
 _atom_site_symmetry_multiplicity
 _atom_site_fract_x
 _atom_site_fract_y
 _atom_site_fract_z
 _atom_site_occupancy
  Mg  Mg0  1  0.78330200  0.00000000  0.00000000  1
  Mg  Mg1  1  0.21669800  0.21669800  0.21669800  1
  Mg  Mg2  1  0.72335400  0.30052700  0.30052700  1
  Mg  Mg3  1  0.27664600  0.57717400  0.57717400  1
  Mg  Mg4  1  0.00000000  0.00000000  0.78330200  1
  Mg  Mg5  1  0.00000000  0.69947300  0.42282600  1
  Mg  Mg6  1  0.57717400  0.57717400  0.27664600  1
  Mg  Mg7  1  0.42282600  0.00000000  0.69947300  1
  Mg  Mg8  1  0.69947300  0.42282600  0.00000000  1
  Mg  Mg9  1  0.30052700  0.72335400  0.30052700  1
  Mg  Mg10  1  0.30052700  0.30052700  0.72335400  1
  Mg  Mg11  1  0.69947300  0.00000000  0.42282600  1
  Mg  Mg12  1  0.42282600  0.69947300  0.00000000  1
  Mg  Mg13  1  0.57717400  0.27664600  0.57717400  1
  Mg  Mg14  1  0.00000000  0.42282600  0.69947300  1
  Mg  Mg15  1  0.00000000  0.78330200  0.00000000  1
  Al  Al16  1  0.19686200  0.80834600  0.80834600  1
  Al  Al17  1  0.80313800  0.61148400  0.61148400  1
  Al  Al18  1  0.61148400  0.80313800  0.61148400  1
  Al  Al19  1  0.38851600  0.19165400  0.00000000  1
  Al  Al20  1  0.00000000  0.38851600  0.19165400  1
  Al  Al21  1  0.80834600  0.19686200  0.80834600  1
  Al  Al22  1  0.19165400  0.38851600  0.00000000  1
  Al  Al23  1  0.19165400  0.00000000  0.38851600  1
  Al  Al24  1  0.80834600  0.80834600  0.19686200  1
  Al  Al25  1  0.00000000  0.19165400  0.38851600  1
  Al  Al26  1  0.38851600  0.00000000  0.19165400  1
  Al  Al27  1  0.61148400  0.61148400  0.80313800  1
  O  O28  1  0.00000000  0.00000000  0.00000000  1
