# generated using pymatgen
data_Fe3H
_symmetry_space_group_name_H-M   'P 1'
_cell_length_a   4.02061407
_cell_length_b   4.02061407
_cell_length_c   4.02061407
_cell_angle_alpha   128.70397082
_cell_angle_beta   128.70397082
_cell_angle_gamma   75.48736575
_symmetry_Int_Tables_number   1
_chemical_formula_structural   Fe3H
_chemical_formula_sum   'Fe3 H1'
_cell_volume   38.51569278
_cell_formula_units_Z   1
loop_
 _symmetry_equiv_pos_site_id
 _symmetry_equiv_pos_as_xyz
  1  'x, y, z'
loop_
 _atom_site_type_symbol
 _atom_site_label
 _atom_site_symmetry_multiplicity
 _atom_site_fract_x
 _atom_site_fract_y
 _atom_site_fract_z
 _atom_site_occupancy
  Fe  Fe0  1  0.75000000  0.25000000  0.50000000  1
  Fe  Fe1  1  0.25000000  0.75000000  0.50000000  1
  Fe  Fe2  1  0.50000000  0.50000000  0.00000000  1
  H  H3  1  0.00000000  0.00000000  0.00000000  1
