# generated using pymatgen
data_CuTeAs
_symmetry_space_group_name_H-M   'P 1'
_cell_length_a   4.19636900
_cell_length_b   5.77884900
_cell_length_c   12.64489200
_cell_angle_alpha   90.00000000
_cell_angle_beta   90.00000000
_cell_angle_gamma   90.00000000
_symmetry_Int_Tables_number   1
_chemical_formula_structural   CuTeAs
_chemical_formula_sum   'Cu4 Te4 As4'
_cell_volume   306.64094248
_cell_formula_units_Z   4
loop_
 _symmetry_equiv_pos_site_id
 _symmetry_equiv_pos_as_xyz
  1  'x, y, z'
loop_
 _atom_site_type_symbol
 _atom_site_label
 _atom_site_symmetry_multiplicity
 _atom_site_fract_x
 _atom_site_fract_y
 _atom_site_fract_z
 _atom_site_occupancy
  Cu  Cu0  1  0.25000000  0.60870700  0.83628600  1
  Cu  Cu1  1  0.75000000  0.39129300  0.16371400  1
  Cu  Cu2  1  0.75000000  0.10870700  0.66371400  1
  Cu  Cu3  1  0.25000000  0.89129300  0.33628600  1
  Te  Te4  1  0.25000000  0.85587000  0.66440700  1
  Te  Te5  1  0.75000000  0.14413000  0.33559300  1
  Te  Te6  1  0.75000000  0.35587000  0.83559300  1
  Te  Te7  1  0.25000000  0.64413000  0.16440700  1
  As  As8  1  0.25000000  0.87528100  0.98208200  1
  As  As9  1  0.75000000  0.12471900  0.01791800  1
  As  As10  1  0.75000000  0.37528100  0.51791800  1
  As  As11  1  0.25000000  0.62471900  0.48208200  1
