# generated using pymatgen
data_ErMn2
_symmetry_space_group_name_H-M   'P 1'
_cell_length_a   5.31827503
_cell_length_b   5.31827503
_cell_length_c   8.07317100
_cell_angle_alpha   90.00000000
_cell_angle_beta   90.00000000
_cell_angle_gamma   119.99998793
_symmetry_Int_Tables_number   1
_chemical_formula_structural   ErMn2
_chemical_formula_sum   'Er4 Mn8'
_cell_volume   197.74996780
_cell_formula_units_Z   4
loop_
 _symmetry_equiv_pos_site_id
 _symmetry_equiv_pos_as_xyz
  1  'x, y, z'
loop_
 _atom_site_type_symbol
 _atom_site_label
 _atom_site_symmetry_multiplicity
 _atom_site_fract_x
 _atom_site_fract_y
 _atom_site_fract_z
 _atom_site_occupancy
  Er  Er0  1  0.33333300  0.66666700  0.44013300  1
  Er  Er1  1  0.66666700  0.33333300  0.55986700  1
  Er  Er2  1  0.66666700  0.33333300  0.94013300  1
  Er  Er3  1  0.33333300  0.66666700  0.05986700  1
  Mn  Mn4  1  0.00000000  0.00000000  0.50000000  1
  Mn  Mn5  1  0.00000000  0.00000000  0.00000000  1
  Mn  Mn6  1  0.83106500  0.16893500  0.25000000  1
  Mn  Mn7  1  0.83106500  0.66213000  0.25000000  1
  Mn  Mn8  1  0.33787000  0.16893500  0.25000000  1
  Mn  Mn9  1  0.16893500  0.83106500  0.75000000  1
  Mn  Mn10  1  0.16893500  0.33787000  0.75000000  1
  Mn  Mn11  1  0.66213000  0.83106500  0.75000000  1
