data_image0
_chemical_formula_structural       Cu2Sn4Sr2
_chemical_formula_sum              "Cu2 Sn4 Sr2"
_cell_length_a       4.56281
_cell_length_b       4.59386
_cell_length_c       10.0662
_cell_angle_alpha    76.8099
_cell_angle_beta     90
_cell_angle_gamma    90

_space_group_name_H-M_alt    "P 1"
_space_group_IT_number       1

loop_
  _space_group_symop_operation_xyz
  'x, y, z'

loop_
  _atom_site_type_symbol
  _atom_site_label
  _atom_site_symmetry_multiplicity
  _atom_site_fract_x
  _atom_site_fract_y
  _atom_site_fract_z
  _atom_site_occupancy
  Cu  Cu1       1.0  0.25000  0.82600  0.34800  1.0000
  Cu  Cu2       1.0  0.75000  0.17400  0.65200  1.0000
  Sn  Sn1       1.0  0.25000  0.95700  0.08570  1.0000
  Sn  Sn2       1.0  0.75000  0.75100  0.49900  1.0000
  Sn  Sn3       1.0  0.25000  0.24900  0.50100  1.0000
  Sn  Sn4       1.0  0.75000  0.04290  0.91400  1.0000
  Sr  Sr1       1.0  0.75000  0.39100  0.21800  1.0000
  Sr  Sr2       1.0  0.25000  0.60900  0.78200  1.0000
