# generated using pymatgen
data_NbO3
_symmetry_space_group_name_H-M   'P 1'
_cell_length_a   4.73211852
_cell_length_b   4.73211852
_cell_length_c   3.71738700
_cell_angle_alpha   90.00000000
_cell_angle_beta   90.00000000
_cell_angle_gamma   120.00000724
_symmetry_Int_Tables_number   1
_chemical_formula_structural   NbO3
_chemical_formula_sum   'Nb2 O6'
_cell_volume   72.09075971
_cell_formula_units_Z   2
loop_
 _symmetry_equiv_pos_site_id
 _symmetry_equiv_pos_as_xyz
  1  'x, y, z'
loop_
 _atom_site_type_symbol
 _atom_site_label
 _atom_site_symmetry_multiplicity
 _atom_site_fract_x
 _atom_site_fract_y
 _atom_site_fract_z
 _atom_site_occupancy
  Nb  Nb0  1  0.33333300  0.66666700  0.75000000  1
  Nb  Nb1  1  0.66666700  0.33333300  0.25000000  1
  O  O2  1  0.18114600  0.36229200  0.25000000  1
  O  O3  1  0.63770800  0.81885400  0.25000000  1
  O  O4  1  0.18114600  0.81885400  0.25000000  1
  O  O5  1  0.81885400  0.63770800  0.75000000  1
  O  O6  1  0.36229200  0.18114600  0.75000000  1
  O  O7  1  0.81885400  0.18114600  0.75000000  1
