# generated using pymatgen
data_MgIn5
_symmetry_space_group_name_H-M   'P 1'
_cell_length_a   6.02172180
_cell_length_b   6.02172180
_cell_length_c   5.07719600
_cell_angle_alpha   90.00000000
_cell_angle_beta   90.00000000
_cell_angle_gamma   119.99999784
_symmetry_Int_Tables_number   1
_chemical_formula_structural   MgIn5
_chemical_formula_sum   'Mg1 In5'
_cell_volume   159.43950813
_cell_formula_units_Z   1
loop_
 _symmetry_equiv_pos_site_id
 _symmetry_equiv_pos_as_xyz
  1  'x, y, z'
loop_
 _atom_site_type_symbol
 _atom_site_label
 _atom_site_symmetry_multiplicity
 _atom_site_fract_x
 _atom_site_fract_y
 _atom_site_fract_z
 _atom_site_occupancy
  Mg  Mg0  1  0.00000000  0.00000000  0.50000000  1
  In  In1  1  0.33333300  0.66666700  0.50000000  1
  In  In2  1  0.00000000  0.67236700  0.00000000  1
  In  In3  1  0.67236700  0.00000000  0.00000000  1
  In  In4  1  0.32763300  0.32763300  0.00000000  1
  In  In5  1  0.66666700  0.33333300  0.50000000  1
