# generated using pymatgen
data_Mg16Al12Cd
_symmetry_space_group_name_H-M   'P 1'
_cell_length_a   9.14435185
_cell_length_b   9.14435185
_cell_length_c   9.14435185
_cell_angle_alpha   109.47122063
_cell_angle_beta   109.47122063
_cell_angle_gamma   109.47122063
_symmetry_Int_Tables_number   1
_chemical_formula_structural   Mg16Al12Cd
_chemical_formula_sum   'Mg16 Al12 Cd1'
_cell_volume   588.62254658
_cell_formula_units_Z   1
loop_
 _symmetry_equiv_pos_site_id
 _symmetry_equiv_pos_as_xyz
  1  'x, y, z'
loop_
 _atom_site_type_symbol
 _atom_site_label
 _atom_site_symmetry_multiplicity
 _atom_site_fract_x
 _atom_site_fract_y
 _atom_site_fract_z
 _atom_site_occupancy
  Mg  Mg0  1  0.31378400  0.59945100  0.00000000  1
  Mg  Mg1  1  0.33921000  0.00000000  0.00000000  1
  Mg  Mg2  1  0.59945100  0.31378400  0.00000000  1
  Mg  Mg3  1  0.00000000  0.33921000  0.00000000  1
  Mg  Mg4  1  0.40054900  0.40054900  0.71433300  1
  Mg  Mg5  1  0.68621600  0.28566700  0.68621600  1
  Mg  Mg6  1  0.28566700  0.68621600  0.68621600  1
  Mg  Mg7  1  0.66079000  0.66079000  0.66079000  1
  Mg  Mg8  1  0.00000000  0.31378400  0.59945100  1
  Mg  Mg9  1  0.31378400  0.00000000  0.59945100  1
  Mg  Mg10  1  0.71433300  0.40054900  0.40054900  1
  Mg  Mg11  1  0.40054900  0.71433300  0.40054900  1
  Mg  Mg12  1  0.00000000  0.00000000  0.33921000  1
  Mg  Mg13  1  0.00000000  0.59945100  0.31378400  1
  Mg  Mg14  1  0.59945100  0.00000000  0.31378400  1
  Mg  Mg15  1  0.68621600  0.68621600  0.28566700  1
  Al  Al16  1  0.63080000  0.81387000  0.00000000  1
  Al  Al17  1  0.81387000  0.63080000  0.00000000  1
  Al  Al18  1  0.18613000  0.18613000  0.81693100  1
  Al  Al19  1  0.00000000  0.63080000  0.81387000  1
  Al  Al20  1  0.63080000  0.00000000  0.81387000  1
  Al  Al21  1  0.00000000  0.81387000  0.63080000  1
  Al  Al22  1  0.81387000  0.00000000  0.63080000  1
  Al  Al23  1  0.36920000  0.18306900  0.36920000  1
  Al  Al24  1  0.18306900  0.36920000  0.36920000  1
  Al  Al25  1  0.81693100  0.18613000  0.18613000  1
  Al  Al26  1  0.18613000  0.81693100  0.18613000  1
  Al  Al27  1  0.36920000  0.36920000  0.18306900  1
  Cd  Cd28  1  0.00000000  0.00000000  0.00000000  1
