# generated using pymatgen
data_Mg16Al12W
_symmetry_space_group_name_H-M   'P 1'
_cell_length_a   9.44422821
_cell_length_b   8.93225847
_cell_length_c   8.93225938
_cell_angle_alpha   108.28115247
_cell_angle_beta   110.63656302
_cell_angle_gamma   110.63656727
_symmetry_Int_Tables_number   1
_chemical_formula_structural   Mg16Al12W
_chemical_formula_sum   'Mg16 Al12 W1'
_cell_volume   571.50247657
_cell_formula_units_Z   1
loop_
 _symmetry_equiv_pos_site_id
 _symmetry_equiv_pos_as_xyz
  1  'x, y, z'
loop_
 _atom_site_type_symbol
 _atom_site_label
 _atom_site_symmetry_multiplicity
 _atom_site_fract_x
 _atom_site_fract_y
 _atom_site_fract_z
 _atom_site_occupancy
  Mg  Mg0  1  0.99192800  0.99999900  0.99999900  1
  Mg  Mg1  1  0.00866500  0.35929200  0.00000000  1
  Mg  Mg2  1  0.58236900  0.28081300  0.00000000  1
  Mg  Mg3  1  0.31886200  0.60543100  0.00000000  1
  Mg  Mg4  1  0.68062500  0.67804200  0.27765400  1
  Mg  Mg5  1  0.58237000  0.00000000  0.28081300  1
  Mg  Mg6  1  0.00258300  0.59961100  0.32195800  1
  Mg  Mg7  1  0.00866500  0.99999900  0.35929200  1
  Mg  Mg8  1  0.71343200  0.39457000  0.39457000  1
  Mg  Mg9  1  0.40297200  0.72234800  0.40039100  1
  Mg  Mg10  1  0.00258200  0.32195800  0.59961100  1
  Mg  Mg11  1  0.31886200  0.00000000  0.60543000  1
  Mg  Mg12  1  0.64937100  0.64070600  0.64070600  1
  Mg  Mg13  1  0.68062500  0.27765400  0.67804200  1
  Mg  Mg14  1  0.30155600  0.71918600  0.71918700  1
  Mg  Mg15  1  0.40297200  0.40039000  0.72234900  1
  Al  Al16  1  0.64666600  0.80792600  0.99999900  1
  Al  Al17  1  0.81300100  0.61910900  0.00000000  1
  Al  Al18  1  0.36754400  0.36322200  0.18188900  1
  Al  Al19  1  0.18565400  0.81811100  0.18133400  1
  Al  Al20  1  0.83874000  0.19207300  0.19207400  1
  Al  Al21  1  0.36754400  0.18188900  0.36322200  1
  Al  Al22  1  0.19389100  0.38089200  0.38089100  1
  Al  Al23  1  0.81300000  0.00000100  0.61910900  1
  Al  Al24  1  0.00432200  0.81866700  0.63677900  1
  Al  Al25  1  0.64666600  0.00000000  0.80792600  1
  Al  Al26  1  0.00432300  0.63677900  0.81866700  1
  Al  Al27  1  0.18565500  0.18133400  0.81811100  1
  W  W28  1  0.28455900  0.00000100  0.00000000  1
