# generated using pymatgen
data_MoWSe3S
_symmetry_space_group_name_H-M   'P 1'
_cell_length_a   3.29318760
_cell_length_b   3.29318760
_cell_length_c   37.39409100
_cell_angle_alpha   90.00000000
_cell_angle_beta   90.00000000
_cell_angle_gamma   119.99999187
_symmetry_Int_Tables_number   1
_chemical_formula_structural   MoWSe3S
_chemical_formula_sum   'Mo2 W2 Se6 S2'
_cell_volume   351.20977070
_cell_formula_units_Z   2
loop_
 _symmetry_equiv_pos_site_id
 _symmetry_equiv_pos_as_xyz
  1  'x, y, z'
loop_
 _atom_site_type_symbol
 _atom_site_label
 _atom_site_symmetry_multiplicity
 _atom_site_fract_x
 _atom_site_fract_y
 _atom_site_fract_z
 _atom_site_occupancy
  Mo  Mo0  1  0.00000000  0.00000000  0.09390900  1
  Mo  Mo1  1  0.00000000  0.00000000  0.46966700  1
  W  W2  1  0.33333300  0.66666700  0.28176900  1
  W  W3  1  0.33333300  0.66666700  0.65757100  1
  Se  Se4  1  0.00000000  0.00000000  0.32707400  1
  Se  Se5  1  0.00000000  0.00000000  0.70286100  1
  Se  Se6  1  0.33333300  0.66666700  0.42460300  1
  Se  Se7  1  0.33333300  0.66666700  0.51471300  1
  Se  Se8  1  0.00000000  0.00000000  0.23649400  1
  Se  Se9  1  0.00000000  0.00000000  0.61226000  1
  S  S10  1  0.33333300  0.66666700  0.05290800  1
  S  S11  1  0.33333300  0.66666700  0.13491800  1
