# generated using pymatgen
data_Mg16Al12Zn
_symmetry_space_group_name_H-M   'P 1'
_cell_length_a   9.10382013
_cell_length_b   9.10382013
_cell_length_c   9.10382013
_cell_angle_alpha   109.47122063
_cell_angle_beta   109.47122063
_cell_angle_gamma   109.47122063
_symmetry_Int_Tables_number   1
_chemical_formula_structural   Mg16Al12Zn
_chemical_formula_sum   'Mg16 Al12 Zn1'
_cell_volume   580.83009951
_cell_formula_units_Z   1
loop_
 _symmetry_equiv_pos_site_id
 _symmetry_equiv_pos_as_xyz
  1  'x, y, z'
loop_
 _atom_site_type_symbol
 _atom_site_label
 _atom_site_symmetry_multiplicity
 _atom_site_fract_x
 _atom_site_fract_y
 _atom_site_fract_z
 _atom_site_occupancy
  Mg  Mg0  1  0.00000000  0.33085800  0.00000000  1
  Mg  Mg1  1  0.33085800  0.00000000  0.00000000  1
  Mg  Mg2  1  0.31312600  0.59867100  0.00000000  1
  Mg  Mg3  1  0.59867100  0.31312600  0.00000000  1
  Mg  Mg4  1  0.40132900  0.40132900  0.71445500  1
  Mg  Mg5  1  0.68687400  0.28554500  0.68687400  1
  Mg  Mg6  1  0.28554500  0.68687400  0.68687400  1
  Mg  Mg7  1  0.66914200  0.66914200  0.66914200  1
  Mg  Mg8  1  0.31312600  0.00000000  0.59867100  1
  Mg  Mg9  1  0.00000000  0.31312600  0.59867100  1
  Mg  Mg10  1  0.40132900  0.71445500  0.40132900  1
  Mg  Mg11  1  0.71445500  0.40132900  0.40132900  1
  Mg  Mg12  1  0.00000000  0.00000000  0.33085800  1
  Mg  Mg13  1  0.00000000  0.59867100  0.31312600  1
  Mg  Mg14  1  0.59867100  0.00000000  0.31312600  1
  Mg  Mg15  1  0.68687400  0.68687400  0.28554500  1
  Al  Al16  1  0.81427900  0.63161400  0.00000000  1
  Al  Al17  1  0.63161400  0.81427900  0.00000000  1
  Al  Al18  1  0.18572100  0.18572100  0.81733500  1
  Al  Al19  1  0.63161400  0.00000000  0.81427900  1
  Al  Al20  1  0.00000000  0.63161400  0.81427900  1
  Al  Al21  1  0.00000000  0.81427900  0.63161400  1
  Al  Al22  1  0.81427900  0.00000000  0.63161400  1
  Al  Al23  1  0.18266500  0.36838600  0.36838600  1
  Al  Al24  1  0.36838600  0.18266500  0.36838600  1
  Al  Al25  1  0.18572100  0.81733500  0.18572100  1
  Al  Al26  1  0.81733500  0.18572100  0.18572100  1
  Al  Al27  1  0.36838600  0.36838600  0.18266500  1
  Zn  Zn28  1  0.00000000  0.00000000  0.00000000  1
