# generated using pymatgen
data_Mg16Al12Tl
_symmetry_space_group_name_H-M   'P 1'
_cell_length_a   9.35300447
_cell_length_b   9.14062192
_cell_length_c   9.07697143
_cell_angle_alpha   108.99163698
_cell_angle_beta   109.94834419
_cell_angle_gamma   110.22093530
_symmetry_Int_Tables_number   1
_chemical_formula_structural   Mg16Al12Tl
_chemical_formula_sum   'Mg16 Al12 Tl1'
_cell_volume   591.74433522
_cell_formula_units_Z   1
loop_
 _symmetry_equiv_pos_site_id
 _symmetry_equiv_pos_as_xyz
  1  'x, y, z'
loop_
 _atom_site_type_symbol
 _atom_site_label
 _atom_site_symmetry_multiplicity
 _atom_site_fract_x
 _atom_site_fract_y
 _atom_site_fract_z
 _atom_site_occupancy
  Mg  Mg0  1  0.00125300  0.00133300  0.00000000  1
  Mg  Mg1  1  0.31299500  0.60355600  0.00000000  1
  Mg  Mg2  1  0.00153400  0.34533400  0.00000000  1
  Mg  Mg3  1  0.33732700  0.00430000  0.00000000  1
  Mg  Mg4  1  0.67982900  0.68367200  0.28429500  1
  Mg  Mg5  1  0.60034800  0.99931600  0.31308500  1
  Mg  Mg6  1  0.00393200  0.60437100  0.31685100  1
  Mg  Mg7  1  0.00335700  0.99649400  0.34859400  1
  Mg  Mg8  1  0.71220000  0.39479100  0.39425200  1
  Mg  Mg9  1  0.39878400  0.71692400  0.40122500  1
  Mg  Mg10  1  0.99755800  0.31569900  0.59877600  1
  Mg  Mg11  1  0.31794700  0.00053900  0.60574800  1
  Mg  Mg12  1  0.65476300  0.64789900  0.65140600  1
  Mg  Mg13  1  0.68708100  0.28752100  0.68314900  1
  Mg  Mg14  1  0.28726400  0.68623200  0.68691600  1
  Mg  Mg15  1  0.39553600  0.39937900  0.71570600  1
  Al  Al16  1  0.82385600  0.64589900  0.00000000  1
  Al  Al17  1  0.63318100  0.80904500  0.00000000  1
  Al  Al18  1  0.35832500  0.36773700  0.18382600  1
  Al  Al19  1  0.18738800  0.82038600  0.18694700  1
  Al  Al20  1  0.82558000  0.17879500  0.18814100  1
  Al  Al21  1  0.18078600  0.36649500  0.36800700  1
  Al  Al22  1  0.36822000  0.18519700  0.37012500  1
  Al  Al23  1  0.99809600  0.81507400  0.62987700  1
  Al  Al24  1  0.81278200  0.99849000  0.63199500  1
  Al  Al25  1  0.63744000  0.99065400  0.81186000  1
  Al  Al26  1  0.00044100  0.63344100  0.81305300  1
  Al  Al27  1  0.17449800  0.18391100  0.81617300  1
  Tl  Tl28  1  0.60769900  0.31752600  0.00000000  1
