# generated using pymatgen
data_NaTi3
_symmetry_space_group_name_H-M   'P 1'
_cell_length_a   6.13062749
_cell_length_b   6.13062749
_cell_length_c   4.78769500
_cell_angle_alpha   90.00000000
_cell_angle_beta   90.00000000
_cell_angle_gamma   119.99999449
_symmetry_Int_Tables_number   1
_chemical_formula_structural   NaTi3
_chemical_formula_sum   'Na2 Ti6'
_cell_volume   155.83571150
_cell_formula_units_Z   2
loop_
 _symmetry_equiv_pos_site_id
 _symmetry_equiv_pos_as_xyz
  1  'x, y, z'
loop_
 _atom_site_type_symbol
 _atom_site_label
 _atom_site_symmetry_multiplicity
 _atom_site_fract_x
 _atom_site_fract_y
 _atom_site_fract_z
 _atom_site_occupancy
  Na  Na0  1  0.33333300  0.66666700  0.75000000  1
  Na  Na1  1  0.66666700  0.33333300  0.25000000  1
  Ti  Ti2  1  0.15428700  0.30857300  0.25000000  1
  Ti  Ti3  1  0.69142700  0.84571300  0.25000000  1
  Ti  Ti4  1  0.15428700  0.84571300  0.25000000  1
  Ti  Ti5  1  0.84571300  0.69142700  0.75000000  1
  Ti  Ti6  1  0.30857300  0.15428700  0.75000000  1
  Ti  Ti7  1  0.84571300  0.15428700  0.75000000  1
