# generated using pymatgen
data_Mg3Te
_symmetry_space_group_name_H-M   'P 1'
_cell_length_a   6.08756124
_cell_length_b   6.08756124
_cell_length_c   6.08756124
_cell_angle_alpha   138.85022153
_cell_angle_beta   138.85022153
_cell_angle_gamma   59.60330817
_symmetry_Int_Tables_number   1
_chemical_formula_structural   Mg3Te
_chemical_formula_sum   'Mg3 Te1'
_cell_volume   96.70885767
_cell_formula_units_Z   1
loop_
 _symmetry_equiv_pos_site_id
 _symmetry_equiv_pos_as_xyz
  1  'x, y, z'
loop_
 _atom_site_type_symbol
 _atom_site_label
 _atom_site_symmetry_multiplicity
 _atom_site_fract_x
 _atom_site_fract_y
 _atom_site_fract_z
 _atom_site_occupancy
  Mg  Mg0  1  0.50000000  0.50000000  0.00000000  1
  Mg  Mg1  1  0.75000000  0.25000000  0.50000000  1
  Mg  Mg2  1  0.25000000  0.75000000  0.50000000  1
  Te  Te3  1  0.00000000  0.00000000  0.00000000  1
