# generated using pymatgen
data_Mg2NiH4
_symmetry_space_group_name_H-M   'P 1'
_cell_length_a   6.36824000
_cell_length_b   6.45596700
_cell_length_c   13.10241500
_cell_angle_alpha   90.00000000
_cell_angle_beta   90.00000000
_cell_angle_gamma   90.00000000
_symmetry_Int_Tables_number   1
_chemical_formula_structural   Mg2NiH4
_chemical_formula_sum   'Mg16 Ni8 H32'
_cell_volume   538.68151772
_cell_formula_units_Z   8
loop_
 _symmetry_equiv_pos_site_id
 _symmetry_equiv_pos_as_xyz
  1  'x, y, z'
loop_
 _atom_site_type_symbol
 _atom_site_label
 _atom_site_symmetry_multiplicity
 _atom_site_fract_x
 _atom_site_fract_y
 _atom_site_fract_z
 _atom_site_occupancy
  Mg  Mg0  1  0.76141700  0.56731900  0.51352800  1
  Mg  Mg1  1  0.73858300  0.56731900  0.98647200  1
  Mg  Mg2  1  0.75000000  0.55635900  0.75000000  1
  Mg  Mg3  1  0.25000000  0.53007100  0.75000000  1
  Mg  Mg4  1  0.75000000  0.46992900  0.25000000  1
  Mg  Mg5  1  0.25000000  0.44364100  0.25000000  1
  Mg  Mg6  1  0.23858300  0.43268100  0.48647200  1
  Mg  Mg7  1  0.26141700  0.43268100  0.01352800  1
  Mg  Mg8  1  0.76141700  0.06731900  0.98647200  1
  Mg  Mg9  1  0.73858300  0.06731900  0.51352800  1
  Mg  Mg10  1  0.75000000  0.05635900  0.75000000  1
  Mg  Mg11  1  0.25000000  0.03007100  0.75000000  1
  Mg  Mg12  1  0.75000000  0.96992900  0.25000000  1
  Mg  Mg13  1  0.25000000  0.94364100  0.25000000  1
  Mg  Mg14  1  0.23858300  0.93268100  0.01352800  1
  Mg  Mg15  1  0.26141700  0.93268100  0.48647200  1
  Ni  Ni16  1  0.01709500  0.69507800  0.36888200  1
  Ni  Ni17  1  0.48290500  0.69507800  0.13111800  1
  Ni  Ni18  1  0.98290500  0.30492200  0.63111800  1
  Ni  Ni19  1  0.51709500  0.30492200  0.86888200  1
  Ni  Ni20  1  0.01709500  0.19507800  0.13111800  1
  Ni  Ni21  1  0.48290500  0.19507800  0.36888200  1
  Ni  Ni22  1  0.98290500  0.80492200  0.86888200  1
  Ni  Ni23  1  0.51709500  0.80492200  0.63111800  1
  H  H24  1  0.03228500  0.76264400  0.75482900  1
  H  H25  1  0.46771500  0.76264400  0.74517100  1
  H  H26  1  0.96771500  0.73735600  0.25482900  1
  H  H27  1  0.53228500  0.73735600  0.24517100  1
  H  H28  1  0.23838300  0.68434100  0.12636500  1
  H  H29  1  0.26161700  0.68434100  0.37363500  1
  H  H30  1  0.05545000  0.66206100  0.95948300  1
  H  H31  1  0.44455000  0.66206100  0.54051700  1
  H  H32  1  0.06459500  0.52903900  0.61007600  1
  H  H33  1  0.43540500  0.52903900  0.88992400  1
  H  H34  1  0.93540500  0.47096100  0.38992400  1
  H  H35  1  0.56459500  0.47096100  0.11007600  1
  H  H36  1  0.94455000  0.33793900  0.04051700  1
  H  H37  1  0.55545000  0.33793900  0.45948300  1
  H  H38  1  0.76161700  0.31565900  0.87363500  1
  H  H39  1  0.73838300  0.31565900  0.62636500  1
  H  H40  1  0.03228500  0.26264400  0.74517100  1
  H  H41  1  0.46771500  0.26264400  0.75482900  1
  H  H42  1  0.96771500  0.23735600  0.24517100  1
  H  H43  1  0.53228500  0.23735600  0.25482900  1
  H  H44  1  0.23838300  0.18434100  0.37363500  1
  H  H45  1  0.26161700  0.18434100  0.12636500  1
  H  H46  1  0.05545000  0.16206100  0.54051700  1
  H  H47  1  0.44455000  0.16206100  0.95948300  1
  H  H48  1  0.06459500  0.02903900  0.88992400  1
  H  H49  1  0.43540500  0.02903900  0.61007600  1
  H  H50  1  0.93540500  0.97096100  0.11007600  1
  H  H51  1  0.56459500  0.97096100  0.38992400  1
  H  H52  1  0.94455000  0.83793900  0.45948300  1
  H  H53  1  0.55545000  0.83793900  0.04051700  1
  H  H54  1  0.76161700  0.81565900  0.62636500  1
  H  H55  1  0.73838300  0.81565900  0.87363500  1
