# generated using pymatgen
data_S3Cl
_symmetry_space_group_name_H-M   'P 1'
_cell_length_a   8.84072437
_cell_length_b   8.84072437
_cell_length_c   2.93616900
_cell_angle_alpha   90.00000000
_cell_angle_beta   90.00000000
_cell_angle_gamma   120.00000277
_symmetry_Int_Tables_number   1
_chemical_formula_structural   S3Cl
_chemical_formula_sum   'S6 Cl2'
_cell_volume   198.74095391
_cell_formula_units_Z   2
loop_
 _symmetry_equiv_pos_site_id
 _symmetry_equiv_pos_as_xyz
  1  'x, y, z'
loop_
 _atom_site_type_symbol
 _atom_site_label
 _atom_site_symmetry_multiplicity
 _atom_site_fract_x
 _atom_site_fract_y
 _atom_site_fract_z
 _atom_site_occupancy
  S  S0  1  0.12035400  0.24070900  0.25000000  1
  S  S1  1  0.75929100  0.87964600  0.25000000  1
  S  S2  1  0.12035400  0.87964600  0.25000000  1
  S  S3  1  0.87964600  0.75929100  0.75000000  1
  S  S4  1  0.24070900  0.12035400  0.75000000  1
  S  S5  1  0.87964600  0.12035400  0.75000000  1
  Cl  Cl6  1  0.33333300  0.66666700  0.75000000  1
  Cl  Cl7  1  0.66666700  0.33333300  0.25000000  1
