# generated using pymatgen
data_Pr3Lu
_symmetry_space_group_name_H-M   'P 1'
_cell_length_a   7.34396366
_cell_length_b   7.34396366
_cell_length_c   5.98163500
_cell_angle_alpha   90.00000000
_cell_angle_beta   90.00000000
_cell_angle_gamma   119.99999697
_symmetry_Int_Tables_number   1
_chemical_formula_structural   Pr3Lu
_chemical_formula_sum   'Pr6 Lu2'
_cell_volume   279.39047277
_cell_formula_units_Z   2
loop_
 _symmetry_equiv_pos_site_id
 _symmetry_equiv_pos_as_xyz
  1  'x, y, z'
loop_
 _atom_site_type_symbol
 _atom_site_label
 _atom_site_symmetry_multiplicity
 _atom_site_fract_x
 _atom_site_fract_y
 _atom_site_fract_z
 _atom_site_occupancy
  Pr  Pr0  1  0.16867000  0.33734100  0.25000000  1
  Pr  Pr1  1  0.66265900  0.83133000  0.25000000  1
  Pr  Pr2  1  0.16867000  0.83133000  0.25000000  1
  Pr  Pr3  1  0.83133000  0.66265900  0.75000000  1
  Pr  Pr4  1  0.33734100  0.16867000  0.75000000  1
  Pr  Pr5  1  0.83133000  0.16867000  0.75000000  1
  Lu  Lu6  1  0.33333300  0.66666700  0.75000000  1
  Lu  Lu7  1  0.66666700  0.33333300  0.25000000  1
