# generated using pymatgen
data_Te2Mo3W(SeS2)2
_symmetry_space_group_name_H-M   'P 1'
_cell_length_a   3.30817114
_cell_length_b   3.30817114
_cell_length_c   37.59844500
_cell_angle_alpha   90.00000000
_cell_angle_beta   90.00000000
_cell_angle_gamma   119.99998282
_symmetry_Int_Tables_number   1
_chemical_formula_structural   Te2Mo3W(SeS2)2
_chemical_formula_sum   'Te2 Mo3 W1 Se2 S4'
_cell_volume   356.34980709
_cell_formula_units_Z   1
loop_
 _symmetry_equiv_pos_site_id
 _symmetry_equiv_pos_as_xyz
  1  'x, y, z'
loop_
 _atom_site_type_symbol
 _atom_site_label
 _atom_site_symmetry_multiplicity
 _atom_site_fract_x
 _atom_site_fract_y
 _atom_site_fract_z
 _atom_site_occupancy
  Te  Te0  1  0.33333300  0.66666700  0.70839500  1
  Te  Te1  1  0.33333300  0.66666700  0.60669600  1
  Mo  Mo2  1  0.33333300  0.66666700  0.09390700  1
  Mo  Mo3  1  0.33333300  0.66666700  0.46966100  1
  Mo  Mo4  1  0.66666700  0.33333300  0.65758000  1
  W  W5  1  0.66666700  0.33333300  0.28180000  1
  Se  Se6  1  0.33333300  0.66666700  0.32673100  1
  Se  Se7  1  0.33333300  0.66666700  0.23685800  1
  S  S8  1  0.66666700  0.33333300  0.05328200  1
  S  S9  1  0.66666700  0.33333300  0.42902900  1
  S  S10  1  0.66666700  0.33333300  0.13454200  1
  S  S11  1  0.66666700  0.33333300  0.51026600  1
