# generated using pymatgen
data_Mg17Al11Cd
_symmetry_space_group_name_H-M   'P 1'
_cell_length_a   9.18865092
_cell_length_b   9.20249155
_cell_length_c   9.12787284
_cell_angle_alpha   109.47796256
_cell_angle_beta   109.41627788
_cell_angle_gamma   109.81772243
_symmetry_Int_Tables_number   1
_chemical_formula_structural   Mg17Al11Cd
_chemical_formula_sum   'Mg17 Al11 Cd1'
_cell_volume   591.95820828
_cell_formula_units_Z   1
loop_
 _symmetry_equiv_pos_site_id
 _symmetry_equiv_pos_as_xyz
  1  'x, y, z'
loop_
 _atom_site_type_symbol
 _atom_site_label
 _atom_site_symmetry_multiplicity
 _atom_site_fract_x
 _atom_site_fract_y
 _atom_site_fract_z
 _atom_site_occupancy
  Mg  Mg0  1  0.00114800  0.34326200  0.99999900  1
  Mg  Mg1  1  0.00147900  0.00188700  0.99999900  1
  Mg  Mg2  1  0.31557200  0.60192000  0.00000000  1
  Mg  Mg3  1  0.34356300  0.99982100  0.00000000  1
  Mg  Mg4  1  0.59877300  0.31072300  0.00000100  1
  Mg  Mg5  1  0.68374100  0.68421700  0.28838800  1
  Mg  Mg6  1  0.60265100  0.00002300  0.31634600  1
  Mg  Mg7  1  0.00164400  0.60130700  0.31787300  1
  Mg  Mg8  1  0.00154600  0.00305000  0.34673100  1
  Mg  Mg9  1  0.39706300  0.71299700  0.39722200  1
  Mg  Mg10  1  0.71366900  0.39733100  0.39827200  1
  Mg  Mg11  1  0.31539700  0.99905900  0.60172900  1
  Mg  Mg12  1  0.99984000  0.31577400  0.60277900  1
  Mg  Mg13  1  0.65481400  0.65631700  0.65326700  1
  Mg  Mg14  1  0.68377100  0.28343500  0.68212700  1
  Mg  Mg15  1  0.28630400  0.68367800  0.68365400  1
  Mg  Mg16  1  0.39535400  0.39583000  0.71161300  1
  Al  Al17  1  0.62861900  0.82022600  0.00000000  1
  Al  Al18  1  0.36679700  0.36692200  0.18169700  1
  Al  Al19  1  0.81976200  0.18681600  0.18632900  1
  Al  Al20  1  0.19153000  0.82119000  0.18671000  1
  Al  Al21  1  0.18166400  0.36619600  0.36543500  1
  Al  Al22  1  0.36685600  0.18226500  0.36604200  1
  Al  Al23  1  0.00081300  0.81622300  0.63395800  1
  Al  Al24  1  0.81623000  0.00076200  0.63456700  1
  Al  Al25  1  0.00481900  0.63448000  0.81328900  1
  Al  Al26  1  0.63343400  0.00048700  0.81367200  1
  Al  Al27  1  0.18509900  0.18522400  0.81830100  1
  Cd  Cd28  1  0.80804900  0.62857800  0.00000000  1
