# generated using pymatgen
data_PmNp
_symmetry_space_group_name_H-M   'P 1'
_cell_length_a   3.36782165
_cell_length_b   3.36782165
_cell_length_c   5.93833200
_cell_angle_alpha   90.00000000
_cell_angle_beta   90.00000000
_cell_angle_gamma   119.99999307
_symmetry_Int_Tables_number   1
_chemical_formula_structural   PmNp
_chemical_formula_sum   'Pm1 Np1'
_cell_volume   58.33017840
_cell_formula_units_Z   1
loop_
 _symmetry_equiv_pos_site_id
 _symmetry_equiv_pos_as_xyz
  1  'x, y, z'
loop_
 _atom_site_type_symbol
 _atom_site_label
 _atom_site_symmetry_multiplicity
 _atom_site_fract_x
 _atom_site_fract_y
 _atom_site_fract_z
 _atom_site_occupancy
  Pm  Pm0  1  0.66666700  0.33333300  0.00000000  1
  Np  Np1  1  0.00000000  0.00000000  0.50000000  1
