# generated using pymatgen
data_Yb3Re
_symmetry_space_group_name_H-M   'P 1'
_cell_length_a   6.75905100
_cell_length_b   6.75905223
_cell_length_c   5.06220300
_cell_angle_alpha   90.00000000
_cell_angle_beta   90.00000000
_cell_angle_gamma   119.99999889
_symmetry_Int_Tables_number   1
_chemical_formula_structural   Yb3Re
_chemical_formula_sum   'Yb6 Re2'
_cell_volume   200.28190754
_cell_formula_units_Z   2
loop_
 _symmetry_equiv_pos_site_id
 _symmetry_equiv_pos_as_xyz
  1  'x, y, z'
loop_
 _atom_site_type_symbol
 _atom_site_label
 _atom_site_symmetry_multiplicity
 _atom_site_fract_x
 _atom_site_fract_y
 _atom_site_fract_z
 _atom_site_occupancy
  Yb  Yb0  1  0.18150500  0.36301100  0.25000000  1
  Yb  Yb1  1  0.63699000  0.81849500  0.25000000  1
  Yb  Yb2  1  0.18150500  0.81849500  0.25000000  1
  Yb  Yb3  1  0.81849500  0.63698900  0.74999900  1
  Yb  Yb4  1  0.36301000  0.18150600  0.74999900  1
  Yb  Yb5  1  0.81849600  0.18150600  0.74999900  1
  Re  Re6  1  0.33333400  0.66666800  0.74999900  1
  Re  Re7  1  0.66666700  0.33333300  0.25000000  1
