# generated using pymatgen
data_Mg2Sc
_symmetry_space_group_name_H-M   'P 1'
_cell_length_a   8.45343521
_cell_length_b   8.45343521
_cell_length_c   5.17871400
_cell_angle_alpha   90.00000000
_cell_angle_beta   90.00000000
_cell_angle_gamma   157.76735609
_symmetry_Int_Tables_number   1
_chemical_formula_structural   Mg2Sc
_chemical_formula_sum   'Mg4 Sc2'
_cell_volume   140.02418467
_cell_formula_units_Z   2
loop_
 _symmetry_equiv_pos_site_id
 _symmetry_equiv_pos_as_xyz
  1  'x, y, z'
loop_
 _atom_site_type_symbol
 _atom_site_label
 _atom_site_symmetry_multiplicity
 _atom_site_fract_x
 _atom_site_fract_y
 _atom_site_fract_z
 _atom_site_occupancy
  Mg  Mg0  1  0.11099800  0.88900200  0.25000000  1
  Mg  Mg1  1  0.77704300  0.22295700  0.25000000  1
  Mg  Mg2  1  0.88900200  0.11099800  0.75000000  1
  Mg  Mg3  1  0.22295700  0.77704300  0.75000000  1
  Sc  Sc4  1  0.44395400  0.55604600  0.25000000  1
  Sc  Sc5  1  0.55604600  0.44395400  0.75000000  1
