# generated using pymatgen
data_Tb3Sm
_symmetry_space_group_name_H-M   'P 1'
_cell_length_a   7.25694772
_cell_length_b   7.25694772
_cell_length_c   5.80986900
_cell_angle_alpha   90.00000000
_cell_angle_beta   90.00000000
_cell_angle_gamma   119.99999746
_symmetry_Int_Tables_number   1
_chemical_formula_structural   Tb3Sm
_chemical_formula_sum   'Tb6 Sm2'
_cell_volume   264.97504331
_cell_formula_units_Z   2
loop_
 _symmetry_equiv_pos_site_id
 _symmetry_equiv_pos_as_xyz
  1  'x, y, z'
loop_
 _atom_site_type_symbol
 _atom_site_label
 _atom_site_symmetry_multiplicity
 _atom_site_fract_x
 _atom_site_fract_y
 _atom_site_fract_z
 _atom_site_occupancy
  Tb  Tb0  1  0.16592400  0.33184700  0.25000000  1
  Tb  Tb1  1  0.66815300  0.83407600  0.25000000  1
  Tb  Tb2  1  0.16592400  0.83407600  0.25000000  1
  Tb  Tb3  1  0.83407600  0.66815300  0.75000000  1
  Tb  Tb4  1  0.33184700  0.16592400  0.75000000  1
  Tb  Tb5  1  0.83407600  0.16592400  0.75000000  1
  Sm  Sm6  1  0.33333300  0.66666700  0.75000000  1
  Sm  Sm7  1  0.66666700  0.33333300  0.25000000  1
