# generated using pymatgen
data_Tl
_symmetry_space_group_name_H-M   'P 1'
_cell_length_a   10.61227183
_cell_length_b   10.61227183
_cell_length_c   10.61227183
_cell_angle_alpha   109.47122063
_cell_angle_beta   109.47122063
_cell_angle_gamma   109.47122063
_symmetry_Int_Tables_number   1
_chemical_formula_structural   Tl
_chemical_formula_sum   Tl29
_cell_volume   920.03258057
_cell_formula_units_Z   29
loop_
 _symmetry_equiv_pos_site_id
 _symmetry_equiv_pos_as_xyz
  1  'x, y, z'
loop_
 _atom_site_type_symbol
 _atom_site_label
 _atom_site_symmetry_multiplicity
 _atom_site_fract_x
 _atom_site_fract_y
 _atom_site_fract_z
 _atom_site_occupancy
  Tl  Tl0  1  0.00000000  0.00000000  0.36342900  1
  Tl  Tl1  1  0.00000000  0.00000000  0.00000000  1
  Tl  Tl2  1  0.00000000  0.31712200  0.59843600  1
  Tl  Tl3  1  0.00000000  0.36342900  0.00000000  1
  Tl  Tl4  1  0.00000000  0.59843600  0.31712200  1
  Tl  Tl5  1  0.00000000  0.62578400  0.80904100  1
  Tl  Tl6  1  0.00000000  0.80904100  0.62578400  1
  Tl  Tl7  1  0.81674300  0.19095900  0.19095900  1
  Tl  Tl8  1  0.80904100  0.00000000  0.62578400  1
  Tl  Tl9  1  0.80904100  0.62578400  0.00000000  1
  Tl  Tl10  1  0.71868600  0.40156400  0.40156400  1
  Tl  Tl11  1  0.68287800  0.68287800  0.28131400  1
  Tl  Tl12  1  0.68287800  0.28131400  0.68287800  1
  Tl  Tl13  1  0.63657100  0.63657100  0.63657100  1
  Tl  Tl14  1  0.62578400  0.80904100  0.00000000  1
  Tl  Tl15  1  0.62578400  0.00000000  0.80904100  1
  Tl  Tl16  1  0.59843600  0.00000000  0.31712200  1
  Tl  Tl17  1  0.59843600  0.31712200  0.00000000  1
  Tl  Tl18  1  0.40156400  0.40156400  0.71868600  1
  Tl  Tl19  1  0.40156400  0.71868600  0.40156400  1
  Tl  Tl20  1  0.37421600  0.37421600  0.18325700  1
  Tl  Tl21  1  0.37421600  0.18325700  0.37421600  1
  Tl  Tl22  1  0.36342900  0.00000000  0.00000000  1
  Tl  Tl23  1  0.31712200  0.59843600  0.00000000  1
  Tl  Tl24  1  0.31712200  0.00000000  0.59843600  1
  Tl  Tl25  1  0.28131400  0.68287800  0.68287800  1
  Tl  Tl26  1  0.19095900  0.19095900  0.81674300  1
  Tl  Tl27  1  0.19095900  0.81674300  0.19095900  1
  Tl  Tl28  1  0.18325700  0.37421600  0.37421600  1
