# generated using pymatgen
data_Cs(SeO3)2
_symmetry_space_group_name_H-M   'P 1'
_cell_length_a   6.05290001
_cell_length_b   6.26750976
_cell_length_c   10.59372895
_cell_angle_alpha   92.10172250
_cell_angle_beta   109.56100276
_cell_angle_gamma   93.46671291
_symmetry_Int_Tables_number   1
_chemical_formula_structural   Cs(SeO3)2
_chemical_formula_sum   'Cs2 Se4 O12'
_cell_volume   377.30951940
_cell_formula_units_Z   2
loop_
 _symmetry_equiv_pos_site_id
 _symmetry_equiv_pos_as_xyz
  1  'x, y, z'
loop_
 _atom_site_type_symbol
 _atom_site_label
 _atom_site_symmetry_multiplicity
 _atom_site_fract_x
 _atom_site_fract_y
 _atom_site_fract_z
 _atom_site_occupancy
  Cs  Cs0  1  0.87382400  0.24564900  0.83482500  1
  Cs  Cs1  1  0.12617600  0.75435100  0.16517500  1
  Se  Se2  1  0.41019100  0.75017800  0.82488300  1
  Se  Se3  1  0.58980900  0.24982200  0.17511700  1
  Se  Se4  1  0.79465200  0.75707600  0.49182400  1
  Se  Se5  1  0.20534800  0.24292400  0.50817600  1
  O  O6  1  0.69578900  0.74341100  0.84734800  1
  O  O7  1  0.30421100  0.25658900  0.15265200  1
  O  O8  1  0.33973300  0.99724700  0.85113600  1
  O  O9  1  0.66026700  0.00275300  0.14886400  1
  O  O10  1  0.30685200  0.55843400  0.89810500  1
  O  O11  1  0.69314800  0.44156600  0.10189500  1
  O  O12  1  0.74975700  0.01086200  0.52251900  1
  O  O13  1  0.25024300  0.98913800  0.47748100  1
  O  O14  1  0.56251900  0.61392300  0.38633500  1
  O  O15  1  0.43748100  0.38607700  0.61366500  1
  O  O16  1  0.95126200  0.63031600  0.62349900  1
  O  O17  1  0.04873800  0.36968400  0.37650100  1
