# generated using pymatgen
data_Cs2IrCl5O
_symmetry_space_group_name_H-M   'P 1'
_cell_length_a   9.66825625
_cell_length_b   9.66825625
_cell_length_c   8.72378800
_cell_angle_alpha   90.00000000
_cell_angle_beta   90.00000000
_cell_angle_gamma   136.33252001
_symmetry_Int_Tables_number   1
_chemical_formula_structural   Cs2IrCl5O
_chemical_formula_sum   'Cs4 Ir2 Cl10 O2'
_cell_volume   563.05063521
_cell_formula_units_Z   2
loop_
 _symmetry_equiv_pos_site_id
 _symmetry_equiv_pos_as_xyz
  1  'x, y, z'
loop_
 _atom_site_type_symbol
 _atom_site_label
 _atom_site_symmetry_multiplicity
 _atom_site_fract_x
 _atom_site_fract_y
 _atom_site_fract_z
 _atom_site_occupancy
  Cs  Cs0  1  0.52825100  0.47174900  0.75000000  1
  Cs  Cs1  1  0.47174900  0.52825100  0.25000000  1
  Cs  Cs2  1  0.24104300  0.75895700  0.75000000  1
  Cs  Cs3  1  0.75895700  0.24104300  0.25000000  1
  Ir  Ir4  1  0.89027800  0.10972200  0.75000000  1
  Ir  Ir5  1  0.10972200  0.89027800  0.25000000  1
  Cl  Cl6  1  0.75591600  0.24408400  0.75000000  1
  Cl  Cl7  1  0.24408400  0.75591600  0.25000000  1
  Cl  Cl8  1  0.65182500  0.88139000  0.55777900  1
  Cl  Cl9  1  0.88139000  0.65182500  0.44222100  1
  Cl  Cl10  1  0.65182500  0.88139000  0.94222100  1
  Cl  Cl11  1  0.88139000  0.65182500  0.05777900  1
  Cl  Cl12  1  0.34817500  0.11861000  0.44222100  1
  Cl  Cl13  1  0.11861000  0.34817500  0.55777900  1
  Cl  Cl14  1  0.34817500  0.11861000  0.05777900  1
  Cl  Cl15  1  0.11861000  0.34817500  0.94222100  1
  O  O16  1  0.99103600  0.00896400  0.75000000  1
  O  O17  1  0.00896400  0.99103600  0.25000000  1
