# generated using pymatgen
data_Al(ClO2)3
_symmetry_space_group_name_H-M   'P 1'
_cell_length_a   7.10879872
_cell_length_b   7.10879872
_cell_length_c   7.10879915
_cell_angle_alpha   104.25225845
_cell_angle_beta   104.25225845
_cell_angle_gamma   104.25226366
_symmetry_Int_Tables_number   1
_chemical_formula_structural   Al(ClO2)3
_chemical_formula_sum   'Al2 Cl6 O12'
_cell_volume   318.96389729
_cell_formula_units_Z   2
loop_
 _symmetry_equiv_pos_site_id
 _symmetry_equiv_pos_as_xyz
  1  'x, y, z'
loop_
 _atom_site_type_symbol
 _atom_site_label
 _atom_site_symmetry_multiplicity
 _atom_site_fract_x
 _atom_site_fract_y
 _atom_site_fract_z
 _atom_site_occupancy
  Al  Al0  1  0.50000000  0.50000000  0.50000000  1
  Al  Al1  1  0.00000000  0.00000000  0.00000000  1
  Cl  Cl2  1  0.25000000  0.04803500  0.45196500  1
  Cl  Cl3  1  0.45196500  0.25000000  0.04803500  1
  Cl  Cl4  1  0.04803500  0.45196500  0.25000000  1
  Cl  Cl5  1  0.75000000  0.95196500  0.54803500  1
  Cl  Cl6  1  0.54803500  0.75000000  0.95196500  1
  Cl  Cl7  1  0.95196500  0.54803500  0.75000000  1
  O  O8  1  0.45523100  0.21469100  0.46736100  1
  O  O9  1  0.46736100  0.45523100  0.21469100  1
  O  O10  1  0.21469100  0.46736100  0.45523100  1
  O  O11  1  0.54476900  0.78530900  0.53263900  1
  O  O12  1  0.53263900  0.54476900  0.78530900  1
  O  O13  1  0.78530900  0.53263900  0.54476900  1
  O  O14  1  0.71469100  0.95523100  0.96736100  1
  O  O15  1  0.95523100  0.96736100  0.71469100  1
  O  O16  1  0.96736100  0.71469100  0.95523100  1
  O  O17  1  0.28530900  0.04476900  0.03263900  1
  O  O18  1  0.04476900  0.03263900  0.28530900  1
  O  O19  1  0.03263900  0.28530900  0.04476900  1
