# generated using pymatgen
data_CdI2O7
_symmetry_space_group_name_H-M   'P 1'
_cell_length_a   7.03575653
_cell_length_b   7.09916341
_cell_length_c   7.91451152
_cell_angle_alpha   110.58450031
_cell_angle_beta   100.97421075
_cell_angle_gamma   62.69721206
_symmetry_Int_Tables_number   1
_chemical_formula_structural   CdI2O7
_chemical_formula_sum   'Cd2 I4 O14'
_cell_volume   328.64551429
_cell_formula_units_Z   2
loop_
 _symmetry_equiv_pos_site_id
 _symmetry_equiv_pos_as_xyz
  1  'x, y, z'
loop_
 _atom_site_type_symbol
 _atom_site_label
 _atom_site_symmetry_multiplicity
 _atom_site_fract_x
 _atom_site_fract_y
 _atom_site_fract_z
 _atom_site_occupancy
  Cd  Cd0  1  0.66483300  0.70475600  0.37697200  1
  Cd  Cd1  1  0.33516700  0.29524400  0.62302800  1
  I  I2  1  0.82992600  0.64833100  0.83720700  1
  I  I3  1  0.17007400  0.35166900  0.16279300  1
  I  I4  1  0.81618100  0.13447200  0.35492400  1
  I  I5  1  0.18381900  0.86552800  0.64507600  1
  O  O6  1  0.12268000  0.49111000  0.87964300  1
  O  O7  1  0.87732000  0.50889000  0.12035700  1
  O  O8  1  0.77101900  0.92309500  0.00251100  1
  O  O9  1  0.22898100  0.07690500  0.99748900  1
  O  O10  1  0.86990400  0.71230800  0.64303500  1
  O  O11  1  0.13009600  0.28769200  0.35696500  1
  O  O12  1  0.90505300  0.23343300  0.59287300  1
  O  O13  1  0.09494700  0.76656700  0.40712700  1
  O  O14  1  0.60837100  0.39954100  0.32530100  1
  O  O15  1  0.39162900  0.60045900  0.67469900  1
  O  O16  1  0.61895500  0.05533100  0.40386400  1
  O  O17  1  0.38104500  0.94466900  0.59613600  1
  O  O18  1  0.40092400  0.74567200  0.13052500  1
  O  O19  1  0.59907600  0.25432800  0.86947500  1
