# generated using pymatgen
data_Dy2SnS5
_symmetry_space_group_name_H-M   'P 1'
_cell_length_a   3.82078000
_cell_length_b   7.74016300
_cell_length_c   11.35797700
_cell_angle_alpha   90.00000000
_cell_angle_beta   90.00000000
_cell_angle_gamma   90.00000000
_symmetry_Int_Tables_number   1
_chemical_formula_structural   Dy2SnS5
_chemical_formula_sum   'Dy4 Sn2 S10'
_cell_volume   335.89467834
_cell_formula_units_Z   2
loop_
 _symmetry_equiv_pos_site_id
 _symmetry_equiv_pos_as_xyz
  1  'x, y, z'
loop_
 _atom_site_type_symbol
 _atom_site_label
 _atom_site_symmetry_multiplicity
 _atom_site_fract_x
 _atom_site_fract_y
 _atom_site_fract_z
 _atom_site_occupancy
  Dy  Dy0  1  0.50000000  0.53229600  0.17222000  1
  Dy  Dy1  1  0.50000000  0.46770400  0.82778000  1
  Dy  Dy2  1  0.50000000  0.96770400  0.67222000  1
  Dy  Dy3  1  0.50000000  0.03229600  0.32778000  1
  Sn  Sn4  1  0.00000000  0.50000000  0.50000000  1
  Sn  Sn5  1  0.00000000  0.00000000  0.00000000  1
  S  S6  1  0.00000000  0.00000000  0.50000000  1
  S  S7  1  0.00000000  0.50000000  0.00000000  1
  S  S8  1  0.00000000  0.82484100  0.19606200  1
  S  S9  1  0.00000000  0.17515900  0.80393800  1
  S  S10  1  0.00000000  0.67515900  0.69606200  1
  S  S11  1  0.00000000  0.32484100  0.30393800  1
  S  S12  1  0.50000000  0.67158400  0.40229100  1
  S  S13  1  0.50000000  0.32841600  0.59770900  1
  S  S14  1  0.50000000  0.82841600  0.90229100  1
  S  S15  1  0.50000000  0.17158400  0.09770900  1
