# generated using pymatgen
data_U3Se5
_symmetry_space_group_name_H-M   'P 1'
_cell_length_a   8.33848078
_cell_length_b   8.33848078
_cell_length_c   8.33848078
_cell_angle_alpha   96.96354553
_cell_angle_beta   96.96354553
_cell_angle_gamma   139.24643596
_symmetry_Int_Tables_number   1
_chemical_formula_structural   U3Se5
_chemical_formula_sum   'U6 Se10'
_cell_volume   354.79802795
_cell_formula_units_Z   2
loop_
 _symmetry_equiv_pos_site_id
 _symmetry_equiv_pos_as_xyz
  1  'x, y, z'
loop_
 _atom_site_type_symbol
 _atom_site_label
 _atom_site_symmetry_multiplicity
 _atom_site_fract_x
 _atom_site_fract_y
 _atom_site_fract_z
 _atom_site_occupancy
  U  U0  1  0.66126600  0.16126600  0.82253200  1
  U  U1  1  0.33873400  0.83873400  0.17746800  1
  U  U2  1  0.83873400  0.66126600  0.50000000  1
  U  U3  1  0.16126600  0.33873400  0.50000000  1
  U  U4  1  0.75000000  0.75000000  0.00000000  1
  U  U5  1  0.25000000  0.25000000  0.00000000  1
  Se  Se6  1  0.22143900  0.08026200  0.30170200  1
  Se  Se7  1  0.77856100  0.91973800  0.69829800  1
  Se  Se8  1  0.27856100  0.58026200  0.85882300  1
  Se  Se9  1  0.72143900  0.41973800  0.14117700  1
  Se  Se10  1  0.08026200  0.77856100  0.85882300  1
  Se  Se11  1  0.91973800  0.22143900  0.14117700  1
  Se  Se12  1  0.58026200  0.72143900  0.30170200  1
  Se  Se13  1  0.41973800  0.27856100  0.69829800  1
  Se  Se14  1  0.25000000  0.75000000  0.50000000  1
  Se  Se15  1  0.75000000  0.25000000  0.50000000  1
