# generated using pymatgen
data_Cu(SbO3)2
_symmetry_space_group_name_H-M   'P 1'
_cell_length_a   4.74576104
_cell_length_b   4.69671500
_cell_length_c   9.38205375
_cell_angle_alpha   90.00000000
_cell_angle_beta   90.97554544
_cell_angle_gamma   90.00000000
_symmetry_Int_Tables_number   1
_chemical_formula_structural   Cu(SbO3)2
_chemical_formula_sum   'Cu2 Sb4 O12'
_cell_volume   209.09085410
_cell_formula_units_Z   2
loop_
 _symmetry_equiv_pos_site_id
 _symmetry_equiv_pos_as_xyz
  1  'x, y, z'
loop_
 _atom_site_type_symbol
 _atom_site_label
 _atom_site_symmetry_multiplicity
 _atom_site_fract_x
 _atom_site_fract_y
 _atom_site_fract_z
 _atom_site_occupancy
  Cu  Cu0  1  0.50000000  0.50000000  0.50000000  1
  Cu  Cu1  1  0.00000000  0.00000000  0.00000000  1
  Sb  Sb2  1  0.50020300  0.50943400  0.16799200  1
  Sb  Sb3  1  0.00020300  0.99056600  0.66799200  1
  Sb  Sb4  1  0.49979700  0.49056600  0.83200800  1
  Sb  Sb5  1  0.99979700  0.00943400  0.33200800  1
  O  O6  1  0.68562600  0.69478000  0.66918400  1
  O  O7  1  0.18562600  0.80522000  0.16918400  1
  O  O8  1  0.31437400  0.30522000  0.33081600  1
  O  O9  1  0.81437400  0.19478000  0.83081600  1
  O  O10  1  0.18375500  0.77552600  0.82647100  1
  O  O11  1  0.68375500  0.72447400  0.32647100  1
  O  O12  1  0.81624500  0.22447400  0.17352900  1
  O  O13  1  0.31624500  0.27552600  0.67352900  1
  O  O14  1  0.18105200  0.79977000  0.49811800  1
  O  O15  1  0.68105200  0.70023000  0.99811800  1
  O  O16  1  0.81894800  0.20023000  0.50188200  1
  O  O17  1  0.31894800  0.29977000  0.00188200  1
