# generated using pymatgen
data_Pr7Ir3
_symmetry_space_group_name_H-M   'P 1'
_cell_length_a   10.24813093
_cell_length_b   10.24813093
_cell_length_c   6.41630400
_cell_angle_alpha   90.00000000
_cell_angle_beta   90.00000000
_cell_angle_gamma   120.00000603
_symmetry_Int_Tables_number   1
_chemical_formula_structural   Pr7Ir3
_chemical_formula_sum   'Pr14 Ir6'
_cell_volume   583.58600514
_cell_formula_units_Z   2
loop_
 _symmetry_equiv_pos_site_id
 _symmetry_equiv_pos_as_xyz
  1  'x, y, z'
loop_
 _atom_site_type_symbol
 _atom_site_label
 _atom_site_symmetry_multiplicity
 _atom_site_fract_x
 _atom_site_fract_y
 _atom_site_fract_z
 _atom_site_occupancy
  Pr  Pr0  1  0.33333300  0.66666700  0.46810700  1
  Pr  Pr1  1  0.66666700  0.33333300  0.96810700  1
  Pr  Pr2  1  0.12528800  0.87471200  0.25394900  1
  Pr  Pr3  1  0.74942500  0.87471200  0.25394900  1
  Pr  Pr4  1  0.12528800  0.25057500  0.25394900  1
  Pr  Pr5  1  0.87471200  0.12528800  0.75394900  1
  Pr  Pr6  1  0.25057500  0.12528800  0.75394900  1
  Pr  Pr7  1  0.87471200  0.74942500  0.75394900  1
  Pr  Pr8  1  0.54087700  0.45912300  0.44188600  1
  Pr  Pr9  1  0.91824600  0.45912300  0.44188600  1
  Pr  Pr10  1  0.54087700  0.08175400  0.44188600  1
  Pr  Pr11  1  0.45912300  0.54087700  0.94188600  1
  Pr  Pr12  1  0.08175400  0.54087700  0.94188600  1
  Pr  Pr13  1  0.45912300  0.91824600  0.94188600  1
  Ir  Ir14  1  0.81106200  0.18893800  0.18181100  1
  Ir  Ir15  1  0.37787600  0.18893800  0.18181100  1
  Ir  Ir16  1  0.81106200  0.62212400  0.18181100  1
  Ir  Ir17  1  0.18893800  0.81106200  0.68181100  1
  Ir  Ir18  1  0.62212400  0.81106200  0.68181100  1
  Ir  Ir19  1  0.18893800  0.37787600  0.68181100  1
