# generated using pymatgen
data_Dy2CuTe2(SO7)2
_symmetry_space_group_name_H-M   'P 1'
_cell_length_a   5.20636610
_cell_length_b   7.97375068
_cell_length_c   8.22051016
_cell_angle_alpha   62.05746519
_cell_angle_beta   74.26156158
_cell_angle_gamma   85.23229126
_symmetry_Int_Tables_number   1
_chemical_formula_structural   Dy2CuTe2(SO7)2
_chemical_formula_sum   'Dy2 Cu1 Te2 S2 O14'
_cell_volume   289.79157676
_cell_formula_units_Z   1
loop_
 _symmetry_equiv_pos_site_id
 _symmetry_equiv_pos_as_xyz
  1  'x, y, z'
loop_
 _atom_site_type_symbol
 _atom_site_label
 _atom_site_symmetry_multiplicity
 _atom_site_fract_x
 _atom_site_fract_y
 _atom_site_fract_z
 _atom_site_occupancy
  Dy  Dy0  1  0.92938400  0.74841200  0.98217600  1
  Dy  Dy1  1  0.07061600  0.25158800  0.01782400  1
  Cu  Cu2  1  0.00000000  0.00000000  0.50000000  1
  Te  Te3  1  0.49050000  0.72852900  0.65456500  1
  Te  Te4  1  0.50950000  0.27147100  0.34543500  1
  S  S5  1  0.25516600  0.74695900  0.25126500  1
  S  S6  1  0.74483400  0.25304100  0.74873500  1
  O  O7  1  0.14468700  0.58630900  0.24086500  1
  O  O8  1  0.85531300  0.41369100  0.75913500  1
  O  O9  1  0.14199100  0.74559100  0.43582500  1
  O  O10  1  0.85800900  0.25440900  0.56417500  1
  O  O11  1  0.55066000  0.73866600  0.21470900  1
  O  O12  1  0.44934000  0.26133400  0.78529100  1
  O  O13  1  0.17591900  0.92141300  0.09279900  1
  O  O14  1  0.82408100  0.07858700  0.90720100  1
  O  O15  1  0.25041800  0.56041000  0.89043500  1
  O  O16  1  0.74958300  0.43959000  0.10956500  1
  O  O17  1  0.73095000  0.81228900  0.74503000  1
  O  O18  1  0.26905000  0.18771100  0.25497000  1
  O  O19  1  0.25069600  0.92796100  0.65845300  1
  O  O20  1  0.74930400  0.07203900  0.34154700  1
