# generated using pymatgen
data_MgO
_symmetry_space_group_name_H-M   'P 1'
_cell_length_a   9.66811954
_cell_length_b   9.66811954
_cell_length_c   4.18840900
_cell_angle_alpha   90.00000000
_cell_angle_beta   90.00000000
_cell_angle_gamma   119.99999688
_symmetry_Int_Tables_number   1
_chemical_formula_structural   MgO
_chemical_formula_sum   'Mg12 O12'
_cell_volume   339.05000327
_cell_formula_units_Z   12
loop_
 _symmetry_equiv_pos_site_id
 _symmetry_equiv_pos_as_xyz
  1  'x, y, z'
loop_
 _atom_site_type_symbol
 _atom_site_label
 _atom_site_symmetry_multiplicity
 _atom_site_fract_x
 _atom_site_fract_y
 _atom_site_fract_z
 _atom_site_occupancy
  Mg  Mg0  1  0.12243100  0.66839800  0.00000000  1
  Mg  Mg1  1  0.33160200  0.45403300  0.00000000  1
  Mg  Mg2  1  0.54596700  0.87756900  0.00000000  1
  Mg  Mg3  1  0.66839800  0.12243100  0.50000000  1
  Mg  Mg4  1  0.45403300  0.33160200  0.50000000  1
  Mg  Mg5  1  0.87756900  0.54596700  0.50000000  1
  Mg  Mg6  1  0.87756900  0.33160200  0.00000000  1
  Mg  Mg7  1  0.66839800  0.54596700  0.00000000  1
  Mg  Mg8  1  0.45403300  0.12243100  0.00000000  1
  Mg  Mg9  1  0.33160200  0.87756900  0.50000000  1
  Mg  Mg10  1  0.54596700  0.66839800  0.50000000  1
  Mg  Mg11  1  0.12243100  0.45403300  0.50000000  1
  O  O12  1  0.12248800  0.67114900  0.50000000  1
  O  O13  1  0.32885100  0.45133800  0.50000000  1
  O  O14  1  0.54866200  0.87751200  0.50000000  1
  O  O15  1  0.67114900  0.12248800  0.00000000  1
  O  O16  1  0.45133800  0.32885100  0.00000000  1
  O  O17  1  0.87751200  0.54866200  0.00000000  1
  O  O18  1  0.87751200  0.32885100  0.50000000  1
  O  O19  1  0.67114900  0.54866200  0.50000000  1
  O  O20  1  0.45133800  0.12248800  0.50000000  1
  O  O21  1  0.32885100  0.87751200  0.00000000  1
  O  O22  1  0.54866200  0.67114900  0.00000000  1
  O  O23  1  0.12248800  0.45133800  0.00000000  1
