# generated using pymatgen
data_PrVO4
_symmetry_space_group_name_H-M   'P 1'
_cell_length_a   7.29980300
_cell_length_b   6.74607300
_cell_length_c   8.38638457
_cell_angle_alpha   54.78959078
_cell_angle_beta   90.00000000
_cell_angle_gamma   90.00000000
_symmetry_Int_Tables_number   1
_chemical_formula_structural   PrVO4
_chemical_formula_sum   'Pr4 V4 O16'
_cell_volume   337.42740707
_cell_formula_units_Z   4
loop_
 _symmetry_equiv_pos_site_id
 _symmetry_equiv_pos_as_xyz
  1  'x, y, z'
loop_
 _atom_site_type_symbol
 _atom_site_label
 _atom_site_symmetry_multiplicity
 _atom_site_fract_x
 _atom_site_fract_y
 _atom_site_fract_z
 _atom_site_occupancy
  Pr  Pr0  1  0.34561100  0.81624500  0.78136200  1
  Pr  Pr1  1  0.15438900  0.81624500  0.28136200  1
  Pr  Pr2  1  0.65438900  0.18375500  0.21863800  1
  Pr  Pr3  1  0.84561100  0.18375500  0.71863800  1
  V  V4  1  0.33486800  0.30866600  0.80342200  1
  V  V5  1  0.16513200  0.30866600  0.30342200  1
  V  V6  1  0.66513200  0.69133400  0.19657800  1
  V  V7  1  0.83486800  0.69133400  0.69657800  1
  O  O8  1  0.50410200  0.17025400  0.75103300  1
  O  O9  1  0.99589800  0.17025400  0.25103300  1
  O  O10  1  0.49589800  0.82974600  0.24896700  1
  O  O11  1  0.00410200  0.82974600  0.74896700  1
  O  O12  1  0.15335200  0.10460200  0.89182000  1
  O  O13  1  0.34664800  0.10460200  0.39182000  1
  O  O14  1  0.84664800  0.89539800  0.10818000  1
  O  O15  1  0.65335200  0.89539800  0.60818000  1
  O  O16  1  0.39427600  0.34555400  0.98506800  1
  O  O17  1  0.10572400  0.34555400  0.48506800  1
  O  O18  1  0.60572400  0.65444600  0.01493200  1
  O  O19  1  0.89427600  0.65444600  0.51493200  1
  O  O20  1  0.27933700  0.60810000  0.61944500  1
  O  O21  1  0.22066300  0.60810000  0.11944500  1
  O  O22  1  0.72066300  0.39190000  0.38055500  1
  O  O23  1  0.77933700  0.39190000  0.88055500  1
