# generated using pymatgen
data_ZrOF4
_symmetry_space_group_name_H-M   'P 1'
_cell_length_a   8.09134770
_cell_length_b   8.09134770
_cell_length_c   8.09134770
_cell_angle_alpha   119.26688470
_cell_angle_beta   119.26688470
_cell_angle_gamma   91.27455356
_symmetry_Int_Tables_number   1
_chemical_formula_structural   ZrOF4
_chemical_formula_sum   'Zr4 O4 F16'
_cell_volume   378.63196193
_cell_formula_units_Z   4
loop_
 _symmetry_equiv_pos_site_id
 _symmetry_equiv_pos_as_xyz
  1  'x, y, z'
loop_
 _atom_site_type_symbol
 _atom_site_label
 _atom_site_symmetry_multiplicity
 _atom_site_fract_x
 _atom_site_fract_y
 _atom_site_fract_z
 _atom_site_occupancy
  Zr  Zr0  1  0.87500000  0.26678700  0.89178700  1
  Zr  Zr1  1  0.37500000  0.98321300  0.10821300  1
  Zr  Zr2  1  0.01678700  0.12500000  0.39178700  1
  Zr  Zr3  1  0.73321300  0.62500000  0.60821300  1
  O  O4  1  0.15063600  0.15063600  0.00000000  1
  O  O5  1  0.59936400  0.09936400  0.50000000  1
  O  O6  1  0.84936400  0.84936400  0.00000000  1
  O  O7  1  0.90063600  0.40063600  0.50000000  1
  F  F8  1  0.11473700  0.50109000  0.16401700  1
  F  F9  1  0.63526300  0.29928000  0.88635300  1
  F  F10  1  0.33707300  0.95072000  0.83598300  1
  F  F11  1  0.41292700  0.74891000  0.11364700  1
  F  F12  1  0.04928000  0.88526300  0.38635300  1
  F  F13  1  0.70072000  0.58707300  0.33598300  1
  F  F14  1  0.49891000  0.66292700  0.61364700  1
  F  F15  1  0.25109000  0.36473700  0.66401700  1
  F  F16  1  0.81459400  0.47505300  0.78342700  1
  F  F17  1  0.93540600  0.21883300  0.16045900  1
  F  F18  1  0.69162600  0.03116700  0.21657300  1
  F  F19  1  0.05837400  0.77494700  0.83954100  1
  F  F20  1  0.96883300  0.18540600  0.66045900  1
  F  F21  1  0.78116700  0.94162600  0.71657300  1
  F  F22  1  0.52494700  0.30837400  0.33954100  1
  F  F23  1  0.22505300  0.06459400  0.28342700  1
