# generated using pymatgen
data_US2O9
_symmetry_space_group_name_H-M   'P 1'
_cell_length_a   6.65552400
_cell_length_b   6.97716532
_cell_length_c   8.17966875
_cell_angle_alpha   87.30158433
_cell_angle_beta   80.18274979
_cell_angle_gamma   74.95896116
_symmetry_Int_Tables_number   1
_chemical_formula_structural   US2O9
_chemical_formula_sum   'U2 S4 O18'
_cell_volume   361.45047832
_cell_formula_units_Z   2
loop_
 _symmetry_equiv_pos_site_id
 _symmetry_equiv_pos_as_xyz
  1  'x, y, z'
loop_
 _atom_site_type_symbol
 _atom_site_label
 _atom_site_symmetry_multiplicity
 _atom_site_fract_x
 _atom_site_fract_y
 _atom_site_fract_z
 _atom_site_occupancy
  U  U0  1  0.79491800  0.80180300  0.74786500  1
  U  U1  1  0.20508200  0.19819700  0.25213500  1
  S  S2  1  0.98387700  0.25094800  0.85015200  1
  S  S3  1  0.01612300  0.74905200  0.14984800  1
  S  S4  1  0.39152400  0.25703500  0.64511200  1
  S  S5  1  0.60847600  0.74296500  0.35488800  1
  O  O6  1  0.56053300  0.80641900  0.89096300  1
  O  O7  1  0.43946700  0.19358100  0.10903700  1
  O  O8  1  0.02930800  0.79294700  0.60222600  1
  O  O9  1  0.97069200  0.20705300  0.39777400  1
  O  O10  1  0.89896800  0.43615900  0.76639400  1
  O  O11  1  0.10103200  0.56384100  0.23360600  1
  O  O12  1  0.02390200  0.28339700  0.01544000  1
  O  O13  1  0.97609800  0.71660300  0.98456000  1
  O  O14  1  0.86410800  0.10386600  0.85083900  1
  O  O15  1  0.13589200  0.89613400  0.14916100  1
  O  O16  1  0.20699900  0.14109700  0.73951900  1
  O  O17  1  0.79300100  0.85890300  0.26048100  1
  O  O18  1  0.38571500  0.41730300  0.74907800  1
  O  O19  1  0.61428500  0.58269700  0.25092200  1
  O  O20  1  0.33043500  0.31157300  0.48150800  1
  O  O21  1  0.66956500  0.68842700  0.51849200  1
  O  O22  1  0.57981400  0.08987900  0.63019800  1
  O  O23  1  0.42018600  0.91012100  0.36980200  1
