# generated using pymatgen
data_YP(H2O3)2
_symmetry_space_group_name_H-M   'P 1'
_cell_length_a   5.61216706
_cell_length_b   6.24916776
_cell_length_c   8.14704934
_cell_angle_alpha   67.44789974
_cell_angle_beta   80.54410009
_cell_angle_gamma   64.63608535
_symmetry_Int_Tables_number   1
_chemical_formula_structural   YP(H2O3)2
_chemical_formula_sum   'Y2 P2 H8 O12'
_cell_volume   238.44236896
_cell_formula_units_Z   2
loop_
 _symmetry_equiv_pos_site_id
 _symmetry_equiv_pos_as_xyz
  1  'x, y, z'
loop_
 _atom_site_type_symbol
 _atom_site_label
 _atom_site_symmetry_multiplicity
 _atom_site_fract_x
 _atom_site_fract_y
 _atom_site_fract_z
 _atom_site_occupancy
  Y  Y0  1  0.25000000  0.17196300  0.65607300  1
  Y  Y1  1  0.75000000  0.82803700  0.34392700  1
  P  P2  1  0.25000000  0.66767400  0.66465300  1
  P  P3  1  0.75000000  0.33232600  0.33534700  1
  H  H4  1  0.74508100  0.32065200  0.83223400  1
  H  H5  1  0.75491900  0.84711400  0.83223400  1
  H  H6  1  0.25491900  0.67934800  0.16776600  1
  H  H7  1  0.24508100  0.15288600  0.16776600  1
  H  H8  1  0.92703000  0.24245800  0.99523100  1
  H  H9  1  0.57297000  0.76231100  0.99523100  1
  H  H10  1  0.07297000  0.75754200  0.00476900  1
  H  H11  1  0.42703000  0.23768900  0.00476900  1
  O  O12  1  0.07774700  0.83222100  0.77736300  1
  O  O13  1  0.42225300  0.39041700  0.77736300  1
  O  O14  1  0.92225300  0.16777900  0.22263700  1
  O  O15  1  0.57774700  0.60958300  0.22263700  1
  O  O16  1  0.41757500  0.81472300  0.54712500  1
  O  O17  1  0.08242500  0.63815200  0.54712500  1
  O  O18  1  0.58242500  0.18527700  0.45287500  1
  O  O19  1  0.91757500  0.36184800  0.45287500  1
  O  O20  1  0.92738300  0.27668300  0.86557000  1
  O  O21  1  0.57261700  0.85774800  0.86557000  1
  O  O22  1  0.07261700  0.72331700  0.13443000  1
  O  O23  1  0.42738300  0.14225200  0.13443000  1
