# generated using pymatgen
data_HfMn
_symmetry_space_group_name_H-M   'P 1'
_cell_length_a   8.22188127
_cell_length_b   8.22188127
_cell_length_c   8.22188127
_cell_angle_alpha   60.00000000
_cell_angle_beta   60.00000000
_cell_angle_gamma   60.00000000
_symmetry_Int_Tables_number   1
_chemical_formula_structural   HfMn
_chemical_formula_sum   'Hf12 Mn12'
_cell_volume   393.00547898
_cell_formula_units_Z   12
loop_
 _symmetry_equiv_pos_site_id
 _symmetry_equiv_pos_as_xyz
  1  'x, y, z'
loop_
 _atom_site_type_symbol
 _atom_site_label
 _atom_site_symmetry_multiplicity
 _atom_site_fract_x
 _atom_site_fract_y
 _atom_site_fract_z
 _atom_site_occupancy
  Hf  Hf0  1  0.42725600  0.82274400  0.82274400  1
  Hf  Hf1  1  0.82274400  0.42725600  0.42725600  1
  Hf  Hf2  1  0.82274400  0.42725600  0.82274400  1
  Hf  Hf3  1  0.42725600  0.82274400  0.42725600  1
  Hf  Hf4  1  0.82274400  0.82274400  0.42725600  1
  Hf  Hf5  1  0.42725600  0.42725600  0.82274400  1
  Hf  Hf6  1  0.57274400  0.17725600  0.17725600  1
  Hf  Hf7  1  0.17725600  0.57274400  0.57274400  1
  Hf  Hf8  1  0.17725600  0.57274400  0.17725600  1
  Hf  Hf9  1  0.57274400  0.17725600  0.57274400  1
  Hf  Hf10  1  0.17725600  0.17725600  0.57274400  1
  Hf  Hf11  1  0.57274400  0.57274400  0.17725600  1
  Mn  Mn12  1  0.00000000  0.00000000  0.50000000  1
  Mn  Mn13  1  0.00000000  0.50000000  0.00000000  1
  Mn  Mn14  1  0.50000000  0.00000000  0.00000000  1
  Mn  Mn15  1  0.00000000  0.00000000  0.00000000  1
  Mn  Mn16  1  0.20221200  0.20221200  0.89336300  1
  Mn  Mn17  1  0.20221200  0.89336300  0.20221200  1
  Mn  Mn18  1  0.89336300  0.20221200  0.20221200  1
  Mn  Mn19  1  0.20221200  0.20221200  0.20221200  1
  Mn  Mn20  1  0.79778800  0.79778800  0.10663700  1
  Mn  Mn21  1  0.79778800  0.10663700  0.79778800  1
  Mn  Mn22  1  0.10663700  0.79778800  0.79778800  1
  Mn  Mn23  1  0.79778800  0.79778800  0.79778800  1
