# generated using pymatgen
data_BiPO4
_symmetry_space_group_name_H-M   'P 1'
_cell_length_a   7.02960000
_cell_length_b   6.53979300
_cell_length_c   8.23825050
_cell_angle_alpha   53.87696429
_cell_angle_beta   90.00000000
_cell_angle_gamma   90.00000000
_symmetry_Int_Tables_number   1
_chemical_formula_structural   BiPO4
_chemical_formula_sum   'Bi4 P4 O16'
_cell_volume   305.92019839
_cell_formula_units_Z   4
loop_
 _symmetry_equiv_pos_site_id
 _symmetry_equiv_pos_as_xyz
  1  'x, y, z'
loop_
 _atom_site_type_symbol
 _atom_site_label
 _atom_site_symmetry_multiplicity
 _atom_site_fract_x
 _atom_site_fract_y
 _atom_site_fract_z
 _atom_site_occupancy
  Bi  Bi0  1  0.35690600  0.79906800  0.78607700  1
  Bi  Bi1  1  0.14309400  0.79906800  0.28607700  1
  Bi  Bi2  1  0.64309400  0.20093200  0.21392300  1
  Bi  Bi3  1  0.85690600  0.20093200  0.71392300  1
  P  P4  1  0.33972100  0.31382800  0.79783000  1
  P  P5  1  0.16027900  0.31382800  0.29783000  1
  P  P6  1  0.66027900  0.68617200  0.20217000  1
  P  P7  1  0.83972100  0.68617200  0.70217000  1
  O  O8  1  0.49548500  0.17964300  0.76055700  1
  O  O9  1  0.00451500  0.17964300  0.26055700  1
  O  O10  1  0.50451500  0.82035700  0.23944300  1
  O  O11  1  0.99548500  0.82035700  0.73944300  1
  O  O12  1  0.16071400  0.13947400  0.87817600  1
  O  O13  1  0.33928600  0.13947400  0.37817600  1
  O  O14  1  0.83928600  0.86052600  0.12182400  1
  O  O15  1  0.66071400  0.86052600  0.62182400  1
  O  O16  1  0.40160500  0.35719800  0.95987600  1
  O  O17  1  0.09839500  0.35719800  0.45987600  1
  O  O18  1  0.59839500  0.64280200  0.04012400  1
  O  O19  1  0.90160500  0.64280200  0.54012400  1
  O  O20  1  0.29755800  0.59059000  0.61595900  1
  O  O21  1  0.20244200  0.59059000  0.11595900  1
  O  O22  1  0.70244200  0.40941000  0.38404100  1
  O  O23  1  0.79755800  0.40941000  0.88404100  1
