# generated using pymatgen
data_Hg2SN2Cl4O3
_symmetry_space_group_name_H-M   'P 1'
_cell_length_a   6.70593900
_cell_length_b   10.40152400
_cell_length_c   10.96696000
_cell_angle_alpha   79.70365717
_cell_angle_beta   90.00000000
_cell_angle_gamma   90.00000000
_symmetry_Int_Tables_number   1
_chemical_formula_structural   Hg2SN2Cl4O3
_chemical_formula_sum   'Hg4 S2 N4 Cl8 O6'
_cell_volume   752.64854547
_cell_formula_units_Z   2
loop_
 _symmetry_equiv_pos_site_id
 _symmetry_equiv_pos_as_xyz
  1  'x, y, z'
loop_
 _atom_site_type_symbol
 _atom_site_label
 _atom_site_symmetry_multiplicity
 _atom_site_fract_x
 _atom_site_fract_y
 _atom_site_fract_z
 _atom_site_occupancy
  Hg  Hg0  1  0.25000000  0.60132100  0.51055100  1
  Hg  Hg1  1  0.75000000  0.39867900  0.48944900  1
  Hg  Hg2  1  0.25000000  0.14265300  0.52308100  1
  Hg  Hg3  1  0.75000000  0.85734700  0.47691900  1
  S  S4  1  0.25000000  0.70104600  0.07825300  1
  S  S5  1  0.75000000  0.29895400  0.92174700  1
  N  N6  1  0.25000000  0.64121100  0.81648500  1
  N  N7  1  0.75000000  0.35878900  0.18351500  1
  N  N8  1  0.25000000  0.14900300  0.07057700  1
  N  N9  1  0.75000000  0.85099700  0.92942300  1
  Cl  Cl10  1  0.25000000  0.41324400  0.65667300  1
  Cl  Cl11  1  0.75000000  0.58675600  0.34332700  1
  Cl  Cl12  1  0.25000000  0.30170000  0.34647900  1
  Cl  Cl13  1  0.75000000  0.69830000  0.65352100  1
  Cl  Cl14  1  0.25000000  0.79123000  0.36637500  1
  Cl  Cl15  1  0.75000000  0.20877000  0.63362500  1
  Cl  Cl16  1  0.25000000  0.97910700  0.69428000  1
  Cl  Cl17  1  0.75000000  0.02089300  0.30572000  1
  O  O18  1  0.06475000  0.63095300  0.09270800  1
  O  O19  1  0.56475000  0.36904700  0.90729200  1
  O  O20  1  0.93525000  0.36904700  0.90729200  1
  O  O21  1  0.43525000  0.63095300  0.09270800  1
  O  O22  1  0.25000000  0.84093500  0.05153700  1
  O  O23  1  0.75000000  0.15906500  0.94846300  1
