# generated using pymatgen
data_Ho2ZnTe2(SO7)2
_symmetry_space_group_name_H-M   'P 1'
_cell_length_a   5.28201908
_cell_length_b   7.89648326
_cell_length_c   8.15476128
_cell_angle_alpha   63.94117654
_cell_angle_beta   73.37697631
_cell_angle_gamma   85.28893487
_symmetry_Int_Tables_number   1
_chemical_formula_structural   Ho2ZnTe2(SO7)2
_chemical_formula_sum   'Ho2 Zn1 Te2 S2 O14'
_cell_volume   292.40902984
_cell_formula_units_Z   1
loop_
 _symmetry_equiv_pos_site_id
 _symmetry_equiv_pos_as_xyz
  1  'x, y, z'
loop_
 _atom_site_type_symbol
 _atom_site_label
 _atom_site_symmetry_multiplicity
 _atom_site_fract_x
 _atom_site_fract_y
 _atom_site_fract_z
 _atom_site_occupancy
  Ho  Ho0  1  0.91931500  0.74671400  0.98420900  1
  Ho  Ho1  1  0.08068500  0.25328600  0.01579100  1
  Zn  Zn2  1  0.00000000  0.00000000  0.50000000  1
  Te  Te3  1  0.48461100  0.72676200  0.66294600  1
  Te  Te4  1  0.51538900  0.27323800  0.33705400  1
  S  S5  1  0.24045800  0.75416000  0.24936200  1
  S  S6  1  0.75954200  0.24584000  0.75063800  1
  O  O7  1  0.11130200  0.59272500  0.25089300  1
  O  O8  1  0.88869800  0.40727500  0.74910700  1
  O  O9  1  0.13208400  0.76846800  0.43143800  1
  O  O10  1  0.86791600  0.23153200  0.56856200  1
  O  O11  1  0.53036600  0.73257100  0.21604000  1
  O  O12  1  0.46963400  0.26742900  0.78396000  1
  O  O13  1  0.17772000  0.92521100  0.08796200  1
  O  O14  1  0.82228000  0.07478900  0.91203800  1
  O  O15  1  0.24658800  0.56017600  0.89569300  1
  O  O16  1  0.75341200  0.43982400  0.10430700  1
  O  O17  1  0.72398200  0.80520900  0.75426300  1
  O  O18  1  0.27601800  0.19479100  0.24573700  1
  O  O19  1  0.24857300  0.92375800  0.66862600  1
  O  O20  1  0.75142700  0.07624200  0.33137400  1
