data_image0
_chemical_formula_structural       Ba2Ge2Ni4
_chemical_formula_sum              "Ba2 Ge2 Ni4"
_cell_length_a       6.7172
_cell_length_b       4.1566
_cell_length_c       6.02303
_cell_angle_alpha    90
_cell_angle_beta     90
_cell_angle_gamma    90

_space_group_name_H-M_alt    "P 1"
_space_group_IT_number       1

loop_
  _space_group_symop_operation_xyz
  'x, y, z'

loop_
  _atom_site_type_symbol
  _atom_site_label
  _atom_site_symmetry_multiplicity
  _atom_site_fract_x
  _atom_site_fract_y
  _atom_site_fract_z
  _atom_site_occupancy
  Ba  Ba1       1.0  0.75000  0.25000  0.38100  1.0000
  Ba  Ba2       1.0  0.25000  0.75000  0.61900  1.0000
  Ge  Ge1       1.0  0.25000  0.25000  0.10600  1.0000
  Ge  Ge2       1.0  0.75000  0.75000  0.89400  1.0000
  Ni  Ni1       1.0  0.06420  0.75000  0.09490  1.0000
  Ni  Ni2       1.0  0.43600  0.75000  0.09490  1.0000
  Ni  Ni3       1.0  0.56400  0.25000  0.90500  1.0000
  Ni  Ni4       1.0  0.93600  0.25000  0.90500  1.0000
