# generated using pymatgen
data_TiCu(O2F3)2
_symmetry_space_group_name_H-M   'P 1'
_cell_length_a   8.67299800
_cell_length_b   5.27157400
_cell_length_c   7.04376711
_cell_angle_alpha   83.15762136
_cell_angle_beta   90.00000000
_cell_angle_gamma   90.00000000
_symmetry_Int_Tables_number   1
_chemical_formula_structural   TiCu(O2F3)2
_chemical_formula_sum   'Ti2 Cu2 O8 F12'
_cell_volume   319.74979935
_cell_formula_units_Z   2
loop_
 _symmetry_equiv_pos_site_id
 _symmetry_equiv_pos_as_xyz
  1  'x, y, z'
loop_
 _atom_site_type_symbol
 _atom_site_label
 _atom_site_symmetry_multiplicity
 _atom_site_fract_x
 _atom_site_fract_y
 _atom_site_fract_z
 _atom_site_occupancy
  Ti  Ti0  1  0.00000000  0.50000000  0.50000000  1
  Ti  Ti1  1  0.50000000  0.50000000  0.00000000  1
  Cu  Cu2  1  0.00000000  0.00000000  0.00000000  1
  Cu  Cu3  1  0.50000000  0.00000000  0.50000000  1
  O  O4  1  0.37880700  0.75279700  0.42371100  1
  O  O5  1  0.87880700  0.24720300  0.07628900  1
  O  O6  1  0.62119300  0.24720300  0.57628900  1
  O  O7  1  0.12119300  0.75279700  0.92371100  1
  O  O8  1  0.66520000  0.87683900  0.38808900  1
  O  O9  1  0.16520000  0.12316100  0.11191100  1
  O  O10  1  0.33480000  0.12316100  0.61191100  1
  O  O11  1  0.83480000  0.87683900  0.88808900  1
  F  F12  1  0.95791500  0.71687200  0.27677200  1
  F  F13  1  0.45791500  0.28312800  0.22322800  1
  F  F14  1  0.04208500  0.28312800  0.72322800  1
  F  F15  1  0.54208500  0.71687200  0.77677200  1
  F  F16  1  0.34909600  0.74004800  0.07052700  1
  F  F17  1  0.84909600  0.25995200  0.42947300  1
  F  F18  1  0.65090400  0.25995200  0.92947300  1
  F  F19  1  0.15090400  0.74004800  0.57052700  1
  F  F20  1  0.64935000  0.66394600  0.13604800  1
  F  F21  1  0.14935000  0.33605400  0.36395200  1
  F  F22  1  0.35065000  0.33605400  0.86395200  1
  F  F23  1  0.85065000  0.66394600  0.63604800  1
