# generated using pymatgen
data_Rb2In(IO3)6
_symmetry_space_group_name_H-M   'P 1'
_cell_length_a   7.89075900
_cell_length_b   7.89765252
_cell_length_c   7.90381262
_cell_angle_alpha   98.31134960
_cell_angle_beta   97.30345061
_cell_angle_gamma   97.39257557
_symmetry_Int_Tables_number   1
_chemical_formula_structural   Rb2In(IO3)6
_chemical_formula_sum   'Rb2 In1 I6 O18'
_cell_volume   477.96985499
_cell_formula_units_Z   1
loop_
 _symmetry_equiv_pos_site_id
 _symmetry_equiv_pos_as_xyz
  1  'x, y, z'
loop_
 _atom_site_type_symbol
 _atom_site_label
 _atom_site_symmetry_multiplicity
 _atom_site_fract_x
 _atom_site_fract_y
 _atom_site_fract_z
 _atom_site_occupancy
  Rb  Rb0  1  0.16379000  0.16082700  0.67484300  1
  Rb  Rb1  1  0.83621000  0.83917300  0.32515700  1
  In  In2  1  0.50000000  0.50000000  0.00000000  1
  I  I3  1  0.11823200  0.68659800  0.83206900  1
  I  I4  1  0.88176800  0.31340200  0.16793100  1
  I  I5  1  0.30268100  0.67006600  0.36992800  1
  I  I6  1  0.69731900  0.32993400  0.63007200  1
  I  I7  1  0.33480200  0.12971300  0.20722600  1
  I  I8  1  0.66519800  0.87028700  0.79277400  1
  O  O9  1  0.27429900  0.52966400  0.82539900  1
  O  O10  1  0.72570100  0.47033600  0.17460100  1
  O  O11  1  0.27609700  0.88531500  0.87582500  1
  O  O12  1  0.72390300  0.11468500  0.12417500  1
  O  O13  1  0.06610500  0.66337700  0.59648700  1
  O  O14  1  0.93389500  0.33662300  0.40351300  1
  O  O15  1  0.30593900  0.90196400  0.42902300  1
  O  O16  1  0.69406100  0.09803600  0.57097700  1
  O  O17  1  0.45905900  0.68980700  0.21411300  1
  O  O18  1  0.54094100  0.31019300  0.78588700  1
  O  O19  1  0.10643500  0.61296700  0.20797300  1
  O  O20  1  0.89356500  0.38703300  0.79202700  1
  O  O21  1  0.10102100  0.08722400  0.19517700  1
  O  O22  1  0.89897900  0.91277600  0.80482300  1
  O  O23  1  0.39622900  0.28843300  0.40576400  1
  O  O24  1  0.60377100  0.71156700  0.59423600  1
  O  O25  1  0.32731000  0.28499400  0.05249500  1
  O  O26  1  0.67269000  0.71500600  0.94750500  1
