# generated using pymatgen
data_Mo3(NO5)2
_symmetry_space_group_name_H-M   'P 1'
_cell_length_a   8.33319556
_cell_length_b   8.33319556
_cell_length_c   9.29726096
_cell_angle_alpha   82.84996901
_cell_angle_beta   82.84996901
_cell_angle_gamma   59.38068765
_symmetry_Int_Tables_number   1
_chemical_formula_structural   Mo3(NO5)2
_chemical_formula_sum   'Mo6 N4 O20'
_cell_volume   549.87052471
_cell_formula_units_Z   2
loop_
 _symmetry_equiv_pos_site_id
 _symmetry_equiv_pos_as_xyz
  1  'x, y, z'
loop_
 _atom_site_type_symbol
 _atom_site_label
 _atom_site_symmetry_multiplicity
 _atom_site_fract_x
 _atom_site_fract_y
 _atom_site_fract_z
 _atom_site_occupancy
  Mo  Mo0  1  0.03487100  0.18481900  0.47540000  1
  Mo  Mo1  1  0.81518100  0.96512900  0.02460000  1
  Mo  Mo2  1  0.96512900  0.81518100  0.52460000  1
  Mo  Mo3  1  0.18481900  0.03487100  0.97540000  1
  Mo  Mo4  1  0.71395200  0.28604800  0.25000000  1
  Mo  Mo5  1  0.28604800  0.71395200  0.75000000  1
  N  N6  1  0.23970200  0.39325000  0.15725600  1
  N  N7  1  0.60675000  0.76029800  0.34274400  1
  N  N8  1  0.76029800  0.60675000  0.84274400  1
  N  N9  1  0.39325000  0.23970200  0.65725600  1
  O  O10  1  0.89585700  0.34027400  0.31246900  1
  O  O11  1  0.65972600  0.10414300  0.18753100  1
  O  O12  1  0.10414300  0.65972600  0.68753100  1
  O  O13  1  0.34027400  0.89585700  0.81246900  1
  O  O14  1  0.94642600  0.10563900  0.09265600  1
  O  O15  1  0.89436100  0.05357400  0.40734400  1
  O  O16  1  0.05357400  0.89436100  0.90734400  1
  O  O17  1  0.10563900  0.94642600  0.59265600  1
  O  O18  1  0.62532400  0.47031000  0.11413400  1
  O  O19  1  0.52969000  0.37467600  0.38586600  1
  O  O20  1  0.37467600  0.52969000  0.88586600  1
  O  O21  1  0.47031000  0.62532400  0.61413400  1
  O  O22  1  0.85046800  0.74095800  0.07837700  1
  O  O23  1  0.25904200  0.14953200  0.42162300  1
  O  O24  1  0.14953200  0.25904200  0.92162300  1
  O  O25  1  0.74095800  0.85046800  0.57837700  1
  O  O26  1  0.06031200  0.65989200  0.39001400  1
  O  O27  1  0.34010800  0.93968800  0.10998600  1
  O  O28  1  0.93968800  0.34010800  0.60998600  1
  O  O29  1  0.65989200  0.06031200  0.89001400  1
