# generated using pymatgen
data_Fe3O4
_symmetry_space_group_name_H-M   'P 1'
_cell_length_a   2.95863900
_cell_length_b   9.80150200
_cell_length_c   10.00172200
_cell_angle_alpha   90.00000000
_cell_angle_beta   90.00000000
_cell_angle_gamma   90.00000000
_symmetry_Int_Tables_number   1
_chemical_formula_structural   Fe3O4
_chemical_formula_sum   'Fe12 O16'
_cell_volume   290.04099722
_cell_formula_units_Z   4
loop_
 _symmetry_equiv_pos_site_id
 _symmetry_equiv_pos_as_xyz
  1  'x, y, z'
loop_
 _atom_site_type_symbol
 _atom_site_label
 _atom_site_symmetry_multiplicity
 _atom_site_fract_x
 _atom_site_fract_y
 _atom_site_fract_z
 _atom_site_occupancy
  Fe  Fe0  1  0.73229500  0.13260000  0.75000000  1
  Fe  Fe1  1  0.26770500  0.86740000  0.25000000  1
  Fe  Fe2  1  0.73229500  0.36740000  0.25000000  1
  Fe  Fe3  1  0.26770500  0.63260000  0.75000000  1
  Fe  Fe4  1  0.24380000  0.38218300  0.57538600  1
  Fe  Fe5  1  0.75620000  0.61781700  0.07538600  1
  Fe  Fe6  1  0.24380000  0.11781700  0.42461400  1
  Fe  Fe7  1  0.75620000  0.88218300  0.92461400  1
  Fe  Fe8  1  0.75620000  0.61781700  0.42461400  1
  Fe  Fe9  1  0.24380000  0.38218300  0.92461400  1
  Fe  Fe10  1  0.75620000  0.88218300  0.57538600  1
  Fe  Fe11  1  0.24380000  0.11781700  0.07538600  1
  O  O12  1  0.74284200  0.25000000  0.50000000  1
  O  O13  1  0.25715800  0.75000000  0.00000000  1
  O  O14  1  0.25715800  0.75000000  0.50000000  1
  O  O15  1  0.74284200  0.25000000  0.00000000  1
  O  O16  1  0.23100800  0.28894500  0.75000000  1
  O  O17  1  0.76899200  0.71105500  0.25000000  1
  O  O18  1  0.23100800  0.21105500  0.25000000  1
  O  O19  1  0.76899200  0.78894500  0.75000000  1
  O  O20  1  0.25250200  0.02104100  0.61239800  1
  O  O21  1  0.74749800  0.97895900  0.11239800  1
  O  O22  1  0.25250200  0.47895900  0.38760200  1
  O  O23  1  0.74749800  0.52104100  0.88760200  1
  O  O24  1  0.74749800  0.97895900  0.38760200  1
  O  O25  1  0.25250200  0.02104100  0.88760200  1
  O  O26  1  0.74749800  0.52104100  0.61239800  1
  O  O27  1  0.25250200  0.47895900  0.11239800  1
