# generated using pymatgen
data_KH3CN
_symmetry_space_group_name_H-M   'P 1'
_cell_length_a   7.25932500
_cell_length_b   5.66449900
_cell_length_c   8.64324092
_cell_angle_alpha   90.00000000
_cell_angle_beta   117.08905132
_cell_angle_gamma   90.00000000
_symmetry_Int_Tables_number   1
_chemical_formula_structural   KH3CN
_chemical_formula_sum   'K4 H12 C4 N4'
_cell_volume   316.42490482
_cell_formula_units_Z   4
loop_
 _symmetry_equiv_pos_site_id
 _symmetry_equiv_pos_as_xyz
  1  'x, y, z'
loop_
 _atom_site_type_symbol
 _atom_site_label
 _atom_site_symmetry_multiplicity
 _atom_site_fract_x
 _atom_site_fract_y
 _atom_site_fract_z
 _atom_site_occupancy
  K  K0  1  0.68227900  0.41812400  0.40128800  1
  K  K1  1  0.68227900  0.08187600  0.90128800  1
  K  K2  1  0.31772100  0.58187600  0.59871200  1
  K  K3  1  0.31772100  0.91812400  0.09871200  1
  H  H4  1  0.81770400  0.74091000  0.21805100  1
  H  H5  1  0.81770400  0.75909000  0.71805100  1
  H  H6  1  0.18229600  0.25909000  0.78194900  1
  H  H7  1  0.18229600  0.24091000  0.28194900  1
  H  H8  1  0.82786100  0.87136700  0.39426700  1
  H  H9  1  0.82786100  0.62863300  0.89426700  1
  H  H10  1  0.17213900  0.12863300  0.60573300  1
  H  H11  1  0.17213900  0.37136700  0.10573300  1
  H  H12  1  0.01600600  0.91865600  0.33793900  1
  H  H13  1  0.01600600  0.58134400  0.83793900  1
  H  H14  1  0.98399400  0.08134400  0.66206100  1
  H  H15  1  0.98399400  0.41865600  0.16206100  1
  C  C16  1  0.44355300  0.42221100  0.00982300  1
  C  C17  1  0.44355300  0.07778900  0.50982300  1
  C  C18  1  0.55644700  0.57778900  0.99017700  1
  C  C19  1  0.55644700  0.92221100  0.49017700  1
  N  N20  1  0.91746600  0.79365800  0.34378700  1
  N  N21  1  0.91746600  0.70634200  0.84378700  1
  N  N22  1  0.08253400  0.20634200  0.65621300  1
  N  N23  1  0.08253400  0.29365800  0.15621300  1
