# generated using pymatgen
data_BaY2Si2O7F2
_symmetry_space_group_name_H-M   'P 1'
_cell_length_a   5.22676700
_cell_length_b   6.91705527
_cell_length_c   11.87687946
_cell_angle_alpha   92.99477527
_cell_angle_beta   102.10697937
_cell_angle_gamma   111.34755588
_symmetry_Int_Tables_number   1
_chemical_formula_structural   BaY2Si2O7F2
_chemical_formula_sum   'Ba2 Y4 Si4 O14 F4'
_cell_volume   387.12004301
_cell_formula_units_Z   2
loop_
 _symmetry_equiv_pos_site_id
 _symmetry_equiv_pos_as_xyz
  1  'x, y, z'
loop_
 _atom_site_type_symbol
 _atom_site_label
 _atom_site_symmetry_multiplicity
 _atom_site_fract_x
 _atom_site_fract_y
 _atom_site_fract_z
 _atom_site_occupancy
  Ba  Ba0  1  0.59556300  0.38155700  0.74983000  1
  Ba  Ba1  1  0.40443700  0.61844300  0.25017000  1
  Y  Y2  1  0.32531100  0.79779600  0.87682000  1
  Y  Y3  1  0.67468900  0.20220400  0.12318000  1
  Y  Y4  1  0.18222800  0.80541400  0.54421300  1
  Y  Y5  1  0.81777200  0.19458600  0.45578700  1
  Si  Si6  1  0.77179600  0.93142600  0.71824400  1
  Si  Si7  1  0.22820400  0.06857400  0.28175600  1
  Si  Si8  1  0.12840600  0.24869200  0.93411900  1
  Si  Si9  1  0.87159400  0.75130800  0.06588100  1
  O  O10  1  0.81844300  0.06946100  0.84741700  1
  O  O11  1  0.18155700  0.93053900  0.15258300  1
  O  O12  1  0.37373800  0.14756100  0.94436700  1
  O  O13  1  0.62626200  0.85243900  0.05563300  1
  O  O14  1  0.07383800  0.29757300  0.05969900  1
  O  O15  1  0.92616200  0.70242700  0.94030100  1
  O  O16  1  0.20466700  0.44616600  0.85988400  1
  O  O17  1  0.79533300  0.55383400  0.14011600  1
  O  O18  1  0.47720300  0.72776700  0.71016400  1
  O  O19  1  0.52279700  0.27223300  0.28983600  1
  O  O20  1  0.67312000  0.05808600  0.61653700  1
  O  O21  1  0.32688000  0.94191400  0.38346300  1
  O  O22  1  0.04923800  0.87828600  0.71589700  1
  O  O23  1  0.95076200  0.12171400  0.28410300  1
  F  F24  1  0.78836200  0.82763000  0.44325300  1
  F  F25  1  0.21163800  0.17237000  0.55674700  1
  F  F26  1  0.16782400  0.51873200  0.43531700  1
  F  F27  1  0.83217600  0.48126800  0.56468300  1
