# generated using pymatgen
data_CsP2(HO2)3
_symmetry_space_group_name_H-M   'P 1'
_cell_length_a   7.49291700
_cell_length_b   7.70495720
_cell_length_c   7.97659935
_cell_angle_alpha   87.71763251
_cell_angle_beta   115.24402053
_cell_angle_gamma   118.66451399
_symmetry_Int_Tables_number   1
_chemical_formula_structural   CsP2(HO2)3
_chemical_formula_sum   'Cs2 P4 H6 O12'
_cell_volume   357.52130743
_cell_formula_units_Z   2
loop_
 _symmetry_equiv_pos_site_id
 _symmetry_equiv_pos_as_xyz
  1  'x, y, z'
loop_
 _atom_site_type_symbol
 _atom_site_label
 _atom_site_symmetry_multiplicity
 _atom_site_fract_x
 _atom_site_fract_y
 _atom_site_fract_z
 _atom_site_occupancy
  Cs  Cs0  1  0.46115800  0.79539100  0.76386200  1
  Cs  Cs1  1  0.53884200  0.20460900  0.23613800  1
  P  P2  1  0.04743000  0.07762900  0.63938100  1
  P  P3  1  0.95257000  0.92237100  0.36061900  1
  P  P4  1  0.14709100  0.52012700  0.13322100  1
  P  P5  1  0.85290900  0.47987300  0.86677900  1
  H  H6  1  0.99419600  0.82500300  0.81927700  1
  H  H7  1  0.00580400  0.17499700  0.18072300  1
  H  H8  1  0.42427500  0.29625000  0.75667900  1
  H  H9  1  0.57572500  0.70375000  0.24332100  1
  H  H10  1  0.10868200  0.69774600  0.31500500  1
  H  H11  1  0.89131800  0.30225400  0.68499500  1
  O  O12  1  0.84699000  0.09409000  0.62299000  1
  O  O13  1  0.15301000  0.90591000  0.37701000  1
  O  O14  1  0.12668700  0.96045200  0.79016700  1
  O  O15  1  0.87331300  0.03954800  0.20983300  1
  O  O16  1  0.26522800  0.29238100  0.68702700  1
  O  O17  1  0.73477200  0.70761900  0.31297300  1
  O  O18  1  0.36401400  0.70084600  0.14223500  1
  O  O19  1  0.63598600  0.29915400  0.85776500  1
  O  O20  1  0.15006400  0.32217500  0.14317400  1
  O  O21  1  0.84993600  0.67782500  0.85682600  1
  O  O22  1  0.09242700  0.55786400  0.29540900  1
  O  O23  1  0.90757300  0.44213600  0.70459100  1
