# generated using pymatgen
data_BaFeBP2O9
_symmetry_space_group_name_H-M   'P 1'
_cell_length_a   5.35472200
_cell_length_b   8.17355996
_cell_length_c   8.23622242
_cell_angle_alpha   88.53394226
_cell_angle_beta   87.70107475
_cell_angle_gamma   80.02128785
_symmetry_Int_Tables_number   1
_chemical_formula_structural   BaFeBP2O9
_chemical_formula_sum   'Ba2 Fe2 B2 P4 O18'
_cell_volume   354.67336279
_cell_formula_units_Z   2
loop_
 _symmetry_equiv_pos_site_id
 _symmetry_equiv_pos_as_xyz
  1  'x, y, z'
loop_
 _atom_site_type_symbol
 _atom_site_label
 _atom_site_symmetry_multiplicity
 _atom_site_fract_x
 _atom_site_fract_y
 _atom_site_fract_z
 _atom_site_occupancy
  Ba  Ba0  1  0.72433000  0.12954600  0.31057300  1
  Ba  Ba1  1  0.27567000  0.87045400  0.68942700  1
  Fe  Fe2  1  0.27362800  0.78907400  0.19346600  1
  Fe  Fe3  1  0.72637200  0.21092600  0.80653400  1
  B  B4  1  0.12009100  0.45718200  0.25656200  1
  B  B5  1  0.87990900  0.54281800  0.74343800  1
  P  P6  1  0.20515100  0.30306600  0.57294500  1
  P  P7  1  0.79484900  0.69693400  0.42705500  1
  P  P8  1  0.22282600  0.18213000  0.05711100  1
  P  P9  1  0.77717400  0.81787000  0.94288900  1
  O  O10  1  0.45472600  0.19640800  0.63075500  1
  O  O11  1  0.54527400  0.80359200  0.36924500  1
  O  O12  1  0.01029700  0.80192500  0.41716500  1
  O  O13  1  0.98970300  0.19807500  0.58283500  1
  O  O14  1  0.13510700  0.46709400  0.66895100  1
  O  O15  1  0.86489300  0.53290600  0.33104900  1
  O  O16  1  0.26919900  0.34837500  0.39176300  1
  O  O17  1  0.73080100  0.65162500  0.60823700  1
  O  O18  1  0.07886400  0.13745200  0.91249900  1
  O  O19  1  0.92113600  0.86254800  0.08750100  1
  O  O20  1  0.49296600  0.21136200  0.00958700  1
  O  O21  1  0.50703400  0.78863800  0.99041300  1
  O  O22  1  0.24651300  0.04637600  0.19602800  1
  O  O23  1  0.75348700  0.95362400  0.80397200  1
  O  O24  1  0.05211400  0.33756500  0.13784900  1
  O  O25  1  0.94788600  0.66243500  0.86215100  1
  O  O26  1  0.26902000  0.56619500  0.19167500  1
  O  O27  1  0.73098000  0.43380500  0.80832500  1
