# generated using pymatgen
data_La3GaCoS7
_symmetry_space_group_name_H-M   'P 1'
_cell_length_a   10.16537030
_cell_length_b   10.16537030
_cell_length_c   5.97840000
_cell_angle_alpha   90.00000000
_cell_angle_beta   90.00000000
_cell_angle_gamma   120.00000192
_symmetry_Int_Tables_number   1
_chemical_formula_structural   La3GaCoS7
_chemical_formula_sum   'La6 Ga2 Co2 S14'
_cell_volume   535.01012279
_cell_formula_units_Z   2
loop_
 _symmetry_equiv_pos_site_id
 _symmetry_equiv_pos_as_xyz
  1  'x, y, z'
loop_
 _atom_site_type_symbol
 _atom_site_label
 _atom_site_symmetry_multiplicity
 _atom_site_fract_x
 _atom_site_fract_y
 _atom_site_fract_z
 _atom_site_occupancy
  La  La0  1  0.14032400  0.37035000  0.21923300  1
  La  La1  1  0.23002600  0.85967600  0.21923300  1
  La  La2  1  0.62965000  0.76997400  0.21923300  1
  La  La3  1  0.85967600  0.62965000  0.71923300  1
  La  La4  1  0.76997400  0.14032400  0.71923300  1
  La  La5  1  0.37035000  0.23002600  0.71923300  1
  Ga  Ga6  1  0.66666700  0.33333300  0.13893800  1
  Ga  Ga7  1  0.33333300  0.66666700  0.63893800  1
  Co  Co8  1  0.00000000  0.00000000  0.00180500  1
  Co  Co9  1  0.00000000  0.00000000  0.50180500  1
  S  S10  1  0.86332300  0.08504800  0.25936400  1
  S  S11  1  0.22172500  0.13667700  0.25936400  1
  S  S12  1  0.91495200  0.77827500  0.25936400  1
  S  S13  1  0.13667700  0.91495200  0.75936400  1
  S  S14  1  0.77827500  0.86332300  0.75936400  1
  S  S15  1  0.08504800  0.22172500  0.75936400  1
  S  S16  1  0.42122600  0.51658400  0.49209400  1
  S  S17  1  0.09535800  0.57877400  0.49209400  1
  S  S18  1  0.48341600  0.90464200  0.49209400  1
  S  S19  1  0.57877400  0.48341600  0.99209400  1
  S  S20  1  0.90464200  0.42122600  0.99209400  1
  S  S21  1  0.51658400  0.09535800  0.99209400  1
  S  S22  1  0.66666700  0.33333300  0.51375200  1
  S  S23  1  0.33333300  0.66666700  0.01375200  1
