# generated using pymatgen
data_NaCdAsS3
_symmetry_space_group_name_H-M   'P 1'
_cell_length_a   16.73399100
_cell_length_b   5.76701100
_cell_length_c   8.11073793
_cell_angle_alpha   45.91373391
_cell_angle_beta   90.00000000
_cell_angle_gamma   90.00000000
_symmetry_Int_Tables_number   1
_chemical_formula_structural   NaCdAsS3
_chemical_formula_sum   'Na4 Cd4 As4 S12'
_cell_volume   562.22786678
_cell_formula_units_Z   4
loop_
 _symmetry_equiv_pos_site_id
 _symmetry_equiv_pos_as_xyz
  1  'x, y, z'
loop_
 _atom_site_type_symbol
 _atom_site_label
 _atom_site_symmetry_multiplicity
 _atom_site_fract_x
 _atom_site_fract_y
 _atom_site_fract_z
 _atom_site_occupancy
  Na  Na0  1  0.92581600  0.79893800  0.73416300  1
  Na  Na1  1  0.57418400  0.79893800  0.23416300  1
  Na  Na2  1  0.07418400  0.20106200  0.26583700  1
  Na  Na3  1  0.42581600  0.20106200  0.76583700  1
  Cd  Cd4  1  0.74929200  0.24419100  0.75447800  1
  Cd  Cd5  1  0.75070800  0.24419100  0.25447800  1
  Cd  Cd6  1  0.25070800  0.75580900  0.24552200  1
  Cd  Cd7  1  0.24929200  0.75580900  0.74552200  1
  As  As8  1  0.60064500  0.71797200  0.77030900  1
  As  As9  1  0.89935500  0.71797200  0.27030900  1
  As  As10  1  0.39935500  0.28202800  0.22969100  1
  As  As11  1  0.10064500  0.28202800  0.72969100  1
  S  S12  1  0.89956000  0.37244400  0.65972500  1
  S  S13  1  0.60044000  0.37244400  0.15972500  1
  S  S14  1  0.10044000  0.62755600  0.34027500  1
  S  S15  1  0.39956000  0.62755600  0.84027500  1
  S  S16  1  0.59761200  0.36419400  0.72790800  1
  S  S17  1  0.90238800  0.36419400  0.22790800  1
  S  S18  1  0.40238800  0.63580600  0.27209200  1
  S  S19  1  0.09761200  0.63580600  0.77209200  1
  S  S20  1  0.76382300  0.82085800  0.21388800  1
  S  S21  1  0.73617700  0.82085800  0.71388800  1
  S  S22  1  0.23617700  0.17914200  0.78611200  1
  S  S23  1  0.26382300  0.17914200  0.28611200  1
