# generated using pymatgen
data_Mg5Pb
_symmetry_space_group_name_H-M   'P 1'
_cell_length_a   6.13055426
_cell_length_b   6.13055426
_cell_length_c   7.66856186
_cell_angle_alpha   75.16206702
_cell_angle_beta   75.16206702
_cell_angle_gamma   31.60004221
_symmetry_Int_Tables_number   1
_chemical_formula_structural   Mg5Pb
_chemical_formula_sum   'Mg5 Pb1'
_cell_volume   145.57300915
_cell_formula_units_Z   1
loop_
 _symmetry_equiv_pos_site_id
 _symmetry_equiv_pos_as_xyz
  1  'x, y, z'
loop_
 _atom_site_type_symbol
 _atom_site_label
 _atom_site_symmetry_multiplicity
 _atom_site_fract_x
 _atom_site_fract_y
 _atom_site_fract_z
 _atom_site_occupancy
  Mg  Mg0  1  0.99729500  0.99729500  0.99520400  1
  Mg  Mg1  1  0.28071900  0.28071900  0.93956300  1
  Mg  Mg2  1  0.66812900  0.66812900  0.67080800  1
  Mg  Mg3  1  0.94237600  0.94237600  0.61423700  1
  Mg  Mg4  1  0.33403700  0.33403700  0.33479100  1
  Pb  Pb5  1  0.61078000  0.61078000  0.27873100  1
