# generated using pymatgen
data_ZnClO
_symmetry_space_group_name_H-M   'P 1'
_cell_length_a   5.66785900
_cell_length_b   6.56947600
_cell_length_c   11.42866800
_cell_angle_alpha   90.00000000
_cell_angle_beta   90.00000000
_cell_angle_gamma   90.00000000
_symmetry_Int_Tables_number   1
_chemical_formula_structural   ZnClO
_chemical_formula_sum   'Zn8 Cl8 O8'
_cell_volume   425.54489493
_cell_formula_units_Z   8
loop_
 _symmetry_equiv_pos_site_id
 _symmetry_equiv_pos_as_xyz
  1  'x, y, z'
loop_
 _atom_site_type_symbol
 _atom_site_label
 _atom_site_symmetry_multiplicity
 _atom_site_fract_x
 _atom_site_fract_y
 _atom_site_fract_z
 _atom_site_occupancy
  Zn  Zn0  1  0.76158800  0.37500300  0.00713700  1
  Zn  Zn1  1  0.26158800  0.62499700  0.49286300  1
  Zn  Zn2  1  0.23841200  0.12499700  0.50713700  1
  Zn  Zn3  1  0.73841200  0.87500300  0.99286300  1
  Zn  Zn4  1  0.23841200  0.62499700  0.99286300  1
  Zn  Zn5  1  0.73841200  0.37500300  0.50713700  1
  Zn  Zn6  1  0.76158800  0.87500300  0.49286300  1
  Zn  Zn7  1  0.26158800  0.12499700  0.00713700  1
  Cl  Cl8  1  0.04275700  0.41553600  0.64810900  1
  Cl  Cl9  1  0.54275700  0.58446400  0.85189100  1
  Cl  Cl10  1  0.95724300  0.08446400  0.14810900  1
  Cl  Cl11  1  0.45724300  0.91553600  0.35189100  1
  Cl  Cl12  1  0.95724300  0.58446400  0.35189100  1
  Cl  Cl13  1  0.45724300  0.41553600  0.14810900  1
  Cl  Cl14  1  0.04275700  0.91553600  0.85189100  1
  Cl  Cl15  1  0.54275700  0.08446400  0.64810900  1
  O  O16  1  0.08935400  0.36370600  0.94012600  1
  O  O17  1  0.58935400  0.63629400  0.55987400  1
  O  O18  1  0.91064600  0.13629400  0.44012600  1
  O  O19  1  0.41064600  0.86370600  0.05987400  1
  O  O20  1  0.91064600  0.63629400  0.05987400  1
  O  O21  1  0.41064600  0.36370600  0.44012600  1
  O  O22  1  0.08935400  0.86370600  0.55987400  1
  O  O23  1  0.58935400  0.13629400  0.94012600  1
