# generated using pymatgen
data_CuAgPO4
_symmetry_space_group_name_H-M   'P 1'
_cell_length_a   5.62020300
_cell_length_b   7.73975100
_cell_length_c   7.91812536
_cell_angle_alpha   81.78716045
_cell_angle_beta   90.00000000
_cell_angle_gamma   90.00000000
_symmetry_Int_Tables_number   1
_chemical_formula_structural   CuAgPO4
_chemical_formula_sum   'Cu4 Ag4 P4 O16'
_cell_volume   340.89791850
_cell_formula_units_Z   4
loop_
 _symmetry_equiv_pos_site_id
 _symmetry_equiv_pos_as_xyz
  1  'x, y, z'
loop_
 _atom_site_type_symbol
 _atom_site_label
 _atom_site_symmetry_multiplicity
 _atom_site_fract_x
 _atom_site_fract_y
 _atom_site_fract_z
 _atom_site_occupancy
  Cu  Cu0  1  0.62152800  0.64676000  0.59028500  1
  Cu  Cu1  1  0.12152800  0.85324000  0.40971500  1
  Cu  Cu2  1  0.37847200  0.35324000  0.40971500  1
  Cu  Cu3  1  0.87847200  0.14676000  0.59028500  1
  Ag  Ag4  1  0.61390300  0.30691400  0.93037200  1
  Ag  Ag5  1  0.11390300  0.19308600  0.06962800  1
  Ag  Ag6  1  0.38609700  0.69308600  0.06962800  1
  Ag  Ag7  1  0.88609700  0.80691400  0.93037200  1
  P  P8  1  0.61965200  0.00825200  0.27329900  1
  P  P9  1  0.11965200  0.49174800  0.72670100  1
  P  P10  1  0.38034800  0.99174800  0.72670100  1
  P  P11  1  0.88034800  0.50825200  0.27329900  1
  O  O12  1  0.44688900  0.84776800  0.30676100  1
  O  O13  1  0.94688900  0.65223200  0.69323900  1
  O  O14  1  0.55311100  0.15223200  0.69323900  1
  O  O15  1  0.05311100  0.34776800  0.30676100  1
  O  O16  1  0.48350300  0.18312000  0.26718200  1
  O  O17  1  0.98350300  0.31688000  0.73281800  1
  O  O18  1  0.51649700  0.81688000  0.73281800  1
  O  O19  1  0.01649700  0.68312000  0.26718200  1
  O  O20  1  0.75134500  0.00964000  0.10231300  1
  O  O21  1  0.25134500  0.49036000  0.89768700  1
  O  O22  1  0.24865500  0.99036000  0.89768700  1
  O  O23  1  0.74865500  0.50964000  0.10231300  1
  O  O24  1  0.80751500  0.98635000  0.42554100  1
  O  O25  1  0.30751500  0.51365000  0.57445900  1
  O  O26  1  0.19248500  0.01365000  0.57445900  1
  O  O27  1  0.69248500  0.48635000  0.42554100  1
