# generated using pymatgen
data_K2CaS2O9
_symmetry_space_group_name_H-M   'P 1'
_cell_length_a   7.16992500
_cell_length_b   6.23310900
_cell_length_c   10.01009242
_cell_angle_alpha   74.75519561
_cell_angle_beta   90.00000000
_cell_angle_gamma   90.00000000
_symmetry_Int_Tables_number   1
_chemical_formula_structural   K2CaS2O9
_chemical_formula_sum   'K4 Ca2 S4 O18'
_cell_volume   431.61819611
_cell_formula_units_Z   2
loop_
 _symmetry_equiv_pos_site_id
 _symmetry_equiv_pos_as_xyz
  1  'x, y, z'
loop_
 _atom_site_type_symbol
 _atom_site_label
 _atom_site_symmetry_multiplicity
 _atom_site_fract_x
 _atom_site_fract_y
 _atom_site_fract_z
 _atom_site_occupancy
  K  K0  1  0.48920100  0.68932800  0.65665200  1
  K  K1  1  0.98920100  0.31067200  0.34334800  1
  K  K2  1  0.00004400  0.69051000  0.66511300  1
  K  K3  1  0.50004400  0.30949000  0.33488700  1
  Ca  Ca4  1  0.74373200  0.15752500  0.96281900  1
  Ca  Ca5  1  0.24373200  0.84247500  0.03718100  1
  S  S6  1  0.74188200  0.65241200  0.99226800  1
  S  S7  1  0.24188200  0.34758800  0.00773200  1
  S  S8  1  0.74650600  0.22010800  0.64171800  1
  S  S9  1  0.24650600  0.77989200  0.35828200  1
  O  O10  1  0.57642700  0.79729000  0.99134800  1
  O  O11  1  0.07642700  0.20271000  0.00865200  1
  O  O12  1  0.73595700  0.55474000  0.87064800  1
  O  O13  1  0.23595700  0.44526000  0.12935200  1
  O  O14  1  0.58239300  0.18449800  0.73739900  1
  O  O15  1  0.08239300  0.81550200  0.26260100  1
  O  O16  1  0.72968300  0.43785400  0.53610700  1
  O  O17  1  0.22968300  0.56214600  0.46389300  1
  O  O18  1  0.90876600  0.80017700  0.97906900  1
  O  O19  1  0.40876600  0.19982300  0.02093100  1
  O  O20  1  0.24791600  0.53414900  0.88029200  1
  O  O21  1  0.74791600  0.46585100  0.11970800  1
  O  O22  1  0.91573700  0.22313600  0.73083200  1
  O  O23  1  0.41573700  0.77686400  0.26916800  1
  O  O24  1  0.76244100  0.04005200  0.56963600  1
  O  O25  1  0.26244100  0.95994800  0.43036400  1
  O  O26  1  0.22131600  0.98528600  0.77866300  1
  O  O27  1  0.72131600  0.01471400  0.22133700  1
