# generated using pymatgen
data_Mg3Si2O9
_symmetry_space_group_name_H-M   'P 1'
_cell_length_a   5.40968663
_cell_length_b   5.40968663
_cell_length_c   14.93771561
_cell_angle_alpha   88.46146111
_cell_angle_beta   88.46146111
_cell_angle_gamma   119.88655601
_symmetry_Int_Tables_number   1
_chemical_formula_structural   Mg3Si2O9
_chemical_formula_sum   'Mg6 Si4 O18'
_cell_volume   378.46824622
_cell_formula_units_Z   2
loop_
 _symmetry_equiv_pos_site_id
 _symmetry_equiv_pos_as_xyz
  1  'x, y, z'
loop_
 _atom_site_type_symbol
 _atom_site_label
 _atom_site_symmetry_multiplicity
 _atom_site_fract_x
 _atom_site_fract_y
 _atom_site_fract_z
 _atom_site_occupancy
  Mg  Mg0  1  0.10518700  0.70422900  0.26945300  1
  Mg  Mg1  1  0.70422900  0.10518700  0.76945300  1
  Mg  Mg2  1  0.74766200  0.99150300  0.27018600  1
  Mg  Mg3  1  0.99150300  0.74766200  0.77018600  1
  Mg  Mg4  1  0.39247700  0.34756900  0.27107500  1
  Mg  Mg5  1  0.34756900  0.39247700  0.77107500  1
  Si  Si6  1  0.38621400  0.65577600  0.46101900  1
  Si  Si7  1  0.65577600  0.38621400  0.96101900  1
  Si  Si8  1  0.05319100  0.98899900  0.46070000  1
  Si  Si9  1  0.98899900  0.05319100  0.96070000  1
  O  O10  1  0.21931000  0.82243400  0.49639800  1
  O  O11  1  0.82243400  0.21931000  0.99639800  1
  O  O12  1  0.71473900  0.81279500  0.49572100  1
  O  O13  1  0.81279500  0.71473900  0.99572100  1
  O  O14  1  0.21008700  0.31760700  0.49595400  1
  O  O15  1  0.31760700  0.21008700  0.99595400  1
  O  O16  1  0.40338900  0.67121600  0.35012000  1
  O  O17  1  0.67121600  0.40338900  0.85012000  1
  O  O18  1  0.06959700  0.00371200  0.34978400  1
  O  O19  1  0.00371200  0.06959700  0.84978400  1
  O  O20  1  0.06517000  0.35565700  0.20949500  1
  O  O21  1  0.35565700  0.06517000  0.70949500  1
  O  O22  1  0.44953000  0.04972100  0.20959500  1
  O  O23  1  0.04972100  0.44953000  0.70959500  1
  O  O24  1  0.74243600  0.34049700  0.32219900  1
  O  O25  1  0.34049700  0.74243600  0.82219900  1
  O  O26  1  0.75709300  0.66348400  0.20965200  1
  O  O27  1  0.66348400  0.75709300  0.70965200  1
