# generated using pymatgen
data_U3O11
_symmetry_space_group_name_H-M   'P 1'
_cell_length_a   10.04656016
_cell_length_b   10.04656016
_cell_length_c   10.04656016
_cell_angle_alpha   137.64228989
_cell_angle_beta   111.03240131
_cell_angle_gamma   84.38469860
_symmetry_Int_Tables_number   1
_chemical_formula_structural   U3O11
_chemical_formula_sum   'U6 O22'
_cell_volume   614.69855280
_cell_formula_units_Z   2
loop_
 _symmetry_equiv_pos_site_id
 _symmetry_equiv_pos_as_xyz
  1  'x, y, z'
loop_
 _atom_site_type_symbol
 _atom_site_label
 _atom_site_symmetry_multiplicity
 _atom_site_fract_x
 _atom_site_fract_y
 _atom_site_fract_z
 _atom_site_occupancy
  U  U0  1  0.94814200  0.26773500  0.68040700  1
  U  U1  1  0.05185800  0.73226500  0.31959300  1
  U  U2  1  0.41267200  0.73226500  0.68040700  1
  U  U3  1  0.58732800  0.26773500  0.31959300  1
  U  U4  1  0.23829300  0.23829300  0.00000000  1
  U  U5  1  0.76170700  0.76170700  0.00000000  1
  O  O6  1  0.08865100  0.40678300  0.03721400  1
  O  O7  1  0.91134900  0.94856300  0.31813300  1
  O  O8  1  0.63043000  0.59321700  0.68186700  1
  O  O9  1  0.36957000  0.05143700  0.96278600  1
  O  O10  1  0.91134900  0.59321700  0.96278600  1
  O  O11  1  0.08865100  0.05143700  0.68186700  1
  O  O12  1  0.36957000  0.40678300  0.31813300  1
  O  O13  1  0.63043000  0.94856300  0.03721400  1
  O  O14  1  0.80560900  0.30560900  0.50000000  1
  O  O15  1  0.19439100  0.69439100  0.50000000  1
  O  O16  1  0.11716000  0.38192700  0.73523300  1
  O  O17  1  0.88284000  0.61807300  0.26476700  1
  O  O18  1  0.35330600  0.61807300  0.73523300  1
  O  O19  1  0.64669400  0.38192700  0.26476700  1
  O  O20  1  0.79368200  0.15011000  0.64357200  1
  O  O21  1  0.20631800  0.84989000  0.35642800  1
  O  O22  1  0.49346200  0.84989000  0.64357200  1
  O  O23  1  0.50653800  0.15011000  0.35642800  1
  O  O24  1  0.36413100  0.36413100  0.00000000  1
  O  O25  1  0.63586900  0.63586900  0.00000000  1
  O  O26  1  0.04122000  0.04122000  0.00000000  1
  O  O27  1  0.95878000  0.95878000  0.00000000  1
