# generated using pymatgen
data_Li4H7RhS3O13
_symmetry_space_group_name_H-M   'P 1'
_cell_length_a   8.10167906
_cell_length_b   8.10167906
_cell_length_c   8.10167891
_cell_angle_alpha   69.62967562
_cell_angle_beta   69.62967562
_cell_angle_gamma   69.62967831
_symmetry_Int_Tables_number   1
_chemical_formula_structural   Li4H7RhS3O13
_chemical_formula_sum   'Li4 H7 Rh1 S3 O13'
_cell_volume   451.49207480
_cell_formula_units_Z   1
loop_
 _symmetry_equiv_pos_site_id
 _symmetry_equiv_pos_as_xyz
  1  'x, y, z'
loop_
 _atom_site_type_symbol
 _atom_site_label
 _atom_site_symmetry_multiplicity
 _atom_site_fract_x
 _atom_site_fract_y
 _atom_site_fract_z
 _atom_site_occupancy
  Li  Li0  1  0.70335500  0.70335500  0.70335500  1
  Li  Li1  1  0.55912100  0.41607600  0.18574700  1
  Li  Li2  1  0.41607600  0.18574700  0.55912100  1
  Li  Li3  1  0.18574700  0.55912100  0.41607600  1
  H  H4  1  0.89153200  0.24811100  0.26401900  1
  H  H5  1  0.24811100  0.26401900  0.89153200  1
  H  H6  1  0.26401900  0.89153200  0.24811100  1
  H  H7  1  0.85351200  0.37080300  0.07792300  1
  H  H8  1  0.37080300  0.07792300  0.85351200  1
  H  H9  1  0.07792300  0.85351200  0.37080300  1
  H  H10  1  0.48132800  0.48132800  0.48132800  1
  Rh  Rh11  1  0.02567600  0.02567600  0.02567600  1
  S  S12  1  0.44142400  0.18843100  0.13131600  1
  S  S13  1  0.18843100  0.13131600  0.44142400  1
  S  S14  1  0.13131600  0.44142400  0.18843100  1
  O  O15  1  0.68483700  0.57744000  0.96751100  1
  O  O16  1  0.57744000  0.96751100  0.68483700  1
  O  O17  1  0.96751100  0.68483700  0.57744000  1
  O  O18  1  0.53263700  0.99279900  0.21840000  1
  O  O19  1  0.99279900  0.21840000  0.53263700  1
  O  O20  1  0.21840000  0.53263700  0.99279900  1
  O  O21  1  0.89362800  0.64680500  0.47158500  1
  O  O22  1  0.64680500  0.47158500  0.89362800  1
  O  O23  1  0.47158500  0.89362800  0.64680500  1
  O  O24  1  0.84320900  0.25156900  0.16717900  1
  O  O25  1  0.25156900  0.16717900  0.84320900  1
  O  O26  1  0.16717900  0.84320900  0.25156900  1
  O  O27  1  0.42812500  0.42812500  0.42812500  1
