# generated using pymatgen
data_LiU2Cl3O8
_symmetry_space_group_name_H-M   'P 1'
_cell_length_a   7.85185574
_cell_length_b   8.69444372
_cell_length_c   8.71341464
_cell_angle_alpha   111.14802653
_cell_angle_beta   93.68284366
_cell_angle_gamma   95.14357800
_symmetry_Int_Tables_number   1
_chemical_formula_structural   LiU2Cl3O8
_chemical_formula_sum   'Li2 U4 Cl6 O16'
_cell_volume   549.55274229
_cell_formula_units_Z   2
loop_
 _symmetry_equiv_pos_site_id
 _symmetry_equiv_pos_as_xyz
  1  'x, y, z'
loop_
 _atom_site_type_symbol
 _atom_site_label
 _atom_site_symmetry_multiplicity
 _atom_site_fract_x
 _atom_site_fract_y
 _atom_site_fract_z
 _atom_site_occupancy
  Li  Li0  1  0.63810000  0.19193100  0.77629600  1
  Li  Li1  1  0.36190000  0.80806900  0.22370400  1
  U  U2  1  0.18669100  0.19329700  0.20544900  1
  U  U3  1  0.81330900  0.80670300  0.79455100  1
  U  U4  1  0.62958400  0.51636900  0.33803300  1
  U  U5  1  0.37041600  0.48363100  0.66196700  1
  Cl  Cl6  1  0.44622700  0.29579300  0.02172300  1
  Cl  Cl7  1  0.55377300  0.70420700  0.97827700  1
  Cl  Cl8  1  0.88794400  0.97039200  0.14103700  1
  Cl  Cl9  1  0.11205600  0.02960800  0.85896300  1
  Cl  Cl10  1  0.09023000  0.24566900  0.52048900  1
  Cl  Cl11  1  0.90977000  0.75433100  0.47951100  1
  O  O12  1  0.30766500  0.02586900  0.21287600  1
  O  O13  1  0.69233400  0.97413100  0.78712400  1
  O  O14  1  0.07011100  0.35406300  0.18626500  1
  O  O15  1  0.92988900  0.64593700  0.81373500  1
  O  O16  1  0.74724800  0.35180900  0.34766400  1
  O  O17  1  0.25275200  0.64819100  0.65233600  1
  O  O18  1  0.50577500  0.67701800  0.31540200  1
  O  O19  1  0.49422500  0.32298200  0.68459800  1
  O  O20  1  0.38555000  0.38405900  0.38549400  1
  O  O21  1  0.61445000  0.61594100  0.61450600  1
  O  O22  1  0.71839300  0.46072700  0.06984600  1
  O  O23  1  0.28160700  0.53927300  0.93015400  1
  O  O24  1  0.87174500  0.32126200  0.83340400  1
  O  O25  1  0.12825500  0.67873800  0.16659600  1
  O  O26  1  0.56721100  0.02105700  0.47555600  1
  O  O27  1  0.43278900  0.97894300  0.52444400  1
