# generated using pymatgen
data_CaTlCl5O7
_symmetry_space_group_name_H-M   'P 1'
_cell_length_a   9.15857815
_cell_length_b   9.15857815
_cell_length_c   9.56840546
_cell_angle_alpha   83.20223740
_cell_angle_beta   83.20223740
_cell_angle_gamma   69.69870793
_symmetry_Int_Tables_number   1
_chemical_formula_structural   CaTlCl5O7
_chemical_formula_sum   'Ca2 Tl2 Cl10 O14'
_cell_volume   744.86664115
_cell_formula_units_Z   2
loop_
 _symmetry_equiv_pos_site_id
 _symmetry_equiv_pos_as_xyz
  1  'x, y, z'
loop_
 _atom_site_type_symbol
 _atom_site_label
 _atom_site_symmetry_multiplicity
 _atom_site_fract_x
 _atom_site_fract_y
 _atom_site_fract_z
 _atom_site_occupancy
  Ca  Ca0  1  0.73767100  0.73767100  0.38199200  1
  Ca  Ca1  1  0.26232900  0.26232900  0.61800800  1
  Tl  Tl2  1  0.18575000  0.81425000  0.00000000  1
  Tl  Tl3  1  0.81425000  0.18575000  0.00000000  1
  Cl  Cl4  1  0.30072800  0.95046500  0.40824400  1
  Cl  Cl5  1  0.95046500  0.30072800  0.40824400  1
  Cl  Cl6  1  0.69927200  0.04953500  0.59175600  1
  Cl  Cl7  1  0.04953500  0.69927200  0.59175600  1
  Cl  Cl8  1  0.47354100  0.19434100  0.12958600  1
  Cl  Cl9  1  0.19434100  0.47354100  0.12958600  1
  Cl  Cl10  1  0.52645900  0.80565900  0.87041400  1
  Cl  Cl11  1  0.80565900  0.52645900  0.87041400  1
  Cl  Cl12  1  0.85994400  0.85994400  0.13046000  1
  Cl  Cl13  1  0.14005600  0.14005600  0.86954000  1
  O  O14  1  0.48231100  0.84227100  0.38769300  1
  O  O15  1  0.84227100  0.48231100  0.38769300  1
  O  O16  1  0.51768900  0.15772900  0.61230700  1
  O  O17  1  0.15772900  0.51768900  0.61230700  1
  O  O18  1  0.53366100  0.39405400  0.36807400  1
  O  O19  1  0.39405400  0.53366100  0.36807400  1
  O  O20  1  0.46633900  0.60594600  0.63192600  1
  O  O21  1  0.60594600  0.46633900  0.63192600  1
  O  O22  1  0.82651200  0.82651200  0.55604900  1
  O  O23  1  0.17348800  0.17348800  0.44395100  1
  O  O24  1  0.30038000  0.30038000  0.22169400  1
  O  O25  1  0.69962000  0.69962000  0.77830600  1
  O  O26  1  0.54075400  0.54075400  0.29298400  1
  O  O27  1  0.45924600  0.45924600  0.70701600  1
