# generated using pymatgen
data_NaCo2(SO4)2
_symmetry_space_group_name_H-M   'P 1'
_cell_length_a   6.34147363
_cell_length_b   7.70925723
_cell_length_c   8.84106172
_cell_angle_alpha   98.82573260
_cell_angle_beta   110.33026754
_cell_angle_gamma   112.86752674
_symmetry_Int_Tables_number   1
_chemical_formula_structural   NaCo2(SO4)2
_chemical_formula_sum   'Na2 Co4 S4 O16'
_cell_volume   352.01840902
_cell_formula_units_Z   2
loop_
 _symmetry_equiv_pos_site_id
 _symmetry_equiv_pos_as_xyz
  1  'x, y, z'
loop_
 _atom_site_type_symbol
 _atom_site_label
 _atom_site_symmetry_multiplicity
 _atom_site_fract_x
 _atom_site_fract_y
 _atom_site_fract_z
 _atom_site_occupancy
  Na  Na0  1  0.55397200  0.19409700  0.90059800  1
  Na  Na1  1  0.44602800  0.80590300  0.09940200  1
  Co  Co2  1  0.00000000  0.00000000  0.50000000  1
  Co  Co3  1  0.50000000  0.00000000  0.50000000  1
  Co  Co4  1  0.19754300  0.18452700  0.20634300  1
  Co  Co5  1  0.80245700  0.81547300  0.79365700  1
  S  S6  1  0.05626300  0.28593700  0.83825800  1
  S  S7  1  0.94373700  0.71406300  0.16174200  1
  S  S8  1  0.23671200  0.74161100  0.70731700  1
  S  S9  1  0.76328800  0.25838900  0.29268300  1
  O  O10  1  0.18202200  0.25182900  0.72567000  1
  O  O11  1  0.81797800  0.74817100  0.27433000  1
  O  O12  1  0.21248800  0.74860500  0.27021700  1
  O  O13  1  0.78751200  0.25139500  0.72978300  1
  O  O14  1  0.01925100  0.11641600  0.92006700  1
  O  O15  1  0.98074900  0.88358400  0.07993300  1
  O  O16  1  0.25887100  0.90487300  0.61547200  1
  O  O17  1  0.74112900  0.09512700  0.38452800  1
  O  O18  1  0.48187700  0.16832700  0.15589100  1
  O  O19  1  0.51812300  0.83167300  0.84410900  1
  O  O20  1  0.87330400  0.20873800  0.17249300  1
  O  O21  1  0.12669600  0.79126200  0.82750700  1
  O  O22  1  0.26667900  0.11573900  0.41971000  1
  O  O23  1  0.73332100  0.88426100  0.58029000  1
  O  O24  1  0.36934000  0.42534900  0.28737200  1
  O  O25  1  0.63066000  0.57465100  0.71262800  1
