# generated using pymatgen
data_Na3VP2O9
_symmetry_space_group_name_H-M   'P 1'
_cell_length_a   8.69821340
_cell_length_b   8.69821340
_cell_length_c   7.42264696
_cell_angle_alpha   86.22444440
_cell_angle_beta   86.22444440
_cell_angle_gamma   47.31821179
_symmetry_Int_Tables_number   1
_chemical_formula_structural   Na3VP2O9
_chemical_formula_sum   'Na6 V2 P4 O18'
_cell_volume   411.77308010
_cell_formula_units_Z   2
loop_
 _symmetry_equiv_pos_site_id
 _symmetry_equiv_pos_as_xyz
  1  'x, y, z'
loop_
 _atom_site_type_symbol
 _atom_site_label
 _atom_site_symmetry_multiplicity
 _atom_site_fract_x
 _atom_site_fract_y
 _atom_site_fract_z
 _atom_site_occupancy
  Na  Na0  1  0.77884000  0.22116000  0.00000000  1
  Na  Na1  1  0.22116000  0.77884000  0.00000000  1
  Na  Na2  1  0.60603100  0.60603100  0.29994700  1
  Na  Na3  1  0.39396900  0.39396900  0.70005300  1
  Na  Na4  1  0.00000000  0.50000000  0.50000000  1
  Na  Na5  1  0.50000000  0.00000000  0.50000000  1
  V  V6  1  0.00000000  0.50000000  0.00000000  1
  V  V7  1  0.50000000  0.00000000  0.00000000  1
  P  P8  1  0.38098500  0.38098500  0.22664500  1
  P  P9  1  0.61901500  0.61901500  0.77335500  1
  P  P10  1  0.12821100  0.12821100  0.28797200  1
  P  P11  1  0.87178900  0.87178900  0.71202800  1
  O  O12  1  0.47635200  0.47635200  0.20369200  1
  O  O13  1  0.52364800  0.52364800  0.79630800  1
  O  O14  1  0.34179800  0.34179800  0.41991000  1
  O  O15  1  0.65820200  0.65820200  0.58009000  1
  O  O16  1  0.16788600  0.53047200  0.12065100  1
  O  O17  1  0.53047200  0.16788600  0.12065100  1
  O  O18  1  0.83211400  0.46952800  0.87934900  1
  O  O19  1  0.46952800  0.83211400  0.87934900  1
  O  O20  1  0.99467800  0.36572400  0.21114800  1
  O  O21  1  0.36572400  0.99467800  0.21114800  1
  O  O22  1  0.00532200  0.63427600  0.78885200  1
  O  O23  1  0.63427600  0.00532200  0.78885200  1
  O  O24  1  0.04442700  0.04442700  0.20453300  1
  O  O25  1  0.95557300  0.95557300  0.79546700  1
  O  O26  1  0.13619600  0.13619600  0.48854200  1
  O  O27  1  0.86380400  0.86380400  0.51145800  1
  O  O28  1  0.24474800  0.24474800  0.91973400  1
  O  O29  1  0.75525200  0.75525200  0.08026600  1
