# generated using pymatgen
data_BaGe4(RhS3)2
_symmetry_space_group_name_H-M   'P 1'
_cell_length_a   5.98264600
_cell_length_b   6.04408700
_cell_length_c   29.52946400
_cell_angle_alpha   90.00000000
_cell_angle_beta   90.00000000
_cell_angle_gamma   90.00000000
_symmetry_Int_Tables_number   1
_chemical_formula_structural   BaGe4(RhS3)2
_chemical_formula_sum   'Ba4 Ge16 Rh8 S24'
_cell_volume   1067.77457839
_cell_formula_units_Z   4
loop_
 _symmetry_equiv_pos_site_id
 _symmetry_equiv_pos_as_xyz
  1  'x, y, z'
loop_
 _atom_site_type_symbol
 _atom_site_label
 _atom_site_symmetry_multiplicity
 _atom_site_fract_x
 _atom_site_fract_y
 _atom_site_fract_z
 _atom_site_occupancy
  Ba  Ba0  1  0.00000000  0.50000000  0.50000000  1
  Ba  Ba1  1  0.50000000  0.00000000  0.50000000  1
  Ba  Ba2  1  0.50000000  0.50000000  0.00000000  1
  Ba  Ba3  1  0.00000000  0.00000000  0.00000000  1
  Ge  Ge4  1  0.61247400  0.12048400  0.31576700  1
  Ge  Ge5  1  0.88752600  0.62048400  0.68423300  1
  Ge  Ge6  1  0.11247400  0.87951600  0.18423300  1
  Ge  Ge7  1  0.38752600  0.37951600  0.81576700  1
  Ge  Ge8  1  0.38752600  0.87951600  0.68423300  1
  Ge  Ge9  1  0.11247400  0.37951600  0.31576700  1
  Ge  Ge10  1  0.88752600  0.12048400  0.81576700  1
  Ge  Ge11  1  0.61247400  0.62048400  0.18423300  1
  Ge  Ge12  1  0.08300200  0.41837100  0.12335600  1
  Ge  Ge13  1  0.41699800  0.91837100  0.87664400  1
  Ge  Ge14  1  0.58300200  0.58162900  0.37664400  1
  Ge  Ge15  1  0.91699800  0.08162900  0.62335600  1
  Ge  Ge16  1  0.91699800  0.58162900  0.87664400  1
  Ge  Ge17  1  0.58300200  0.08162900  0.12335600  1
  Ge  Ge18  1  0.41699800  0.41837100  0.62335600  1
  Ge  Ge19  1  0.08300200  0.91837100  0.37664400  1
  Rh  Rh20  1  0.49030800  0.49707400  0.29898600  1
  Rh  Rh21  1  0.00969200  0.99707400  0.70101400  1
  Rh  Rh22  1  0.99030800  0.50292600  0.20101400  1
  Rh  Rh23  1  0.50969200  0.00292600  0.79898600  1
  Rh  Rh24  1  0.50969200  0.50292600  0.70101400  1
  Rh  Rh25  1  0.99030800  0.00292600  0.29898600  1
  Rh  Rh26  1  0.00969200  0.49707400  0.79898600  1
  Rh  Rh27  1  0.49030800  0.99707400  0.20101400  1
  S  S28  1  0.37560400  0.38028100  0.22336100  1
  S  S29  1  0.12439600  0.88028100  0.77663900  1
  S  S30  1  0.87560400  0.61971900  0.27663900  1
  S  S31  1  0.62439600  0.11971900  0.72336100  1
  S  S32  1  0.62439600  0.61971900  0.77663900  1
  S  S33  1  0.87560400  0.11971900  0.22336100  1
  S  S34  1  0.12439600  0.38028100  0.72336100  1
  S  S35  1  0.37560400  0.88028100  0.27663900  1
  S  S36  1  0.49017400  0.46298800  0.11333800  1
  S  S37  1  0.00982600  0.96298800  0.88666200  1
  S  S38  1  0.99017400  0.53701200  0.38666200  1
  S  S39  1  0.50982600  0.03701200  0.61333800  1
  S  S40  1  0.50982600  0.53701200  0.88666200  1
  S  S41  1  0.99017400  0.03701200  0.11333800  1
  S  S42  1  0.00982600  0.46298800  0.61333800  1
  S  S43  1  0.49017400  0.96298800  0.38666200  1
  S  S44  1  0.50491000  0.49587200  0.44880400  1
  S  S45  1  0.99509000  0.99587200  0.55119600  1
  S  S46  1  0.00491000  0.50412800  0.05119600  1
  S  S47  1  0.49509000  0.00412800  0.94880400  1
  S  S48  1  0.49509000  0.50412800  0.55119600  1
  S  S49  1  0.00491000  0.00412800  0.44880400  1
  S  S50  1  0.99509000  0.49587200  0.94880400  1
  S  S51  1  0.50491000  0.99587200  0.05119600  1
