# generated using pymatgen
data_Hg5(SeO4)2
_symmetry_space_group_name_H-M   'P 1'
_cell_length_a   6.37312400
_cell_length_b   9.58343112
_cell_length_c   19.51525870
_cell_angle_alpha   89.59479388
_cell_angle_beta   90.00000000
_cell_angle_gamma   109.42103680
_symmetry_Int_Tables_number   1
_chemical_formula_structural   Hg5(SeO4)2
_chemical_formula_sum   'Hg20 Se8 O32'
_cell_volume   1124.07045897
_cell_formula_units_Z   4
loop_
 _symmetry_equiv_pos_site_id
 _symmetry_equiv_pos_as_xyz
  1  'x, y, z'
loop_
 _atom_site_type_symbol
 _atom_site_label
 _atom_site_symmetry_multiplicity
 _atom_site_fract_x
 _atom_site_fract_y
 _atom_site_fract_z
 _atom_site_occupancy
  Hg  Hg0  1  0.78229400  0.96699700  0.50344100  1
  Hg  Hg1  1  0.81529700  0.03300300  0.99655900  1
  Hg  Hg2  1  0.21770600  0.03300300  0.49655900  1
  Hg  Hg3  1  0.18470300  0.96699700  0.00344100  1
  Hg  Hg4  1  0.92888900  0.65089300  0.53576600  1
  Hg  Hg5  1  0.27799600  0.34910700  0.96423400  1
  Hg  Hg6  1  0.07111100  0.34910700  0.46423400  1
  Hg  Hg7  1  0.72200400  0.65089300  0.03576600  1
  Hg  Hg8  1  0.93293900  0.86451300  0.77413200  1
  Hg  Hg9  1  0.06842700  0.13548700  0.72586800  1
  Hg  Hg10  1  0.06706100  0.13548700  0.22586800  1
  Hg  Hg11  1  0.93157300  0.86451300  0.27413200  1
  Hg  Hg12  1  0.69019900  0.55224900  0.42631000  1
  Hg  Hg13  1  0.13795000  0.44775100  0.07369000  1
  Hg  Hg14  1  0.30980100  0.44775100  0.57369000  1
  Hg  Hg15  1  0.86205000  0.55224900  0.92631000  1
  Hg  Hg16  1  0.01402300  0.50111200  0.74769900  1
  Hg  Hg17  1  0.51291100  0.49888800  0.75230100  1
  Hg  Hg18  1  0.98597700  0.49888800  0.25230100  1
  Hg  Hg19  1  0.48708900  0.50111200  0.24769900  1
  Se  Se20  1  0.40471900  0.80449900  0.62627300  1
  Se  Se21  1  0.60022000  0.19550100  0.87372700  1
  Se  Se22  1  0.59528100  0.19550100  0.37372700  1
  Se  Se23  1  0.39978000  0.80449900  0.12627300  1
  Se  Se24  1  0.61543400  0.22876400  0.64143700  1
  Se  Se25  1  0.38667000  0.77123600  0.85856300  1
  Se  Se26  1  0.38456600  0.77123600  0.35856300  1
  Se  Se27  1  0.61333000  0.22876400  0.14143700  1
  O  O28  1  0.35228800  0.12490200  0.62173900  1
  O  O29  1  0.22738600  0.87509800  0.87826100  1
  O  O30  1  0.64771200  0.87509800  0.37826100  1
  O  O31  1  0.77261400  0.12490200  0.12173900  1
  O  O32  1  0.42347200  0.85030700  0.53865900  1
  O  O33  1  0.57316500  0.14969300  0.96134100  1
  O  O34  1  0.57652800  0.14969300  0.46134100  1
  O  O35  1  0.42683500  0.85030700  0.03865900  1
  O  O36  1  0.64182200  0.24650200  0.72733600  1
  O  O37  1  0.39532000  0.75349800  0.77266400  1
  O  O38  1  0.35817800  0.75349800  0.27266300  1
  O  O39  1  0.60468000  0.24650200  0.22733600  1
  O  O40  1  0.20607800  0.38117600  0.70622000  1
  O  O41  1  0.82490200  0.61882400  0.79378000  1
  O  O42  1  0.79392200  0.61882400  0.29378000  1
  O  O43  1  0.17509800  0.38117600  0.20622000  1
  O  O44  1  0.80114800  0.15466100  0.61244100  1
  O  O45  1  0.64648700  0.84533900  0.88755900  1
  O  O46  1  0.19885200  0.84533900  0.38755900  1
  O  O47  1  0.35351300  0.15466100  0.11244100  1
  O  O48  1  0.11811200  0.71120500  0.63134000  1
  O  O49  1  0.40690700  0.28879500  0.86866000  1
  O  O50  1  0.88188800  0.28879500  0.36866000  1
  O  O51  1  0.59309300  0.71120500  0.13134000  1
  O  O52  1  0.51443800  0.66155900  0.62767100  1
  O  O53  1  0.85287900  0.33844100  0.87232900  1
  O  O54  1  0.48556200  0.33844100  0.37232900  1
  O  O55  1  0.14712100  0.66155900  0.12767100  1
  O  O56  1  0.66103400  0.40194300  0.60982200  1
  O  O57  1  0.25909200  0.59805700  0.89017800  1
  O  O58  1  0.33896600  0.59805700  0.39017800  1
  O  O59  1  0.74090800  0.40194300  0.10982200  1
