# generated using pymatgen
data_Hf4Si7Ni4
_symmetry_space_group_name_H-M   'P 1'
_cell_length_a   9.44515807
_cell_length_b   9.44515807
_cell_length_c   9.44515807
_cell_angle_alpha   94.19236817
_cell_angle_beta   94.19236817
_cell_angle_gamma   148.62623735
_symmetry_Int_Tables_number   1
_chemical_formula_structural   Hf4Si7Ni4
_chemical_formula_sum   'Hf8 Si14 Ni8'
_cell_volume   422.34042422
_cell_formula_units_Z   2
loop_
 _symmetry_equiv_pos_site_id
 _symmetry_equiv_pos_as_xyz
  1  'x, y, z'
loop_
 _atom_site_type_symbol
 _atom_site_label
 _atom_site_symmetry_multiplicity
 _atom_site_fract_x
 _atom_site_fract_y
 _atom_site_fract_z
 _atom_site_occupancy
  Hf  Hf0  1  0.13638100  0.13638100  0.27276300  1
  Hf  Hf1  1  0.86361900  0.86361900  0.72723700  1
  Hf  Hf2  1  0.86361900  0.13638100  0.00000000  1
  Hf  Hf3  1  0.13638100  0.86361900  0.00000000  1
  Hf  Hf4  1  0.50000000  0.30494000  0.80494000  1
  Hf  Hf5  1  0.50000000  0.69506000  0.19506000  1
  Hf  Hf6  1  0.69506000  0.50000000  0.19506000  1
  Hf  Hf7  1  0.30494000  0.50000000  0.80494000  1
  Si  Si8  1  0.50000000  0.09137100  0.59137100  1
  Si  Si9  1  0.50000000  0.90862900  0.40862900  1
  Si  Si10  1  0.90862900  0.50000000  0.40862900  1
  Si  Si11  1  0.09137100  0.50000000  0.59137100  1
  Si  Si12  1  0.74962500  0.74962500  0.00000000  1
  Si  Si13  1  0.25037500  0.25037500  0.00000000  1
  Si  Si14  1  0.29127800  0.29127800  0.58255600  1
  Si  Si15  1  0.70872200  0.70872200  0.41744400  1
  Si  Si16  1  0.70872200  0.29127800  0.00000000  1
  Si  Si17  1  0.29127800  0.70872200  0.00000000  1
  Si  Si18  1  0.00000000  0.29606300  0.29606300  1
  Si  Si19  1  0.00000000  0.70393700  0.70393700  1
  Si  Si20  1  0.70393700  0.00000000  0.70393700  1
  Si  Si21  1  0.29606300  0.00000000  0.29606300  1
  Ni  Ni22  1  0.39707700  0.89707700  0.79415300  1
  Ni  Ni23  1  0.10292300  0.60292300  0.20584700  1
  Ni  Ni24  1  0.10292300  0.89707700  0.50000000  1
  Ni  Ni25  1  0.39707700  0.60292300  0.50000000  1
  Ni  Ni26  1  0.60292300  0.39707700  0.50000000  1
  Ni  Ni27  1  0.89707700  0.10292300  0.50000000  1
  Ni  Ni28  1  0.89707700  0.39707700  0.79415300  1
  Ni  Ni29  1  0.60292300  0.10292300  0.20584700  1
