# generated using pymatgen
data_Al2Si2PbO8
_symmetry_space_group_name_H-M   'P 1'
_cell_length_a   9.37509854
_cell_length_b   9.37509854
_cell_length_c   8.48956445
_cell_angle_alpha   82.94423346
_cell_angle_beta   82.94423346
_cell_angle_gamma   89.63703888
_symmetry_Int_Tables_number   1
_chemical_formula_structural   Al2Si2PbO8
_chemical_formula_sum   'Al8 Si8 Pb4 O32'
_cell_volume   734.88120134
_cell_formula_units_Z   4
loop_
 _symmetry_equiv_pos_site_id
 _symmetry_equiv_pos_as_xyz
  1  'x, y, z'
loop_
 _atom_site_type_symbol
 _atom_site_label
 _atom_site_symmetry_multiplicity
 _atom_site_fract_x
 _atom_site_fract_y
 _atom_site_fract_z
 _atom_site_occupancy
  Al  Al0  1  0.93701700  0.79576100  0.88735000  1
  Al  Al1  1  0.79576100  0.93701700  0.38735000  1
  Al  Al2  1  0.06298300  0.20423900  0.11265000  1
  Al  Al3  1  0.20423900  0.06298300  0.61265000  1
  Al  Al4  1  0.55175800  0.29261000  0.02271800  1
  Al  Al5  1  0.29261000  0.55175800  0.52271800  1
  Al  Al6  1  0.44824200  0.70739000  0.97728200  1
  Al  Al7  1  0.70739000  0.44824200  0.47728200  1
  Si  Si8  1  0.43294300  0.28567300  0.39732600  1
  Si  Si9  1  0.28567300  0.43294300  0.89732600  1
  Si  Si10  1  0.56705700  0.71432700  0.60267400  1
  Si  Si11  1  0.71432700  0.56705700  0.10267400  1
  Si  Si12  1  0.05985100  0.78661200  0.51440100  1
  Si  Si13  1  0.78661200  0.05985100  0.01440100  1
  Si  Si14  1  0.94014900  0.21338800  0.48559900  1
  Si  Si15  1  0.21338800  0.94014900  0.98559900  1
  Pb  Pb16  1  0.57911200  0.06802700  0.69631500  1
  Pb  Pb17  1  0.06802700  0.57911200  0.19631500  1
  Pb  Pb18  1  0.42088800  0.93197300  0.30368500  1
  Pb  Pb19  1  0.93197300  0.42088800  0.80368500  1
  O  O20  1  0.36628500  0.13392900  0.50118700  1
  O  O21  1  0.13392900  0.36628500  0.00118700  1
  O  O22  1  0.63371500  0.86607100  0.49881300  1
  O  O23  1  0.86607100  0.63371500  0.99881300  1
  O  O24  1  0.64613600  0.14518100  0.94972100  1
  O  O25  1  0.14518100  0.64613600  0.44972100  1
  O  O26  1  0.35386400  0.85481900  0.05027900  1
  O  O27  1  0.85481900  0.35386400  0.55027900  1
  O  O28  1  0.98651700  0.74461400  0.69787000  1
  O  O29  1  0.74461400  0.98651700  0.19787000  1
  O  O30  1  0.01348300  0.25538600  0.30213000  1
  O  O31  1  0.25538600  0.01348300  0.80213000  1
  O  O32  1  0.47891900  0.23881700  0.22010200  1
  O  O33  1  0.23881700  0.47891900  0.72010200  1
  O  O34  1  0.52108100  0.76118300  0.77989800  1
  O  O35  1  0.76118300  0.52108100  0.27989800  1
  O  O36  1  0.82272100  0.94257800  0.88904500  1
  O  O37  1  0.94257800  0.82272100  0.38904500  1
  O  O38  1  0.17727900  0.05742200  0.11095500  1
  O  O39  1  0.05742200  0.17727900  0.61095500  1
  O  O40  1  0.32383000  0.41989000  0.39390200  1
  O  O41  1  0.41989000  0.32383000  0.89390200  1
  O  O42  1  0.67617000  0.58011000  0.60609800  1
  O  O43  1  0.58011000  0.67617000  0.10609800  1
  O  O44  1  0.08371700  0.82063600  0.99574900  1
  O  O45  1  0.82063600  0.08371700  0.49574900  1
  O  O46  1  0.91628300  0.17936400  0.00425100  1
  O  O47  1  0.17936400  0.91628300  0.50425100  1
  O  O48  1  0.57016800  0.31834700  0.49160100  1
  O  O49  1  0.31834700  0.57016800  0.99160100  1
  O  O50  1  0.42983200  0.68165300  0.50839900  1
  O  O51  1  0.68165300  0.42983200  0.00839900  1
