# generated using pymatgen
data_Na2SnS3O7
_symmetry_space_group_name_H-M   'P 1'
_cell_length_a   7.68058877
_cell_length_b   7.63944277
_cell_length_c   9.14508177
_cell_angle_alpha   104.05633885
_cell_angle_beta   66.88159776
_cell_angle_gamma   104.67823871
_symmetry_Int_Tables_number   1
_chemical_formula_structural   Na2SnS3O7
_chemical_formula_sum   'Na4 Sn2 S6 O14'
_cell_volume   471.15403565
_cell_formula_units_Z   2
loop_
 _symmetry_equiv_pos_site_id
 _symmetry_equiv_pos_as_xyz
  1  'x, y, z'
loop_
 _atom_site_type_symbol
 _atom_site_label
 _atom_site_symmetry_multiplicity
 _atom_site_fract_x
 _atom_site_fract_y
 _atom_site_fract_z
 _atom_site_occupancy
  Na  Na0  1  0.84706600  0.31931200  0.44008500  1
  Na  Na1  1  0.15293400  0.68068800  0.55991500  1
  Na  Na2  1  0.52027800  0.50987000  0.27089900  1
  Na  Na3  1  0.47972200  0.49013000  0.72910100  1
  Sn  Sn4  1  0.84788200  0.01544400  0.89327300  1
  Sn  Sn5  1  0.15211800  0.98455600  0.10672700  1
  S  S6  1  0.86387300  0.51699700  0.84805500  1
  S  S7  1  0.13612700  0.48300300  0.15194500  1
  S  S8  1  0.65215300  0.87927200  0.52249900  1
  S  S9  1  0.34784700  0.12072800  0.47750100  1
  S  S10  1  0.50202900  0.01256600  0.13037500  1
  S  S11  1  0.49797100  0.98743400  0.86962500  1
  O  O12  1  0.90383000  0.75253800  0.83577000  1
  O  O13  1  0.09617000  0.24746200  0.16423000  1
  O  O14  1  0.80064300  0.74093700  0.47901000  1
  O  O15  1  0.19935700  0.25906300  0.52099000  1
  O  O16  1  0.69927500  0.48903100  0.99964600  1
  O  O17  1  0.30072500  0.51096900  0.00035400  1
  O  O18  1  0.71555400  0.55061300  0.43590000  1
  O  O19  1  0.28444600  0.44938700  0.56410000  1
  O  O20  1  0.52028100  0.17892300  0.30535300  1
  O  O21  1  0.47971900  0.82107700  0.69464700  1
  O  O22  1  0.80052300  0.43589700  0.70558400  1
  O  O23  1  0.19947700  0.56410300  0.29441600  1
  O  O24  1  0.45616200  0.18430700  0.58823500  1
  O  O25  1  0.54383800  0.81569300  0.41176500  1
