# generated using pymatgen
data_B
_symmetry_space_group_name_H-M   'P 1'
_cell_length_a   5.04279500
_cell_length_b   5.61214300
_cell_length_c   6.91499400
_cell_angle_alpha   90.00000000
_cell_angle_beta   90.00000000
_cell_angle_gamma   90.00000000
_symmetry_Int_Tables_number   1
_chemical_formula_structural   B
_chemical_formula_sum   B28
_cell_volume   195.70046145
_cell_formula_units_Z   28
loop_
 _symmetry_equiv_pos_site_id
 _symmetry_equiv_pos_as_xyz
  1  'x, y, z'
loop_
 _atom_site_type_symbol
 _atom_site_label
 _atom_site_symmetry_multiplicity
 _atom_site_fract_x
 _atom_site_fract_y
 _atom_site_fract_z
 _atom_site_occupancy
  B  B0  1  0.65250800  0.90729300  0.29068800  1
  B  B1  1  0.34749200  0.09270700  0.29068800  1
  B  B2  1  0.15250800  0.59270700  0.20931200  1
  B  B3  1  0.84749200  0.40729300  0.20931200  1
  B  B4  1  0.34749200  0.09270700  0.70931200  1
  B  B5  1  0.65250800  0.90729300  0.70931200  1
  B  B6  1  0.84749200  0.40729300  0.79068800  1
  B  B7  1  0.15250800  0.59270700  0.79068800  1
  B  B8  1  0.14768300  0.77152900  0.00000000  1
  B  B9  1  0.85231700  0.22847100  0.00000000  1
  B  B10  1  0.64768300  0.72847100  0.50000000  1
  B  B11  1  0.35231700  0.27152900  0.50000000  1
  B  B12  1  0.83541600  0.99157300  0.50000000  1
  B  B13  1  0.16458400  0.00842700  0.50000000  1
  B  B14  1  0.33541600  0.50842700  0.00000000  1
  B  B15  1  0.66458400  0.49157300  0.00000000  1
  B  B16  1  0.33890000  0.78125200  0.37426100  1
  B  B17  1  0.66110000  0.21874800  0.37426100  1
  B  B18  1  0.83890000  0.71874800  0.12573900  1
  B  B19  1  0.16110000  0.28125200  0.12573900  1
  B  B20  1  0.66110000  0.21874800  0.62573900  1
  B  B21  1  0.33890000  0.78125200  0.62573900  1
  B  B22  1  0.16110000  0.28125200  0.87426100  1
  B  B23  1  0.83890000  0.71874800  0.87426100  1
  B  B24  1  0.17031400  0.52095000  0.50000000  1
  B  B25  1  0.82968600  0.47905000  0.50000000  1
  B  B26  1  0.67031400  0.97905000  0.00000000  1
  B  B27  1  0.32968600  0.02095000  0.00000000  1
