# generated using pymatgen
data_Sr2Cu(HO)6
_symmetry_space_group_name_H-M   'P 1'
_cell_length_a   5.81573000
_cell_length_b   6.25174200
_cell_length_c   9.81598559
_cell_angle_alpha   90.00000000
_cell_angle_beta   123.79848458
_cell_angle_gamma   90.00000000
_symmetry_Int_Tables_number   1
_chemical_formula_structural   Sr2Cu(HO)6
_chemical_formula_sum   'Sr4 Cu2 H12 O12'
_cell_volume   296.57858688
_cell_formula_units_Z   2
loop_
 _symmetry_equiv_pos_site_id
 _symmetry_equiv_pos_as_xyz
  1  'x, y, z'
loop_
 _atom_site_type_symbol
 _atom_site_label
 _atom_site_symmetry_multiplicity
 _atom_site_fract_x
 _atom_site_fract_y
 _atom_site_fract_z
 _atom_site_occupancy
  Sr  Sr0  1  0.79431600  0.42458000  0.75105700  1
  Sr  Sr1  1  0.79431600  0.07542000  0.25105700  1
  Sr  Sr2  1  0.20568400  0.57542000  0.24894300  1
  Sr  Sr3  1  0.20568400  0.92458000  0.74894300  1
  Cu  Cu4  1  0.50000000  0.50000000  0.00000000  1
  Cu  Cu5  1  0.50000000  0.00000000  0.50000000  1
  H  H6  1  0.23924700  0.42659300  0.70398500  1
  H  H7  1  0.23924700  0.07340700  0.20398500  1
  H  H8  1  0.76075300  0.57340700  0.29601500  1
  H  H9  1  0.76075300  0.92659300  0.79601500  1
  H  H10  1  0.78447100  0.72246100  0.48544700  1
  H  H11  1  0.78447100  0.77753900  0.98544700  1
  H  H12  1  0.21552900  0.27753900  0.51455300  1
  H  H13  1  0.21552900  0.22246100  0.01455300  1
  H  H14  1  0.81796700  0.16688800  0.98092000  1
  H  H15  1  0.81796700  0.33311200  0.48092000  1
  H  H16  1  0.18203300  0.83311200  0.01908000  1
  H  H17  1  0.18203300  0.66688800  0.51908000  1
  O  O18  1  0.38399300  0.53642300  0.76913400  1
  O  O19  1  0.38399300  0.96357700  0.26913400  1
  O  O20  1  0.61600700  0.46357700  0.23086600  1
  O  O21  1  0.61600700  0.03642300  0.73086600  1
  O  O22  1  0.70134400  0.72541400  0.55043100  1
  O  O23  1  0.70134400  0.77458600  0.05043100  1
  O  O24  1  0.29865600  0.27458600  0.44956900  1
  O  O25  1  0.29865600  0.22541400  0.94956900  1
  O  O26  1  0.96046500  0.25431000  0.07185700  1
  O  O27  1  0.96046500  0.24569000  0.57185700  1
  O  O28  1  0.03953500  0.74569000  0.92814300  1
  O  O29  1  0.03953500  0.75431000  0.42814300  1
