# generated using pymatgen
data_BaFeOF5
_symmetry_space_group_name_H-M   'P 1'
_cell_length_a   7.41485200
_cell_length_b   10.44964800
_cell_length_c   13.53885800
_cell_angle_alpha   90.00000000
_cell_angle_beta   90.00000000
_cell_angle_gamma   90.00000000
_symmetry_Int_Tables_number   1
_chemical_formula_structural   BaFeOF5
_chemical_formula_sum   'Ba8 Fe8 O8 F40'
_cell_volume   1049.02582914
_cell_formula_units_Z   8
loop_
 _symmetry_equiv_pos_site_id
 _symmetry_equiv_pos_as_xyz
  1  'x, y, z'
loop_
 _atom_site_type_symbol
 _atom_site_label
 _atom_site_symmetry_multiplicity
 _atom_site_fract_x
 _atom_site_fract_y
 _atom_site_fract_z
 _atom_site_occupancy
  Ba  Ba0  1  0.43446200  0.87291400  0.87967300  1
  Ba  Ba1  1  0.06553800  0.62708600  0.37967300  1
  Ba  Ba2  1  0.06553800  0.37291400  0.12032700  1
  Ba  Ba3  1  0.43446200  0.12708600  0.62032700  1
  Ba  Ba4  1  0.56553800  0.12708600  0.12032700  1
  Ba  Ba5  1  0.93446200  0.37291400  0.62032700  1
  Ba  Ba6  1  0.93446200  0.62708600  0.87967300  1
  Ba  Ba7  1  0.56553800  0.87291400  0.37967300  1
  Fe  Fe8  1  0.26062400  0.75936200  0.12876500  1
  Fe  Fe9  1  0.23937600  0.74063800  0.62876500  1
  Fe  Fe10  1  0.23937600  0.25936200  0.87123500  1
  Fe  Fe11  1  0.26062400  0.24063800  0.37123500  1
  Fe  Fe12  1  0.73937600  0.24063800  0.87123500  1
  Fe  Fe13  1  0.76062400  0.25936200  0.37123500  1
  Fe  Fe14  1  0.76062400  0.74063800  0.12876500  1
  Fe  Fe15  1  0.73937600  0.75936200  0.62876500  1
  O  O16  1  0.03858400  0.90833500  0.89340200  1
  O  O17  1  0.46141600  0.59166500  0.39340200  1
  O  O18  1  0.46141600  0.40833500  0.10659800  1
  O  O19  1  0.03858400  0.09166500  0.60659800  1
  O  O20  1  0.96141600  0.09166500  0.10659800  1
  O  O21  1  0.53858400  0.40833500  0.60659800  1
  O  O22  1  0.53858400  0.59166500  0.89340200  1
  O  O23  1  0.96141600  0.90833500  0.39340200  1
  F  F24  1  0.32725800  0.90067400  0.68462900  1
  F  F25  1  0.17274200  0.59932600  0.18462900  1
  F  F26  1  0.17274200  0.40067400  0.31537100  1
  F  F27  1  0.32725800  0.09932600  0.81537100  1
  F  F28  1  0.67274200  0.09932600  0.31537100  1
  F  F29  1  0.82725800  0.40067400  0.81537100  1
  F  F30  1  0.82725800  0.59932600  0.68462900  1
  F  F31  1  0.67274200  0.90067400  0.18462900  1
  F  F32  1  0.72231400  0.79395600  0.99124700  1
  F  F33  1  0.77768600  0.70604400  0.49124700  1
  F  F34  1  0.77768600  0.29395600  0.00875300  1
  F  F35  1  0.72231400  0.20604400  0.50875300  1
  F  F36  1  0.27768600  0.20604400  0.00875300  1
  F  F37  1  0.22231400  0.29395600  0.50875300  1
  F  F38  1  0.22231400  0.70604400  0.99124700  1
  F  F39  1  0.27768600  0.79395600  0.49124700  1
  F  F40  1  0.20880200  0.68851800  0.76757700  1
  F  F41  1  0.29119800  0.81148200  0.26757700  1
  F  F42  1  0.29119800  0.18851800  0.23242300  1
  F  F43  1  0.20880200  0.31148200  0.73242300  1
  F  F44  1  0.79119800  0.31148200  0.23242300  1
  F  F45  1  0.70880200  0.18851800  0.73242300  1
  F  F46  1  0.70880200  0.81148200  0.76757700  1
  F  F47  1  0.79119800  0.68851800  0.26757700  1
  F  F48  1  0.35232400  0.92007100  0.07371200  1
  F  F49  1  0.14767600  0.57992900  0.57371200  1
  F  F50  1  0.14767600  0.42007100  0.92628800  1
  F  F51  1  0.35232400  0.07992900  0.42628800  1
  F  F52  1  0.64767600  0.07992900  0.92628800  1
  F  F53  1  0.85232400  0.42007100  0.42628800  1
  F  F54  1  0.85232400  0.57992900  0.07371200  1
  F  F55  1  0.64767600  0.92007100  0.57371200  1
  F  F56  1  0.49369300  0.67978900  0.62825000  1
  F  F57  1  0.00630700  0.82021100  0.12825000  1
  F  F58  1  0.00630700  0.17978900  0.37175000  1
  F  F59  1  0.49369300  0.32021100  0.87175000  1
  F  F60  1  0.50630700  0.32021100  0.37175000  1
  F  F61  1  0.99369300  0.17978900  0.87175000  1
  F  F62  1  0.99369300  0.82021100  0.62825000  1
  F  F63  1  0.50630700  0.67978900  0.12825000  1
