# generated using pymatgen
data_Cs3CoI4NO3
_symmetry_space_group_name_H-M   'P 1'
_cell_length_a   10.31136000
_cell_length_b   11.83815500
_cell_length_c   14.48081000
_cell_angle_alpha   90.00000000
_cell_angle_beta   90.00000000
_cell_angle_gamma   90.00000000
_symmetry_Int_Tables_number   1
_chemical_formula_structural   Cs3CoI4NO3
_chemical_formula_sum   'Cs12 Co4 I16 N4 O12'
_cell_volume   1767.63595524
_cell_formula_units_Z   4
loop_
 _symmetry_equiv_pos_site_id
 _symmetry_equiv_pos_as_xyz
  1  'x, y, z'
loop_
 _atom_site_type_symbol
 _atom_site_label
 _atom_site_symmetry_multiplicity
 _atom_site_fract_x
 _atom_site_fract_y
 _atom_site_fract_z
 _atom_site_occupancy
  Cs  Cs0  1  0.07734400  0.25000000  0.55137600  1
  Cs  Cs1  1  0.57734400  0.25000000  0.94862400  1
  Cs  Cs2  1  0.92265600  0.75000000  0.44862400  1
  Cs  Cs3  1  0.42265600  0.75000000  0.05137600  1
  Cs  Cs4  1  0.40158400  0.98820400  0.31939100  1
  Cs  Cs5  1  0.90158400  0.51179600  0.18060900  1
  Cs  Cs6  1  0.59841600  0.48820400  0.68060900  1
  Cs  Cs7  1  0.09841600  0.01179600  0.81939100  1
  Cs  Cs8  1  0.59841600  0.01179600  0.68060900  1
  Cs  Cs9  1  0.09841600  0.48820400  0.81939100  1
  Cs  Cs10  1  0.40158400  0.51179600  0.31939100  1
  Cs  Cs11  1  0.90158400  0.98820400  0.18060900  1
  Co  Co12  1  0.67600700  0.25000000  0.40170400  1
  Co  Co13  1  0.17600700  0.25000000  0.09829600  1
  Co  Co14  1  0.32399300  0.75000000  0.59829600  1
  Co  Co15  1  0.82399300  0.75000000  0.90170400  1
  I  I16  1  0.80004200  0.06205500  0.44301800  1
  I  I17  1  0.30004200  0.43794500  0.05698200  1
  I  I18  1  0.19995800  0.56205500  0.55698200  1
  I  I19  1  0.69995800  0.93794500  0.94301800  1
  I  I20  1  0.19995800  0.93794500  0.55698200  1
  I  I21  1  0.69995800  0.56205500  0.94301800  1
  I  I22  1  0.80004200  0.43794500  0.44301800  1
  I  I23  1  0.30004200  0.06205500  0.05698200  1
  I  I24  1  0.46011300  0.25000000  0.50118500  1
  I  I25  1  0.96011300  0.25000000  0.99881500  1
  I  I26  1  0.53988700  0.75000000  0.49881500  1
  I  I27  1  0.03988700  0.75000000  0.00118500  1
  I  I28  1  0.62683000  0.25000000  0.22353800  1
  I  I29  1  0.12683000  0.25000000  0.27646200  1
  I  I30  1  0.37317000  0.75000000  0.77646200  1
  I  I31  1  0.87317000  0.75000000  0.72353800  1
  N  N32  1  0.17447600  0.75000000  0.27267000  1
  N  N33  1  0.67447600  0.75000000  0.22733000  1
  N  N34  1  0.82552400  0.25000000  0.72733000  1
  N  N35  1  0.32552400  0.25000000  0.77267000  1
  O  O36  1  0.29247100  0.75000000  0.24691800  1
  O  O37  1  0.79247100  0.75000000  0.25308200  1
  O  O38  1  0.70752900  0.25000000  0.75308200  1
  O  O39  1  0.20752900  0.25000000  0.74691800  1
  O  O40  1  0.11614100  0.65673500  0.28643100  1
  O  O41  1  0.61614100  0.84326500  0.21356900  1
  O  O42  1  0.88385900  0.15673500  0.71356900  1
  O  O43  1  0.38385900  0.34326500  0.78643100  1
  O  O44  1  0.88385900  0.34326500  0.71356900  1
  O  O45  1  0.38385900  0.15673500  0.78643100  1
  O  O46  1  0.11614100  0.84326500  0.28643100  1
  O  O47  1  0.61614100  0.65673500  0.21356900  1
