# generated using pymatgen
data_Sb(WBr3)5
_symmetry_space_group_name_H-M   'P 1'
_cell_length_a   9.91287600
_cell_length_b   15.34133295
_cell_length_c   19.59257879
_cell_angle_alpha   88.32534282
_cell_angle_beta   80.54168341
_cell_angle_gamma   88.97039453
_symmetry_Int_Tables_number   1
_chemical_formula_structural   Sb(WBr3)5
_chemical_formula_sum   'Sb4 W20 Br60'
_cell_volume   2937.55197251
_cell_formula_units_Z   4
loop_
 _symmetry_equiv_pos_site_id
 _symmetry_equiv_pos_as_xyz
  1  'x, y, z'
loop_
 _atom_site_type_symbol
 _atom_site_label
 _atom_site_symmetry_multiplicity
 _atom_site_fract_x
 _atom_site_fract_y
 _atom_site_fract_z
 _atom_site_occupancy
  Sb  Sb0  1  0.64916800  0.36658100  0.98344400  1
  Sb  Sb1  1  0.35083200  0.63341900  0.01655600  1
  Sb  Sb2  1  0.31692800  0.07049300  0.00181800  1
  Sb  Sb3  1  0.68307200  0.92950700  0.99818200  1
  W  W4  1  0.92967600  0.73997500  0.78807900  1
  W  W5  1  0.07032400  0.26002500  0.21192100  1
  W  W6  1  0.89889600  0.74553000  0.65563300  1
  W  W7  1  0.10110400  0.25447000  0.34436700  1
  W  W8  1  0.05085400  0.62284500  0.70115300  1
  W  W9  1  0.94914600  0.37715500  0.29884700  1
  W  W10  1  0.19974200  0.73713700  0.74956800  1
  W  W11  1  0.80025800  0.26286300  0.25043200  1
  W  W12  1  0.05178500  0.86056900  0.70247400  1
  W  W13  1  0.94821500  0.13943100  0.29752600  1
  W  W14  1  0.40156900  0.23917800  0.75002200  1
  W  W15  1  0.59843100  0.76082200  0.24997800  1
  W  W16  1  0.50990600  0.15783300  0.63621500  1
  W  W17  1  0.49009400  0.84216700  0.36378500  1
  W  W18  1  0.50843100  0.32944200  0.63650000  1
  W  W19  1  0.49156900  0.67055800  0.36350000  1
  W  W20  1  0.24300400  0.32710900  0.67568300  1
  W  W21  1  0.75699600  0.67289100  0.32431700  1
  W  W22  1  0.24409100  0.15814000  0.67645800  1
  W  W23  1  0.75590900  0.84186000  0.32354200  1
  Br  Br24  1  0.78380600  0.61980100  0.74088900  1
  Br  Br25  1  0.21619400  0.38019900  0.25911100  1
  Br  Br26  1  0.07789900  0.61138200  0.83217200  1
  Br  Br27  1  0.92210100  0.38861800  0.16782800  1
  Br  Br28  1  0.08116700  0.85907400  0.83333800  1
  Br  Br29  1  0.91883300  0.14092600  0.16666200  1
  Br  Br30  1  0.78485700  0.86721700  0.74033500  1
  Br  Br31  1  0.21514300  0.13278300  0.25966500  1
  Br  Br32  1  0.02521800  0.63220600  0.57229400  1
  Br  Br33  1  0.97478200  0.36779400  0.42770600  1
  Br  Br34  1  0.31081500  0.62597700  0.66032300  1
  Br  Br35  1  0.68918500  0.37402300  0.33967700  1
  Br  Br36  1  0.31223300  0.85494300  0.66357100  1
  Br  Br37  1  0.68776700  0.14505700  0.33642900  1
  Br  Br38  1  0.02602800  0.86259100  0.57373700  1
  Br  Br39  1  0.97397200  0.13740900  0.42626300  1
  Br  Br40  1  0.76561500  0.74099400  0.90594300  1
  Br  Br41  1  0.23438500  0.25900600  0.09405700  1
  Br  Br42  1  0.68841600  0.74856800  0.59731900  1
  Br  Br43  1  0.31158400  0.25143200  0.40268100  1
  Br  Br44  1  0.03846200  0.44657700  0.70034600  1
  Br  Br45  1  0.96153800  0.55342300  0.29965400  1
  Br  Br46  1  0.40191500  0.72767100  0.81515100  1
  Br  Br47  1  0.59808500  0.27232900  0.18484900  1
  Br  Br48  1  0.04200600  0.03841200  0.70332000  1
  Br  Br49  1  0.95799400  0.96158800  0.29668000  1
  Br  Br50  1  0.66986800  0.23987400  0.70957800  1
  Br  Br51  1  0.33013200  0.76012600  0.29042200  1
  Br  Br52  1  0.39363900  0.41134400  0.74987300  1
  Br  Br53  1  0.60636100  0.58865600  0.25012700  1
  Br  Br54  1  0.13148500  0.24061200  0.78858800  1
  Br  Br55  1  0.86851500  0.75938800  0.21141200  1
  Br  Br56  1  0.39854800  0.06650000  0.74892100  1
  Br  Br57  1  0.60145200  0.93350000  0.25107900  1
  Br  Br58  1  0.60591200  0.24729900  0.52698700  1
  Br  Br59  1  0.39408800  0.75270100  0.47301300  1
  Br  Br60  1  0.34728000  0.40854500  0.56335800  1
  Br  Br61  1  0.65272000  0.59145500  0.43664200  1
  Br  Br62  1  0.08657200  0.24584000  0.60624700  1
  Br  Br63  1  0.91342800  0.75416000  0.39375300  1
  Br  Br64  1  0.35045800  0.08481700  0.56398100  1
  Br  Br65  1  0.64954200  0.91518300  0.43601900  1
  Br  Br66  1  0.43556100  0.23222600  0.87836700  1
  Br  Br67  1  0.56443900  0.76777400  0.12163300  1
  Br  Br68  1  0.69866000  0.04365200  0.61155800  1
  Br  Br69  1  0.30134000  0.95634800  0.38844200  1
  Br  Br70  1  0.69049300  0.44587100  0.61243500  1
  Br  Br71  1  0.30950700  0.55412900  0.38756500  1
  Br  Br72  1  0.71518200  0.42454200  0.85917400  1
  Br  Br73  1  0.28481800  0.57545800  0.14082600  1
  Br  Br74  1  0.68137100  0.50861400  0.04418100  1
  Br  Br75  1  0.31862900  0.49138600  0.95581900  1
  Br  Br76  1  0.87924700  0.29566500  0.99304400  1
  Br  Br77  1  0.12075300  0.70433500  0.00695600  1
  Br  Br78  1  0.39338600  0.93209300  0.92933500  1
  Br  Br79  1  0.60661400  0.06790700  0.07066500  1
  Br  Br80  1  0.10249400  0.08946500  0.94584100  1
  Br  Br81  1  0.89750600  0.91053500  0.05415900  1
  Br  Br82  1  0.22373400  0.97884200  0.11146100  1
  Br  Br83  1  0.77626600  0.02115800  0.88853900  1
