# generated using pymatgen
data_Ba2UTiTe7
_symmetry_space_group_name_H-M   'P 1'
_cell_length_a   6.18216000
_cell_length_b   12.70974500
_cell_length_c   18.99342000
_cell_angle_alpha   90.00000000
_cell_angle_beta   90.00000000
_cell_angle_gamma   90.00000000
_symmetry_Int_Tables_number   1
_chemical_formula_structural   Ba2UTiTe7
_chemical_formula_sum   'Ba8 U4 Ti4 Te28'
_cell_volume   1492.38285104
_cell_formula_units_Z   4
loop_
 _symmetry_equiv_pos_site_id
 _symmetry_equiv_pos_as_xyz
  1  'x, y, z'
loop_
 _atom_site_type_symbol
 _atom_site_label
 _atom_site_symmetry_multiplicity
 _atom_site_fract_x
 _atom_site_fract_y
 _atom_site_fract_z
 _atom_site_occupancy
  Ba  Ba0  1  0.25000000  0.32356200  0.94191500  1
  Ba  Ba1  1  0.25000000  0.82356200  0.55808500  1
  Ba  Ba2  1  0.75000000  0.67643800  0.05808500  1
  Ba  Ba3  1  0.75000000  0.17643800  0.44191500  1
  Ba  Ba4  1  0.25000000  0.44523800  0.27676600  1
  Ba  Ba5  1  0.25000000  0.94523800  0.22323400  1
  Ba  Ba6  1  0.75000000  0.55476200  0.72323400  1
  Ba  Ba7  1  0.75000000  0.05476200  0.77676600  1
  U  U8  1  0.25000000  0.29283700  0.62329800  1
  U  U9  1  0.25000000  0.79283700  0.87670200  1
  U  U10  1  0.75000000  0.70716300  0.37670200  1
  U  U11  1  0.75000000  0.20716300  0.12329800  1
  Ti  Ti12  1  0.00000000  0.00000000  0.00000000  1
  Ti  Ti13  1  0.50000000  0.50000000  0.50000000  1
  Ti  Ti14  1  0.50000000  0.00000000  0.00000000  1
  Ti  Ti15  1  0.00000000  0.50000000  0.50000000  1
  Te  Te16  1  0.00174700  0.08063100  0.60181200  1
  Te  Te17  1  0.49825300  0.58063100  0.89818800  1
  Te  Te18  1  0.50174700  0.91936900  0.39818800  1
  Te  Te19  1  0.99825300  0.41936900  0.10181200  1
  Te  Te20  1  0.99825300  0.91936900  0.39818800  1
  Te  Te21  1  0.50174700  0.41936900  0.10181200  1
  Te  Te22  1  0.49825300  0.08063100  0.60181200  1
  Te  Te23  1  0.00174700  0.58063100  0.89818800  1
  Te  Te24  1  0.00223400  0.30792200  0.76698600  1
  Te  Te25  1  0.49776600  0.80792200  0.73301400  1
  Te  Te26  1  0.50223400  0.69207800  0.23301400  1
  Te  Te27  1  0.99776600  0.19207800  0.26698600  1
  Te  Te28  1  0.99776600  0.69207800  0.23301400  1
  Te  Te29  1  0.50223400  0.19207800  0.26698600  1
  Te  Te30  1  0.49776600  0.30792200  0.76698600  1
  Te  Te31  1  0.00223400  0.80792200  0.73301400  1
  Te  Te32  1  0.25000000  0.03909100  0.87707100  1
  Te  Te33  1  0.25000000  0.53909100  0.62292900  1
  Te  Te34  1  0.75000000  0.96090900  0.12292900  1
  Te  Te35  1  0.75000000  0.46090900  0.37707100  1
  Te  Te36  1  0.25000000  0.32166900  0.45979200  1
  Te  Te37  1  0.25000000  0.82166900  0.04020800  1
  Te  Te38  1  0.75000000  0.67833100  0.54020800  1
  Te  Te39  1  0.75000000  0.17833100  0.95979200  1
  Te  Te40  1  0.25000000  0.63986000  0.41558000  1
  Te  Te41  1  0.25000000  0.13986000  0.08442000  1
  Te  Te42  1  0.75000000  0.36014000  0.58442000  1
  Te  Te43  1  0.75000000  0.86014000  0.91558000  1
