# generated using pymatgen
data_Ag2Pd(NO2)4
_symmetry_space_group_name_H-M   'P 1'
_cell_length_a   15.04286900
_cell_length_b   7.72003000
_cell_length_c   8.56586628
_cell_angle_alpha   56.71005135
_cell_angle_beta   90.00000000
_cell_angle_gamma   90.00000000
_symmetry_Int_Tables_number   1
_chemical_formula_structural   Ag2Pd(NO2)4
_chemical_formula_sum   'Ag8 Pd4 N16 O32'
_cell_volume   831.52857916
_cell_formula_units_Z   4
loop_
 _symmetry_equiv_pos_site_id
 _symmetry_equiv_pos_as_xyz
  1  'x, y, z'
loop_
 _atom_site_type_symbol
 _atom_site_label
 _atom_site_symmetry_multiplicity
 _atom_site_fract_x
 _atom_site_fract_y
 _atom_site_fract_z
 _atom_site_occupancy
  Ag  Ag0  1  0.83966700  0.15323800  0.92199800  1
  Ag  Ag1  1  0.66033300  0.15323800  0.42199800  1
  Ag  Ag2  1  0.16033300  0.84676200  0.07800200  1
  Ag  Ag3  1  0.33966700  0.84676200  0.57800200  1
  Ag  Ag4  1  0.92174800  0.72379300  0.77427400  1
  Ag  Ag5  1  0.57825200  0.72379300  0.27427400  1
  Ag  Ag6  1  0.07825200  0.27620700  0.22572600  1
  Ag  Ag7  1  0.42174800  0.27620700  0.72572600  1
  Pd  Pd8  1  0.86838000  0.70521700  0.33837200  1
  Pd  Pd9  1  0.63162000  0.70521700  0.83837200  1
  Pd  Pd10  1  0.13162000  0.29478300  0.66162800  1
  Pd  Pd11  1  0.36838000  0.29478300  0.16162800  1
  N  N12  1  0.77707700  0.47355000  0.41627200  1
  N  N13  1  0.72292300  0.47355000  0.91627200  1
  N  N14  1  0.22292300  0.52645000  0.58372800  1
  N  N15  1  0.27707700  0.52645000  0.08372800  1
  N  N16  1  0.96439600  0.92778500  0.27296300  1
  N  N17  1  0.53560400  0.92778500  0.77296300  1
  N  N18  1  0.03560400  0.07221500  0.72703700  1
  N  N19  1  0.46439600  0.07221500  0.22703700  1
  N  N20  1  0.95234300  0.55332200  0.25843600  1
  N  N21  1  0.54765700  0.55332200  0.75843600  1
  N  N22  1  0.04765700  0.44667800  0.74156400  1
  N  N23  1  0.45234300  0.44667800  0.24156400  1
  N  N24  1  0.78191600  0.86335600  0.40686000  1
  N  N25  1  0.71808400  0.86335600  0.90686000  1
  N  N26  1  0.21808400  0.13664400  0.59314000  1
  N  N27  1  0.28191600  0.13664400  0.09314000  1
  O  O28  1  0.69902700  0.86699100  0.38416800  1
  O  O29  1  0.80097300  0.86699100  0.88416800  1
  O  O30  1  0.30097300  0.13300900  0.61583200  1
  O  O31  1  0.19902700  0.13300900  0.11583200  1
  O  O32  1  0.81378300  0.96835800  0.46336500  1
  O  O33  1  0.68621700  0.96835800  0.96336500  1
  O  O34  1  0.18621700  0.03164200  0.53663500  1
  O  O35  1  0.31378300  0.03164200  0.03663500  1
  O  O36  1  0.92168800  0.46929000  0.18072000  1
  O  O37  1  0.57831200  0.46929000  0.68072000  1
  O  O38  1  0.07831200  0.53071000  0.81928000  1
  O  O39  1  0.42168800  0.53071000  0.31928000  1
  O  O40  1  0.71524800  0.50234600  0.30541300  1
  O  O41  1  0.78475200  0.50234600  0.80541300  1
  O  O42  1  0.28475200  0.49765400  0.69458700  1
  O  O43  1  0.21524800  0.49765400  0.19458700  1
  O  O44  1  0.78583800  0.30198800  0.56440300  1
  O  O45  1  0.71416200  0.30198800  0.06440300  1
  O  O46  1  0.21416200  0.69801200  0.43559700  1
  O  O47  1  0.28583800  0.69801200  0.93559700  1
  O  O48  1  0.03397100  0.53969300  0.29470800  1
  O  O49  1  0.46602900  0.53969300  0.79470800  1
  O  O50  1  0.96602900  0.46030700  0.70529200  1
  O  O51  1  0.53397100  0.46030700  0.20529200  1
  O  O52  1  0.01935000  0.90355800  0.39108000  1
  O  O53  1  0.48065000  0.90355800  0.89108000  1
  O  O54  1  0.98065000  0.09644200  0.60892000  1
  O  O55  1  0.51935000  0.09644200  0.10892000  1
  O  O56  1  0.96509500  0.09677600  0.11368000  1
  O  O57  1  0.53490500  0.09677600  0.61368000  1
  O  O58  1  0.03490500  0.90322400  0.88632000  1
  O  O59  1  0.46509500  0.90322400  0.38632000  1
