# generated using pymatgen
data_K2PrN5O17
_symmetry_space_group_name_H-M   'P 1'
_cell_length_a   12.44012632
_cell_length_b   12.21490447
_cell_length_c   8.43704759
_cell_angle_alpha   71.43270685
_cell_angle_beta   68.55801550
_cell_angle_gamma   40.00927765
_symmetry_Int_Tables_number   1
_chemical_formula_structural   K2PrN5O17
_chemical_formula_sum   'K4 Pr2 N10 O34'
_cell_volume   765.61511298
_cell_formula_units_Z   2
loop_
 _symmetry_equiv_pos_site_id
 _symmetry_equiv_pos_as_xyz
  1  'x, y, z'
loop_
 _atom_site_type_symbol
 _atom_site_label
 _atom_site_symmetry_multiplicity
 _atom_site_fract_x
 _atom_site_fract_y
 _atom_site_fract_z
 _atom_site_occupancy
  K  K0  1  0.10696900  0.68739500  0.42766100  1
  K  K1  1  0.42766100  0.77797400  0.10696900  1
  K  K2  1  0.56260500  0.14303100  0.47202600  1
  K  K3  1  0.47202600  0.82233900  0.56260500  1
  Pr  Pr4  1  0.75586500  0.24413500  0.75586500  1
  Pr  Pr5  1  0.00586500  0.49413500  0.00586500  1
  N  N6  1  0.09061400  0.05937600  0.82749300  1
  N  N7  1  0.82749300  0.02251700  0.09061400  1
  N  N8  1  0.19062400  0.15938600  0.22748300  1
  N  N9  1  0.22748300  0.42250700  0.19062400  1
  N  N10  1  0.95419600  0.06433700  0.42372600  1
  N  N11  1  0.42372600  0.55774100  0.95419600  1
  N  N12  1  0.18566300  0.29580400  0.69225900  1
  N  N13  1  0.69225900  0.82627400  0.18566300  1
  N  N14  1  0.49566400  0.50433600  0.49566400  1
  N  N15  1  0.74566400  0.75433600  0.74566400  1
  O  O16  1  0.91517500  0.96039000  0.94402100  1
  O  O17  1  0.94402100  0.18041400  0.91517500  1
  O  O18  1  0.28961000  0.33482500  0.06958600  1
  O  O19  1  0.06958600  0.30597900  0.28961000  1
  O  O20  1  0.91398900  0.00467200  0.55798000  1
  O  O21  1  0.55798000  0.52336000  0.91398900  1
  O  O22  1  0.24532800  0.33601100  0.72664000  1
  O  O23  1  0.72664000  0.69202000  0.24532800  1
  O  O24  1  0.09372000  0.02499700  0.69685300  1
  O  O25  1  0.69685300  0.18442900  0.09372000  1
  O  O26  1  0.22500300  0.15628000  0.06557100  1
  O  O27  1  0.06557100  0.55314700  0.22500300  1
  O  O28  1  0.32019700  0.38277700  0.27172300  1
  O  O29  1  0.27172300  0.02530400  0.32019700  1
  O  O30  1  0.86722300  0.92980300  0.22469600  1
  O  O31  1  0.22469600  0.97827700  0.86722300  1
  O  O32  1  0.88444000  0.21111600  0.43069200  1
  O  O33  1  0.43069200  0.47375100  0.88444000  1
  O  O34  1  0.03888400  0.36556000  0.77624900  1
  O  O35  1  0.77624900  0.81930800  0.03888400  1
  O  O36  1  0.05646100  0.98045700  0.29609100  1
  O  O37  1  0.29609100  0.66699200  0.05646100  1
  O  O38  1  0.26954300  0.19353900  0.58300800  1
  O  O39  1  0.58300800  0.95390900  0.26954300  1
  O  O40  1  0.39478000  0.60522000  0.39478000  1
  O  O41  1  0.64478000  0.85522000  0.64478000  1
  O  O42  1  0.54337900  0.36491800  0.55311300  1
  O  O43  1  0.55311300  0.53858900  0.54337900  1
  O  O44  1  0.88508100  0.70662100  0.71141100  1
  O  O45  1  0.71141100  0.69688700  0.88508200  1
  O  O46  1  0.62196500  0.14063600  0.82663200  1
  O  O47  1  0.82663200  0.41076700  0.62196500  1
  O  O48  1  0.10936400  0.62803500  0.83923300  1
  O  O49  1  0.83923300  0.42336800  0.10936400  1
