# generated using pymatgen
data_K2MnV14O40
_symmetry_space_group_name_H-M   'P 1'
_cell_length_a   12.95563776
_cell_length_b   12.95563776
_cell_length_c   12.95563776
_cell_angle_alpha   127.00734550
_cell_angle_beta   127.00734550
_cell_angle_gamma   78.23870146
_symmetry_Int_Tables_number   1
_chemical_formula_structural   K2MnV14O40
_chemical_formula_sum   'K2 Mn1 V14 O40'
_cell_volume   1343.22270766
_cell_formula_units_Z   1
loop_
 _symmetry_equiv_pos_site_id
 _symmetry_equiv_pos_as_xyz
  1  'x, y, z'
loop_
 _atom_site_type_symbol
 _atom_site_label
 _atom_site_symmetry_multiplicity
 _atom_site_fract_x
 _atom_site_fract_y
 _atom_site_fract_z
 _atom_site_occupancy
  K  K0  1  0.50000000  0.00000000  0.50000000  1
  K  K1  1  0.00000000  0.50000000  0.50000000  1
  Mn  Mn2  1  0.50000000  0.50000000  0.00000000  1
  V  V3  1  0.28287300  0.28287300  0.00000000  1
  V  V4  1  0.71712700  0.71712700  0.00000000  1
  V  V5  1  0.70137100  0.29862900  0.00000000  1
  V  V6  1  0.29862900  0.70137100  0.00000000  1
  V  V7  1  0.70137100  0.70137100  0.40274100  1
  V  V8  1  0.29862900  0.29862900  0.59725900  1
  V  V9  1  0.39227200  0.19318900  0.80091700  1
  V  V10  1  0.39227200  0.59135500  0.19908300  1
  V  V11  1  0.19318900  0.39227200  0.80091700  1
  V  V12  1  0.59135500  0.39227200  0.19908300  1
  V  V13  1  0.60772800  0.80681100  0.19908300  1
  V  V14  1  0.60772800  0.40864500  0.80091700  1
  V  V15  1  0.80681100  0.60772800  0.19908300  1
  V  V16  1  0.40864500  0.60772800  0.80091700  1
  O  O17  1  0.57231600  0.24604300  0.00000000  1
  O  O18  1  0.24604300  0.57231600  0.00000000  1
  O  O19  1  0.57231600  0.57231600  0.32627300  1
  O  O20  1  0.24604300  0.24604300  0.67372700  1
  O  O21  1  0.42768400  0.75395700  0.00000000  1
  O  O22  1  0.75395700  0.42768400  0.00000000  1
  O  O23  1  0.42768400  0.42768400  0.67372700  1
  O  O24  1  0.75395700  0.75395700  0.32627300  1
  O  O25  1  0.50000000  0.66889900  0.16889900  1
  O  O26  1  0.50000000  0.33110100  0.83110100  1
  O  O27  1  0.66889900  0.50000000  0.16889900  1
  O  O28  1  0.33110100  0.50000000  0.83110100  1
  O  O29  1  0.20297000  0.20297000  0.00000000  1
  O  O30  1  0.79703000  0.79703000  0.00000000  1
  O  O31  1  0.30798500  0.14723500  0.83925000  1
  O  O32  1  0.30798500  0.46873400  0.16075000  1
  O  O33  1  0.14723500  0.30798500  0.83925000  1
  O  O34  1  0.46873400  0.30798500  0.16075000  1
  O  O35  1  0.69201500  0.85276500  0.16075000  1
  O  O36  1  0.69201500  0.53126600  0.83925000  1
  O  O37  1  0.85276500  0.69201500  0.16075000  1
  O  O38  1  0.53126600  0.69201500  0.83925000  1
  O  O39  1  0.39630200  0.05651500  0.66021300  1
  O  O40  1  0.39630200  0.73608800  0.33978700  1
  O  O41  1  0.05651500  0.39630200  0.66021300  1
  O  O42  1  0.73608800  0.39630200  0.33978700  1
  O  O43  1  0.60369800  0.94348500  0.33978700  1
  O  O44  1  0.60369800  0.26391200  0.66021300  1
  O  O45  1  0.94348500  0.60369800  0.33978700  1
  O  O46  1  0.26391200  0.60369800  0.66021300  1
  O  O47  1  0.40675600  0.40675600  0.00000000  1
  O  O48  1  0.59324400  0.59324400  0.00000000  1
  O  O49  1  0.84595200  0.31015800  0.15611000  1
  O  O50  1  0.15404800  0.68984200  0.84389000  1
  O  O51  1  0.84595200  0.68984200  0.53579400  1
  O  O52  1  0.15404800  0.31015800  0.46420600  1
  O  O53  1  0.31015800  0.15404800  0.46420600  1
  O  O54  1  0.68984200  0.84595200  0.53579400  1
  O  O55  1  0.31015800  0.84595200  0.15611000  1
  O  O56  1  0.68984200  0.15404800  0.84389000  1
