# generated using pymatgen
data_Ba7V6CoCl4O21
_symmetry_space_group_name_H-M   'P 1'
_cell_length_a   10.07483770
_cell_length_b   10.07483770
_cell_length_c   15.03349600
_cell_angle_alpha   90.00000000
_cell_angle_beta   90.00000000
_cell_angle_gamma   115.41707775
_symmetry_Int_Tables_number   1
_chemical_formula_structural   Ba7V6CoCl4O21
_chemical_formula_sum   'Ba14 V12 Co2 Cl8 O42'
_cell_volume   1378.23600747
_cell_formula_units_Z   2
loop_
 _symmetry_equiv_pos_site_id
 _symmetry_equiv_pos_as_xyz
  1  'x, y, z'
loop_
 _atom_site_type_symbol
 _atom_site_label
 _atom_site_symmetry_multiplicity
 _atom_site_fract_x
 _atom_site_fract_y
 _atom_site_fract_z
 _atom_site_occupancy
  Ba  Ba0  1  0.54476500  0.84676200  0.25000000  1
  Ba  Ba1  1  0.15323800  0.45523500  0.75000000  1
  Ba  Ba2  1  0.45523500  0.15323800  0.75000000  1
  Ba  Ba3  1  0.84676200  0.54476500  0.25000000  1
  Ba  Ba4  1  0.54542000  0.83682200  0.96048200  1
  Ba  Ba5  1  0.16317800  0.45458000  0.03951800  1
  Ba  Ba6  1  0.54542000  0.83682200  0.53951800  1
  Ba  Ba7  1  0.16317800  0.45458000  0.46048200  1
  Ba  Ba8  1  0.45458000  0.16317800  0.03951800  1
  Ba  Ba9  1  0.83682200  0.54542000  0.96048200  1
  Ba  Ba10  1  0.45458000  0.16317800  0.46048200  1
  Ba  Ba11  1  0.83682200  0.54542000  0.53951800  1
  Ba  Ba12  1  0.86593700  0.86593700  0.75000000  1
  Ba  Ba13  1  0.13406300  0.13406300  0.25000000  1
  V  V14  1  0.49263900  0.49263900  0.13753600  1
  V  V15  1  0.50736100  0.50736100  0.86246400  1
  V  V16  1  0.49263900  0.49263900  0.36246400  1
  V  V17  1  0.50736100  0.50736100  0.63753600  1
  V  V18  1  0.82573700  0.16820300  0.86857000  1
  V  V19  1  0.83179700  0.17426300  0.13143000  1
  V  V20  1  0.82573700  0.16820300  0.63143000  1
  V  V21  1  0.83179700  0.17426300  0.36857000  1
  V  V22  1  0.17426300  0.83179700  0.13143000  1
  V  V23  1  0.16820300  0.82573700  0.86857000  1
  V  V24  1  0.17426300  0.83179700  0.36857000  1
  V  V25  1  0.16820300  0.82573700  0.63143000  1
  Co  Co26  1  0.00000000  0.00000000  0.00000000  1
  Co  Co27  1  0.00000000  0.00000000  0.50000000  1
  Cl  Cl28  1  0.81670200  0.81670200  0.11081000  1
  Cl  Cl29  1  0.18329800  0.18329800  0.88919000  1
  Cl  Cl30  1  0.81670200  0.81670200  0.38919000  1
  Cl  Cl31  1  0.18329800  0.18329800  0.61081000  1
  Cl  Cl32  1  0.50951400  0.84114800  0.75000000  1
  Cl  Cl33  1  0.15885200  0.49048600  0.25000000  1
  Cl  Cl34  1  0.49048600  0.15885200  0.25000000  1
  Cl  Cl35  1  0.84114800  0.50951400  0.75000000  1
  O  O36  1  0.55815600  0.55815600  0.25000000  1
  O  O37  1  0.44184400  0.44184400  0.75000000  1
  O  O38  1  0.33328100  0.33328100  0.12679000  1
  O  O39  1  0.66671900  0.66671900  0.87321000  1
  O  O40  1  0.33328100  0.33328100  0.37321000  1
  O  O41  1  0.66671900  0.66671900  0.62679000  1
  O  O42  1  0.94569400  0.33260600  0.91199800  1
  O  O43  1  0.66739400  0.05430600  0.08800200  1
  O  O44  1  0.94569400  0.33260600  0.58800200  1
  O  O45  1  0.66739400  0.05430600  0.41199800  1
  O  O46  1  0.05430600  0.66739400  0.08800200  1
  O  O47  1  0.33260600  0.94569400  0.91199800  1
  O  O48  1  0.05430600  0.66739400  0.41199800  1
  O  O49  1  0.33260600  0.94569400  0.58800200  1
  O  O50  1  0.87480600  0.16776100  0.75000000  1
  O  O51  1  0.83223900  0.12519400  0.25000000  1
  O  O52  1  0.12519400  0.83223900  0.25000000  1
  O  O53  1  0.16776100  0.87480600  0.75000000  1
  O  O54  1  0.83762300  0.01405600  0.91480900  1
  O  O55  1  0.98594400  0.16237700  0.08519100  1
  O  O56  1  0.83762300  0.01405600  0.58519100  1
  O  O57  1  0.98594400  0.16237700  0.41480900  1
  O  O58  1  0.16237700  0.98594400  0.08519100  1
  O  O59  1  0.01405600  0.83762300  0.91480900  1
  O  O60  1  0.16237700  0.98594400  0.41480900  1
  O  O61  1  0.01405600  0.83762300  0.58519100  1
  O  O62  1  0.65020400  0.14508300  0.88401500  1
  O  O63  1  0.85491700  0.34979600  0.11598500  1
  O  O64  1  0.65020400  0.14508300  0.61598500  1
  O  O65  1  0.85491700  0.34979600  0.38401500  1
  O  O66  1  0.34979600  0.85491700  0.11598500  1
  O  O67  1  0.14508300  0.65020400  0.88401500  1
  O  O68  1  0.34979600  0.85491700  0.38401500  1
  O  O69  1  0.14508300  0.65020400  0.61598500  1
  O  O70  1  0.46019600  0.63045300  0.09105000  1
  O  O71  1  0.36954700  0.53980400  0.90895000  1
  O  O72  1  0.46019600  0.63045300  0.40895000  1
  O  O73  1  0.36954700  0.53980400  0.59105000  1
  O  O74  1  0.53980400  0.36954700  0.90895000  1
  O  O75  1  0.63045300  0.46019600  0.09105000  1
  O  O76  1  0.53980400  0.36954700  0.59105000  1
  O  O77  1  0.63045300  0.46019600  0.40895000  1
