# generated using pymatgen
data_Na3B6ClO10
_symmetry_space_group_name_H-M   'P 1'
_cell_length_a   7.48956300
_cell_length_b   10.00589800
_cell_length_c   12.89428500
_cell_angle_alpha   90.00000000
_cell_angle_beta   90.00000000
_cell_angle_gamma   90.00000000
_symmetry_Int_Tables_number   1
_chemical_formula_structural   Na3B6ClO10
_chemical_formula_sum   'Na12 B24 Cl4 O40'
_cell_volume   966.29518343
_cell_formula_units_Z   4
loop_
 _symmetry_equiv_pos_site_id
 _symmetry_equiv_pos_as_xyz
  1  'x, y, z'
loop_
 _atom_site_type_symbol
 _atom_site_label
 _atom_site_symmetry_multiplicity
 _atom_site_fract_x
 _atom_site_fract_y
 _atom_site_fract_z
 _atom_site_occupancy
  Na  Na0  1  0.55270000  0.70917800  0.25710300  1
  Na  Na1  1  0.94730000  0.29082200  0.75710300  1
  Na  Na2  1  0.05270000  0.79082200  0.74289700  1
  Na  Na3  1  0.44730000  0.20917800  0.24289700  1
  Na  Na4  1  0.02520200  0.75891600  0.24574800  1
  Na  Na5  1  0.47479800  0.24108400  0.74574800  1
  Na  Na6  1  0.52520200  0.74108400  0.75425200  1
  Na  Na7  1  0.97479800  0.25891600  0.25425200  1
  Na  Na8  1  0.86899300  0.50336300  0.05762200  1
  Na  Na9  1  0.63100700  0.49663700  0.55762200  1
  Na  Na10  1  0.36899300  0.99663700  0.94237800  1
  Na  Na11  1  0.13100700  0.00336300  0.44237800  1
  B  B12  1  0.74885700  0.99896300  0.25620600  1
  B  B13  1  0.75114300  0.00103700  0.75620600  1
  B  B14  1  0.24885700  0.50103700  0.74379400  1
  B  B15  1  0.25114300  0.49896300  0.24379400  1
  B  B16  1  0.97682800  0.23352800  0.98092300  1
  B  B17  1  0.52317200  0.76647200  0.48092300  1
  B  B18  1  0.47682800  0.26647200  0.01907700  1
  B  B19  1  0.02317200  0.73352800  0.51907700  1
  B  B20  1  0.24839600  0.63112600  0.91037600  1
  B  B21  1  0.25160400  0.36887400  0.41037600  1
  B  B22  1  0.74839600  0.86887400  0.08962400  1
  B  B23  1  0.75160400  0.13112600  0.58962400  1
  B  B24  1  0.88599200  0.00183400  0.93387400  1
  B  B25  1  0.61400800  0.99816600  0.43387400  1
  B  B26  1  0.38599200  0.49816600  0.06612600  1
  B  B27  1  0.11400800  0.50183400  0.56612600  1
  B  B28  1  0.98340400  0.76963000  0.97600400  1
  B  B29  1  0.51659600  0.23037000  0.47600400  1
  B  B30  1  0.48340400  0.73037000  0.02399600  1
  B  B31  1  0.01659600  0.26963000  0.52399600  1
  B  B32  1  0.23975300  0.37049500  0.91151700  1
  B  B33  1  0.26024700  0.62950500  0.41151700  1
  B  B34  1  0.73975300  0.12950500  0.08848300  1
  B  B35  1  0.76024700  0.87049500  0.58848300  1
  Cl  Cl36  1  0.81910400  0.51646900  0.27964400  1
  Cl  Cl37  1  0.68089600  0.48353100  0.77964400  1
  Cl  Cl38  1  0.31910400  0.98353100  0.72035600  1
  Cl  Cl39  1  0.18089600  0.01646900  0.22035600  1
  O  O40  1  0.81487800  0.00010000  0.04479800  1
  O  O41  1  0.68512200  0.99990000  0.54479800  1
  O  O42  1  0.31487800  0.49990000  0.95520200  1
  O  O43  1  0.18512200  0.50010000  0.45520200  1
  O  O44  1  0.87136500  0.76137500  0.06097300  1
  O  O45  1  0.62863500  0.23862500  0.56097400  1
  O  O46  1  0.37136500  0.73862500  0.93902600  1
  O  O47  1  0.12863500  0.26137500  0.43902600  1
  O  O48  1  0.86391300  0.23872000  0.06547800  1
  O  O49  1  0.63608700  0.76128000  0.56547800  1
  O  O50  1  0.36391300  0.26128000  0.93452200  1
  O  O51  1  0.13608700  0.73872000  0.43452200  1
  O  O52  1  0.75183800  0.87832300  0.20419300  1
  O  O53  1  0.74816200  0.12167700  0.70419300  1
  O  O54  1  0.25183800  0.62167700  0.79580700  1
  O  O55  1  0.24816200  0.37832300  0.29580700  1
  O  O56  1  0.72830700  0.11766800  0.20258000  1
  O  O57  1  0.77169300  0.88233200  0.70258000  1
  O  O58  1  0.22830700  0.38233200  0.79742000  1
  O  O59  1  0.27169300  0.61766800  0.29742000  1
  O  O60  1  0.00281600  0.88462900  0.91913700  1
  O  O61  1  0.49718400  0.11537100  0.41913700  1
  O  O62  1  0.50281600  0.61537100  0.08086300  1
  O  O63  1  0.99718400  0.38462900  0.58086300  1
  O  O64  1  0.76489800  0.00177300  0.36203000  1
  O  O65  1  0.73510200  0.99822700  0.86203000  1
  O  O66  1  0.26489800  0.49822700  0.63797000  1
  O  O67  1  0.23510200  0.50177300  0.13797000  1
  O  O68  1  0.99270500  0.12312300  0.91869100  1
  O  O69  1  0.50729500  0.87687700  0.41869100  1
  O  O70  1  0.49270500  0.37687700  0.08130900  1
  O  O71  1  0.00729500  0.62312300  0.58130900  1
  O  O72  1  0.06889800  0.65362900  0.94954600  1
  O  O73  1  0.43110200  0.34637100  0.44954600  1
  O  O74  1  0.56889800  0.84637100  0.05045400  1
  O  O75  1  0.93110200  0.15362900  0.55045400  1
  O  O76  1  0.06382200  0.35021500  0.95747800  1
  O  O77  1  0.43617800  0.64978500  0.45747800  1
  O  O78  1  0.56382200  0.14978500  0.04252200  1
  O  O79  1  0.93617800  0.85021500  0.54252200  1
