# generated using pymatgen
data_Na3U6GaF30
_symmetry_space_group_name_H-M   'P 1'
_cell_length_a   9.90067829
_cell_length_b   9.90067829
_cell_length_c   13.01885600
_cell_angle_alpha   90.00000000
_cell_angle_beta   90.00000000
_cell_angle_gamma   120.00000195
_symmetry_Int_Tables_number   1
_chemical_formula_structural   Na3U6GaF30
_chemical_formula_sum   'Na6 U12 Ga2 F60'
_cell_volume   1105.18083318
_cell_formula_units_Z   2
loop_
 _symmetry_equiv_pos_site_id
 _symmetry_equiv_pos_as_xyz
  1  'x, y, z'
loop_
 _atom_site_type_symbol
 _atom_site_label
 _atom_site_symmetry_multiplicity
 _atom_site_fract_x
 _atom_site_fract_y
 _atom_site_fract_z
 _atom_site_occupancy
  Na  Na0  1  0.66666700  0.33333300  0.83595900  1
  Na  Na1  1  0.66666700  0.33333300  0.33595900  1
  Na  Na2  1  0.33333300  0.66666700  0.16404100  1
  Na  Na3  1  0.33333300  0.66666700  0.66404100  1
  Na  Na4  1  0.00000000  0.00000000  0.00000000  1
  Na  Na5  1  0.00000000  0.00000000  0.50000000  1
  U  U6  1  0.07595900  0.40045200  0.89841600  1
  U  U7  1  0.32449300  0.92404100  0.89841600  1
  U  U8  1  0.59954800  0.67550700  0.89841600  1
  U  U9  1  0.07595900  0.67550700  0.39841600  1
  U  U10  1  0.59954800  0.92404100  0.39841600  1
  U  U11  1  0.32449300  0.40045200  0.39841600  1
  U  U12  1  0.92404100  0.59954800  0.10158400  1
  U  U13  1  0.67550700  0.07595900  0.10158400  1
  U  U14  1  0.40045200  0.32449300  0.10158400  1
  U  U15  1  0.92404100  0.32449300  0.60158400  1
  U  U16  1  0.40045200  0.07595900  0.60158400  1
  U  U17  1  0.67550700  0.59954800  0.60158400  1
  Ga  Ga18  1  0.00000000  0.00000000  0.75000000  1
  Ga  Ga19  1  0.00000000  0.00000000  0.25000000  1
  F  F20  1  0.86940600  0.30223000  0.78465700  1
  F  F21  1  0.43282400  0.13059400  0.78465700  1
  F  F22  1  0.69777000  0.56717600  0.78465700  1
  F  F23  1  0.86940600  0.56717600  0.28465700  1
  F  F24  1  0.69777000  0.13059400  0.28465700  1
  F  F25  1  0.43282400  0.30223000  0.28465700  1
  F  F26  1  0.13059400  0.69777000  0.21534300  1
  F  F27  1  0.56717600  0.86940600  0.21534300  1
  F  F28  1  0.30223000  0.43282400  0.21534300  1
  F  F29  1  0.13059400  0.43282400  0.71534300  1
  F  F30  1  0.30223000  0.86940600  0.71534300  1
  F  F31  1  0.56717600  0.69777000  0.71534300  1
  F  F32  1  0.88626200  0.19324500  0.98207000  1
  F  F33  1  0.30698200  0.11373800  0.98207000  1
  F  F34  1  0.80675500  0.69301800  0.98207000  1
  F  F35  1  0.88626200  0.69301800  0.48207000  1
  F  F36  1  0.80675500  0.11373800  0.48207000  1
  F  F37  1  0.30698200  0.19324500  0.48207000  1
  F  F38  1  0.11373800  0.80675500  0.01793000  1
  F  F39  1  0.69301800  0.88626200  0.01793000  1
  F  F40  1  0.19324500  0.30698200  0.01793000  1
  F  F41  1  0.11373800  0.30698200  0.51793000  1
  F  F42  1  0.19324500  0.88626200  0.51793000  1
  F  F43  1  0.69301800  0.80675500  0.51793000  1
  F  F44  1  0.11950400  0.53188300  0.05089100  1
  F  F45  1  0.41238000  0.88049600  0.05089100  1
  F  F46  1  0.46811700  0.58762000  0.05089100  1
  F  F47  1  0.11950400  0.58762000  0.55089100  1
  F  F48  1  0.46811700  0.88049600  0.55089100  1
  F  F49  1  0.41238000  0.53188300  0.55089100  1
  F  F50  1  0.88049600  0.46811700  0.94910900  1
  F  F51  1  0.58762000  0.11950400  0.94910900  1
  F  F52  1  0.53188300  0.41238000  0.94910900  1
  F  F53  1  0.88049600  0.41238000  0.44910900  1
  F  F54  1  0.53188300  0.11950400  0.44910900  1
  F  F55  1  0.58762000  0.46811700  0.44910900  1
  F  F56  1  0.82039400  0.90243000  0.83712500  1
  F  F57  1  0.08203600  0.17960600  0.83712500  1
  F  F58  1  0.09757000  0.91796400  0.83712500  1
  F  F59  1  0.82039400  0.91796400  0.33712500  1
  F  F60  1  0.09757000  0.17960600  0.33712500  1
  F  F61  1  0.08203600  0.90243000  0.33712500  1
  F  F62  1  0.17960600  0.09757000  0.16287500  1
  F  F63  1  0.91796400  0.82039400  0.16287500  1
  F  F64  1  0.90243000  0.08203600  0.16287500  1
  F  F65  1  0.17960600  0.08203600  0.66287500  1
  F  F66  1  0.90243000  0.82039400  0.66287500  1
  F  F67  1  0.91796400  0.09757000  0.66287500  1
  F  F68  1  0.34107700  0.51220900  0.86183800  1
  F  F69  1  0.17113300  0.65892300  0.86183800  1
  F  F70  1  0.48779100  0.82886700  0.86183800  1
  F  F71  1  0.34107700  0.82886700  0.36183800  1
  F  F72  1  0.48779100  0.65892300  0.36183800  1
  F  F73  1  0.17113300  0.51220900  0.36183800  1
  F  F74  1  0.65892300  0.48779100  0.13816200  1
  F  F75  1  0.82886700  0.34107700  0.13816200  1
  F  F76  1  0.51220900  0.17113300  0.13816200  1
  F  F77  1  0.65892300  0.17113300  0.63816200  1
  F  F78  1  0.51220900  0.34107700  0.63816200  1
  F  F79  1  0.82886700  0.48779100  0.63816200  1
