# generated using pymatgen
data_NaLaP2H4CO7
_symmetry_space_group_name_H-M   'P 1'
_cell_length_a   15.32647900
_cell_length_b   6.96166300
_cell_length_c   7.07261382
_cell_angle_alpha   84.72256434
_cell_angle_beta   90.00000000
_cell_angle_gamma   90.00000000
_symmetry_Int_Tables_number   1
_chemical_formula_structural   NaLaP2H4CO7
_chemical_formula_sum   'Na4 La4 P8 H16 C4 O28'
_cell_volume   751.43331895
_cell_formula_units_Z   4
loop_
 _symmetry_equiv_pos_site_id
 _symmetry_equiv_pos_as_xyz
  1  'x, y, z'
loop_
 _atom_site_type_symbol
 _atom_site_label
 _atom_site_symmetry_multiplicity
 _atom_site_fract_x
 _atom_site_fract_y
 _atom_site_fract_z
 _atom_site_occupancy
  Na  Na0  1  0.53645300  0.13678200  0.79177500  1
  Na  Na1  1  0.03645300  0.36321800  0.20822500  1
  Na  Na2  1  0.46354700  0.86321800  0.20822500  1
  Na  Na3  1  0.96354700  0.63678200  0.79177500  1
  La  La4  1  0.60266900  0.42772400  0.34444500  1
  La  La5  1  0.10266900  0.07227600  0.65555500  1
  La  La6  1  0.39733100  0.57227600  0.65555500  1
  La  La7  1  0.89733100  0.92772400  0.34444500  1
  P  P8  1  0.40956700  0.36381500  0.17124700  1
  P  P9  1  0.90956700  0.13618500  0.82875300  1
  P  P10  1  0.59043300  0.63618500  0.82875300  1
  P  P11  1  0.09043300  0.86381500  0.17124700  1
  P  P12  1  0.65705300  0.90233100  0.47796200  1
  P  P13  1  0.15705300  0.59766900  0.52203800  1
  P  P14  1  0.34294700  0.09766900  0.52203800  1
  P  P15  1  0.84294700  0.40233100  0.47796200  1
  H  H16  1  0.70175600  0.20805700  0.03141300  1
  H  H17  1  0.20175600  0.29194300  0.96858700  1
  H  H18  1  0.29824400  0.79194300  0.96858700  1
  H  H19  1  0.79824400  0.70805700  0.03141300  1
  H  H20  1  0.61170600  0.12359100  0.09977500  1
  H  H21  1  0.11170600  0.37640900  0.90022500  1
  H  H22  1  0.38829400  0.87640900  0.90022500  1
  H  H23  1  0.88829400  0.62359100  0.09977500  1
  H  H24  1  0.26752900  0.32576400  0.31170600  1
  H  H25  1  0.76752900  0.17423600  0.68829400  1
  H  H26  1  0.73247100  0.67423600  0.68829400  1
  H  H27  1  0.23247100  0.82576400  0.31170600  1
  H  H28  1  0.29724700  0.12290200  0.19231700  1
  H  H29  1  0.79724700  0.37709800  0.80768300  1
  H  H30  1  0.70275300  0.87709800  0.80768300  1
  H  H31  1  0.20275300  0.62290200  0.19231700  1
  C  C32  1  0.32148300  0.22596300  0.28912000  1
  C  C33  1  0.82148300  0.27403700  0.71088000  1
  C  C34  1  0.67851700  0.77403700  0.71088000  1
  C  C35  1  0.17851700  0.72596300  0.28912000  1
  O  O36  1  0.59689300  0.77411300  0.36722100  1
  O  O37  1  0.09689300  0.72588700  0.63277900  1
  O  O38  1  0.40310700  0.22588700  0.63277900  1
  O  O39  1  0.90310700  0.27411300  0.36722100  1
  O  O40  1  0.62596800  0.53948200  0.01592700  1
  O  O41  1  0.12596800  0.96051800  0.98407300  1
  O  O42  1  0.37403200  0.46051800  0.98407300  1
  O  O43  1  0.87403200  0.03948200  0.01592700  1
  O  O44  1  0.56090900  0.48208000  0.69139000  1
  O  O45  1  0.06090900  0.01792000  0.30861000  1
  O  O46  1  0.43909100  0.51792000  0.30861000  1
  O  O47  1  0.93909100  0.98208000  0.69139000  1
  O  O48  1  0.75207700  0.43036900  0.38752100  1
  O  O49  1  0.25207700  0.06963100  0.61247900  1
  O  O50  1  0.24792300  0.56963100  0.61247900  1
  O  O51  1  0.74792300  0.93036900  0.38752100  1
  O  O52  1  0.65844500  0.10973400  0.00814500  1
  O  O53  1  0.15844500  0.39026600  0.99185500  1
  O  O54  1  0.34155500  0.89026600  0.99185500  1
  O  O55  1  0.84155500  0.60973400  0.00814500  1
  O  O56  1  0.48858900  0.22818200  0.14772800  1
  O  O57  1  0.98858900  0.27181800  0.85227200  1
  O  O58  1  0.51141100  0.77181800  0.85227200  1
  O  O59  1  0.01141100  0.72818200  0.14772800  1
  O  O60  1  0.61316600  0.09826100  0.50369200  1
  O  O61  1  0.11316600  0.40173900  0.49630800  1
  O  O62  1  0.38683400  0.90173900  0.49630800  1
  O  O63  1  0.88683400  0.59826100  0.50369200  1
