# generated using pymatgen
data_BNF8
_symmetry_space_group_name_H-M   'P 1'
_cell_length_a   5.21924000
_cell_length_b   9.84147700
_cell_length_c   9.99268000
_cell_angle_alpha   90.00000000
_cell_angle_beta   90.00000000
_cell_angle_gamma   90.00000000
_symmetry_Int_Tables_number   1
_chemical_formula_structural   BNF8
_chemical_formula_sum   'B4 N4 F32'
_cell_volume   513.27431215
_cell_formula_units_Z   4
loop_
 _symmetry_equiv_pos_site_id
 _symmetry_equiv_pos_as_xyz
  1  'x, y, z'
loop_
 _atom_site_type_symbol
 _atom_site_label
 _atom_site_symmetry_multiplicity
 _atom_site_fract_x
 _atom_site_fract_y
 _atom_site_fract_z
 _atom_site_occupancy
  B  B0  1  0.89610200  0.25000000  0.00940600  1
  B  B1  1  0.10389800  0.75000000  0.99059400  1
  B  B2  1  0.89610200  0.75000000  0.49059400  1
  B  B3  1  0.10389800  0.25000000  0.50940600  1
  N  N4  1  0.47692000  0.00000000  0.75000000  1
  N  N5  1  0.52308000  0.50000000  0.25000000  1
  N  N6  1  0.52308000  0.00000000  0.25000000  1
  N  N7  1  0.47692000  0.50000000  0.75000000  1
  F  F8  1  0.32822500  0.06415600  0.83953100  1
  F  F9  1  0.67177500  0.56415600  0.16046900  1
  F  F10  1  0.32822500  0.93584400  0.66046900  1
  F  F11  1  0.67177500  0.43584400  0.33953100  1
  F  F12  1  0.67177500  0.93584400  0.16046900  1
  F  F13  1  0.32822500  0.43584400  0.83953100  1
  F  F14  1  0.67177500  0.06415600  0.33953100  1
  F  F15  1  0.32822500  0.56415600  0.66046900  1
  F  F16  1  0.62520900  0.90936700  0.81407100  1
  F  F17  1  0.37479100  0.40936700  0.18592900  1
  F  F18  1  0.62520900  0.09063300  0.68592900  1
  F  F19  1  0.37479100  0.59063300  0.31407100  1
  F  F20  1  0.37479100  0.09063300  0.18592900  1
  F  F21  1  0.62520900  0.59063300  0.81407100  1
  F  F22  1  0.37479100  0.90936700  0.31407100  1
  F  F23  1  0.62520900  0.40936700  0.68592900  1
  F  F24  1  0.80268700  0.36807500  0.94464800  1
  F  F25  1  0.19731300  0.86807500  0.05535200  1
  F  F26  1  0.80268700  0.63192500  0.55535200  1
  F  F27  1  0.19731300  0.13192500  0.44464800  1
  F  F28  1  0.19731300  0.63192500  0.05535200  1
  F  F29  1  0.80268700  0.13192500  0.94464800  1
  F  F30  1  0.19731300  0.36807500  0.44464800  1
  F  F31  1  0.80268700  0.86807500  0.55535200  1
  F  F32  1  0.81389400  0.25000000  0.14516500  1
  F  F33  1  0.18610600  0.75000000  0.85483500  1
  F  F34  1  0.81389400  0.75000000  0.35483500  1
  F  F35  1  0.18610600  0.25000000  0.64516500  1
  F  F36  1  0.16866100  0.25000000  0.00623100  1
  F  F37  1  0.83133900  0.75000000  0.99376900  1
  F  F38  1  0.16866100  0.75000000  0.49376900  1
  F  F39  1  0.83133900  0.25000000  0.50623100  1
