# generated using pymatgen
data_Rb3Cu3Cl8O
_symmetry_space_group_name_H-M   'P 1'
_cell_length_a   9.60696400
_cell_length_b   13.39431400
_cell_length_c   13.55138923
_cell_angle_alpha   66.85589762
_cell_angle_beta   90.00000000
_cell_angle_gamma   90.00000000
_symmetry_Int_Tables_number   1
_chemical_formula_structural   Rb3Cu3Cl8O
_chemical_formula_sum   'Rb12 Cu12 Cl32 O4'
_cell_volume   1603.43468918
_cell_formula_units_Z   4
loop_
 _symmetry_equiv_pos_site_id
 _symmetry_equiv_pos_as_xyz
  1  'x, y, z'
loop_
 _atom_site_type_symbol
 _atom_site_label
 _atom_site_symmetry_multiplicity
 _atom_site_fract_x
 _atom_site_fract_y
 _atom_site_fract_z
 _atom_site_occupancy
  Rb  Rb0  1  0.87596200  0.20210000  0.43497800  1
  Rb  Rb1  1  0.37596200  0.29790000  0.56502200  1
  Rb  Rb2  1  0.12403800  0.79790000  0.56502200  1
  Rb  Rb3  1  0.62403800  0.70210000  0.43497800  1
  Rb  Rb4  1  0.60451800  0.92380400  0.68825500  1
  Rb  Rb5  1  0.10451800  0.57619600  0.31174500  1
  Rb  Rb6  1  0.39548200  0.07619600  0.31174500  1
  Rb  Rb7  1  0.89548200  0.42380400  0.68825500  1
  Rb  Rb8  1  0.10421000  0.31118100  0.06956600  1
  Rb  Rb9  1  0.60421000  0.18881900  0.93043400  1
  Rb  Rb10  1  0.89579000  0.68881900  0.93043400  1
  Rb  Rb11  1  0.39579000  0.81118100  0.06956600  1
  Cu  Cu12  1  0.65718500  0.36219000  0.13726400  1
  Cu  Cu13  1  0.15718500  0.13781000  0.86273600  1
  Cu  Cu14  1  0.34281500  0.63781000  0.86273600  1
  Cu  Cu15  1  0.84281500  0.86219000  0.13726400  1
  Cu  Cu16  1  0.65769700  0.49617600  0.27224000  1
  Cu  Cu17  1  0.15769700  0.00382400  0.72776000  1
  Cu  Cu18  1  0.34230300  0.50382400  0.72776000  1
  Cu  Cu19  1  0.84230300  0.99617600  0.27224000  1
  Cu  Cu20  1  0.39088500  0.40868600  0.23408000  1
  Cu  Cu21  1  0.89088500  0.09131400  0.76592000  1
  Cu  Cu22  1  0.60911500  0.59131400  0.76592000  1
  Cu  Cu23  1  0.10911500  0.90868600  0.23408000  1
  Cl  Cl24  1  0.45715500  0.55122400  0.33271200  1
  Cl  Cl25  1  0.95715500  0.94877600  0.66728800  1
  Cl  Cl26  1  0.54284500  0.44877600  0.66728800  1
  Cl  Cl27  1  0.04284500  0.05122400  0.33271200  1
  Cl  Cl28  1  0.46222600  0.29958600  0.08947700  1
  Cl  Cl29  1  0.96222600  0.20041400  0.91052300  1
  Cl  Cl30  1  0.53777400  0.70041400  0.91052300  1
  Cl  Cl31  1  0.03777400  0.79958600  0.08947700  1
  Cl  Cl32  1  0.74044100  0.46550700  0.89699700  1
  Cl  Cl33  1  0.24044100  0.03449300  0.10300300  1
  Cl  Cl34  1  0.25955900  0.53449300  0.10300300  1
  Cl  Cl35  1  0.75955900  0.96550700  0.89699700  1
  Cl  Cl36  1  0.53514200  0.27622300  0.36116100  1
  Cl  Cl37  1  0.03514200  0.22377700  0.63883900  1
  Cl  Cl38  1  0.46485800  0.72377700  0.63883900  1
  Cl  Cl39  1  0.96485800  0.77622300  0.36116100  1
  Cl  Cl40  1  0.84334400  0.43638800  0.18390700  1
  Cl  Cl41  1  0.34334400  0.06361200  0.81609300  1
  Cl  Cl42  1  0.15665600  0.56361200  0.81609300  1
  Cl  Cl43  1  0.65665600  0.93638800  0.18390700  1
  Cl  Cl44  1  0.20069200  0.32265200  0.32303500  1
  Cl  Cl45  1  0.70069200  0.17734800  0.67696500  1
  Cl  Cl46  1  0.79930800  0.67734800  0.67696500  1
  Cl  Cl47  1  0.29930800  0.82265200  0.32303500  1
  Cl  Cl48  1  0.72175800  0.71756600  0.14176100  1
  Cl  Cl49  1  0.22175800  0.78243400  0.85823900  1
  Cl  Cl50  1  0.27824200  0.28243400  0.85823900  1
  Cl  Cl51  1  0.77824200  0.21756600  0.14176100  1
  Cl  Cl52  1  0.79422500  0.48372500  0.41249400  1
  Cl  Cl53  1  0.29422500  0.01627500  0.58750600  1
  Cl  Cl54  1  0.20577500  0.51627500  0.58750600  1
  Cl  Cl55  1  0.70577500  0.98372500  0.41249400  1
  O  O56  1  0.55645400  0.47213700  0.16183300  1
  O  O57  1  0.05645400  0.02786300  0.83816700  1
  O  O58  1  0.44354600  0.52786300  0.83816700  1
  O  O59  1  0.94354600  0.97213700  0.16183300  1
