# generated using pymatgen
data_BaMn9V6O26
_symmetry_space_group_name_H-M   'P 1'
_cell_length_a   12.95174075
_cell_length_b   12.95174075
_cell_length_c   12.95174075
_cell_angle_alpha   90.00000000
_cell_angle_beta   90.00000000
_cell_angle_gamma   90.00000000
_symmetry_Int_Tables_number   1
_chemical_formula_structural   BaMn9V6O26
_chemical_formula_sum   'Ba4 Mn36 V24 O104'
_cell_volume   2172.62327711
_cell_formula_units_Z   4
loop_
 _symmetry_equiv_pos_site_id
 _symmetry_equiv_pos_as_xyz
  1  'x, y, z'
loop_
 _atom_site_type_symbol
 _atom_site_label
 _atom_site_symmetry_multiplicity
 _atom_site_fract_x
 _atom_site_fract_y
 _atom_site_fract_z
 _atom_site_occupancy
  Ba  Ba0  1  -0.00000000  0.50000000  0.50000000  1
  Ba  Ba1  1  -0.00000000  0.00000000  0.00000000  1
  Ba  Ba2  1  0.50000000  0.50000000  0.00000000  1
  Ba  Ba3  1  0.50000000  0.00000000  0.50000000  1
  Mn  Mn4  1  0.32120558  0.82120558  0.67879442  1
  Mn  Mn5  1  0.67879442  0.32120558  0.82120558  1
  Mn  Mn6  1  0.17879442  0.17879442  0.17879442  1
  Mn  Mn7  1  0.82120558  0.67879442  0.32120558  1
  Mn  Mn8  1  0.67879442  0.17879442  0.32120558  1
  Mn  Mn9  1  0.32120558  0.67879442  0.17879442  1
  Mn  Mn10  1  0.82120558  0.82120558  0.82120558  1
  Mn  Mn11  1  0.17879442  0.32120558  0.67879442  1
  Mn  Mn12  1  0.50000000  0.00000000  0.00000000  1
  Mn  Mn13  1  0.50000000  0.50000000  0.50000000  1
  Mn  Mn14  1  -0.00000000  0.00000000  0.50000000  1
  Mn  Mn15  1  -0.00000000  0.50000000  0.00000000  1
  Mn  Mn16  1  0.30912556  0.00080241  0.83960190  1
  Mn  Mn17  1  0.69087444  0.50080241  0.66039810  1
  Mn  Mn18  1  0.19087444  0.99919759  0.33960190  1
  Mn  Mn19  1  0.80912556  0.49919759  0.16039810  1
  Mn  Mn20  1  0.83960190  0.30912556  0.00080241  1
  Mn  Mn21  1  0.66039810  0.69087444  0.50080241  1
  Mn  Mn22  1  0.33960190  0.19087444  0.99919759  1
  Mn  Mn23  1  0.16039810  0.80912556  0.49919759  1
  Mn  Mn24  1  0.00080241  0.83960190  0.30912556  1
  Mn  Mn25  1  0.50080241  0.66039810  0.69087444  1
  Mn  Mn26  1  0.99919759  0.33960190  0.19087444  1
  Mn  Mn27  1  0.49919759  0.16039810  0.80912556  1
  Mn  Mn28  1  0.69087444  0.99919759  0.16039810  1
  Mn  Mn29  1  0.30912556  0.49919759  0.33960190  1
  Mn  Mn30  1  0.80912556  0.00080241  0.66039810  1
  Mn  Mn31  1  0.19087444  0.50080241  0.83960190  1
  Mn  Mn32  1  0.16039810  0.69087444  0.99919759  1
  Mn  Mn33  1  0.33960190  0.30912556  0.49919759  1
  Mn  Mn34  1  0.66039810  0.80912556  0.00080241  1
  Mn  Mn35  1  0.83960190  0.19087444  0.50080241  1
  Mn  Mn36  1  0.99919759  0.16039810  0.69087444  1
  Mn  Mn37  1  0.49919759  0.33960190  0.30912556  1
  Mn  Mn38  1  0.00080241  0.66039810  0.80912556  1
  Mn  Mn39  1  0.50080241  0.83960190  0.19087444  1
  V  V40  1  0.07491578  0.90606155  0.74520043  1
  V  V41  1  0.92508422  0.40606155  0.75479957  1
  V  V42  1  0.42508422  0.09393845  0.24520043  1
  V  V43  1  0.57491578  0.59393845  0.25479957  1
  V  V44  1  0.74520043  0.07491578  0.90606155  1
  V  V45  1  0.75479957  0.92508422  0.40606155  1
  V  V46  1  0.24520043  0.42508422  0.09393845  1
  V  V47  1  0.25479957  0.57491578  0.59393845  1
  V  V48  1  0.90606155  0.74520043  0.07491578  1
  V  V49  1  0.40606155  0.75479957  0.92508422  1
  V  V50  1  0.09393845  0.24520043  0.42508422  1
  V  V51  1  0.59393845  0.25479957  0.57491578  1
  V  V52  1  0.92508422  0.09393845  0.25479957  1
  V  V53  1  0.07491578  0.59393845  0.24520043  1
  V  V54  1  0.57491578  0.90606155  0.75479957  1
  V  V55  1  0.42508422  0.40606155  0.74520043  1
  V  V56  1  0.25479957  0.92508422  0.09393845  1
  V  V57  1  0.24520043  0.07491578  0.59393845  1
  V  V58  1  0.75479957  0.57491578  0.90606155  1
  V  V59  1  0.74520043  0.42508422  0.40606155  1
  V  V60  1  0.09393845  0.25479957  0.92508422  1
  V  V61  1  0.59393845  0.24520043  0.07491578  1
  V  V62  1  0.90606155  0.75479957  0.57491578  1
  V  V63  1  0.40606155  0.74520043  0.42508422  1
  O  O64  1  0.14527489  0.97833114  0.83021487  1
  O  O65  1  0.85472511  0.47833114  0.66978513  1
  O  O66  1  0.35472511  0.02166886  0.33021487  1
  O  O67  1  0.64527489  0.52166886  0.16978513  1
  O  O68  1  0.83021487  0.14527489  0.97833114  1
  O  O69  1  0.66978513  0.85472511  0.47833114  1
  O  O70  1  0.33021487  0.35472511  0.02166886  1
  O  O71  1  0.16978513  0.64527489  0.52166886  1
  O  O72  1  0.97833114  0.83021487  0.14527489  1
  O  O73  1  0.47833114  0.66978513  0.85472511  1
  O  O74  1  0.02166886  0.33021487  0.35472511  1
  O  O75  1  0.52166886  0.16978513  0.64527489  1
  O  O76  1  0.85472511  0.02166886  0.16978513  1
  O  O77  1  0.14527489  0.52166886  0.33021487  1
  O  O78  1  0.64527489  0.97833114  0.66978513  1
  O  O79  1  0.35472511  0.47833114  0.83021487  1
  O  O80  1  0.16978513  0.85472511  0.02166886  1
  O  O81  1  0.33021487  0.14527489  0.52166886  1
  O  O82  1  0.66978513  0.64527489  0.97833114  1
  O  O83  1  0.83021487  0.35472511  0.47833114  1
  O  O84  1  0.02166886  0.16978513  0.85472511  1
  O  O85  1  0.52166886  0.33021487  0.14527489  1
  O  O86  1  0.97833114  0.66978513  0.64527489  1
  O  O87  1  0.47833114  0.83021487  0.35472511  1
  O  O88  1  0.32020005  0.99201426  0.67295293  1
  O  O89  1  0.67979995  0.49201426  0.82704707  1
  O  O90  1  0.17979995  0.00798574  0.17295293  1
  O  O91  1  0.82020005  0.50798574  0.32704707  1
  O  O92  1  0.67295293  0.32020005  0.99201426  1
  O  O93  1  0.82704707  0.67979995  0.49201426  1
  O  O94  1  0.17295293  0.17979995  0.00798574  1
  O  O95  1  0.32704707  0.82020005  0.50798574  1
  O  O96  1  0.99201426  0.67295293  0.32020005  1
  O  O97  1  0.49201426  0.82704707  0.67979995  1
  O  O98  1  0.00798574  0.17295293  0.17979995  1
  O  O99  1  0.50798574  0.32704707  0.82020005  1
  O  O100  1  0.67979995  0.00798574  0.32704707  1
  O  O101  1  0.32020005  0.50798574  0.17295293  1
  O  O102  1  0.82020005  0.99201426  0.82704707  1
  O  O103  1  0.17979995  0.49201426  0.67295293  1
  O  O104  1  0.32704707  0.67979995  0.00798574  1
  O  O105  1  0.17295293  0.32020005  0.50798574  1
  O  O106  1  0.82704707  0.82020005  0.99201426  1
  O  O107  1  0.67295293  0.17979995  0.49201426  1
  O  O108  1  0.00798574  0.32704707  0.67979995  1
  O  O109  1  0.50798574  0.17295293  0.32020005  1
  O  O110  1  0.99201426  0.82704707  0.82020005  1
  O  O111  1  0.49201426  0.67295293  0.17979995  1
  O  O112  1  0.35132857  0.14867143  0.85132857  1
  O  O113  1  0.64867143  0.64867143  0.64867143  1
  O  O114  1  0.14867143  0.85132857  0.35132857  1
  O  O115  1  0.85132857  0.35132857  0.14867143  1
  O  O116  1  0.64867143  0.85132857  0.14867143  1
  O  O117  1  0.35132857  0.35132857  0.35132857  1
  O  O118  1  0.85132857  0.14867143  0.64867143  1
  O  O119  1  0.14867143  0.64867143  0.85132857  1
  O  O120  1  0.49933213  0.99394747  0.83096568  1
  O  O121  1  0.50066787  0.49394747  0.66903432  1
  O  O122  1  0.00066787  0.00605253  0.33096568  1
  O  O123  1  0.99933213  0.50605253  0.16903432  1
  O  O124  1  0.83096568  0.49933213  0.99394747  1
  O  O125  1  0.66903432  0.50066787  0.49394747  1
  O  O126  1  0.33096568  0.00066787  0.00605253  1
  O  O127  1  0.16903432  0.99933213  0.50605253  1
  O  O128  1  0.99394747  0.83096568  0.49933213  1
  O  O129  1  0.49394747  0.66903432  0.50066787  1
  O  O130  1  0.00605253  0.33096568  0.00066787  1
  O  O131  1  0.50605253  0.16903432  0.99933213  1
  O  O132  1  0.50066787  0.00605253  0.16903432  1
  O  O133  1  0.49933213  0.50605253  0.33096568  1
  O  O134  1  0.99933213  0.99394747  0.66903432  1
  O  O135  1  0.00066787  0.49394747  0.83096568  1
  O  O136  1  0.16903432  0.50066787  0.00605253  1
  O  O137  1  0.33096568  0.49933213  0.50605253  1
  O  O138  1  0.66903432  0.99933213  0.99394747  1
  O  O139  1  0.83096568  0.00066787  0.49394747  1
  O  O140  1  0.00605253  0.16903432  0.50066787  1
  O  O141  1  0.50605253  0.33096568  0.49933213  1
  O  O142  1  0.99394747  0.66903432  0.99933213  1
  O  O143  1  0.49394747  0.83096568  0.00066787  1
  O  O144  1  0.33429843  0.83590143  0.84359845  1
  O  O145  1  0.66570157  0.33590143  0.65640155  1
  O  O146  1  0.16570157  0.16409857  0.34359845  1
  O  O147  1  0.83429843  0.66409857  0.15640155  1
  O  O148  1  0.84359845  0.33429843  0.83590143  1
  O  O149  1  0.65640155  0.66570157  0.33590143  1
  O  O150  1  0.34359845  0.16570157  0.16409857  1
  O  O151  1  0.15640155  0.83429843  0.66409857  1
  O  O152  1  0.83590143  0.84359845  0.33429843  1
  O  O153  1  0.33590143  0.65640155  0.66570157  1
  O  O154  1  0.16409857  0.34359845  0.16570157  1
  O  O155  1  0.66409857  0.15640155  0.83429843  1
  O  O156  1  0.66570157  0.16409857  0.15640155  1
  O  O157  1  0.33429843  0.66409857  0.34359845  1
  O  O158  1  0.83429843  0.83590143  0.65640155  1
  O  O159  1  0.16570157  0.33590143  0.84359845  1
  O  O160  1  0.15640155  0.66570157  0.16409857  1
  O  O161  1  0.34359845  0.33429843  0.66409857  1
  O  O162  1  0.65640155  0.83429843  0.83590143  1
  O  O163  1  0.84359845  0.16570157  0.33590143  1
  O  O164  1  0.16409857  0.15640155  0.66570157  1
  O  O165  1  0.66409857  0.34359845  0.33429843  1
  O  O166  1  0.83590143  0.65640155  0.83429843  1
  O  O167  1  0.33590143  0.84359845  0.16570157  1
