# generated using pymatgen
data_NaC2S2N(O2F3)2
_symmetry_space_group_name_H-M   'P 1'
_cell_length_a   10.78171600
_cell_length_b   7.76644200
_cell_length_c   23.74237624
_cell_angle_alpha   71.84915109
_cell_angle_beta   90.00000000
_cell_angle_gamma   90.00000000
_symmetry_Int_Tables_number   1
_chemical_formula_structural   NaC2S2N(O2F3)2
_chemical_formula_sum   'Na8 C16 S16 N8 O32 F48'
_cell_volume   1889.15380133
_cell_formula_units_Z   8
loop_
 _symmetry_equiv_pos_site_id
 _symmetry_equiv_pos_as_xyz
  1  'x, y, z'
loop_
 _atom_site_type_symbol
 _atom_site_label
 _atom_site_symmetry_multiplicity
 _atom_site_fract_x
 _atom_site_fract_y
 _atom_site_fract_z
 _atom_site_occupancy
  Na  Na0  1  0.18767500  0.57260800  0.75629300  1
  Na  Na1  1  0.31232500  0.57260800  0.25629300  1
  Na  Na2  1  0.81232500  0.42739200  0.24370700  1
  Na  Na3  1  0.68767500  0.42739200  0.74370700  1
  Na  Na4  1  0.09884400  0.07126200  0.75690300  1
  Na  Na5  1  0.40115600  0.07126200  0.25690300  1
  Na  Na6  1  0.90115600  0.92873800  0.24309700  1
  Na  Na7  1  0.59884400  0.92873800  0.74309700  1
  C  C8  1  0.47520600  0.18868000  0.90943900  1
  C  C9  1  0.02479400  0.18868000  0.40943900  1
  C  C10  1  0.52479400  0.81132000  0.09056100  1
  C  C11  1  0.97520600  0.81132000  0.59056100  1
  C  C12  1  0.31364900  0.31947500  0.58719600  1
  C  C13  1  0.18635100  0.31947500  0.08719600  1
  C  C14  1  0.68635100  0.68052500  0.41280400  1
  C  C15  1  0.81364900  0.68052500  0.91280400  1
  C  C16  1  0.49288900  0.78549300  0.58469000  1
  C  C17  1  0.00711100  0.78549300  0.08469000  1
  C  C18  1  0.50711100  0.21450700  0.41531000  1
  C  C19  1  0.99288900  0.21450700  0.91531000  1
  C  C20  1  0.29750300  0.71789900  0.91592700  1
  C  C21  1  0.20249700  0.71789900  0.41592700  1
  C  C22  1  0.70249700  0.28210100  0.08407300  1
  C  C23  1  0.79750300  0.28210100  0.58407300  1
  S  S24  1  0.36841200  0.28943500  0.66512400  1
  S  S25  1  0.13158800  0.28943500  0.16512400  1
  S  S26  1  0.63158800  0.71056500  0.33487600  1
  S  S27  1  0.86841200  0.71056500  0.83487600  1
  S  S28  1  0.41783900  0.21351400  0.83235600  1
  S  S29  1  0.08216100  0.21351400  0.33235600  1
  S  S30  1  0.58216100  0.78648600  0.16764400  1
  S  S31  1  0.91783900  0.78648600  0.66764400  1
  S  S32  1  0.34098000  0.85713600  0.83815500  1
  S  S33  1  0.15902000  0.85713600  0.33815500  1
  S  S34  1  0.65902000  0.14286400  0.16184500  1
  S  S35  1  0.84098000  0.14286400  0.66184500  1
  S  S36  1  0.44658200  0.64354200  0.66170500  1
  S  S37  1  0.05341800  0.64354200  0.16170500  1
  S  S38  1  0.55341800  0.35645800  0.33829500  1
  S  S39  1  0.94658200  0.35645800  0.83829500  1
  N  N40  1  0.31773800  0.05848100  0.83851700  1
  N  N41  1  0.18226200  0.05848100  0.33851700  1
  N  N42  1  0.68226200  0.94151900  0.16148300  1
  N  N43  1  0.81773800  0.94151900  0.66148300  1
  N  N44  1  0.46881400  0.44329600  0.66022200  1
  N  N45  1  0.03118600  0.44329600  0.16022200  1
  N  N46  1  0.53118600  0.55670400  0.33977800  1
  N  N47  1  0.96881400  0.55670400  0.83977800  1
  O  O48  1  0.46733600  0.80819300  0.82911800  1
  O  O49  1  0.03266400  0.80819300  0.32911800  1
  O  O50  1  0.53266400  0.19180700  0.17088200  1
  O  O51  1  0.96733600  0.19180700  0.67088200  1
  O  O52  1  0.35292500  0.38463500  0.81492100  1
  O  O53  1  0.14707500  0.38463500  0.31492100  1
  O  O54  1  0.64707500  0.61536500  0.18507900  1
  O  O55  1  0.85292500  0.61536500  0.68507900  1
  O  O56  1  0.25598900  0.30348300  0.69746000  1
  O  O57  1  0.24401100  0.30348300  0.19746000  1
  O  O58  1  0.74401100  0.69651700  0.30254000  1
  O  O59  1  0.75598900  0.69651700  0.80254000  1
  O  O60  1  0.54285200  0.68353800  0.69905300  1
  O  O61  1  0.95714800  0.68353800  0.19905300  1
  O  O62  1  0.45714800  0.31646200  0.30094700  1
  O  O63  1  0.04285200  0.31646200  0.80094700  1
  O  O64  1  0.32033700  0.69396000  0.67025900  1
  O  O65  1  0.17966300  0.69396000  0.17025900  1
  O  O66  1  0.67966300  0.30604000  0.32974100  1
  O  O67  1  0.82033700  0.30604000  0.82974100  1
  O  O68  1  0.43277600  0.11786700  0.68205300  1
  O  O69  1  0.06722400  0.11786700  0.18205300  1
  O  O70  1  0.56722400  0.88213300  0.31794700  1
  O  O71  1  0.93277600  0.88213300  0.81794700  1
  O  O72  1  0.24400100  0.81391100  0.80184200  1
  O  O73  1  0.25599900  0.81391100  0.30184200  1
  O  O74  1  0.75599900  0.18608900  0.19815800  1
  O  O75  1  0.74400100  0.18608900  0.69815800  1
  O  O76  1  0.52954100  0.19853700  0.79963100  1
  O  O77  1  0.97045900  0.19853700  0.29963100  1
  O  O78  1  0.47045900  0.80146300  0.20036900  1
  O  O79  1  0.02954100  0.80146300  0.70036900  1
  F  F80  1  0.37881700  0.17075700  0.94697200  1
  F  F81  1  0.12118300  0.17075700  0.44697200  1
  F  F82  1  0.62118300  0.82924300  0.05302800  1
  F  F83  1  0.87881700  0.82924300  0.55302800  1
  F  F84  1  0.24876100  0.17163900  0.58665800  1
  F  F85  1  0.25123900  0.17163900  0.08665800  1
  F  F86  1  0.75123900  0.82836100  0.41334200  1
  F  F87  1  0.74876100  0.82836100  0.91334200  1
  F  F88  1  0.41253500  0.75861500  0.54475700  1
  F  F89  1  0.08746500  0.75861500  0.04475700  1
  F  F90  1  0.58746500  0.24138500  0.45524300  1
  F  F91  1  0.91253500  0.24138500  0.95524300  1
  F  F92  1  0.23952000  0.46628100  0.56857600  1
  F  F93  1  0.26048000  0.46628100  0.06857600  1
  F  F94  1  0.76048000  0.53371900  0.43142400  1
  F  F95  1  0.73952000  0.53371900  0.93142400  1
  F  F96  1  0.54938300  0.04217200  0.92835800  1
  F  F97  1  0.95061700  0.04217200  0.42835800  1
  F  F98  1  0.45061700  0.95782800  0.07164200  1
  F  F99  1  0.04938300  0.95782800  0.57164200  1
  F  F100  1  0.41145200  0.34039900  0.55029900  1
  F  F101  1  0.08854800  0.34039900  0.05029900  1
  F  F102  1  0.58854800  0.65960100  0.44970100  1
  F  F103  1  0.91145200  0.65960100  0.94970100  1
  F  F104  1  0.30253200  0.54079900  0.92045800  1
  F  F105  1  0.19746800  0.54079900  0.42045800  1
  F  F106  1  0.69746800  0.45920100  0.07954200  1
  F  F107  1  0.80253200  0.45920100  0.57954200  1
  F  F108  1  0.49111800  0.96178100  0.58144400  1
  F  F109  1  0.00888200  0.96178100  0.08144400  1
  F  F110  1  0.50888200  0.03821900  0.41855600  1
  F  F111  1  0.99111800  0.03821900  0.91855600  1
  F  F112  1  0.18151700  0.75926000  0.92829900  1
  F  F113  1  0.31848300  0.75926000  0.42829900  1
  F  F114  1  0.81848300  0.24074000  0.07170100  1
  F  F115  1  0.68151700  0.24074000  0.57170100  1
  F  F116  1  0.37739800  0.75130800  0.95497300  1
  F  F117  1  0.12260200  0.75130800  0.45497300  1
  F  F118  1  0.62260200  0.24869200  0.04502700  1
  F  F119  1  0.87739800  0.24869200  0.54502700  1
  F  F120  1  0.54072300  0.33766300  0.90814900  1
  F  F121  1  0.95927700  0.33766300  0.40814900  1
  F  F122  1  0.45927700  0.66233700  0.09185100  1
  F  F123  1  0.04072300  0.66233700  0.59185100  1
  F  F124  1  0.60821200  0.74094400  0.57232400  1
  F  F125  1  0.89178800  0.74094400  0.07232400  1
  F  F126  1  0.39178800  0.25905600  0.42767600  1
  F  F127  1  0.10821200  0.25905600  0.92767600  1
