# generated using pymatgen
data_Yb2Fe17
_symmetry_space_group_name_H-M   'P 1'
_cell_length_a   8.27682800
_cell_length_b   8.39673807
_cell_length_c   8.39673807
_cell_angle_alpha   120.05954255
_cell_angle_beta   90.00000000
_cell_angle_gamma   90.00000000
_symmetry_Int_Tables_number   1
_chemical_formula_structural   Yb2Fe17
_chemical_formula_sum   'Yb4 Fe34'
_cell_volume   505.07385612
_cell_formula_units_Z   2
loop_
 _symmetry_equiv_pos_site_id
 _symmetry_equiv_pos_as_xyz
  1  'x, y, z'
loop_
 _atom_site_type_symbol
 _atom_site_label
 _atom_site_symmetry_multiplicity
 _atom_site_fract_x
 _atom_site_fract_y
 _atom_site_fract_z
 _atom_site_occupancy
  Yb  Yb0  1  0.75000000  0.99995400  0.00004600  1
  Yb  Yb1  1  0.25000000  0.00004600  0.99995400  1
  Yb  Yb2  1  0.25000000  0.66673000  0.33327000  1
  Yb  Yb3  1  0.75000000  0.33327000  0.66673000  1
  Fe  Fe4  1  0.60653500  0.66673200  0.33326800  1
  Fe  Fe5  1  0.39346500  0.33326800  0.66673200  1
  Fe  Fe6  1  0.10653500  0.33326800  0.66673200  1
  Fe  Fe7  1  0.89346500  0.66673200  0.33326800  1
  Fe  Fe8  1  0.50000000  0.50000000  0.00000000  1
  Fe  Fe9  1  0.50000000  0.50000000  0.50000000  1
  Fe  Fe10  1  0.50000000  0.00000000  0.50000000  1
  Fe  Fe11  1  0.00000000  0.50000000  0.00000000  1
  Fe  Fe12  1  0.00000000  0.50000000  0.50000000  1
  Fe  Fe13  1  0.00000000  0.00000000  0.50000000  1
  Fe  Fe14  1  0.75000000  0.67072200  0.03481900  1
  Fe  Fe15  1  0.75000000  0.36397000  0.32902900  1
  Fe  Fe16  1  0.75000000  0.96542200  0.63610000  1
  Fe  Fe17  1  0.75000000  0.36390000  0.03457800  1
  Fe  Fe18  1  0.75000000  0.96518100  0.32927800  1
  Fe  Fe19  1  0.75000000  0.67097100  0.63603000  1
  Fe  Fe20  1  0.25000000  0.32927800  0.96518100  1
  Fe  Fe21  1  0.25000000  0.63603000  0.67097100  1
  Fe  Fe22  1  0.25000000  0.03457800  0.36390000  1
  Fe  Fe23  1  0.25000000  0.63610000  0.96542200  1
  Fe  Fe24  1  0.25000000  0.03481900  0.67072200  1
  Fe  Fe25  1  0.25000000  0.32902900  0.36397000  1
  Fe  Fe26  1  0.48665000  0.83457500  0.66888200  1
  Fe  Fe27  1  0.48665400  0.83433500  0.16566500  1
  Fe  Fe28  1  0.48665000  0.33111800  0.16542500  1
  Fe  Fe29  1  0.51335000  0.16542500  0.33111800  1
  Fe  Fe30  1  0.51334600  0.16566500  0.83433500  1
  Fe  Fe31  1  0.51335000  0.66888200  0.83457500  1
  Fe  Fe32  1  0.98665000  0.16542500  0.33111800  1
  Fe  Fe33  1  0.98665400  0.16566500  0.83433500  1
  Fe  Fe34  1  0.98665000  0.66888200  0.83457500  1
  Fe  Fe35  1  0.01335000  0.83457500  0.66888200  1
  Fe  Fe36  1  0.01334600  0.83433500  0.16566500  1
  Fe  Fe37  1  0.01335000  0.33111800  0.16542500  1
