# generated using pymatgen
data_CdH9C4(N2O3)3
_symmetry_space_group_name_H-M   'P 1'
_cell_length_a   9.75286300
_cell_length_b   10.86199201
_cell_length_c   11.38267010
_cell_angle_alpha   108.55861314
_cell_angle_beta   90.00000000
_cell_angle_gamma   90.00000000
_symmetry_Int_Tables_number   1
_chemical_formula_structural   CdH9C4(N2O3)3
_chemical_formula_sum   'Cd4 H36 C16 N24 O36'
_cell_volume   1143.12422607
_cell_formula_units_Z   4
loop_
 _symmetry_equiv_pos_site_id
 _symmetry_equiv_pos_as_xyz
  1  'x, y, z'
loop_
 _atom_site_type_symbol
 _atom_site_label
 _atom_site_symmetry_multiplicity
 _atom_site_fract_x
 _atom_site_fract_y
 _atom_site_fract_z
 _atom_site_occupancy
  Cd  Cd0  1  0.65206600  0.77707500  0.81886300  1
  Cd  Cd1  1  0.15206600  0.22292500  0.68113700  1
  Cd  Cd2  1  0.34793400  0.22292500  0.18113700  1
  Cd  Cd3  1  0.84793400  0.77707500  0.31886300  1
  H  H4  1  0.37844600  0.89191900  0.50459800  1
  H  H5  1  0.87844600  0.10808100  0.99540200  1
  H  H6  1  0.62155400  0.10808100  0.49540200  1
  H  H7  1  0.12155400  0.89191900  0.00459800  1
  H  H8  1  0.32867900  0.10092800  0.46239900  1
  H  H9  1  0.82867900  0.89907200  0.03760100  1
  H  H10  1  0.67132100  0.89907200  0.53760100  1
  H  H11  1  0.17132100  0.10092800  0.96239900  1
  H  H12  1  0.19425800  0.00502500  0.45620200  1
  H  H13  1  0.69425800  0.99497500  0.04379800  1
  H  H14  1  0.80574200  0.99497500  0.54379800  1
  H  H15  1  0.30574200  0.00502500  0.95620200  1
  H  H16  1  0.89649300  0.40311500  0.48456000  1
  H  H17  1  0.39649300  0.59688500  0.01544000  1
  H  H18  1  0.10350700  0.59688500  0.51544000  1
  H  H19  1  0.60350700  0.40311500  0.98456000  1
  H  H20  1  0.11004400  0.28803800  0.44970800  1
  H  H21  1  0.61004400  0.71196200  0.05029200  1
  H  H22  1  0.88995600  0.71196200  0.55029200  1
  H  H23  1  0.38995600  0.28803800  0.94970800  1
  H  H24  1  0.98247200  0.19017200  0.45567800  1
  H  H25  1  0.48247200  0.80982800  0.04432200  1
  H  H26  1  0.01752800  0.80982800  0.54432200  1
  H  H27  1  0.51752800  0.19017200  0.95567800  1
  H  H28  1  0.47764800  0.63784200  0.56160100  1
  H  H29  1  0.97764800  0.36215800  0.93839900  1
  H  H30  1  0.52235200  0.36215800  0.43839900  1
  H  H31  1  0.02235200  0.63784200  0.06160100  1
  H  H32  1  0.38114500  0.53687200  0.44270800  1
  H  H33  1  0.88114500  0.46312800  0.05729200  1
  H  H34  1  0.61885500  0.46312800  0.55729200  1
  H  H35  1  0.11885500  0.53687200  0.94270800  1
  H  H36  1  0.54857000  0.57193800  0.41667800  1
  H  H37  1  0.04857000  0.42806200  0.08332200  1
  H  H38  1  0.45143000  0.42806200  0.58332200  1
  H  H39  1  0.95143000  0.57193800  0.91667800  1
  C  C40  1  0.46152800  0.92145400  0.72541600  1
  C  C41  1  0.96152800  0.07854600  0.77458400  1
  C  C42  1  0.53847200  0.07854600  0.27458400  1
  C  C43  1  0.03847200  0.92145400  0.22541600  1
  C  C44  1  0.36706600  0.01510500  0.68592400  1
  C  C45  1  0.86706600  0.98489500  0.81407600  1
  C  C46  1  0.63293400  0.98489500  0.31407600  1
  C  C47  1  0.13293400  0.01510500  0.18592400  1
  C  C48  1  0.83296500  0.54637100  0.70879400  1
  C  C49  1  0.33296500  0.45362900  0.79120600  1
  C  C50  1  0.16703500  0.45362900  0.29120600  1
  C  C51  1  0.66703500  0.54637100  0.20879400  1
  C  C52  1  0.93003000  0.42836000  0.67184000  1
  C  C53  1  0.43003000  0.57164000  0.82816000  1
  C  C54  1  0.06997000  0.57164000  0.32816000  1
  C  C55  1  0.56997000  0.42836000  0.17184000  1
  N  N56  1  0.47903600  0.55601100  0.48305400  1
  N  N57  1  0.97903500  0.44398900  0.01694600  1
  N  N58  1  0.52096500  0.44398900  0.51694600  1
  N  N59  1  0.02096500  0.55601100  0.98305400  1
  N  N60  1  0.34878900  0.98218600  0.56320600  1
  N  N61  1  0.84878900  0.01781400  0.93679400  1
  N  N62  1  0.65121100  0.01781400  0.43679400  1
  N  N63  1  0.15121100  0.98218600  0.06320600  1
  N  N64  1  0.26729600  0.06116000  0.51456300  1
  N  N65  1  0.76729600  0.93884000  0.98543700  1
  N  N66  1  0.73270400  0.93884000  0.48543700  1
  N  N67  1  0.23270400  0.06116000  0.01456300  1
  N  N68  1  0.95070500  0.37585000  0.55018900  1
  N  N69  1  0.45070500  0.62415000  0.94981100  1
  N  N70  1  0.04929500  0.62415000  0.44981100  1
  N  N71  1  0.54929500  0.37585000  0.05018900  1
  N  N72  1  0.03871200  0.26856400  0.50766100  1
  N  N73  1  0.53871200  0.73143600  0.99233900  1
  N  N74  1  0.96128800  0.73143600  0.49233900  1
  N  N75  1  0.46128800  0.26856400  0.00766100  1
  N  N76  1  0.14856400  0.72870900  0.76823300  1
  N  N77  1  0.64856400  0.27129100  0.73176700  1
  N  N78  1  0.85143600  0.27129100  0.23176700  1
  N  N79  1  0.35143600  0.72870900  0.26823300  1
  O  O80  1  0.51828000  0.83062300  0.63988100  1
  O  O81  1  0.01828000  0.16937700  0.86011900  1
  O  O82  1  0.48172000  0.16937700  0.36011900  1
  O  O83  1  0.98172000  0.83062300  0.13988100  1
  O  O84  1  0.47851500  0.94324200  0.84048500  1
  O  O85  1  0.97851500  0.05675800  0.65951500  1
  O  O86  1  0.52148500  0.05675800  0.15951500  1
  O  O87  1  0.02148500  0.94324200  0.34048500  1
  O  O88  1  0.31656200  0.11356300  0.76379600  1
  O  O89  1  0.81656200  0.88643700  0.73620400  1
  O  O90  1  0.68343800  0.88643700  0.23620400  1
  O  O91  1  0.18343800  0.11356300  0.26379600  1
  O  O92  1  0.83457100  0.61610300  0.82209500  1
  O  O93  1  0.33457100  0.38389700  0.67790500  1
  O  O94  1  0.16542900  0.38389700  0.17790500  1
  O  O95  1  0.66542900  0.61610300  0.32209500  1
  O  O96  1  0.76152100  0.56742300  0.62449100  1
  O  O97  1  0.26152100  0.43257700  0.87550900  1
  O  O98  1  0.23847900  0.43257700  0.37550900  1
  O  O99  1  0.73847900  0.56742300  0.12449100  1
  O  O100  1  0.98553600  0.38867200  0.75212300  1
  O  O101  1  0.48553600  0.61132800  0.74787700  1
  O  O102  1  0.01446400  0.61132800  0.24787700  1
  O  O103  1  0.51446400  0.38867200  0.25212300  1
  O  O104  1  0.14555100  0.61899800  0.68337400  1
  O  O105  1  0.64555100  0.38100200  0.81662600  1
  O  O106  1  0.85444900  0.38100200  0.31662600  1
  O  O107  1  0.35444900  0.61899800  0.18337400  1
  O  O108  1  0.15068300  0.83280700  0.74198900  1
  O  O109  1  0.65068300  0.16719300  0.75801100  1
  O  O110  1  0.84931700  0.16719300  0.25801100  1
  O  O111  1  0.34931700  0.83280700  0.24198900  1
  O  O112  1  0.14990200  0.73121100  0.88134300  1
  O  O113  1  0.64990200  0.26878900  0.61865700  1
  O  O114  1  0.85009800  0.26878900  0.11865700  1
  O  O115  1  0.35009800  0.73121100  0.38134300  1
