# generated using pymatgen
data_Nd6Fe13Ag
_symmetry_space_group_name_H-M   'P 1'
_cell_length_a   12.87743881
_cell_length_b   12.87743881
_cell_length_c   12.87743881
_cell_angle_alpha   143.46654540
_cell_angle_beta   143.46654540
_cell_angle_gamma   52.62574489
_symmetry_Int_Tables_number   1
_chemical_formula_structural   Nd6Fe13Ag
_chemical_formula_sum   'Nd12 Fe26 Ag2'
_cell_volume   752.23878127
_cell_formula_units_Z   2
loop_
 _symmetry_equiv_pos_site_id
 _symmetry_equiv_pos_as_xyz
  1  'x, y, z'
loop_
 _atom_site_type_symbol
 _atom_site_label
 _atom_site_symmetry_multiplicity
 _atom_site_fract_x
 _atom_site_fract_y
 _atom_site_fract_z
 _atom_site_occupancy
  Nd  Nd0  1  0.47616200  0.97616200  0.82390200  1
  Nd  Nd1  1  0.15226000  0.65226000  0.17609800  1
  Nd  Nd2  1  0.97616200  0.15226000  0.50000000  1
  Nd  Nd3  1  0.65226000  0.47616200  0.50000000  1
  Nd  Nd4  1  0.52383800  0.02383800  0.17609800  1
  Nd  Nd5  1  0.84774000  0.34774000  0.82390200  1
  Nd  Nd6  1  0.02383800  0.84774000  0.50000000  1
  Nd  Nd7  1  0.34774000  0.52383800  0.50000000  1
  Nd  Nd8  1  0.60565700  0.60565700  0.00000000  1
  Nd  Nd9  1  0.10565700  0.10565700  0.00000000  1
  Nd  Nd10  1  0.39434300  0.39434300  0.00000000  1
  Nd  Nd11  1  0.89434300  0.89434300  0.00000000  1
  Fe  Fe12  1  0.61915700  0.11915700  0.85720400  1
  Fe  Fe13  1  0.26195300  0.76195300  0.14279600  1
  Fe  Fe14  1  0.11915700  0.26195300  0.50000000  1
  Fe  Fe15  1  0.76195300  0.61915700  0.50000000  1
  Fe  Fe16  1  0.38084300  0.88084300  0.14279600  1
  Fe  Fe17  1  0.73804700  0.23804700  0.85720400  1
  Fe  Fe18  1  0.88084300  0.73804700  0.50000000  1
  Fe  Fe19  1  0.23804700  0.38084300  0.50000000  1
  Fe  Fe20  1  0.56668200  0.71041300  0.27709400  1
  Fe  Fe21  1  0.43331800  0.28958700  0.72290600  1
  Fe  Fe22  1  0.06668200  0.78958700  0.85626900  1
  Fe  Fe23  1  0.93331800  0.21041300  0.14373100  1
  Fe  Fe24  1  0.28958700  0.56668200  0.85626900  1
  Fe  Fe25  1  0.71041300  0.43331800  0.14373100  1
  Fe  Fe26  1  0.21041300  0.06668200  0.27709400  1
  Fe  Fe27  1  0.78958700  0.93331800  0.72290600  1
  Fe  Fe28  1  0.79051000  0.29051000  0.27242200  1
  Fe  Fe29  1  0.01808800  0.51808800  0.72757800  1
  Fe  Fe30  1  0.29051000  0.01808800  0.50000000  1
  Fe  Fe31  1  0.51808800  0.79051000  0.50000000  1
  Fe  Fe32  1  0.20949000  0.70949000  0.72757800  1
  Fe  Fe33  1  0.98191200  0.48191200  0.27242200  1
  Fe  Fe34  1  0.70949000  0.98191200  0.50000000  1
  Fe  Fe35  1  0.48191200  0.20949000  0.50000000  1
  Fe  Fe36  1  0.50000000  0.00000000  0.50000000  1
  Fe  Fe37  1  0.00000000  0.50000000  0.50000000  1
  Ag  Ag38  1  0.25000000  0.25000000  0.00000000  1
  Ag  Ag39  1  0.75000000  0.75000000  0.00000000  1
