# generated using pymatgen
data_GaN2OF5
_symmetry_space_group_name_H-M   'P 1'
_cell_length_a   6.78544600
_cell_length_b   8.40505500
_cell_length_c   9.40728800
_cell_angle_alpha   90.00000000
_cell_angle_beta   90.00000000
_cell_angle_gamma   90.00000000
_symmetry_Int_Tables_number   1
_chemical_formula_structural   GaN2OF5
_chemical_formula_sum   'Ga4 N8 O4 F20'
_cell_volume   536.51688975
_cell_formula_units_Z   4
loop_
 _symmetry_equiv_pos_site_id
 _symmetry_equiv_pos_as_xyz
  1  'x, y, z'
loop_
 _atom_site_type_symbol
 _atom_site_label
 _atom_site_symmetry_multiplicity
 _atom_site_fract_x
 _atom_site_fract_y
 _atom_site_fract_z
 _atom_site_occupancy
  Ga  Ga0  1  0.75000000  0.40574300  0.50000000  1
  Ga  Ga1  1  0.25000000  0.09425700  0.00000000  1
  Ga  Ga2  1  0.25000000  0.59425700  0.50000000  1
  Ga  Ga3  1  0.75000000  0.90574300  0.00000000  1
  N  N4  1  0.26498700  0.09620900  0.65656600  1
  N  N5  1  0.76498700  0.40379100  0.84343400  1
  N  N6  1  0.73501300  0.40379100  0.15656600  1
  N  N7  1  0.23501300  0.09620900  0.34343400  1
  N  N8  1  0.73501300  0.90379100  0.34343400  1
  N  N9  1  0.23501300  0.59620900  0.15656600  1
  N  N10  1  0.26498700  0.59620900  0.84343400  1
  N  N11  1  0.76498700  0.90379100  0.65656600  1
  O  O12  1  0.75000000  0.62927200  0.50000000  1
  O  O13  1  0.25000000  0.87072800  0.00000000  1
  O  O14  1  0.25000000  0.37072800  0.50000000  1
  O  O15  1  0.75000000  0.12927200  0.00000000  1
  F  F16  1  0.75000000  0.00089700  0.50000000  1
  F  F17  1  0.25000000  0.49910300  0.00000000  1
  F  F18  1  0.25000000  0.99910300  0.50000000  1
  F  F19  1  0.75000000  0.50089700  0.00000000  1
  F  F20  1  0.83567000  0.30620200  0.66578600  1
  F  F21  1  0.33567000  0.19379800  0.83421400  1
  F  F22  1  0.16433000  0.19379800  0.16578600  1
  F  F23  1  0.66433000  0.30620200  0.33421400  1
  F  F24  1  0.16433000  0.69379800  0.33421400  1
  F  F25  1  0.66433000  0.80620200  0.16578600  1
  F  F26  1  0.83567000  0.80620200  0.83421400  1
  F  F27  1  0.33567000  0.69379800  0.66578600  1
  F  F28  1  0.48822500  0.86948000  0.91439500  1
  F  F29  1  0.98822500  0.63052000  0.58560500  1
  F  F30  1  0.51177500  0.63052000  0.41439500  1
  F  F31  1  0.01177500  0.86948000  0.08560500  1
  F  F32  1  0.51177500  0.13052000  0.08560500  1
  F  F33  1  0.01177500  0.36948000  0.41439500  1
  F  F34  1  0.48822500  0.36948000  0.58560500  1
  F  F35  1  0.98822500  0.13052000  0.91439500  1
