# generated using pymatgen
data_CaU2V2O17
_symmetry_space_group_name_H-M   'P 1'
_cell_length_a   8.50470300
_cell_length_b   10.44965700
_cell_length_c   15.26145300
_cell_angle_alpha   90.00000000
_cell_angle_beta   90.00000000
_cell_angle_gamma   90.00000000
_symmetry_Int_Tables_number   1
_chemical_formula_structural   CaU2V2O17
_chemical_formula_sum   'Ca4 U8 V8 O68'
_cell_volume   1356.30408805
_cell_formula_units_Z   4
loop_
 _symmetry_equiv_pos_site_id
 _symmetry_equiv_pos_as_xyz
  1  'x, y, z'
loop_
 _atom_site_type_symbol
 _atom_site_label
 _atom_site_symmetry_multiplicity
 _atom_site_fract_x
 _atom_site_fract_y
 _atom_site_fract_z
 _atom_site_occupancy
  Ca  Ca0  1  0.00000000  0.33002300  0.75000000  1
  Ca  Ca1  1  0.50000000  0.16997700  0.25000000  1
  Ca  Ca2  1  0.00000000  0.66997700  0.25000000  1
  Ca  Ca3  1  0.50000000  0.83002300  0.75000000  1
  U  U4  1  0.47395400  0.68418100  0.00321700  1
  U  U5  1  0.02604600  0.81581900  0.50321700  1
  U  U6  1  0.97395400  0.81581900  0.99678300  1
  U  U7  1  0.52604600  0.68418100  0.49678300  1
  U  U8  1  0.52604600  0.31581900  0.99678300  1
  U  U9  1  0.97395400  0.18418100  0.49678300  1
  U  U10  1  0.02604600  0.18418100  0.00321700  1
  U  U11  1  0.47395400  0.31581900  0.50321700  1
  V  V12  1  0.35333000  0.97282100  0.44836400  1
  V  V13  1  0.14667000  0.52717900  0.94836400  1
  V  V14  1  0.85333000  0.52717900  0.55163600  1
  V  V15  1  0.64667000  0.97282100  0.05163600  1
  V  V16  1  0.64667000  0.02717900  0.55163600  1
  V  V17  1  0.85333000  0.47282100  0.05163600  1
  V  V18  1  0.14667000  0.47282100  0.44836400  1
  V  V19  1  0.35333000  0.02717900  0.94836400  1
  O  O20  1  0.38481500  0.02330500  0.34593800  1
  O  O21  1  0.11518500  0.47669500  0.84593800  1
  O  O22  1  0.88481500  0.47669500  0.65406200  1
  O  O23  1  0.61518500  0.02330500  0.15406200  1
  O  O24  1  0.61518500  0.97669500  0.65406200  1
  O  O25  1  0.88481500  0.52330500  0.15406200  1
  O  O26  1  0.11518500  0.52330500  0.34593800  1
  O  O27  1  0.38481500  0.97669500  0.84593800  1
  O  O28  1  0.25985500  0.79916600  0.25035900  1
  O  O29  1  0.24014500  0.70083400  0.75035900  1
  O  O30  1  0.75985500  0.70083400  0.74964100  1
  O  O31  1  0.74014500  0.79916600  0.24964100  1
  O  O32  1  0.74014500  0.20083400  0.74964100  1
  O  O33  1  0.75985500  0.29916600  0.24964100  1
  O  O34  1  0.24014500  0.29916600  0.25035900  1
  O  O35  1  0.25985500  0.20083400  0.75035900  1
  O  O36  1  0.22295500  0.39675400  0.20591600  1
  O  O37  1  0.27704500  0.10324600  0.70591600  1
  O  O38  1  0.72295500  0.10324600  0.79408400  1
  O  O39  1  0.77704500  0.39675400  0.29408400  1
  O  O40  1  0.77704500  0.60324600  0.79408400  1
  O  O41  1  0.72295500  0.89675400  0.29408400  1
  O  O42  1  0.27704500  0.89675400  0.20591600  1
  O  O43  1  0.22295500  0.60324600  0.70591600  1
  O  O44  1  0.00000000  0.96590000  0.75000000  1
  O  O45  1  0.50000000  0.53410000  0.25000000  1
  O  O46  1  0.00000000  0.03410000  0.25000000  1
  O  O47  1  0.50000000  0.46590000  0.75000000  1
  O  O48  1  0.42547700  0.66141000  0.11811800  1
  O  O49  1  0.07452300  0.83859000  0.61811800  1
  O  O50  1  0.92547700  0.83859000  0.88188200  1
  O  O51  1  0.57452300  0.66141000  0.38188200  1
  O  O52  1  0.57452300  0.33859000  0.88188200  1
  O  O53  1  0.92547700  0.16141000  0.38188200  1
  O  O54  1  0.07452300  0.16141000  0.11811800  1
  O  O55  1  0.42547700  0.33859000  0.61811800  1
  O  O56  1  0.51755200  0.71132100  0.88510100  1
  O  O57  1  0.98244800  0.78867900  0.38510100  1
  O  O58  1  0.01755200  0.78867900  0.11489900  1
  O  O59  1  0.48244800  0.71132100  0.61489900  1
  O  O60  1  0.48244800  0.28867900  0.11489900  1
  O  O61  1  0.01755200  0.21132100  0.61489900  1
  O  O62  1  0.98244800  0.21132100  0.88510100  1
  O  O63  1  0.51755200  0.28867900  0.38510100  1
  O  O64  1  0.43509200  0.90209300  0.02297500  1
  O  O65  1  0.06490800  0.59790700  0.52297500  1
  O  O66  1  0.93509200  0.59790700  0.97702500  1
  O  O67  1  0.56490800  0.90209300  0.47702500  1
  O  O68  1  0.56490800  0.09790700  0.97702500  1
  O  O69  1  0.93509200  0.40209300  0.47702500  1
  O  O70  1  0.06490800  0.40209300  0.02297500  1
  O  O71  1  0.43509200  0.09790700  0.52297500  1
  O  O72  1  0.34766700  0.48436800  0.97636000  1
  O  O73  1  0.15233300  0.01563200  0.47636000  1
  O  O74  1  0.84766700  0.01563200  0.02364000  1
  O  O75  1  0.65233300  0.48436800  0.52364000  1
  O  O76  1  0.65233300  0.51563200  0.02364000  1
  O  O77  1  0.84766700  0.98436800  0.52364000  1
  O  O78  1  0.15233300  0.98436800  0.97636000  1
  O  O79  1  0.34766700  0.51563200  0.47636000  1
  O  O80  1  0.20373500  0.69687000  0.96231200  1
  O  O81  1  0.29626500  0.80313000  0.46231200  1
  O  O82  1  0.70373500  0.80313000  0.03768800  1
  O  O83  1  0.79626500  0.69687000  0.53768800  1
  O  O84  1  0.79626500  0.30313000  0.03768800  1
  O  O85  1  0.70373500  0.19687000  0.53768800  1
  O  O86  1  0.29626500  0.19687000  0.96231200  1
  O  O87  1  0.20373500  0.30313000  0.46231200  1
