# generated using pymatgen
data_HgN4(ClO4)2
_symmetry_space_group_name_H-M   'P 1'
_cell_length_a   10.81056100
_cell_length_b   8.11370000
_cell_length_c   15.65023373
_cell_angle_alpha   59.90938220
_cell_angle_beta   90.00000000
_cell_angle_gamma   90.00000000
_symmetry_Int_Tables_number   1
_chemical_formula_structural   HgN4(ClO4)2
_chemical_formula_sum   'Hg4 N16 Cl8 O32'
_cell_volume   1187.73990357
_cell_formula_units_Z   4
loop_
 _symmetry_equiv_pos_site_id
 _symmetry_equiv_pos_as_xyz
  1  'x, y, z'
loop_
 _atom_site_type_symbol
 _atom_site_label
 _atom_site_symmetry_multiplicity
 _atom_site_fract_x
 _atom_site_fract_y
 _atom_site_fract_z
 _atom_site_occupancy
  Hg  Hg0  1  0.26801400  0.84159800  0.40449700  1
  Hg  Hg1  1  0.76801400  0.15840200  0.09550300  1
  Hg  Hg2  1  0.73198600  0.15840200  0.59550300  1
  Hg  Hg3  1  0.23198600  0.84159800  0.90449700  1
  N  N4  1  0.48040100  0.86722700  0.38201700  1
  N  N5  1  0.98040100  0.13277300  0.11798300  1
  N  N6  1  0.51959900  0.13277300  0.61798300  1
  N  N7  1  0.01959900  0.86722700  0.88201700  1
  N  N8  1  0.20118600  0.15409700  0.34774800  1
  N  N9  1  0.70118600  0.84590300  0.15225200  1
  N  N10  1  0.79881400  0.84590300  0.65225200  1
  N  N11  1  0.29881400  0.15409700  0.84774800  1
  N  N12  1  0.17556500  0.65513400  0.55684400  1
  N  N13  1  0.67556500  0.34486600  0.94315600  1
  N  N14  1  0.82443500  0.34486600  0.44315600  1
  N  N15  1  0.32443500  0.65513400  0.05684400  1
  N  N16  1  0.20444100  0.69397500  0.31495800  1
  N  N17  1  0.70444100  0.30602500  0.18504200  1
  N  N18  1  0.79555900  0.30602500  0.68504200  1
  N  N19  1  0.29555900  0.69397500  0.81495800  1
  Cl  Cl20  1  0.49784300  0.40128800  0.34839500  1
  Cl  Cl21  1  0.99784300  0.59871200  0.15160500  1
  Cl  Cl22  1  0.50215700  0.59871200  0.65160500  1
  Cl  Cl23  1  0.00215700  0.40128800  0.84839500  1
  Cl  Cl24  1  0.37205000  0.14036300  0.09761200  1
  Cl  Cl25  1  0.87205000  0.85963700  0.40238800  1
  Cl  Cl26  1  0.62795000  0.85963700  0.90238800  1
  Cl  Cl27  1  0.12795000  0.14036300  0.59761200  1
  O  O28  1  0.57846700  0.55106200  0.34086100  1
  O  O29  1  0.07846700  0.44893800  0.15913900  1
  O  O30  1  0.42153300  0.44893800  0.65913900  1
  O  O31  1  0.92153300  0.55106200  0.84086100  1
  O  O32  1  0.39460500  0.36947000  0.41659800  1
  O  O33  1  0.89460500  0.63053000  0.08340200  1
  O  O34  1  0.60539500  0.63053000  0.58340200  1
  O  O35  1  0.10539500  0.36947000  0.91659800  1
  O  O36  1  0.56672500  0.21970400  0.39279200  1
  O  O37  1  0.06672500  0.78029600  0.10720800  1
  O  O38  1  0.43327500  0.78029600  0.60720800  1
  O  O39  1  0.93327500  0.21970400  0.89279200  1
  O  O40  1  0.44889100  0.44710100  0.25308900  1
  O  O41  1  0.94889100  0.55289900  0.24691100  1
  O  O42  1  0.55110900  0.55289900  0.74691100  1
  O  O43  1  0.05110900  0.44710100  0.75308900  1
  O  O44  1  0.33492300  0.96769300  0.09572400  1
  O  O45  1  0.83492300  0.03230700  0.40427600  1
  O  O46  1  0.66507700  0.03230700  0.90427600  1
  O  O47  1  0.16507700  0.96769300  0.59572400  1
  O  O48  1  0.48454100  0.09808800  0.15762900  1
  O  O49  1  0.98454100  0.90191200  0.34237100  1
  O  O50  1  0.51545900  0.90191200  0.84237100  1
  O  O51  1  0.01545900  0.09808800  0.65762900  1
  O  O52  1  0.27153300  0.18249400  0.14694200  1
  O  O53  1  0.77153300  0.81750600  0.35305800  1
  O  O54  1  0.72846700  0.81750600  0.85305800  1
  O  O55  1  0.22846700  0.18249400  0.64694200  1
  O  O56  1  0.39293700  0.29669500  0.99915000  1
  O  O57  1  0.89293700  0.70330500  0.50085000  1
  O  O58  1  0.60706300  0.70330500  0.00085000  1
  O  O59  1  0.10706300  0.29669500  0.49915000  1
