# generated using pymatgen
data_CsHgC3(SN)3
_symmetry_space_group_name_H-M   'P 1'
_cell_length_a   10.03669400
_cell_length_b   11.23346500
_cell_length_c   21.25392169
_cell_angle_alpha   90.00000000
_cell_angle_beta   109.54272019
_cell_angle_gamma   90.00000000
_symmetry_Int_Tables_number   1
_chemical_formula_structural   CsHgC3(SN)3
_chemical_formula_sum   'Cs8 Hg8 C24 S24 N24'
_cell_volume   2258.26676804
_cell_formula_units_Z   8
loop_
 _symmetry_equiv_pos_site_id
 _symmetry_equiv_pos_as_xyz
  1  'x, y, z'
loop_
 _atom_site_type_symbol
 _atom_site_label
 _atom_site_symmetry_multiplicity
 _atom_site_fract_x
 _atom_site_fract_y
 _atom_site_fract_z
 _atom_site_occupancy
  Cs  Cs0  1  0.46845800  0.78354700  0.42547900  1
  Cs  Cs1  1  0.53154200  0.28354700  0.07452100  1
  Cs  Cs2  1  0.53154200  0.21645300  0.57452100  1
  Cs  Cs3  1  0.46845800  0.71645300  0.92547900  1
  Cs  Cs4  1  0.91677300  0.74552400  0.32990200  1
  Cs  Cs5  1  0.08322700  0.24552400  0.17009800  1
  Cs  Cs6  1  0.08322700  0.25447600  0.67009800  1
  Cs  Cs7  1  0.91677300  0.75447600  0.82990200  1
  Hg  Hg8  1  0.97507900  0.76750600  0.09195100  1
  Hg  Hg9  1  0.02492100  0.26750500  0.40804900  1
  Hg  Hg10  1  0.02492100  0.23249400  0.90804900  1
  Hg  Hg11  1  0.97507900  0.73249400  0.59195100  1
  Hg  Hg12  1  0.41736900  0.72677500  0.13317100  1
  Hg  Hg13  1  0.58263100  0.22677500  0.36682900  1
  Hg  Hg14  1  0.58263100  0.27322500  0.86682900  1
  Hg  Hg15  1  0.41736900  0.77322500  0.63317100  1
  C  C16  1  0.19221300  0.84972300  0.23703800  1
  C  C17  1  0.80778700  0.34972300  0.26296200  1
  C  C18  1  0.80778700  0.15027700  0.76296200  1
  C  C19  1  0.19221300  0.65027700  0.73703800  1
  C  C20  1  0.19332800  0.50842100  0.04705800  1
  C  C21  1  0.80667200  0.00842100  0.45294200  1
  C  C22  1  0.80667200  0.49157900  0.95294200  1
  C  C23  1  0.19332800  0.99157900  0.54705800  1
  C  C24  1  0.69033000  0.88910600  0.14693800  1
  C  C25  1  0.30967000  0.38910600  0.35306200  1
  C  C26  1  0.30967000  0.11089400  0.85306200  1
  C  C27  1  0.69033000  0.61089400  0.64693800  1
  C  C28  1  0.55342100  0.98736000  0.28192700  1
  C  C29  1  0.44657900  0.48736000  0.21807300  1
  C  C30  1  0.44657900  0.01264000  0.71807300  1
  C  C31  1  0.55342100  0.51264000  0.78192700  1
  C  C32  1  0.18505200  0.50826100  0.47485900  1
  C  C33  1  0.81494800  0.00826100  0.02514100  1
  C  C34  1  0.81494800  0.49173900  0.52514100  1
  C  C35  1  0.18505200  0.99173900  0.97485900  1
  C  C36  1  0.75371700  0.58298600  0.11166100  1
  C  C37  1  0.24628300  0.08298600  0.38833900  1
  C  C38  1  0.24628300  0.41701400  0.88833900  1
  C  C39  1  0.75371700  0.91701400  0.61166100  1
  S  S40  1  0.18428000  0.89750800  0.16200800  1
  S  S41  1  0.81572000  0.39750800  0.33799200  1
  S  S42  1  0.81572000  0.10249200  0.83799200  1
  S  S43  1  0.18428000  0.60249200  0.66200800  1
  S  S44  1  0.20521700  0.65306200  0.03282500  1
  S  S45  1  0.79478300  0.15306200  0.46717500  1
  S  S46  1  0.79478300  0.34693800  0.96717500  1
  S  S47  1  0.20521700  0.84693800  0.53282500  1
  S  S48  1  0.52514600  0.90305400  0.09517800  1
  S  S49  1  0.47485400  0.40305400  0.40482200  1
  S  S50  1  0.47485400  0.09694600  0.90482200  1
  S  S51  1  0.52514600  0.59694600  0.59517800  1
  S  S52  1  0.49512000  0.62596100  0.24333000  1
  S  S53  1  0.50488000  0.12596100  0.25667000  1
  S  S54  1  0.50488000  0.37403900  0.75667000  1
  S  S55  1  0.49512000  0.87403900  0.74333000  1
  S  S56  1  0.82656200  0.62193200  0.49007800  1
  S  S57  1  0.17343800  0.12193200  0.00992200  1
  S  S58  1  0.17343800  0.37806800  0.50992200  1
  S  S59  1  0.82656200  0.87806800  0.99007800  1
  S  S60  1  0.92815800  0.58576000  0.14770100  1
  S  S61  1  0.07184200  0.08576000  0.35229900  1
  S  S62  1  0.07184200  0.41424000  0.85229900  1
  S  S63  1  0.92815800  0.91424000  0.64770100  1
  N  N64  1  0.20096200  0.81864500  0.29120700  1
  N  N65  1  0.79903800  0.31864500  0.20879300  1
  N  N66  1  0.79903800  0.18135500  0.70879300  1
  N  N67  1  0.20096200  0.68135500  0.79120700  1
  N  N68  1  0.82198900  0.90529300  0.44747100  1
  N  N69  1  0.17801100  0.40529300  0.05252900  1
  N  N70  1  0.17801100  0.09470700  0.55252900  1
  N  N71  1  0.82198900  0.59470700  0.94747100  1
  N  N72  1  0.80982400  0.88359700  0.18142700  1
  N  N73  1  0.19017600  0.38359700  0.31857300  1
  N  N74  1  0.19017600  0.11640300  0.81857300  1
  N  N75  1  0.80982400  0.61640300  0.68142700  1
  N  N76  1  0.58441600  0.88694900  0.29535900  1
  N  N77  1  0.41558400  0.38694900  0.20464100  1
  N  N78  1  0.41558400  0.11305100  0.70464100  1
  N  N79  1  0.58441600  0.61305100  0.79535900  1
  N  N80  1  0.19885400  0.60182800  0.45252700  1
  N  N81  1  0.80114600  0.10182800  0.04747300  1
  N  N82  1  0.80114600  0.39817200  0.54747300  1
  N  N83  1  0.19885400  0.89817200  0.95252700  1
  N  N84  1  0.62968400  0.57449700  0.08848600  1
  N  N85  1  0.37031600  0.07449700  0.41151400  1
  N  N86  1  0.37031600  0.42550300  0.91151400  1
  N  N87  1  0.62968400  0.92550300  0.58848600  1
