# generated using pymatgen
data_YBCO7
_symmetry_space_group_name_H-M   'P 1'
_cell_length_a   8.94110200
_cell_length_b   9.17554800
_cell_length_c   13.73157700
_cell_angle_alpha   90.00000000
_cell_angle_beta   90.00000000
_cell_angle_gamma   90.00000000
_symmetry_Int_Tables_number   1
_chemical_formula_structural   YBCO7
_chemical_formula_sum   'Y8 B8 C8 O56'
_cell_volume   1126.53185649
_cell_formula_units_Z   8
loop_
 _symmetry_equiv_pos_site_id
 _symmetry_equiv_pos_as_xyz
  1  'x, y, z'
loop_
 _atom_site_type_symbol
 _atom_site_label
 _atom_site_symmetry_multiplicity
 _atom_site_fract_x
 _atom_site_fract_y
 _atom_site_fract_z
 _atom_site_occupancy
  Y  Y0  1  0.27665800  0.51899600  0.51246200  1
  Y  Y1  1  0.72334200  0.01899600  0.98753800  1
  Y  Y2  1  0.22334200  0.48100400  0.01246200  1
  Y  Y3  1  0.77665800  0.98100400  0.48753800  1
  Y  Y4  1  0.72334200  0.48100400  0.48753800  1
  Y  Y5  1  0.27665800  0.98100400  0.01246200  1
  Y  Y6  1  0.77665800  0.51899600  0.98753800  1
  Y  Y7  1  0.22334200  0.01899600  0.51246200  1
  B  B8  1  0.25344600  0.50023000  0.23221400  1
  B  B9  1  0.74655400  0.00023000  0.26778600  1
  B  B10  1  0.24655400  0.49977000  0.73221400  1
  B  B11  1  0.75344600  0.99977000  0.76778600  1
  B  B12  1  0.74655400  0.49977000  0.76778600  1
  B  B13  1  0.25344600  0.99977000  0.73221400  1
  B  B14  1  0.75344600  0.50023000  0.26778600  1
  B  B15  1  0.24655400  0.00023000  0.23221400  1
  C  C16  1  0.47808700  0.76549400  0.53388600  1
  C  C17  1  0.52191300  0.26549400  0.96611400  1
  C  C18  1  0.02191300  0.23450600  0.03388600  1
  C  C19  1  0.97808700  0.73450600  0.46611400  1
  C  C20  1  0.52191300  0.23450600  0.46611400  1
  C  C21  1  0.47808700  0.73450600  0.03388600  1
  C  C22  1  0.97808700  0.76549400  0.96611400  1
  C  C23  1  0.02191300  0.26549400  0.53388600  1
  O  O24  1  0.66578100  0.21428600  0.47726200  1
  O  O25  1  0.33421900  0.71428600  0.02273800  1
  O  O26  1  0.83421900  0.78571400  0.97726200  1
  O  O27  1  0.16578100  0.28571400  0.52273800  1
  O  O28  1  0.33421900  0.78571400  0.52273800  1
  O  O29  1  0.66578100  0.28571400  0.97726200  1
  O  O30  1  0.16578100  0.21428600  0.02273800  1
  O  O31  1  0.83421900  0.71428600  0.47726200  1
  O  O32  1  0.48110900  0.37132400  0.46702200  1
  O  O33  1  0.51889100  0.87132400  0.03297800  1
  O  O34  1  0.01889100  0.62867600  0.96702200  1
  O  O35  1  0.98110900  0.12867600  0.53297800  1
  O  O36  1  0.51889100  0.62867600  0.53297800  1
  O  O37  1  0.48110900  0.12867600  0.96702200  1
  O  O38  1  0.98110900  0.37132400  0.03297800  1
  O  O39  1  0.01889100  0.87132400  0.46702200  1
  O  O40  1  0.56861200  0.86952200  0.54570600  1
  O  O41  1  0.43138800  0.36952200  0.95429400  1
  O  O42  1  0.93138800  0.13047800  0.04570600  1
  O  O43  1  0.06861200  0.63047800  0.45429400  1
  O  O44  1  0.43138800  0.13047800  0.45429400  1
  O  O45  1  0.56861200  0.63047800  0.04570600  1
  O  O46  1  0.06861200  0.86952200  0.95429400  1
  O  O47  1  0.93138800  0.36952200  0.54570600  1
  O  O48  1  0.31786100  0.56559300  0.32537000  1
  O  O49  1  0.68213900  0.06559300  0.17463000  1
  O  O50  1  0.18213900  0.43440700  0.82537000  1
  O  O51  1  0.81786100  0.93440700  0.67463000  1
  O  O52  1  0.68213900  0.43440700  0.67463000  1
  O  O53  1  0.31786100  0.93440700  0.82537000  1
  O  O54  1  0.81786100  0.56559300  0.17463000  1
  O  O55  1  0.18213900  0.06559300  0.32537000  1
  O  O56  1  0.22397900  0.43764400  0.33239200  1
  O  O57  1  0.77602100  0.93764400  0.16760800  1
  O  O58  1  0.27602100  0.56235600  0.83239200  1
  O  O59  1  0.72397900  0.06235600  0.66760800  1
  O  O60  1  0.77602100  0.56235600  0.66760800  1
  O  O61  1  0.22397900  0.06235600  0.83239200  1
  O  O62  1  0.72397900  0.43764400  0.16760800  1
  O  O63  1  0.27602100  0.93764400  0.33239200  1
  O  O64  1  0.14734900  0.56679500  0.17464800  1
  O  O65  1  0.85265100  0.06679500  0.32535200  1
  O  O66  1  0.35265100  0.43320500  0.67464800  1
  O  O67  1  0.64734900  0.93320500  0.82535200  1
  O  O68  1  0.85265100  0.43320500  0.82535200  1
  O  O69  1  0.14734900  0.93320500  0.67464800  1
  O  O70  1  0.64734900  0.56679500  0.32535200  1
  O  O71  1  0.35265100  0.06679500  0.17464800  1
  O  O72  1  0.33684600  0.43038500  0.16196100  1
  O  O73  1  0.66315400  0.93038500  0.33803900  1
  O  O74  1  0.16315400  0.56961500  0.66196100  1
  O  O75  1  0.83684600  0.06961500  0.83803900  1
  O  O76  1  0.66315400  0.56961500  0.83803900  1
  O  O77  1  0.33684600  0.06961500  0.66196100  1
  O  O78  1  0.83684600  0.43038500  0.33803900  1
  O  O79  1  0.16315400  0.93038500  0.16196100  1
