# generated using pymatgen
data_K2Na6Zn4Si14O45
_symmetry_space_group_name_H-M   'P 1'
_cell_length_a   20.60509759
_cell_length_b   20.60509759
_cell_length_c   7.31330982
_cell_angle_alpha   89.63684154
_cell_angle_beta   89.63684154
_cell_angle_gamma   159.24526940
_symmetry_Int_Tables_number   1
_chemical_formula_structural   K2Na6Zn4Si14O45
_chemical_formula_sum   'K2 Na6 Zn4 Si14 O45'
_cell_volume   1099.63637984
_cell_formula_units_Z   1
loop_
 _symmetry_equiv_pos_site_id
 _symmetry_equiv_pos_as_xyz
  1  'x, y, z'
loop_
 _atom_site_type_symbol
 _atom_site_label
 _atom_site_symmetry_multiplicity
 _atom_site_fract_x
 _atom_site_fract_y
 _atom_site_fract_z
 _atom_site_occupancy
  K  K0  1  0.35471100  0.58554400  0.42643800  1
  K  K1  1  0.58554400  0.35471100  0.42643800  1
  Na  Na2  1  0.11723100  0.11723100  0.21725000  1
  Na  Na3  1  0.14997200  0.14997200  0.80073900  1
  Na  Na4  1  0.25051900  0.75235000  0.82754400  1
  Na  Na5  1  0.75235000  0.25051900  0.82754400  1
  Na  Na6  1  0.10746900  0.84478900  0.57002500  1
  Na  Na7  1  0.84478900  0.10746900  0.57002500  1
  Zn  Zn8  1  0.05494700  0.92755700  0.01073900  1
  Zn  Zn9  1  0.92755700  0.05494700  0.01073900  1
  Zn  Zn10  1  0.43725600  0.07010200  0.66929800  1
  Zn  Zn11  1  0.07010200  0.43725600  0.66929800  1
  Si  Si12  1  0.71868200  0.64231200  0.30889000  1
  Si  Si13  1  0.64231200  0.71868200  0.30889000  1
  Si  Si14  1  0.73515800  0.65797400  0.72395200  1
  Si  Si15  1  0.65797400  0.73515800  0.72395200  1
  Si  Si16  1  0.47744300  0.34802100  0.02255700  1
  Si  Si17  1  0.34802100  0.47744300  0.02255700  1
  Si  Si18  1  0.32700000  0.07001400  0.96529500  1
  Si  Si19  1  0.07001400  0.32700000  0.96529500  1
  Si  Si20  1  0.45060800  0.04831800  0.08746200  1
  Si  Si21  1  0.04831800  0.45060800  0.08746200  1
  Si  Si22  1  0.17677500  0.74486000  0.39593000  1
  Si  Si23  1  0.74486000  0.17677500  0.39593000  1
  Si  Si24  1  0.74562700  0.32351000  0.38342300  1
  Si  Si25  1  0.32351000  0.74562700  0.38342300  1
  O  O26  1  0.61139600  0.61139600  0.31619500  1
  O  O27  1  0.72659000  0.61959800  0.51784800  1
  O  O28  1  0.61959800  0.72659000  0.51784800  1
  O  O29  1  0.92054400  0.83839000  0.21687400  1
  O  O30  1  0.83839000  0.92054400  0.21687400  1
  O  O31  1  0.58189300  0.46315600  0.21120200  1
  O  O32  1  0.46315600  0.58189300  0.21120200  1
  O  O33  1  0.63118100  0.63118100  0.73394900  1
  O  O34  1  0.94596800  0.86113700  0.78700400  1
  O  O35  1  0.86113700  0.94596800  0.78700400  1
  O  O36  1  0.61930400  0.49772400  0.85088200  1
  O  O37  1  0.49772400  0.61930400  0.85088200  1
  O  O38  1  0.27835200  0.19448400  0.00715200  1
  O  O39  1  0.19448400  0.27835200  0.00715200  1
  O  O40  1  0.10955300  0.88622400  0.00091600  1
  O  O41  1  0.88622400  0.10955300  0.00091600  1
  O  O42  1  0.46254900  0.25442200  0.03760200  1
  O  O43  1  0.25442200  0.46254900  0.03760200  1
  O  O44  1  0.38332900  0.06084300  0.09530100  1
  O  O45  1  0.06084300  0.38332900  0.09530100  1
  O  O46  1  0.35946600  0.08551900  0.74896400  1
  O  O47  1  0.08551900  0.35946600  0.74896400  1
  O  O48  1  0.47033900  0.03892400  0.87947100  1
  O  O49  1  0.03892400  0.47033900  0.87947100  1
  O  O50  1  0.29640000  0.86077200  0.20117300  1
  O  O51  1  0.86077200  0.29640000  0.20117300  1
  O  O52  1  0.65078600  0.22887900  0.18215700  1
  O  O53  1  0.22887900  0.65078600  0.18215700  1
  O  O54  1  0.21425800  0.83657500  0.53953100  1
  O  O55  1  0.83657500  0.21425800  0.53953100  1
  O  O56  1  0.65093700  0.28891100  0.51234200  1
  O  O57  1  0.28891100  0.65093700  0.51234200  1
  O  O58  1  0.96226300  0.54139600  0.33975300  1
  O  O59  1  0.54139600  0.96226300  0.33975300  1
  O  O60  1  0.23389100  0.72700300  0.48894400  1
  O  O61  1  0.72700300  0.23389100  0.48894400  1
  O  O62  1  0.14041400  0.04778300  0.54006800  1
  O  O63  1  0.04778300  0.14041400  0.54006800  1
  O  O64  1  0.93039200  0.54055700  0.86667600  1
  O  O65  1  0.54055700  0.93039200  0.86667600  1
  O  O66  1  0.88234600  0.55250800  0.84555000  1
  O  O67  1  0.55250800  0.88234600  0.84555000  1
  O  O68  1  0.98269500  0.75173400  0.28232700  1
  O  O69  1  0.75173400  0.98269500  0.28232700  1
  O  O70  1  0.22446600  0.22446600  0.49949400  1
