# generated using pymatgen
data_ErMnSn2
_symmetry_space_group_name_H-M   'P 1'
_cell_length_a   8.97927900
_cell_length_b   10.36400300
_cell_length_c   11.36705200
_cell_angle_alpha   90.00000000
_cell_angle_beta   90.00000000
_cell_angle_gamma   90.00000000
_symmetry_Int_Tables_number   1
_chemical_formula_structural   ErMnSn2
_chemical_formula_sum   'Er12 Mn12 Sn24'
_cell_volume   1057.83234636
_cell_formula_units_Z   12
loop_
 _symmetry_equiv_pos_site_id
 _symmetry_equiv_pos_as_xyz
  1  'x, y, z'
loop_
 _atom_site_type_symbol
 _atom_site_label
 _atom_site_symmetry_multiplicity
 _atom_site_fract_x
 _atom_site_fract_y
 _atom_site_fract_z
 _atom_site_occupancy
  Er  Er0  1  0.24120700  0.82820800  0.45207600  1
  Er  Er1  1  0.24120700  0.17179200  0.54792400  1
  Er  Er2  1  0.75879300  0.32820800  0.04792400  1
  Er  Er3  1  0.75879300  0.67179200  0.95207600  1
  Er  Er4  1  0.75879300  0.17179200  0.54792400  1
  Er  Er5  1  0.75879300  0.82820800  0.45207600  1
  Er  Er6  1  0.24120700  0.67179200  0.95207600  1
  Er  Er7  1  0.24120700  0.32820800  0.04792400  1
  Er  Er8  1  0.00000000  0.83481600  0.17894200  1
  Er  Er9  1  0.00000000  0.16518400  0.82105800  1
  Er  Er10  1  0.00000000  0.33481600  0.32105800  1
  Er  Er11  1  0.00000000  0.66518400  0.67894200  1
  Mn  Mn12  1  0.24904700  0.58879700  0.25087100  1
  Mn  Mn13  1  0.24904700  0.41120300  0.74912900  1
  Mn  Mn14  1  0.75095300  0.08879700  0.24912900  1
  Mn  Mn15  1  0.75095300  0.91120300  0.75087100  1
  Mn  Mn16  1  0.75095300  0.41120300  0.74912900  1
  Mn  Mn17  1  0.75095300  0.58879700  0.25087100  1
  Mn  Mn18  1  0.24904700  0.91120300  0.75087100  1
  Mn  Mn19  1  0.24904700  0.08879700  0.24912900  1
  Mn  Mn20  1  0.24384200  0.50000000  0.50000000  1
  Mn  Mn21  1  0.75615800  0.00000000  0.00000000  1
  Mn  Mn22  1  0.75615800  0.50000000  0.50000000  1
  Mn  Mn23  1  0.24384200  0.00000000  0.00000000  1
  Sn  Sn24  1  0.33766000  0.83834400  0.18084900  1
  Sn  Sn25  1  0.33766000  0.16165600  0.81915100  1
  Sn  Sn26  1  0.66234000  0.33834400  0.31915100  1
  Sn  Sn27  1  0.66234000  0.66165600  0.68084900  1
  Sn  Sn28  1  0.66234000  0.16165600  0.81915100  1
  Sn  Sn29  1  0.66234000  0.83834400  0.18084900  1
  Sn  Sn30  1  0.33766000  0.66165600  0.68084900  1
  Sn  Sn31  1  0.33766000  0.33834400  0.31915100  1
  Sn  Sn32  1  0.50000000  0.54248900  0.12347000  1
  Sn  Sn33  1  0.50000000  0.45751100  0.87653000  1
  Sn  Sn34  1  0.50000000  0.04248900  0.37653000  1
  Sn  Sn35  1  0.50000000  0.95751100  0.62347000  1
  Sn  Sn36  1  0.00000000  0.54055200  0.12253700  1
  Sn  Sn37  1  0.00000000  0.45944800  0.87746300  1
  Sn  Sn38  1  0.00000000  0.04055200  0.37746300  1
  Sn  Sn39  1  0.00000000  0.95944800  0.62253700  1
  Sn  Sn40  1  0.50000000  0.62682200  0.40531200  1
  Sn  Sn41  1  0.50000000  0.37317800  0.59468800  1
  Sn  Sn42  1  0.50000000  0.12682200  0.09468800  1
  Sn  Sn43  1  0.50000000  0.87317800  0.90531200  1
  Sn  Sn44  1  0.00000000  0.62828800  0.39740400  1
  Sn  Sn45  1  0.00000000  0.37171200  0.60259600  1
  Sn  Sn46  1  0.00000000  0.12828800  0.10259600  1
  Sn  Sn47  1  0.00000000  0.87171200  0.89740400  1
