# generated using pymatgen
data_HoAl3(H3C)12
_symmetry_space_group_name_H-M   'P 1'
_cell_length_a   10.24034015
_cell_length_b   10.24034015
_cell_length_c   13.26206490
_cell_angle_alpha   83.52329959
_cell_angle_beta   83.52329959
_cell_angle_gamma   108.99753674
_symmetry_Int_Tables_number   1
_chemical_formula_structural   HoAl3(H3C)12
_chemical_formula_sum   'Ho2 Al6 H72 C24'
_cell_volume   1289.92679331
_cell_formula_units_Z   2
loop_
 _symmetry_equiv_pos_site_id
 _symmetry_equiv_pos_as_xyz
  1  'x, y, z'
loop_
 _atom_site_type_symbol
 _atom_site_label
 _atom_site_symmetry_multiplicity
 _atom_site_fract_x
 _atom_site_fract_y
 _atom_site_fract_z
 _atom_site_occupancy
  Ho  Ho0  1  0.72944700  0.27055300  0.25000000  1
  Ho  Ho1  1  0.27055300  0.72944700  0.75000000  1
  Al  Al2  1  0.54362700  0.45637300  0.25000000  1
  Al  Al3  1  0.45637300  0.54362700  0.75000000  1
  Al  Al4  1  0.86306000  0.22146100  0.44427200  1
  Al  Al5  1  0.77853900  0.13694000  0.05572800  1
  Al  Al6  1  0.13694000  0.77853900  0.55572800  1
  Al  Al7  1  0.22146100  0.86306000  0.94427200  1
  H  H8  1  0.61930600  0.03593800  0.38921600  1
  H  H9  1  0.96406200  0.38069400  0.11078400  1
  H  H10  1  0.38069400  0.96406200  0.61078400  1
  H  H11  1  0.03593800  0.61930600  0.88921600  1
  H  H12  1  0.72932500  0.43632000  0.08178400  1
  H  H13  1  0.56368000  0.27067500  0.41821600  1
  H  H14  1  0.27067500  0.56368000  0.91821600  1
  H  H15  1  0.43632000  0.72932500  0.58178400  1
  H  H16  1  0.75291500  0.99013000  0.43344900  1
  H  H17  1  0.00987000  0.24708500  0.06655100  1
  H  H18  1  0.24708500  0.00987000  0.56655100  1
  H  H19  1  0.99013000  0.75291500  0.93344900  1
  H  H20  1  0.83516000  0.53568000  0.16516500  1
  H  H21  1  0.46432000  0.16484000  0.33483500  1
  H  H22  1  0.16484000  0.46432000  0.83483500  1
  H  H23  1  0.53568000  0.83516000  0.66516500  1
  H  H24  1  0.94916100  0.46097000  0.41956000  1
  H  H25  1  0.53903000  0.05083900  0.08044000  1
  H  H26  1  0.05083900  0.53903000  0.58044000  1
  H  H27  1  0.46097000  0.94916100  0.91956000  1
  H  H28  1  0.64711500  0.17942200  0.58791600  1
  H  H29  1  0.82057800  0.35288500  0.91208400  1
  H  H30  1  0.35288500  0.82057800  0.41208400  1
  H  H31  1  0.17942200  0.64711500  0.08791600  1
  H  H32  1  0.76530900  0.03244400  0.30193100  1
  H  H33  1  0.96755600  0.23469100  0.19806900  1
  H  H34  1  0.23469100  0.96755600  0.69806900  1
  H  H35  1  0.03244400  0.76530900  0.80193100  1
  H  H36  1  0.71002500  0.58896800  0.11429800  1
  H  H37  1  0.41103200  0.28997500  0.38570200  1
  H  H38  1  0.28997500  0.41103200  0.88570200  1
  H  H39  1  0.58896800  0.71002500  0.61429800  1
  H  H40  1  0.80481800  0.46534200  0.36480300  1
  H  H41  1  0.53465800  0.19518200  0.13519700  1
  H  H42  1  0.19518200  0.53465800  0.63519700  1
  H  H43  1  0.46534200  0.80481800  0.86480300  1
  H  H44  1  0.08787200  0.17224600  0.36900800  1
  H  H45  1  0.82775400  0.91212800  0.13099200  1
  H  H46  1  0.91212800  0.82775400  0.63099200  1
  H  H47  1  0.17224600  0.08787200  0.86900800  1
  H  H48  1  0.96028600  0.46192400  0.28918900  1
  H  H49  1  0.53807600  0.03971400  0.21081100  1
  H  H50  1  0.03971400  0.53807600  0.71081100  1
  H  H51  1  0.46192400  0.96028600  0.78918900  1
  H  H52  1  0.80420900  0.28126900  0.62619000  1
  H  H53  1  0.71873100  0.19579100  0.87381000  1
  H  H54  1  0.19579100  0.71873100  0.37381000  1
  H  H55  1  0.28126900  0.80420900  0.12619000  1
  H  H56  1  0.76600700  0.09949800  0.62970800  1
  H  H57  1  0.90050200  0.23399300  0.87029200  1
  H  H58  1  0.23399300  0.90050200  0.37029200  1
  H  H59  1  0.09949800  0.76600700  0.12970800  1
  H  H60  1  0.41743900  0.51130500  0.10294900  1
  H  H61  1  0.48869500  0.58256100  0.39705100  1
  H  H62  1  0.58256100  0.48869500  0.89705100  1
  H  H63  1  0.51130500  0.41743900  0.60294900  1
  H  H64  1  0.29380100  0.42977600  0.21565000  1
  H  H65  1  0.57022400  0.70619900  0.28435000  1
  H  H66  1  0.70619900  0.57022400  0.78435000  1
  H  H67  1  0.42977600  0.29380100  0.71565000  1
  H  H68  1  0.35941200  0.32653600  0.13919000  1
  H  H69  1  0.67346400  0.64058800  0.36081000  1
  H  H70  1  0.64058800  0.67346400  0.86081000  1
  H  H71  1  0.32653600  0.35941200  0.63919000  1
  H  H72  1  0.06530500  0.15248000  0.50554500  1
  H  H73  1  0.84752000  0.93469500  0.99445500  1
  H  H74  1  0.93469500  0.84752000  0.49445500  1
  H  H75  1  0.15248000  0.06530500  0.00554500  1
  H  H76  1  0.13284800  0.32211300  0.43055600  1
  H  H77  1  0.67788700  0.86715200  0.06944400  1
  H  H78  1  0.86715200  0.67788700  0.56944400  1
  H  H79  1  0.32211300  0.13284800  0.93055600  1
  C  C80  1  0.72746000  0.49317300  0.14759700  1
  C  C81  1  0.50682700  0.27254000  0.35240300  1
  C  C82  1  0.27254000  0.50682700  0.85240300  1
  C  C83  1  0.49317300  0.72746000  0.64759700  1
  C  C84  1  0.38850800  0.42646900  0.16902800  1
  C  C85  1  0.57353100  0.61149200  0.33097200  1
  C  C86  1  0.61149200  0.57353100  0.83097200  1
  C  C87  1  0.42646900  0.38850800  0.66902800  1
  C  C88  1  0.88581800  0.41569000  0.36157500  1
  C  C89  1  0.58431000  0.11418200  0.13842500  1
  C  C90  1  0.11418200  0.58431000  0.63842500  1
  C  C91  1  0.41569000  0.88581800  0.86157500  1
  C  C92  1  0.73466200  0.06534600  0.37489900  1
  C  C93  1  0.93465400  0.26533800  0.12510100  1
  C  C94  1  0.26533800  0.93465400  0.62510100  1
  C  C95  1  0.06534600  0.73466200  0.87489900  1
  C  C96  1  0.75892500  0.19365700  0.58480700  1
  C  C97  1  0.80634300  0.24107500  0.91519300  1
  C  C98  1  0.24107500  0.80634300  0.41519300  1
  C  C99  1  0.19365700  0.75892500  0.08480700  1
  C  C100  1  0.05608200  0.21621200  0.43555900  1
  C  C101  1  0.78378800  0.94391800  0.06444100  1
  C  C102  1  0.94391800  0.78378800  0.56444100  1
  C  C103  1  0.21621200  0.05608200  0.93555900  1
