# generated using pymatgen
data_Zn2H10Cl4O5
_symmetry_space_group_name_H-M   'P 1'
_cell_length_a   10.02569300
_cell_length_b   7.41243400
_cell_length_c   15.69501495
_cell_angle_alpha   74.77015858
_cell_angle_beta   90.00000000
_cell_angle_gamma   90.00000000
_symmetry_Int_Tables_number   1
_chemical_formula_structural   Zn2H10Cl4O5
_chemical_formula_sum   'Zn8 H40 Cl16 O20'
_cell_volume   1125.40850441
_cell_formula_units_Z   4
loop_
 _symmetry_equiv_pos_site_id
 _symmetry_equiv_pos_as_xyz
  1  'x, y, z'
loop_
 _atom_site_type_symbol
 _atom_site_label
 _atom_site_symmetry_multiplicity
 _atom_site_fract_x
 _atom_site_fract_y
 _atom_site_fract_z
 _atom_site_occupancy
  Zn  Zn0  1  0.27176800  0.62595900  0.65466500  1
  Zn  Zn1  1  0.22823200  0.62595900  0.15466500  1
  Zn  Zn2  1  0.72823200  0.37404100  0.34533500  1
  Zn  Zn3  1  0.77176800  0.37404100  0.84533500  1
  Zn  Zn4  1  0.26864300  0.12189900  0.85539200  1
  Zn  Zn5  1  0.23135700  0.12189900  0.35539200  1
  Zn  Zn6  1  0.73135700  0.87810100  0.14460800  1
  Zn  Zn7  1  0.76864300  0.87810100  0.64460800  1
  H  H8  1  0.10252400  0.71202000  0.51371900  1
  H  H9  1  0.39747600  0.71202000  0.01371900  1
  H  H10  1  0.89747600  0.28798000  0.48628100  1
  H  H11  1  0.60252400  0.28798000  0.98628100  1
  H  H12  1  0.15164200  0.50543700  0.52981100  1
  H  H13  1  0.34835800  0.50543700  0.02981100  1
  H  H14  1  0.84835800  0.49456300  0.47018900  1
  H  H15  1  0.65164200  0.49456300  0.97018900  1
  H  H16  1  0.33974900  0.99746400  0.61307500  1
  H  H17  1  0.16025100  0.99746400  0.11307500  1
  H  H18  1  0.66025100  0.00253600  0.38692500  1
  H  H19  1  0.83974900  0.00253600  0.88692500  1
  H  H20  1  0.18157200  0.98661600  0.61151500  1
  H  H21  1  0.31842800  0.98661600  0.11151500  1
  H  H22  1  0.81842800  0.01338400  0.38848500  1
  H  H23  1  0.68157200  0.01338400  0.88848500  1
  H  H24  1  0.51927300  0.61965000  0.57616000  1
  H  H25  1  0.98072700  0.61965000  0.07616000  1
  H  H26  1  0.48072700  0.38035000  0.42384000  1
  H  H27  1  0.01927300  0.38035000  0.92384000  1
  H  H28  1  0.41678300  0.72901400  0.50580100  1
  H  H29  1  0.08321700  0.72901400  0.00580100  1
  H  H30  1  0.58321700  0.27098600  0.49419900  1
  H  H31  1  0.91678300  0.27098600  0.99419900  1
  H  H32  1  0.09785800  0.73541200  0.77320700  1
  H  H33  1  0.40214200  0.73541200  0.27320700  1
  H  H34  1  0.90214200  0.26458800  0.22679300  1
  H  H35  1  0.59785800  0.26458800  0.72679300  1
  H  H36  1  0.04703300  0.55058800  0.74776700  1
  H  H37  1  0.45296700  0.55058800  0.24776700  1
  H  H38  1  0.95296700  0.44941200  0.25223300  1
  H  H39  1  0.54703300  0.44941200  0.75223300  1
  H  H40  1  0.44932900  0.74301200  0.76957700  1
  H  H41  1  0.05067100  0.74301200  0.26957700  1
  H  H42  1  0.55067100  0.25698800  0.23042300  1
  H  H43  1  0.94932900  0.25698800  0.73042300  1
  H  H44  1  0.37451000  0.55741000  0.81533300  1
  H  H45  1  0.12549000  0.55741000  0.31533300  1
  H  H46  1  0.62549000  0.44259000  0.18466700  1
  H  H47  1  0.87451000  0.44259000  0.68466700  1
  Cl  Cl48  1  0.28140500  0.28073200  0.70467300  1
  Cl  Cl49  1  0.21859500  0.28073200  0.20467300  1
  Cl  Cl50  1  0.71859500  0.71926800  0.29532700  1
  Cl  Cl51  1  0.78140500  0.71926800  0.79532700  1
  Cl  Cl52  1  0.44978500  0.92677700  0.88537600  1
  Cl  Cl53  1  0.05021500  0.92677700  0.38537600  1
  Cl  Cl54  1  0.55021500  0.07322300  0.11462400  1
  Cl  Cl55  1  0.94978500  0.07322300  0.61462400  1
  Cl  Cl56  1  0.25585700  0.34699200  0.92987000  1
  Cl  Cl57  1  0.24414300  0.34699200  0.42987000  1
  Cl  Cl58  1  0.74414300  0.65300800  0.07013000  1
  Cl  Cl59  1  0.75585700  0.65300800  0.57013000  1
  Cl  Cl60  1  0.08070000  0.93721500  0.87015400  1
  Cl  Cl61  1  0.41930000  0.93721500  0.37015400  1
  Cl  Cl62  1  0.91930000  0.06278500  0.12984600  1
  Cl  Cl63  1  0.58070000  0.06278500  0.62984600  1
  O  O64  1  0.12551500  0.59838800  0.56085700  1
  O  O65  1  0.37448500  0.59838800  0.06085700  1
  O  O66  1  0.87448500  0.40161200  0.43914300  1
  O  O67  1  0.62551500  0.40161200  0.93914300  1
  O  O68  1  0.26432600  0.91909200  0.60603800  1
  O  O69  1  0.23567400  0.91909200  0.10603800  1
  O  O70  1  0.73567400  0.08090800  0.39396200  1
  O  O71  1  0.76432600  0.08090800  0.89396200  1
  O  O72  1  0.42359000  0.62991400  0.56165500  1
  O  O73  1  0.07641000  0.62991400  0.06165500  1
  O  O74  1  0.57641000  0.37008600  0.43834500  1
  O  O75  1  0.92359000  0.37008600  0.93834500  1
  O  O76  1  0.12367300  0.63489700  0.74645500  1
  O  O77  1  0.37632700  0.63489700  0.24645500  1
  O  O78  1  0.87632700  0.36510300  0.25354500  1
  O  O79  1  0.62367300  0.36510300  0.75354500  1
  O  O80  1  0.41940800  0.62377300  0.75970300  1
  O  O81  1  0.08059200  0.62377300  0.25970300  1
  O  O82  1  0.58059200  0.37622700  0.24029700  1
  O  O83  1  0.91940800  0.37622700  0.74029700  1
