# generated using pymatgen
data_ScH4NF4
_symmetry_space_group_name_H-M   'P 1'
_cell_length_a   13.76609800
_cell_length_b   7.94783100
_cell_length_c   8.20806000
_cell_angle_alpha   90.00000000
_cell_angle_beta   90.00000000
_cell_angle_gamma   90.00000000
_symmetry_Int_Tables_number   1
_chemical_formula_structural   ScH4NF4
_chemical_formula_sum   'Sc8 H32 N8 F32'
_cell_volume   898.04893715
_cell_formula_units_Z   8
loop_
 _symmetry_equiv_pos_site_id
 _symmetry_equiv_pos_as_xyz
  1  'x, y, z'
loop_
 _atom_site_type_symbol
 _atom_site_label
 _atom_site_symmetry_multiplicity
 _atom_site_fract_x
 _atom_site_fract_y
 _atom_site_fract_z
 _atom_site_occupancy
  Sc  Sc0  1  0.75037500  0.99995700  0.62506300  1
  Sc  Sc1  1  0.25037500  0.50004300  0.87493700  1
  Sc  Sc2  1  0.24962500  0.49995700  0.37493700  1
  Sc  Sc3  1  0.74962500  0.00004300  0.12506300  1
  Sc  Sc4  1  0.24962500  0.00004300  0.37493700  1
  Sc  Sc5  1  0.74962500  0.49995700  0.12506300  1
  Sc  Sc6  1  0.75037500  0.50004300  0.62506300  1
  Sc  Sc7  1  0.25037500  0.99995700  0.87493700  1
  H  H8  1  0.53776100  0.14075500  0.63990900  1
  H  H9  1  0.03776100  0.35924500  0.86009100  1
  H  H10  1  0.46223900  0.64075500  0.36009100  1
  H  H11  1  0.96223900  0.85924500  0.13990900  1
  H  H12  1  0.46223900  0.85924500  0.36009100  1
  H  H13  1  0.96223900  0.64075500  0.13990900  1
  H  H14  1  0.53776100  0.35924500  0.63990900  1
  H  H15  1  0.03776100  0.14075500  0.86009100  1
  H  H16  1  0.44454600  0.25000000  0.72349300  1
  H  H17  1  0.94454600  0.25000000  0.77650700  1
  H  H18  1  0.55545400  0.75000000  0.27650700  1
  H  H19  1  0.05545400  0.75000000  0.22349300  1
  H  H20  1  0.45971800  0.25000000  0.52205600  1
  H  H21  1  0.95971800  0.25000000  0.97794400  1
  H  H22  1  0.54028200  0.75000000  0.47794400  1
  H  H23  1  0.04028200  0.75000000  0.02205600  1
  H  H24  1  0.04100600  0.75000000  0.52393000  1
  H  H25  1  0.54100600  0.75000000  0.97607000  1
  H  H26  1  0.95899400  0.25000000  0.47607000  1
  H  H27  1  0.45899400  0.25000000  0.02393000  1
  H  H28  1  0.96377400  0.85926500  0.64298000  1
  H  H29  1  0.46377400  0.64073500  0.85702000  1
  H  H30  1  0.03622600  0.35926500  0.35702000  1
  H  H31  1  0.53622600  0.14073500  0.14298000  1
  H  H32  1  0.03622600  0.14073500  0.35702000  1
  H  H33  1  0.53622600  0.35926500  0.14298000  1
  H  H34  1  0.96377400  0.64073500  0.64298000  1
  H  H35  1  0.46377400  0.85926500  0.85702000  1
  H  H36  1  0.05751700  0.75000000  0.72516900  1
  H  H37  1  0.55751700  0.75000000  0.77483100  1
  H  H38  1  0.94248300  0.25000000  0.27483100  1
  H  H39  1  0.44248300  0.25000000  0.22516900  1
  N  N40  1  0.49560900  0.25000000  0.63180700  1
  N  N41  1  0.99560900  0.25000000  0.86819300  1
  N  N42  1  0.50439100  0.75000000  0.36819300  1
  N  N43  1  0.00439100  0.75000000  0.13180700  1
  N  N44  1  0.00595000  0.75000000  0.63421000  1
  N  N45  1  0.50595000  0.75000000  0.86579000  1
  N  N46  1  0.99405000  0.25000000  0.36579000  1
  N  N47  1  0.49405000  0.25000000  0.13421000  1
  F  F48  1  0.78089500  0.75000000  0.60563700  1
  F  F49  1  0.28089500  0.75000000  0.89436300  1
  F  F50  1  0.21910500  0.25000000  0.39436300  1
  F  F51  1  0.71910500  0.25000000  0.10563700  1
  F  F52  1  0.60620600  0.95474100  0.62652600  1
  F  F53  1  0.10620600  0.54525900  0.87347400  1
  F  F54  1  0.39379400  0.45474100  0.37347400  1
  F  F55  1  0.89379400  0.04525900  0.12652600  1
  F  F56  1  0.39379400  0.04525900  0.37347400  1
  F  F57  1  0.89379400  0.45474100  0.12652600  1
  F  F58  1  0.60620600  0.54525900  0.62652600  1
  F  F59  1  0.10620600  0.95474100  0.87347400  1
  F  F60  1  0.89453700  0.04478000  0.62998000  1
  F  F61  1  0.39453700  0.45522000  0.87002000  1
  F  F62  1  0.10546300  0.54478000  0.37002000  1
  F  F63  1  0.60546300  0.95522000  0.12998000  1
  F  F64  1  0.10546300  0.95522000  0.37002000  1
  F  F65  1  0.60546300  0.54478000  0.12998000  1
  F  F66  1  0.89453700  0.45522000  0.62998000  1
  F  F67  1  0.39453700  0.04478000  0.87002000  1
  F  F68  1  0.72002300  0.25000000  0.64487200  1
  F  F69  1  0.22002300  0.25000000  0.85512800  1
  F  F70  1  0.27997700  0.75000000  0.35512800  1
  F  F71  1  0.77997700  0.75000000  0.14487200  1
  F  F72  1  0.75087400  0.98028800  0.87554500  1
  F  F73  1  0.25087400  0.51971200  0.62445500  1
  F  F74  1  0.24912600  0.48028800  0.12445500  1
  F  F75  1  0.74912600  0.01971200  0.37554500  1
  F  F76  1  0.24912600  0.01971200  0.12445500  1
  F  F77  1  0.74912600  0.48028800  0.37554500  1
  F  F78  1  0.75087400  0.51971200  0.87554500  1
  F  F79  1  0.25087400  0.98028800  0.62445500  1
