# generated using pymatgen
data_Sb3O8
_symmetry_space_group_name_H-M   'P 1'
_cell_length_a   8.98567600
_cell_length_b   9.56482000
_cell_length_c   13.81055727
_cell_angle_alpha   46.56252790
_cell_angle_beta   90.00000000
_cell_angle_gamma   90.00000000
_symmetry_Int_Tables_number   1
_chemical_formula_structural   Sb3O8
_chemical_formula_sum   'Sb18 O48'
_cell_volume   861.88682129
_cell_formula_units_Z   6
loop_
 _symmetry_equiv_pos_site_id
 _symmetry_equiv_pos_as_xyz
  1  'x, y, z'
loop_
 _atom_site_type_symbol
 _atom_site_label
 _atom_site_symmetry_multiplicity
 _atom_site_fract_x
 _atom_site_fract_y
 _atom_site_fract_z
 _atom_site_occupancy
  Sb  Sb0  1  0.30726200  0.50000000  0.25000000  1
  Sb  Sb1  1  0.69273800  0.50000000  0.75000000  1
  Sb  Sb2  1  0.99232000  0.75391100  0.74641900  1
  Sb  Sb3  1  0.00768000  0.24608900  0.25358100  1
  Sb  Sb4  1  0.99232000  0.24608900  0.75358100  1
  Sb  Sb5  1  0.00768000  0.75391100  0.24641900  1
  Sb  Sb6  1  0.35276800  0.74278200  0.74952400  1
  Sb  Sb7  1  0.64723200  0.25721800  0.25047600  1
  Sb  Sb8  1  0.35276800  0.25721800  0.75047600  1
  Sb  Sb9  1  0.64723200  0.74278200  0.24952400  1
  Sb  Sb10  1  0.84827100  0.74586800  0.00126500  1
  Sb  Sb11  1  0.15172900  0.25413200  0.99873500  1
  Sb  Sb12  1  0.84827100  0.25413200  0.49873500  1
  Sb  Sb13  1  0.15172900  0.74586800  0.50126500  1
  Sb  Sb14  1  0.49456100  0.76807600  0.98164200  1
  Sb  Sb15  1  0.50543900  0.23192400  0.01835800  1
  Sb  Sb16  1  0.49456100  0.23192400  0.51835800  1
  Sb  Sb17  1  0.50543900  0.76807600  0.48164200  1
  O  O18  1  0.16326200  0.44131100  0.17401400  1
  O  O19  1  0.83673800  0.55868900  0.82598600  1
  O  O20  1  0.16326200  0.55868900  0.32598600  1
  O  O21  1  0.83673800  0.44131100  0.67401400  1
  O  O22  1  0.48941600  0.46635700  0.16476300  1
  O  O23  1  0.51058400  0.53364300  0.83523700  1
  O  O24  1  0.48941600  0.53364300  0.33523700  1
  O  O25  1  0.51058400  0.46635700  0.66476300  1
  O  O26  1  0.33922700  0.23451800  0.41753600  1
  O  O27  1  0.66077300  0.76548200  0.58246400  1
  O  O28  1  0.33922700  0.76548200  0.08246400  1
  O  O29  1  0.66077300  0.23451800  0.91753600  1
  O  O30  1  0.17451700  0.91568700  0.67667600  1
  O  O31  1  0.82548300  0.08431300  0.32332400  1
  O  O32  1  0.17451700  0.08431300  0.82332400  1
  O  O33  1  0.82548300  0.91568700  0.17667600  1
  O  O34  1  0.00007700  0.76948300  0.59263000  1
  O  O35  1  0.99992300  0.23051700  0.40737000  1
  O  O36  1  0.00007700  0.23051700  0.90737000  1
  O  O37  1  0.99992300  0.76948300  0.09263000  1
  O  O38  1  0.99354700  0.71364300  0.90927000  1
  O  O39  1  0.00645300  0.28635700  0.09073000  1
  O  O40  1  0.99354700  0.28635700  0.59073000  1
  O  O41  1  0.00645300  0.71364300  0.40927000  1
  O  O42  1  0.35065200  0.70782500  0.90751900  1
  O  O43  1  0.64934800  0.29217500  0.09248100  1
  O  O44  1  0.35065200  0.29217500  0.59248100  1
  O  O45  1  0.64934800  0.70782500  0.40751900  1
  O  O46  1  0.33317600  0.76755900  0.58981200  1
  O  O47  1  0.66682400  0.23244100  0.41018800  1
  O  O48  1  0.33317600  0.23244100  0.91018800  1
  O  O49  1  0.66682400  0.76755900  0.08981200  1
  O  O50  1  0.67415200  0.72787000  0.92348800  1
  O  O51  1  0.32584800  0.27213000  0.07651200  1
  O  O52  1  0.67415200  0.27213000  0.57651200  1
  O  O53  1  0.32584800  0.72787000  0.42348800  1
  O  O54  1  0.83451600  0.45215100  0.16250800  1
  O  O55  1  0.16548400  0.54784900  0.83749200  1
  O  O56  1  0.83451600  0.54784900  0.33749200  1
  O  O57  1  0.16548400  0.45215100  0.66250800  1
  O  O58  1  0.85162400  0.02992700  0.84944600  1
  O  O59  1  0.14837600  0.97007300  0.15055400  1
  O  O60  1  0.85162400  0.97007300  0.65055400  1
  O  O61  1  0.14837600  0.02992700  0.34944600  1
  O  O62  1  0.49930100  0.04984600  0.84085700  1
  O  O63  1  0.50069900  0.95015400  0.15914300  1
  O  O64  1  0.49930100  0.95015400  0.65914300  1
  O  O65  1  0.50069900  0.04984600  0.34085700  1
