# generated using pymatgen
data_TiSO6
_symmetry_space_group_name_H-M   'P 1'
_cell_length_a   5.27075200
_cell_length_b   8.82047000
_cell_length_c   9.97857300
_cell_angle_alpha   90.00000000
_cell_angle_beta   90.00000000
_cell_angle_gamma   90.00000000
_symmetry_Int_Tables_number   1
_chemical_formula_structural   TiSO6
_chemical_formula_sum   'Ti4 S4 O24'
_cell_volume   463.90894678
_cell_formula_units_Z   4
loop_
 _symmetry_equiv_pos_site_id
 _symmetry_equiv_pos_as_xyz
  1  'x, y, z'
loop_
 _atom_site_type_symbol
 _atom_site_label
 _atom_site_symmetry_multiplicity
 _atom_site_fract_x
 _atom_site_fract_y
 _atom_site_fract_z
 _atom_site_occupancy
  Ti  Ti0  1  0.25000000  0.54233800  0.62529400  1
  Ti  Ti1  1  0.25000000  0.95766200  0.12529400  1
  Ti  Ti2  1  0.75000000  0.45766200  0.37470600  1
  Ti  Ti3  1  0.75000000  0.04233800  0.87470600  1
  S  S4  1  0.25000000  0.33278600  0.17110400  1
  S  S5  1  0.25000000  0.16721400  0.67110400  1
  S  S6  1  0.75000000  0.66721400  0.82889600  1
  S  S7  1  0.75000000  0.83278600  0.32889600  1
  O  O8  1  0.00000000  0.50000000  0.50000000  1
  O  O9  1  0.50000000  0.00000000  0.00000000  1
  O  O10  1  0.50000000  0.50000000  0.50000000  1
  O  O11  1  0.00000000  0.00000000  0.00000000  1
  O  O12  1  0.25000000  0.35847800  0.02729000  1
  O  O13  1  0.25000000  0.14152200  0.52729000  1
  O  O14  1  0.75000000  0.64152200  0.97271000  1
  O  O15  1  0.75000000  0.85847800  0.47271000  1
  O  O16  1  0.25000000  0.33102500  0.70706500  1
  O  O17  1  0.25000000  0.16897500  0.20706500  1
  O  O18  1  0.75000000  0.66897500  0.29293500  1
  O  O19  1  0.75000000  0.83102500  0.79293500  1
  O  O20  1  0.52088000  0.59759600  0.76566300  1
  O  O21  1  0.97912000  0.90240400  0.26566300  1
  O  O22  1  0.02088000  0.40240400  0.23433700  1
  O  O23  1  0.47912000  0.09759600  0.73433700  1
  O  O24  1  0.47912000  0.40240400  0.23433700  1
  O  O25  1  0.02088000  0.09759600  0.73433700  1
  O  O26  1  0.97912000  0.59759600  0.76566300  1
  O  O27  1  0.52088000  0.90240400  0.26566300  1
  O  O28  1  0.25000000  0.74680800  0.08311600  1
  O  O29  1  0.25000000  0.75319200  0.58311600  1
  O  O30  1  0.75000000  0.25319200  0.91688400  1
  O  O31  1  0.75000000  0.24680800  0.41688400  1
