# generated using pymatgen
data_H12C5S2N2O5
_symmetry_space_group_name_H-M   'P 1'
_cell_length_a   6.25508100
_cell_length_b   7.55774304
_cell_length_c   13.33458711
_cell_angle_alpha   78.19050197
_cell_angle_beta   89.90746881
_cell_angle_gamma   86.20605623
_symmetry_Int_Tables_number   1
_chemical_formula_structural   H12C5S2N2O5
_chemical_formula_sum   'H24 C10 S4 N4 O10'
_cell_volume   615.64200948
_cell_formula_units_Z   2
loop_
 _symmetry_equiv_pos_site_id
 _symmetry_equiv_pos_as_xyz
  1  'x, y, z'
loop_
 _atom_site_type_symbol
 _atom_site_label
 _atom_site_symmetry_multiplicity
 _atom_site_fract_x
 _atom_site_fract_y
 _atom_site_fract_z
 _atom_site_occupancy
  H  H0  1  0.41974900  0.71217900  0.75094400  1
  H  H1  1  0.58025100  0.28782100  0.24905600  1
  H  H2  1  0.53503200  0.68270900  0.87811400  1
  H  H3  1  0.46496800  0.31729100  0.12188600  1
  H  H4  1  0.55883200  0.89290200  0.78827800  1
  H  H5  1  0.44116800  0.10709800  0.21172200  1
  H  H6  1  0.20035800  0.23894000  0.84596800  1
  H  H7  1  0.79964200  0.76106000  0.15403200  1
  H  H8  1  0.15791600  0.41687900  0.91832600  1
  H  H9  1  0.84208400  0.58312100  0.08167400  1
  H  H10  1  0.13311000  0.18396700  0.98041900  1
  H  H11  1  0.86689000  0.81603300  0.01958100  1
  H  H12  1  0.71317400  0.27167600  0.47120800  1
  H  H13  1  0.28682600  0.72832400  0.52879200  1
  H  H14  1  0.65032000  0.07829900  0.56550300  1
  H  H15  1  0.34968000  0.92170100  0.43449700  1
  H  H16  1  0.47769000  0.28201700  0.54727400  1
  H  H17  1  0.52231000  0.71798300  0.45272600  1
  H  H18  1  0.03816200  0.11063800  0.66311900  1
  H  H19  1  0.96183800  0.88936200  0.33688100  1
  H  H20  1  0.04905500  0.25989800  0.54101400  1
  H  H21  1  0.95094500  0.74010200  0.45898600  1
  H  H22  1  0.08584100  0.34521700  0.65474600  1
  H  H23  1  0.91415900  0.65478300  0.34525400  1
  C  C24  1  0.54983900  0.74584900  0.79712000  1
  C  C25  1  0.45016100  0.25415100  0.20288000  1
  C  C26  1  0.11234800  0.28422100  0.90817900  1
  C  C27  1  0.88765200  0.71577900  0.09182100  1
  C  C28  1  0.66455700  0.37860600  0.68857100  1
  C  C29  1  0.33544300  0.62139400  0.31142900  1
  C  C30  1  0.64371400  0.22721600  0.54703900  1
  C  C31  1  0.35628600  0.77278400  0.45296100  1
  C  C32  1  0.99965800  0.25031800  0.62092800  1
  C  C33  1  0.00034200  0.74968200  0.37907200  1
  S  S34  1  0.79926600  0.66990700  0.75148200  1
  S  S35  1  0.20073400  0.33009300  0.24851800  1
  S  S36  1  0.83367700  0.29773100  0.88168400  1
  S  S37  1  0.16632300  0.70226900  0.11831600  1
  N  N38  1  0.80392500  0.43986800  0.76267800  1
  N  N39  1  0.19607500  0.56013200  0.23732200  1
  N  N40  1  0.76930000  0.29439700  0.62174500  1
  N  N41  1  0.23070000  0.70560300  0.37825500  1
  O  O42  1  0.80599500  0.73964500  0.64218400  1
  O  O43  1  0.19400500  0.26035500  0.35781600  1
  O  O44  1  0.96944200  0.69891100  0.81764300  1
  O  O45  1  0.03055800  0.30108900  0.18235700  1
  O  O46  1  0.77317800  0.12510600  0.86421700  1
  O  O47  1  0.22682200  0.87489400  0.13578300  1
  O  O48  1  0.72127500  0.38168300  0.95604200  1
  O  O49  1  0.27872500  0.61831700  0.04395800  1
  O  O50  1  0.46851000  0.41139800  0.69006200  1
  O  O51  1  0.53149000  0.58860200  0.30993800  1
