# generated using pymatgen
data_BeGaH5
_symmetry_space_group_name_H-M   'P 1'
_cell_length_a   8.53202300
_cell_length_b   6.21335900
_cell_length_c   16.80970654
_cell_angle_alpha   90.00000000
_cell_angle_beta   116.68797282
_cell_angle_gamma   90.00000000
_symmetry_Int_Tables_number   1
_chemical_formula_structural   BeGaH5
_chemical_formula_sum   'Be8 Ga8 H40'
_cell_volume   796.18955304
_cell_formula_units_Z   8
loop_
 _symmetry_equiv_pos_site_id
 _symmetry_equiv_pos_as_xyz
  1  'x, y, z'
loop_
 _atom_site_type_symbol
 _atom_site_label
 _atom_site_symmetry_multiplicity
 _atom_site_fract_x
 _atom_site_fract_y
 _atom_site_fract_z
 _atom_site_occupancy
  Be  Be0  1  0.73766800  0.63572500  0.53035300  1
  Be  Be1  1  0.73766800  0.86427500  0.03035300  1
  Be  Be2  1  0.26233200  0.36427500  0.46964700  1
  Be  Be3  1  0.26233200  0.13572500  0.96964700  1
  Be  Be4  1  0.04644000  0.09203400  0.46653700  1
  Be  Be5  1  0.04644000  0.40796600  0.96653700  1
  Be  Be6  1  0.95356000  0.90796600  0.53346300  1
  Be  Be7  1  0.95356000  0.59203400  0.03346300  1
  Ga  Ga8  1  0.05756700  0.64799800  0.68033800  1
  Ga  Ga9  1  0.05756700  0.85200200  0.18033800  1
  Ga  Ga10  1  0.94243300  0.35200200  0.31966200  1
  Ga  Ga11  1  0.94243300  0.14799800  0.81966200  1
  Ga  Ga12  1  0.51900300  0.90592000  0.11835400  1
  Ga  Ga13  1  0.51900300  0.59408000  0.61835400  1
  Ga  Ga14  1  0.48099700  0.09408000  0.88164600  1
  Ga  Ga15  1  0.48099700  0.40592000  0.38164600  1
  H  H16  1  0.51294800  0.20830500  0.33526300  1
  H  H17  1  0.51294800  0.29169500  0.83526300  1
  H  H18  1  0.48705200  0.79169500  0.66473700  1
  H  H19  1  0.48705200  0.70830500  0.16473700  1
  H  H20  1  0.98948000  0.27762600  0.24495600  1
  H  H21  1  0.98948000  0.22237400  0.74495600  1
  H  H22  1  0.01052000  0.72237400  0.75504400  1
  H  H23  1  0.01052000  0.77762600  0.25504400  1
  H  H24  1  0.61445900  0.11928300  0.15943600  1
  H  H25  1  0.61445900  0.38071700  0.65943600  1
  H  H26  1  0.38554100  0.88071700  0.84056400  1
  H  H27  1  0.38554100  0.61928300  0.34056400  1
  H  H28  1  0.68041700  0.46060600  0.46635500  1
  H  H29  1  0.68041700  0.03939400  0.96635500  1
  H  H30  1  0.31958300  0.53939400  0.53364500  1
  H  H31  1  0.31958300  0.96060600  0.03364500  1
  H  H32  1  0.60310200  0.79158000  0.05385900  1
  H  H33  1  0.60310200  0.70842000  0.55385900  1
  H  H34  1  0.39689800  0.20842000  0.94614100  1
  H  H35  1  0.39689800  0.29158000  0.44614100  1
  H  H36  1  0.05087200  0.85892400  0.48241300  1
  H  H37  1  0.05087200  0.64107600  0.98241300  1
  H  H38  1  0.94912800  0.14107600  0.51758700  1
  H  H39  1  0.94912800  0.35892400  0.01758700  1
  H  H40  1  0.06277600  0.87855700  0.62790700  1
  H  H41  1  0.06277600  0.62144300  0.12790700  1
  H  H42  1  0.93722400  0.12144300  0.37209300  1
  H  H43  1  0.93722400  0.37855700  0.87209300  1
  H  H44  1  0.77870700  0.82266700  0.49285900  1
  H  H45  1  0.77870700  0.67733300  0.99285900  1
  H  H46  1  0.22129300  0.17733300  0.50714100  1
  H  H47  1  0.22129300  0.32266700  0.00714100  1
  H  H48  1  0.78857700  0.49365200  0.31260100  1
  H  H49  1  0.78857700  0.00634800  0.81260100  1
  H  H50  1  0.21142300  0.50634800  0.68739900  1
  H  H51  1  0.21142300  0.99365200  0.18739900  1
  H  H52  1  0.87834800  0.52342600  0.60241500  1
  H  H53  1  0.87834800  0.97657400  0.10241500  1
  H  H54  1  0.12165200  0.47657400  0.39758500  1
  H  H55  1  0.12165200  0.02342600  0.89758500  1
