# generated using pymatgen
data_RbB2Se3O10
_symmetry_space_group_name_H-M   'P 1'
_cell_length_a   4.73891300
_cell_length_b   12.18255500
_cell_length_c   16.64371200
_cell_angle_alpha   90.00000000
_cell_angle_beta   90.00000000
_cell_angle_gamma   90.00000000
_symmetry_Int_Tables_number   1
_chemical_formula_structural   RbB2Se3O10
_chemical_formula_sum   'Rb4 B8 Se12 O40'
_cell_volume   960.87591733
_cell_formula_units_Z   4
loop_
 _symmetry_equiv_pos_site_id
 _symmetry_equiv_pos_as_xyz
  1  'x, y, z'
loop_
 _atom_site_type_symbol
 _atom_site_label
 _atom_site_symmetry_multiplicity
 _atom_site_fract_x
 _atom_site_fract_y
 _atom_site_fract_z
 _atom_site_occupancy
  Rb  Rb0  1  0.99640000  0.28357900  0.85567700  1
  Rb  Rb1  1  0.50360000  0.71642100  0.35567700  1
  Rb  Rb2  1  0.49640000  0.21642100  0.14432300  1
  Rb  Rb3  1  0.00360000  0.78357900  0.64432300  1
  B  B4  1  0.45464700  0.84340800  0.84356300  1
  B  B5  1  0.04535300  0.15659200  0.34356300  1
  B  B6  1  0.95464700  0.65659200  0.15643700  1
  B  B7  1  0.54535300  0.34340800  0.65643700  1
  B  B8  1  0.45527900  0.03218800  0.91301100  1
  B  B9  1  0.04472100  0.96781200  0.41301100  1
  B  B10  1  0.95527900  0.46781200  0.08698900  1
  B  B11  1  0.54472100  0.53218800  0.58698900  1
  Se  Se12  1  0.95030300  0.01401800  0.00758200  1
  Se  Se13  1  0.54969700  0.98598200  0.50758200  1
  Se  Se14  1  0.45030300  0.48598200  0.99241800  1
  Se  Se15  1  0.04969700  0.51401800  0.49241800  1
  Se  Se16  1  0.47840700  0.02759100  0.73882100  1
  Se  Se17  1  0.02159300  0.97240900  0.23882100  1
  Se  Se18  1  0.97840700  0.47240900  0.26117900  1
  Se  Se19  1  0.52159300  0.52759100  0.76117900  1
  Se  Se20  1  0.95329200  0.74122600  0.90408300  1
  Se  Se21  1  0.54670800  0.25877400  0.40408300  1
  Se  Se22  1  0.45329200  0.75877400  0.09591700  1
  Se  Se23  1  0.04670800  0.24122600  0.59591700  1
  O  O24  1  0.16614900  0.07332200  0.93038800  1
  O  O25  1  0.33385100  0.92667800  0.43038800  1
  O  O26  1  0.66614900  0.42667800  0.06961200  1
  O  O27  1  0.83385100  0.57332200  0.56961200  1
  O  O28  1  0.62307900  0.73956900  0.85552500  1
  O  O29  1  0.87692100  0.26043100  0.35552500  1
  O  O30  1  0.12307900  0.76043100  0.14447500  1
  O  O31  1  0.37692100  0.23956900  0.64447500  1
  O  O32  1  0.48142400  0.91429400  0.91084900  1
  O  O33  1  0.01857600  0.08570600  0.41084900  1
  O  O34  1  0.98142400  0.58570600  0.08915100  1
  O  O35  1  0.51857600  0.41429400  0.58915100  1
  O  O36  1  0.15636600  0.80058600  0.82639200  1
  O  O37  1  0.34363400  0.19941400  0.32639200  1
  O  O38  1  0.65636600  0.69941400  0.17360800  1
  O  O39  1  0.84363400  0.30058600  0.67360800  1
  O  O40  1  0.64149400  0.08314800  0.97468300  1
  O  O41  1  0.85850600  0.91685200  0.47468300  1
  O  O42  1  0.14149400  0.41685200  0.02531700  1
  O  O43  1  0.35850600  0.58314800  0.52531700  1
  O  O44  1  0.53787900  0.08817900  0.83437000  1
  O  O45  1  0.96212100  0.91182100  0.33437000  1
  O  O46  1  0.03787900  0.41182100  0.16563000  1
  O  O47  1  0.46212100  0.58817900  0.66563000  1
  O  O48  1  0.11691900  0.03106000  0.73089200  1
  O  O49  1  0.38308100  0.96894000  0.23089200  1
  O  O50  1  0.61691900  0.46894000  0.26910800  1
  O  O51  1  0.88308100  0.53106000  0.76910800  1
  O  O52  1  0.54552100  0.88835200  0.76473000  1
  O  O53  1  0.95447900  0.11164800  0.26473000  1
  O  O54  1  0.04552100  0.61164800  0.23527000  1
  O  O55  1  0.45447900  0.38835200  0.73527000  1
  O  O56  1  0.01463900  0.60512400  0.90069400  1
  O  O57  1  0.48536100  0.39487600  0.40069400  1
  O  O58  1  0.51463900  0.89487600  0.09930600  1
  O  O59  1  0.98536100  0.10512400  0.59930600  1
  O  O60  1  0.01329200  0.08877800  0.08933100  1
  O  O61  1  0.48670800  0.91122200  0.58933100  1
  O  O62  1  0.51329200  0.41122200  0.91066900  1
  O  O63  1  0.98670800  0.58877800  0.41066900  1
