# generated using pymatgen
data_Ba(PO4)2
_symmetry_space_group_name_H-M   'P 1'
_cell_length_a   7.93935700
_cell_length_b   11.74699369
_cell_length_c   13.15352430
_cell_angle_alpha   106.41716162
_cell_angle_beta   98.64635368
_cell_angle_gamma   99.69772541
_symmetry_Int_Tables_number   1
_chemical_formula_structural   Ba(PO4)2
_chemical_formula_sum   'Ba6 P12 O48'
_cell_volume   1134.21172145
_cell_formula_units_Z   6
loop_
 _symmetry_equiv_pos_site_id
 _symmetry_equiv_pos_as_xyz
  1  'x, y, z'
loop_
 _atom_site_type_symbol
 _atom_site_label
 _atom_site_symmetry_multiplicity
 _atom_site_fract_x
 _atom_site_fract_y
 _atom_site_fract_z
 _atom_site_occupancy
  Ba  Ba0  1  0.01430600  0.82928800  0.74250900  1
  Ba  Ba1  1  0.98569400  0.17071200  0.25749100  1
  Ba  Ba2  1  0.55206400  0.04162700  0.69514800  1
  Ba  Ba3  1  0.44793600  0.95837300  0.30485200  1
  Ba  Ba4  1  0.19943500  0.62983400  0.97719000  1
  Ba  Ba5  1  0.80056500  0.37016600  0.02281000  1
  P  P6  1  0.81809500  0.70993000  0.96092800  1
  P  P7  1  0.18190500  0.29007000  0.03907200  1
  P  P8  1  0.63253700  0.88485900  0.07154300  1
  P  P9  1  0.36746300  0.11514100  0.92845700  1
  P  P10  1  0.53519100  0.78166100  0.83954100  1
  P  P11  1  0.46480900  0.21833900  0.16045900  1
  P  P12  1  0.19790900  0.81411200  0.48310800  1
  P  P13  1  0.80209100  0.18588800  0.51689200  1
  P  P14  1  0.94074100  0.87838100  0.33926600  1
  P  P15  1  0.05925900  0.12161900  0.66073400  1
  P  P16  1  0.07767700  0.66213500  0.25683100  1
  P  P17  1  0.92232300  0.33786500  0.74316900  1
  O  O18  1  0.59946600  0.89699200  0.95086700  1
  O  O19  1  0.40053400  0.10300800  0.04913300  1
  O  O20  1  0.63583000  0.68134700  0.87430900  1
  O  O21  1  0.36417000  0.31865300  0.12569100  1
  O  O22  1  0.78740500  0.80991100  0.06517400  1
  O  O23  1  0.21259500  0.19008900  0.93482600  1
  O  O24  1  0.92679000  0.74135500  0.26175500  1
  O  O25  1  0.07321000  0.25864500  0.73824500  1
  O  O26  1  0.15169700  0.68562500  0.38529100  1
  O  O27  1  0.84830300  0.31437500  0.61470900  1
  O  O28  1  0.02744500  0.86951400  0.45600800  1
  O  O29  1  0.97255500  0.13048600  0.54399200  1
  O  O30  1  0.84059100  0.59811000  0.99018100  1
  O  O31  1  0.15940900  0.40189000  0.00981900  1
  O  O32  1  0.96889500  0.76604500  0.92002000  1
  O  O33  1  0.03110500  0.23395500  0.07998000  1
  O  O34  1  0.70261600  0.00813200  0.15244700  1
  O  O35  1  0.29738400  0.99186800  0.84755300  1
  O  O36  1  0.47273500  0.80948300  0.08866900  1
  O  O37  1  0.52726500  0.19051700  0.91133100  1
  O  O38  1  0.34415400  0.72829000  0.82015300  1
  O  O39  1  0.65584600  0.27171000  0.17984700  1
  O  O40  1  0.61679200  0.82252300  0.75505400  1
  O  O41  1  0.38320800  0.17747700  0.24494600  1
  O  O42  1  0.36195200  0.89331600  0.47479800  1
  O  O43  1  0.63804800  0.10668400  0.52520200  1
  O  O44  1  0.19364700  0.78970400  0.58831400  1
  O  O45  1  0.80635300  0.21029600  0.41168600  1
  O  O46  1  0.07290800  0.97090200  0.31277200  1
  O  O47  1  0.92709200  0.02909800  0.68722800  1
  O  O48  1  0.76049000  0.89721400  0.34056100  1
  O  O49  1  0.23951000  0.10278600  0.65943900  1
  O  O50  1  0.98918700  0.53112300  0.20733500  1
  O  O51  1  0.01081300  0.46887700  0.79266500  1
  O  O52  1  0.21839000  0.71776000  0.20820900  1
  O  O53  1  0.78161000  0.28224000  0.79179100  1
  O  O54  1  0.84082200  0.00838000  0.84748200  1
  O  O55  1  0.15917800  0.99162000  0.15251800  1
  O  O56  1  0.65614600  0.73977500  0.50177400  1
  O  O57  1  0.34385400  0.26022500  0.49822600  1
  O  O58  1  0.52205900  0.52892000  0.04894300  1
  O  O59  1  0.47794100  0.47108000  0.95105700  1
  O  O60  1  0.85289800  0.55808900  0.57392600  1
  O  O61  1  0.14710200  0.44191100  0.42607400  1
  O  O62  1  0.76948900  0.48778700  0.48523400  1
  O  O63  1  0.23051100  0.51221300  0.51476600  1
  O  O64  1  0.59335600  0.64828200  0.42260300  1
  O  O65  1  0.40664400  0.35171800  0.57739700  1
