# generated using pymatgen
data_TmC6(OF)9
_symmetry_space_group_name_H-M   'P 1'
_cell_length_a   21.20018300
_cell_length_b   9.16334300
_cell_length_c   9.18020665
_cell_angle_alpha   73.37674352
_cell_angle_beta   90.00000000
_cell_angle_gamma   90.00000000
_symmetry_Int_Tables_number   1
_chemical_formula_structural   TmC6(OF)9
_chemical_formula_sum   'Tm4 C24 O36 F36'
_cell_volume   1708.85470580
_cell_formula_units_Z   4
loop_
 _symmetry_equiv_pos_site_id
 _symmetry_equiv_pos_as_xyz
  1  'x, y, z'
loop_
 _atom_site_type_symbol
 _atom_site_label
 _atom_site_symmetry_multiplicity
 _atom_site_fract_x
 _atom_site_fract_y
 _atom_site_fract_z
 _atom_site_occupancy
  Tm  Tm0  1  0.54910200  0.50284000  0.18645800  1
  Tm  Tm1  1  0.04910200  0.99716000  0.81354200  1
  Tm  Tm2  1  0.45089800  0.49716000  0.81354200  1
  Tm  Tm3  1  0.95089800  0.00284000  0.18645800  1
  C  C4  1  0.66089900  0.67279200  0.32220500  1
  C  C5  1  0.16089900  0.82720800  0.67779500  1
  C  C6  1  0.33910100  0.32720800  0.67779500  1
  C  C7  1  0.83910100  0.17279200  0.32220500  1
  C  C8  1  0.40870200  0.60574800  0.12665900  1
  C  C9  1  0.90870200  0.89425200  0.87334100  1
  C  C10  1  0.59129800  0.39425200  0.87334100  1
  C  C11  1  0.09129800  0.10574800  0.12665900  1
  C  C12  1  0.54071900  0.77329100  0.86175600  1
  C  C13  1  0.04071900  0.72670900  0.13824400  1
  C  C14  1  0.45928100  0.22670900  0.13824400  1
  C  C15  1  0.95928100  0.27329100  0.86175600  1
  C  C16  1  0.65523700  0.77494800  0.43190500  1
  C  C17  1  0.15523700  0.72505200  0.56809500  1
  C  C18  1  0.34476300  0.22505200  0.56809500  1
  C  C19  1  0.84476300  0.27494800  0.43190500  1
  C  C20  1  0.34420400  0.67176600  0.16081900  1
  C  C21  1  0.84420400  0.82823400  0.83918100  1
  C  C22  1  0.65579600  0.32823400  0.83918100  1
  C  C23  1  0.15579600  0.17176600  0.16081900  1
  C  C24  1  0.57080400  0.93321000  0.78943200  1
  C  C25  1  0.07080400  0.56679000  0.21056800  1
  C  C26  1  0.42919600  0.06679000  0.21056800  1
  C  C27  1  0.92919600  0.43321000  0.78943200  1
  O  O28  1  0.60967200  0.59487000  0.31883700  1
  O  O29  1  0.10967200  0.90513000  0.68116300  1
  O  O30  1  0.39032800  0.40513000  0.68116300  1
  O  O31  1  0.89032800  0.09487000  0.31883700  1
  O  O32  1  0.70859600  0.67550200  0.24680000  1
  O  O33  1  0.20859600  0.82449800  0.75320000  1
  O  O34  1  0.29140400  0.32449800  0.75320000  1
  O  O35  1  0.79140400  0.17550200  0.24680000  1
  O  O36  1  0.45291200  0.59501500  0.22077100  1
  O  O37  1  0.95291200  0.90498500  0.77922900  1
  O  O38  1  0.54708800  0.40498500  0.77922900  1
  O  O39  1  0.04708800  0.09501500  0.22077100  1
  O  O40  1  0.58782900  0.42945000  0.99662000  1
  O  O41  1  0.08782900  0.07055000  0.00338000  1
  O  O42  1  0.41217100  0.57055000  0.00338000  1
  O  O43  1  0.91217100  0.92945000  0.99662000  1
  O  O44  1  0.55231600  0.71728300  0.00199000  1
  O  O45  1  0.05231600  0.78271700  0.99801000  1
  O  O46  1  0.44768400  0.28271700  0.99801000  1
  O  O47  1  0.94768400  0.21728300  0.00199000  1
  O  O48  1  0.49206700  0.28482600  0.22178800  1
  O  O49  1  0.99206700  0.21517400  0.77821200  1
  O  O50  1  0.50793300  0.71517400  0.77821200  1
  O  O51  1  0.00793300  0.78482600  0.22178800  1
  O  O52  1  0.68615400  0.31935800  0.20951300  1
  O  O53  1  0.18615400  0.18064200  0.79048700  1
  O  O54  1  0.31384600  0.68064200  0.79048700  1
  O  O55  1  0.81384600  0.81935800  0.20951300  1
  O  O56  1  0.64023200  0.28881300  0.29647600  1
  O  O57  1  0.14023200  0.21118700  0.70352400  1
  O  O58  1  0.35976800  0.71118700  0.70352400  1
  O  O59  1  0.85976800  0.78881300  0.29647600  1
  O  O60  1  0.51279900  0.44703500  0.48232500  1
  O  O61  1  0.01279900  0.05296500  0.51767500  1
  O  O62  1  0.48720100  0.55296500  0.51767500  1
  O  O63  1  0.98720100  0.94703500  0.48232500  1
  F  F64  1  0.62903100  0.69810500  0.56883800  1
  F  F65  1  0.12903100  0.80189500  0.43116200  1
  F  F66  1  0.37096900  0.30189500  0.43116200  1
  F  F67  1  0.87096900  0.19810500  0.56883800  1
  F  F68  1  0.71150500  0.82971500  0.46072300  1
  F  F69  1  0.21150500  0.67028500  0.53927700  1
  F  F70  1  0.28849500  0.17028500  0.53927700  1
  F  F71  1  0.78849500  0.32971500  0.46072300  1
  F  F72  1  0.61678100  0.89582900  0.36670900  1
  F  F73  1  0.11678100  0.60417100  0.63329100  1
  F  F74  1  0.38321900  0.10417100  0.63329100  1
  F  F75  1  0.88321900  0.39582900  0.36670900  1
  F  F76  1  0.29574700  0.58048900  0.14651900  1
  F  F77  1  0.79574700  0.91951100  0.85348100  1
  F  F78  1  0.70425300  0.41951100  0.85348100  1
  F  F79  1  0.20425300  0.08048900  0.14651900  1
  F  F80  1  0.34269500  0.68784500  0.30262500  1
  F  F81  1  0.84269500  0.81215500  0.69737500  1
  F  F82  1  0.65730500  0.31215500  0.69737500  1
  F  F83  1  0.15730500  0.18784500  0.30262500  1
  F  F84  1  0.33565400  0.81057900  0.05857900  1
  F  F85  1  0.83565400  0.68942100  0.94142100  1
  F  F86  1  0.66434600  0.18942100  0.94142100  1
  F  F87  1  0.16434600  0.31057900  0.05857900  1
  F  F88  1  0.54838500  0.03168700  0.86410000  1
  F  F89  1  0.04838500  0.46831300  0.13590000  1
  F  F90  1  0.45161500  0.96831300  0.13590000  1
  F  F91  1  0.95161500  0.53168700  0.86410000  1
  F  F92  1  0.63441100  0.92543900  0.80557600  1
  F  F93  1  0.13441100  0.57456100  0.19442400  1
  F  F94  1  0.36558900  0.07456100  0.19442400  1
  F  F95  1  0.86558900  0.42543900  0.80557600  1
  F  F96  1  0.55700700  0.99026200  0.64048000  1
  F  F97  1  0.05700700  0.50973800  0.35952000  1
  F  F98  1  0.44299300  0.00973800  0.35952000  1
  F  F99  1  0.94299300  0.49026200  0.64048000  1
