# generated using pymatgen
data_CrSb2H12C8O5
_symmetry_space_group_name_H-M   'P 1'
_cell_length_a   8.61688600
_cell_length_b   10.67487544
_cell_length_c   19.57948994
_cell_angle_alpha   105.37540682
_cell_angle_beta   90.00000000
_cell_angle_gamma   113.80379683
_symmetry_Int_Tables_number   1
_chemical_formula_structural   CrSb2H12C8O5
_chemical_formula_sum   'Cr4 Sb8 H48 C32 O20'
_cell_volume   1577.08865622
_cell_formula_units_Z   4
loop_
 _symmetry_equiv_pos_site_id
 _symmetry_equiv_pos_as_xyz
  1  'x, y, z'
loop_
 _atom_site_type_symbol
 _atom_site_label
 _atom_site_symmetry_multiplicity
 _atom_site_fract_x
 _atom_site_fract_y
 _atom_site_fract_z
 _atom_site_occupancy
  Cr  Cr0  1  0.64009300  0.28509300  0.37130100  1
  Cr  Cr1  1  0.35500000  0.71490700  0.12869900  1
  Cr  Cr2  1  0.35990700  0.71490700  0.62869900  1
  Cr  Cr3  1  0.64500000  0.28509300  0.87130100  1
  Sb  Sb4  1  0.89237500  0.54741300  0.40184700  1
  Sb  Sb5  1  0.34496200  0.45258700  0.09815300  1
  Sb  Sb6  1  0.10762500  0.45258700  0.59815300  1
  Sb  Sb7  1  0.65503800  0.54741300  0.90184700  1
  Sb  Sb8  1  0.84667300  0.19627600  0.42576900  1
  Sb  Sb9  1  0.65039700  0.80372400  0.07423100  1
  Sb  Sb10  1  0.15332700  0.80372400  0.57423100  1
  Sb  Sb11  1  0.34960300  0.19627600  0.92576900  1
  H  H12  1  0.12258400  0.52461400  0.31091300  1
  H  H13  1  0.59797000  0.47538600  0.18908700  1
  H  H14  1  0.87741600  0.47538600  0.68908700  1
  H  H15  1  0.40203000  0.52461400  0.81091300  1
  H  H16  1  0.22032600  0.69151600  0.37877200  1
  H  H17  1  0.52881100  0.30848400  0.12122800  1
  H  H18  1  0.77967400  0.30848400  0.62122800  1
  H  H19  1  0.47118900  0.69151600  0.87877200  1
  H  H20  1  0.19618200  0.52925600  0.39795500  1
  H  H21  1  0.66692700  0.47074400  0.10204500  1
  H  H22  1  0.80381800  0.47074400  0.60204500  1
  H  H23  1  0.33307300  0.52925600  0.89795500  1
  H  H24  1  0.97933500  0.79784800  0.36938700  1
  H  H25  1  0.18148700  0.20215200  0.13061300  1
  H  H26  1  0.02066500  0.20215200  0.63061300  1
  H  H27  1  0.81851300  0.79784800  0.86938700  1
  H  H28  1  0.79924100  0.66068800  0.30890400  1
  H  H29  1  0.13855300  0.33931200  0.19109600  1
  H  H30  1  0.20075900  0.33931200  0.69109600  1
  H  H31  1  0.86144700  0.66068800  0.80890400  1
  H  H32  1  0.76865000  0.74045200  0.39785000  1
  H  H33  1  0.02819800  0.25954800  0.10215000  1
  H  H34  1  0.23135000  0.25954800  0.60215000  1
  H  H35  1  0.97180200  0.74045200  0.89785000  1
  H  H36  1  0.09438100  0.10175000  0.39116100  1
  H  H37  1  0.99263200  0.89825000  0.10883900  1
  H  H38  1  0.90561900  0.89825000  0.60883900  1
  H  H39  1  0.00736800  0.10175000  0.89116100  1
  H  H40  1  0.92249300  0.01402800  0.31948900  1
  H  H41  1  0.90846400  0.98597200  0.18051100  1
  H  H42  1  0.07750700  0.98597200  0.68051100  1
  H  H43  1  0.09153600  0.01402800  0.81948900  1
  H  H44  1  0.07420700  0.19369500  0.32974900  1
  H  H45  1  0.88051200  0.80630500  0.17025100  1
  H  H46  1  0.92579300  0.80630500  0.67025100  1
  H  H47  1  0.11948800  0.19369500  0.82974900  1
  H  H48  1  0.71150900  0.07939800  0.53207900  1
  H  H49  1  0.63211000  0.92060200  0.96792100  1
  H  H50  1  0.28849100  0.92060200  0.46792100  1
  H  H51  1  0.36789000  0.07939800  0.03207900  1
  H  H52  1  0.63989200  0.94402800  0.44771100  1
  H  H53  1  0.69586400  0.05597200  0.05228900  1
  H  H54  1  0.36010800  0.05597200  0.55228900  1
  H  H55  1  0.30413600  0.94402800  0.94771100  1
  H  H56  1  0.84938300  0.00016700  0.49167100  1
  H  H57  1  0.84921500  0.99983300  0.00832900  1
  H  H58  1  0.15061700  0.99983300  0.50832900  1
  H  H59  1  0.15078500  0.00016700  0.99167100  1
  C  C60  1  0.55602500  0.32818600  0.46010100  1
  C  C61  1  0.22783900  0.67181400  0.03989900  1
  C  C62  1  0.44397500  0.67181400  0.53989900  1
  C  C63  1  0.77216100  0.32818600  0.96010100  1
  C  C64  1  0.71580500  0.23302400  0.28177400  1
  C  C65  1  0.48278000  0.76697600  0.21822600  1
  C  C66  1  0.28419500  0.76697600  0.71822600  1
  C  C67  1  0.51722000  0.23302400  0.78177400  1
  C  C68  1  0.50033800  0.34696300  0.32952500  1
  C  C69  1  0.15337600  0.65303700  0.17047500  1
  C  C70  1  0.49966200  0.65303700  0.67047500  1
  C  C71  1  0.84662400  0.34696300  0.82952500  1
  C  C72  1  0.46093100  0.10315900  0.34955500  1
  C  C73  1  0.35777200  0.89684100  0.15044500  1
  C  C74  1  0.53906900  0.89684100  0.65044500  1
  C  C75  1  0.64222800  0.10315900  0.84955500  1
  C  C76  1  0.13929200  0.57724200  0.36839700  1
  C  C77  1  0.56204900  0.42275800  0.13160300  1
  C  C78  1  0.86070800  0.42275800  0.63160300  1
  C  C79  1  0.43795100  0.57724200  0.86839700  1
  C  C80  1  0.85582100  0.70740900  0.36491500  1
  C  C81  1  0.14841200  0.29259100  0.13508500  1
  C  C82  1  0.14417900  0.29259100  0.63508500  1
  C  C83  1  0.85158800  0.70740900  0.86491500  1
  C  C84  1  0.00379400  0.11628300  0.35823500  1
  C  C85  1  0.88751000  0.88371700  0.14176500  1
  C  C86  1  0.99620600  0.88371700  0.64176500  1
  C  C87  1  0.11249000  0.11628300  0.85823500  1
  C  C88  1  0.75065600  0.03512500  0.48141500  1
  C  C89  1  0.71553100  0.96487500  0.01858500  1
  C  C90  1  0.24934400  0.96487500  0.51858500  1
  C  C91  1  0.28446900  0.03512500  0.98141500  1
  O  O92  1  0.49345400  0.34812300  0.51255400  1
  O  O93  1  0.14533100  0.65187700  0.98744600  1
  O  O94  1  0.50654600  0.65187700  0.48744600  1
  O  O95  1  0.85466900  0.34812300  0.01255400  1
  O  O96  1  0.75494400  0.19551600  0.22520200  1
  O  O97  1  0.55942800  0.80448400  0.27479800  1
  O  O98  1  0.24505600  0.80448400  0.77479800  1
  O  O99  1  0.44057200  0.19551600  0.72520200  1
  O  O100  1  0.40985500  0.38219500  0.30224000  1
  O  O101  1  0.02766000  0.61780500  0.19776000  1
  O  O102  1  0.59014500  0.61780500  0.69776000  1
  O  O103  1  0.97234000  0.38219500  0.80224000  1
  O  O104  1  0.34370000  0.99172300  0.33684400  1
  O  O105  1  0.35197600  0.00827700  0.16315600  1
  O  O106  1  0.65630000  0.00827700  0.66315600  1
  O  O107  1  0.64802400  0.99172300  0.83684400  1
  O  O108  1  0.95659700  0.65443100  0.50456900  1
  O  O109  1  0.30216600  0.34556900  0.99543100  1
  O  O110  1  0.04340300  0.34556900  0.49543100  1
  O  O111  1  0.69783400  0.65443100  0.00456900  1
