# generated using pymatgen
data_BaNd2In2O7
_symmetry_space_group_name_H-M   'P 1'
_cell_length_a   5.97934000
_cell_length_b   5.97934000
_cell_length_c   20.78517900
_cell_angle_alpha   90.00000000
_cell_angle_beta   90.00000000
_cell_angle_gamma   90.00000000
_symmetry_Int_Tables_number   1
_chemical_formula_structural   BaNd2In2O7
_chemical_formula_sum   'Ba4 Nd8 In8 O28'
_cell_volume   743.12225428
_cell_formula_units_Z   4
loop_
 _symmetry_equiv_pos_site_id
 _symmetry_equiv_pos_as_xyz
  1  'x, y, z'
loop_
 _atom_site_type_symbol
 _atom_site_label
 _atom_site_symmetry_multiplicity
 _atom_site_fract_x
 _atom_site_fract_y
 _atom_site_fract_z
 _atom_site_occupancy
  Ba  Ba0  1  0.23757900  0.76242100  0.50000000  1
  Ba  Ba1  1  0.76242100  0.23757900  0.50000000  1
  Ba  Ba2  1  0.26242100  0.26242100  0.00000000  1
  Ba  Ba3  1  0.73757900  0.73757900  0.00000000  1
  Nd  Nd4  1  0.22005100  0.77994900  0.31377000  1
  Nd  Nd5  1  0.77994900  0.22005100  0.31377000  1
  Nd  Nd6  1  0.27994900  0.27994900  0.81377000  1
  Nd  Nd7  1  0.72005100  0.72005100  0.81377000  1
  Nd  Nd8  1  0.77994900  0.22005100  0.68623000  1
  Nd  Nd9  1  0.22005100  0.77994900  0.68623000  1
  Nd  Nd10  1  0.72005100  0.72005100  0.18623000  1
  Nd  Nd11  1  0.27994900  0.27994900  0.18623000  1
  In  In12  1  0.24052900  0.75947100  0.10364300  1
  In  In13  1  0.75947100  0.24052900  0.10364300  1
  In  In14  1  0.25947100  0.25947100  0.60364300  1
  In  In15  1  0.74052900  0.74052900  0.60364300  1
  In  In16  1  0.75947100  0.24052900  0.89635700  1
  In  In17  1  0.24052900  0.75947100  0.89635700  1
  In  In18  1  0.74052900  0.74052900  0.39635700  1
  In  In19  1  0.25947100  0.25947100  0.39635700  1
  O  O20  1  0.29504400  0.29504400  0.50000000  1
  O  O21  1  0.70495600  0.70495600  0.50000000  1
  O  O22  1  0.20495600  0.79504400  0.00000000  1
  O  O23  1  0.79504400  0.20495600  0.00000000  1
  O  O24  1  0.32240600  0.67759400  0.21228700  1
  O  O25  1  0.67759400  0.32240600  0.21228700  1
  O  O26  1  0.17759400  0.17759400  0.71228700  1
  O  O27  1  0.82240600  0.82240600  0.71228700  1
  O  O28  1  0.67759400  0.32240600  0.78771300  1
  O  O29  1  0.32240600  0.67759400  0.78771300  1
  O  O30  1  0.82240600  0.82240600  0.28771300  1
  O  O31  1  0.17759400  0.17759400  0.28771300  1
  O  O32  1  0.00000000  0.50000000  0.38044600  1
  O  O33  1  0.50000000  0.00000000  0.88044600  1
  O  O34  1  0.00000000  0.50000000  0.61955400  1
  O  O35  1  0.50000000  0.00000000  0.11955400  1
  O  O36  1  0.50000000  0.00000000  0.38044600  1
  O  O37  1  0.00000000  0.50000000  0.88044600  1
  O  O38  1  0.50000000  0.00000000  0.61955400  1
  O  O39  1  0.00000000  0.50000000  0.11955400  1
  O  O40  1  0.50000000  0.50000000  0.36275100  1
  O  O41  1  0.00000000  0.00000000  0.86275100  1
  O  O42  1  0.50000000  0.50000000  0.63724900  1
  O  O43  1  0.00000000  0.00000000  0.13724900  1
  O  O44  1  0.50000000  0.50000000  0.09168900  1
  O  O45  1  0.00000000  0.00000000  0.59168900  1
  O  O46  1  0.50000000  0.50000000  0.90831100  1
  O  O47  1  0.00000000  0.00000000  0.40831100  1
