# generated using pymatgen
data_Li2SiH18(C3N2)2
_symmetry_space_group_name_H-M   'P 1'
_cell_length_a   12.18830004
_cell_length_b   12.18830004
_cell_length_c   19.79924679
_cell_angle_alpha   100.79385239
_cell_angle_beta   100.32805675
_cell_angle_gamma   113.86248511
_symmetry_Int_Tables_number   1
_chemical_formula_structural   Li2SiH18(C3N2)2
_chemical_formula_sum   'Li16 Si8 H144 C48 N32'
_cell_volume   2533.53268477
_cell_formula_units_Z   8
loop_
 _symmetry_equiv_pos_site_id
 _symmetry_equiv_pos_as_xyz
  1  'x, y, z'
loop_
 _atom_site_type_symbol
 _atom_site_label
 _atom_site_symmetry_multiplicity
 _atom_site_fract_x
 _atom_site_fract_y
 _atom_site_fract_z
 _atom_site_occupancy
  Li  Li0  1  0.49759900  0.92830200  0.26500200  1
  Li  Li1  1  0.66330000  0.73259700  0.23499800  1
  Li  Li2  1  0.50240100  0.07169800  0.73499800  1
  Li  Li3  1  0.33670000  0.26740300  0.76500200  1
  Li  Li4  1  0.88960100  0.13960100  0.25000000  1
  Li  Li5  1  0.11039900  0.86039900  0.75000000  1
  Li  Li6  1  0.42270600  0.67270600  0.25000000  1
  Li  Li7  1  0.57729400  0.32729400  0.75000000  1
  Li  Li8  1  0.68496100  0.98349000  0.35534300  1
  Li  Li9  1  0.62814700  0.82961800  0.14465700  1
  Li  Li10  1  0.31503900  0.01651000  0.64465700  1
  Li  Li11  1  0.37185300  0.17038200  0.85534300  1
  Li  Li12  1  0.62876200  0.02609000  0.19263800  1
  Li  Li13  1  0.83345200  0.93612400  0.30736200  1
  Li  Li14  1  0.37123800  0.97391000  0.80736200  1
  Li  Li15  1  0.16654800  0.06387600  0.69263800  1
  Si  Si16  1  0.78739100  0.21081100  0.34110100  1
  Si  Si17  1  0.86971000  0.94628900  0.15889900  1
  Si  Si18  1  0.21260900  0.78918900  0.65889900  1
  Si  Si19  1  0.13029000  0.05371100  0.84110100  1
  Si  Si20  1  0.38388200  0.70987600  0.12643200  1
  Si  Si21  1  0.58344300  0.75744900  0.37356800  1
  Si  Si22  1  0.61611800  0.29012400  0.87356800  1
  Si  Si23  1  0.41655700  0.24255100  0.62643300  1
  H  H24  1  0.99843000  0.49810500  0.34419400  1
  H  H25  1  0.15391100  0.15423600  0.15580600  1
  H  H26  1  0.00157000  0.50189500  0.65580600  1
  H  H27  1  0.84608900  0.84576400  0.84419400  1
  H  H28  1  0.04128400  0.38147000  0.36176000  1
  H  H29  1  0.01971000  0.17952500  0.13824000  1
  H  H30  1  0.95871600  0.61853000  0.63824000  1
  H  H31  1  0.98029000  0.82047500  0.86176000  1
  H  H32  1  0.04097700  0.41649100  0.27792800  1
  H  H33  1  0.13856300  0.26304900  0.22207200  1
  H  H34  1  0.95902300  0.58350900  0.72207200  1
  H  H35  1  0.86143700  0.73695100  0.77792800  1
  H  H36  1  0.78849500  0.43769600  0.27199700  1
  H  H37  1  0.16570000  0.01649800  0.22800300  1
  H  H38  1  0.21150500  0.56230400  0.72800300  1
  H  H39  1  0.83430000  0.98350200  0.77199700  1
  H  H40  1  0.83726100  0.37933500  0.19976400  1
  H  H41  1  0.17957100  0.13749800  0.30023600  1
  H  H42  1  0.16273900  0.62066500  0.80023600  1
  H  H43  1  0.82042900  0.86250200  0.69976400  1
  H  H44  1  0.69545800  0.28094300  0.21525600  1
  H  H45  1  0.06568600  0.98020200  0.28474400  1
  H  H46  1  0.30454200  0.71905700  0.78474400  1
  H  H47  1  0.93431400  0.01979800  0.71525600  1
  H  H48  1  0.83867700  0.48494500  0.48854200  1
  H  H49  1  0.99640400  0.85013500  0.01145800  1
  H  H50  1  0.16132300  0.51505500  0.51145800  1
  H  H51  1  0.00359600  0.14986500  0.98854200  1
  H  H52  1  0.89238400  0.49938800  0.41244700  1
  H  H53  1  0.08694100  0.97993700  0.08755300  1
  H  H54  1  0.10761600  0.50061200  0.58755300  1
  H  H55  1  0.91305900  0.02006300  0.91244700  1
  H  H56  1  0.72935500  0.43677200  0.40349600  1
  H  H57  1  0.03327600  0.82585900  0.09650400  1
  H  H58  1  0.27064500  0.56322800  0.59650400  1
  H  H59  1  0.96672400  0.17414100  0.90349600  1
  H  H60  1  0.80404200  0.33458400  0.53006400  1
  H  H61  1  0.80452100  0.77397800  0.96993700  1
  H  H62  1  0.19595800  0.66541600  0.46993600  1
  H  H63  1  0.19547900  0.22602200  0.03006400  1
  H  H64  1  0.67760200  0.19646400  0.46893400  1
  H  H65  1  0.72753000  0.70866700  0.03106600  1
  H  H66  1  0.32239800  0.80353600  0.53106600  1
  H  H67  1  0.27247000  0.29133300  0.96893400  1
  H  H68  1  0.83065300  0.20688200  0.49341500  1
  H  H69  1  0.71346700  0.83723900  0.00658500  1
  H  H70  1  0.16934700  0.79311800  0.50658500  1
  H  H71  1  0.28653300  0.16276100  0.99341500  1
  H  H72  1  0.96178200  0.14337300  0.45652500  1
  H  H73  1  0.68684800  0.00525700  0.04347500  1
  H  H74  1  0.03821800  0.85662700  0.54347500  1
  H  H75  1  0.31315200  0.99474300  0.95652500  1
  H  H76  1  0.02981900  0.10836200  0.38934400  1
  H  H77  1  0.71901700  0.14047500  0.11065600  1
  H  H78  1  0.97018100  0.89163800  0.61065600  1
  H  H79  1  0.28098300  0.85952500  0.88934400  1
  H  H80  1  0.03840400  0.25783800  0.41586200  1
  H  H81  1  0.84197600  0.12254100  0.08413800  1
  H  H82  1  0.96159600  0.74216200  0.58413800  1
  H  H83  1  0.15802400  0.87745900  0.91586200  1
  H  H84  1  0.44472800  0.08544200  0.26818000  1
  H  H85  1  0.81726200  0.67654800  0.23182000  1
  H  H86  1  0.55527200  0.91455800  0.73182000  1
  H  H87  1  0.18273800  0.32345200  0.76818000  1
  H  H88  1  0.53803400  0.18432300  0.35532300  1
  H  H89  1  0.82899900  0.68271100  0.14467700  1
  H  H90  1  0.46196600  0.81567700  0.64467700  1
  H  H91  1  0.17100100  0.31728900  0.85532300  1
  H  H92  1  0.55669000  0.23778800  0.27890100  1
  H  H93  1  0.95888600  0.77778900  0.22109900  1
  H  H94  1  0.44331000  0.76221200  0.72109900  1
  H  H95  1  0.04111400  0.22221100  0.77890100  1
  H  H96  1  0.45587500  0.03951800  0.13859500  1
  H  H97  1  0.90092300  0.81728000  0.36140500  1
  H  H98  1  0.54412500  0.96048200  0.86140500  1
  H  H99  1  0.09907700  0.18272000  0.63859500  1
  H  H100  1  0.39899800  0.91400400  0.05954600  1
  H  H101  1  0.85445800  0.83945200  0.44045400  1
  H  H102  1  0.60100200  0.08599600  0.94045400  1
  H  H103  1  0.14554200  0.16054800  0.55954600  1
  H  H104  1  0.30643300  0.91508100  0.11887600  1
  H  H105  1  0.79620500  0.68755600  0.38112400  1
  H  H106  1  0.69356700  0.08491900  0.88112400  1
  H  H107  1  0.20379500  0.31244400  0.61887600  1
  H  H108  1  0.52624500  0.54028000  0.08240800  1
  H  H109  1  0.45787200  0.94383800  0.41759200  1
  H  H110  1  0.47375500  0.45972000  0.91759200  1
  H  H111  1  0.54212800  0.05616200  0.58240800  1
  H  H112  1  0.53683200  0.51378200  0.16734600  1
  H  H113  1  0.34643600  0.86948500  0.33265400  1
  H  H114  1  0.46316800  0.48621800  0.83265400  1
  H  H115  1  0.65356400  0.13051500  0.66734600  1
  H  H116  1  0.38991500  0.46869400  0.10881600  1
  H  H117  1  0.35987700  0.78109900  0.39118400  1
  H  H118  1  0.61008500  0.53130600  0.89118400  1
  H  H119  1  0.64012300  0.21890100  0.60881600  1
  H  H120  1  0.10561300  0.68410200  0.13349700  1
  H  H121  1  0.55060500  0.47211500  0.36650300  1
  H  H122  1  0.89438700  0.31589800  0.86650300  1
  H  H123  1  0.44939500  0.52788500  0.63349700  1
  H  H124  1  0.13967600  0.68035900  0.22406400  1
  H  H125  1  0.45629500  0.41561200  0.27593600  1
  H  H126  1  0.86032400  0.31964100  0.77593600  1
  H  H127  1  0.54370500  0.58438800  0.72406400  1
  H  H128  1  0.23847100  0.81105100  0.19948900  1
  H  H129  1  0.61156200  0.53898200  0.30051100  1
  H  H130  1  0.76152900  0.18894900  0.80051100  1
  H  H131  1  0.38843800  0.46101800  0.69948900  1
  H  H132  1  0.09685500  0.47767800  0.10392300  1
  H  H133  1  0.37375500  0.49293200  0.39607700  1
  H  H134  1  0.90314500  0.52232200  0.89607700  1
  H  H135  1  0.62624500  0.50706800  0.60392300  1
  H  H136  1  0.23511700  0.46102400  0.12777300  1
  H  H137  1  0.33325200  0.60734500  0.37222700  1
  H  H138  1  0.76488300  0.53897600  0.87222700  1
  H  H139  1  0.66674800  0.39265500  0.62777300  1
  H  H140  1  0.15582000  0.48082900  0.19335100  1
  H  H141  1  0.28747800  0.46246900  0.30664900  1
  H  H142  1  0.84418000  0.51917100  0.80664900  1
  H  H143  1  0.71252200  0.53753100  0.69335100  1
  H  H144  1  0.33982000  0.61588100  0.93083800  1
  H  H145  1  0.68504300  0.90898200  0.56916200  1
  H  H146  1  0.66018000  0.38411900  0.06916200  1
  H  H147  1  0.31495700  0.09101800  0.43083800  1
  H  H148  1  0.44595700  0.76724500  0.98963700  1
  H  H149  1  0.77760700  0.95632000  0.51036300  1
  H  H150  1  0.55404300  0.23275500  0.01036300  1
  H  H151  1  0.22239300  0.04368000  0.48963700  1
  H  H152  1  0.46451100  0.63276600  0.99992400  1
  H  H153  1  0.63284200  0.96458700  0.50007600  1
  H  H154  1  0.53548900  0.36723400  0.00007600  1
  H  H155  1  0.36715800  0.03541300  0.49992400  1
  H  H156  1  0.16148000  0.56844200  0.94110400  1
  H  H157  1  0.62733800  0.72037600  0.55889600  1
  H  H158  1  0.83852000  0.43155800  0.05889600  1
  H  H159  1  0.37266200  0.27962400  0.44110400  1
  H  H160  1  0.11684600  0.54130500  0.01852600  1
  H  H161  1  0.52277900  0.59831900  0.48147400  1
  H  H162  1  0.88315400  0.45869500  0.98147400  1
  H  H163  1  0.47722100  0.40168100  0.51852600  1
  H  H164  1  0.16093900  0.69162600  0.00498700  1
  H  H165  1  0.68663900  0.65595100  0.49501300  1
  H  H166  1  0.83906100  0.30837400  0.99501300  1
  H  H167  1  0.31336100  0.34404900  0.50498700  1
  C  C168  1  0.99110500  0.40493000  0.31952800  1
  C  C169  1  0.08540100  0.17157600  0.18047200  1
  C  C170  1  0.00889500  0.59507000  0.68047200  1
  C  C171  1  0.91459900  0.82842400  0.81952800  1
  C  C172  1  0.79212500  0.35331300  0.24180900  1
  C  C173  1  0.11150400  0.05031600  0.25819100  1
  C  C174  1  0.20787500  0.64668700  0.75819100  1
  C  C175  1  0.88849600  0.94968400  0.74180900  1
  C  C176  1  0.81737200  0.43783700  0.43130200  1
  C  C177  1  0.00653500  0.88607000  0.06869800  1
  C  C178  1  0.18262800  0.56216300  0.56869800  1
  C  C179  1  0.99346500  0.11393000  0.93130200  1
  C  C180  1  0.77886000  0.25987300  0.48064600  1
  C  C181  1  0.77922700  0.79821400  0.01935400  1
  C  C182  1  0.22114000  0.74012700  0.51935400  1
  C  C183  1  0.22077300  0.20178600  0.98064600  1
  C  C184  1  0.97426600  0.15706700  0.40411600  1
  C  C185  1  0.75295100  0.07015000  0.09588400  1
  C  C186  1  0.02573400  0.84293300  0.59588400  1
  C  C187  1  0.24704900  0.92985000  0.90411600  1
  C  C188  1  0.54170200  0.15575800  0.29956200  1
  C  C189  1  0.85619600  0.74214000  0.20043800  1
  C  C190  1  0.45829800  0.84424200  0.70043800  1
  C  C191  1  0.14380400  0.25786000  0.79956200  1
  C  C192  1  0.40320300  0.93585900  0.11711900  1
  C  C193  1  0.81874000  0.78608400  0.38288100  1
  C  C194  1  0.59679700  0.06414100  0.88288100  1
  C  C195  1  0.18126000  0.21391600  0.61711900  1
  C  C196  1  0.48699900  0.54486400  0.12858800  1
  C  C197  1  0.41627700  0.85841100  0.37141200  1
  C  C198  1  0.51300100  0.45513600  0.87141200  1
  C  C199  1  0.58372300  0.14158900  0.62858800  1
  C  C200  1  0.18289700  0.70866800  0.18170600  1
  C  C201  1  0.52696200  0.50119100  0.31829400  1
  C  C202  1  0.81710300  0.29133200  0.81829400  1
  C  C203  1  0.47303800  0.49880900  0.68170600  1
  C  C204  1  0.18426800  0.51072100  0.14725100  1
  C  C205  1  0.36347100  0.53701700  0.35274900  1
  C  C206  1  0.81573200  0.48927900  0.85274900  1
  C  C207  1  0.63652900  0.46298300  0.64725100  1
  C  C208  1  0.39467300  0.66697100  0.98714500  1
  C  C209  1  0.67982600  0.90752800  0.51285500  1
  C  C210  1  0.60532700  0.33302900  0.01285500  1
  C  C211  1  0.32017400  0.09247200  0.48714500  1
  C  C212  1  0.18331900  0.61131000  0.99903200  1
  C  C213  1  0.61227800  0.68428600  0.50096800  1
  C  C214  1  0.81668100  0.38869000  0.00096800  1
  C  C215  1  0.38772200  0.31571400  0.49903200  1
  N  N216  1  0.86107000  0.30838800  0.28824200  1
  N  N217  1  0.02014600  0.07282800  0.21175800  1
  N  N218  1  0.13893000  0.69161200  0.71175800  1
  N  N219  1  0.97985400  0.92717200  0.78824200  1
  N  N220  1  0.63463600  0.10897200  0.29398000  1
  N  N221  1  0.81499100  0.84065600  0.20602000  1
  N  N222  1  0.36536400  0.89102800  0.70602000  1
  N  N223  1  0.18500900  0.15934400  0.79398000  1
  N  N224  1  0.85569100  0.11294900  0.34879700  1
  N  N225  1  0.76415200  0.00689300  0.15120300  1
  N  N226  1  0.14430900  0.88705100  0.65120300  1
  N  N227  1  0.23584800  0.99310700  0.84879700  1
  N  N228  1  0.81321000  0.31482800  0.42365000  1
  N  N229  1  0.89117900  0.88956100  0.07635000  1
  N  N230  1  0.18679000  0.68517200  0.57635000  1
  N  N231  1  0.10882100  0.11043900  0.92365000  1
  N  N232  1  0.45831300  0.87063300  0.15645100  1
  N  N233  1  0.71418100  0.80186200  0.34354900  1
  N  N234  1  0.54168700  0.12936700  0.84354900  1
  N  N235  1  0.28581900  0.19813800  0.65645100  1
  N  N236  1  0.49761100  0.66915100  0.15983600  1
  N  N237  1  0.50931500  0.83777500  0.34016400  1
  N  N238  1  0.50238900  0.33084900  0.84016400  1
  N  N239  1  0.49068500  0.16222500  0.65983600  1
  N  N240  1  0.26053000  0.64691100  0.16769700  1
  N  N241  1  0.47921300  0.59283200  0.33230300  1
  N  N242  1  0.73947000  0.35308900  0.83230300  1
  N  N243  1  0.52078700  0.40716800  0.66769700  1
  N  N244  1  0.31259100  0.64287000  0.03346800  1
  N  N245  1  0.60940200  0.77912300  0.46653200  1
  N  N246  1  0.68740900  0.35713000  0.96653200  1
  N  N247  1  0.39059800  0.22087700  0.53346800  1
