# generated using pymatgen
data_Ta3(Cl3O4)2
_symmetry_space_group_name_H-M   'P 1'
_cell_length_a   13.25422600
_cell_length_b   9.18317800
_cell_length_c   15.53729381
_cell_angle_alpha   70.55389568
_cell_angle_beta   90.00000000
_cell_angle_gamma   90.00000000
_symmetry_Int_Tables_number   1
_chemical_formula_structural   Ta3(Cl3O4)2
_chemical_formula_sum   'Ta12 Cl24 O32'
_cell_volume   1783.25624278
_cell_formula_units_Z   4
loop_
 _symmetry_equiv_pos_site_id
 _symmetry_equiv_pos_as_xyz
  1  'x, y, z'
loop_
 _atom_site_type_symbol
 _atom_site_label
 _atom_site_symmetry_multiplicity
 _atom_site_fract_x
 _atom_site_fract_y
 _atom_site_fract_z
 _atom_site_occupancy
  Ta  Ta0  1  0.59368500  0.16766600  0.62435500  1
  Ta  Ta1  1  0.09368500  0.83233400  0.87564500  1
  Ta  Ta2  1  0.40631500  0.83233400  0.37564500  1
  Ta  Ta3  1  0.90631500  0.16766600  0.12435500  1
  Ta  Ta4  1  0.62039000  0.30782500  0.31569000  1
  Ta  Ta5  1  0.12039000  0.69217500  0.18431000  1
  Ta  Ta6  1  0.37961000  0.69217500  0.68431000  1
  Ta  Ta7  1  0.87961000  0.30782500  0.81569000  1
  Ta  Ta8  1  0.67390700  0.79925100  0.53856200  1
  Ta  Ta9  1  0.17390700  0.20074900  0.96143800  1
  Ta  Ta10  1  0.32609300  0.20074900  0.46143800  1
  Ta  Ta11  1  0.82609300  0.79925100  0.03856200  1
  Cl  Cl12  1  0.67904700  0.30123400  0.48149000  1
  Cl  Cl13  1  0.17904700  0.69876600  0.01851000  1
  Cl  Cl14  1  0.32095300  0.69876600  0.51851000  1
  Cl  Cl15  1  0.82095300  0.30123400  0.98149000  1
  Cl  Cl16  1  0.71628400  0.01309400  0.40118500  1
  Cl  Cl17  1  0.21628400  0.98690600  0.09881500  1
  Cl  Cl18  1  0.28371600  0.98690600  0.59881500  1
  Cl  Cl19  1  0.78371600  0.01309400  0.90118500  1
  Cl  Cl20  1  0.72417300  0.96170200  0.63338100  1
  Cl  Cl21  1  0.22417300  0.03829800  0.86661900  1
  Cl  Cl22  1  0.27582700  0.03829800  0.36661900  1
  Cl  Cl23  1  0.77582700  0.96170200  0.13338100  1
  Cl  Cl24  1  0.50327100  0.97164200  0.72931500  1
  Cl  Cl25  1  0.00327100  0.02835800  0.77068500  1
  Cl  Cl26  1  0.49672900  0.02835800  0.27068500  1
  Cl  Cl27  1  0.99672900  0.97164200  0.22931500  1
  Cl  Cl28  1  0.43454600  0.34535400  0.32598100  1
  Cl  Cl29  1  0.93454600  0.65464600  0.17401900  1
  Cl  Cl30  1  0.56545400  0.65464600  0.67401900  1
  Cl  Cl31  1  0.06545400  0.34535400  0.82598100  1
  Cl  Cl32  1  0.56307300  0.70185700  0.44015200  1
  Cl  Cl33  1  0.06307300  0.29814300  0.05984800  1
  Cl  Cl34  1  0.43692700  0.29814300  0.55984800  1
  Cl  Cl35  1  0.93692700  0.70185700  0.94015200  1
  O  O36  1  0.63082300  0.27819900  0.68821700  1
  O  O37  1  0.13082300  0.72180100  0.81178300  1
  O  O38  1  0.36917700  0.72180100  0.31178300  1
  O  O39  1  0.86917700  0.27819900  0.18821700  1
  O  O40  1  0.65738700  0.27166400  0.21651300  1
  O  O41  1  0.15738700  0.72833600  0.28348700  1
  O  O42  1  0.34261300  0.72833600  0.78348700  1
  O  O43  1  0.84261300  0.27166400  0.71651300  1
  O  O44  1  0.77274600  0.67389600  0.55196900  1
  O  O45  1  0.27274600  0.32610400  0.94803100  1
  O  O46  1  0.22725400  0.32610400  0.44803100  1
  O  O47  1  0.72725400  0.67389600  0.05196900  1
  O  O48  1  0.65099600  0.50283400  0.28995100  1
  O  O49  1  0.15099600  0.49716600  0.21004900  1
  O  O50  1  0.34900400  0.49716600  0.71004900  1
  O  O51  1  0.84900400  0.50283400  0.78995100  1
  O  O52  1  0.01179700  0.81425500  0.57172900  1
  O  O53  1  0.51179700  0.18574500  0.92827100  1
  O  O54  1  0.98820300  0.18574500  0.42827100  1
  O  O55  1  0.48820300  0.81425500  0.07172900  1
  O  O56  1  0.49806400  0.28384300  0.85262200  1
  O  O57  1  0.99806400  0.71615700  0.64737800  1
  O  O58  1  0.50193600  0.71615700  0.14737800  1
  O  O59  1  0.00193600  0.28384300  0.35262200  1
  O  O60  1  0.50936000  0.39185300  0.07289200  1
  O  O61  1  0.00936000  0.60814700  0.42710800  1
  O  O62  1  0.49064000  0.60814700  0.92710800  1
  O  O63  1  0.99064000  0.39185300  0.57289200  1
  O  O64  1  0.92803800  0.53966900  0.44618800  1
  O  O65  1  0.42803800  0.46033100  0.05381200  1
  O  O66  1  0.07196200  0.46033100  0.55381200  1
  O  O67  1  0.57196200  0.53966900  0.94618800  1
