# generated using pymatgen
data_Dy5Bi3
_symmetry_space_group_name_H-M   'P 1'
_cell_length_a   8.33059700
_cell_length_b   9.49011400
_cell_length_c   12.07846000
_cell_angle_alpha   90.00000000
_cell_angle_beta   90.00000000
_cell_angle_gamma   90.00000000
_symmetry_Int_Tables_number   1
_chemical_formula_structural   Dy5Bi3
_chemical_formula_sum   'Dy20 Bi12'
_cell_volume   954.90269803
_cell_formula_units_Z   4
loop_
 _symmetry_equiv_pos_site_id
 _symmetry_equiv_pos_as_xyz
  1  'x, y, z'
loop_
 _atom_site_type_symbol
 _atom_site_label
 _atom_site_symmetry_multiplicity
 _atom_site_fract_x
 _atom_site_fract_y
 _atom_site_fract_z
 _atom_site_occupancy
  Dy  Dy0  1  0.80748400  0.56196400  0.06539900  1
  Dy  Dy1  1  0.69251600  0.93803600  0.56539900  1
  Dy  Dy2  1  0.19251600  0.06196400  0.93460100  1
  Dy  Dy3  1  0.30748400  0.43803600  0.43460100  1
  Dy  Dy4  1  0.19251600  0.43803600  0.93460100  1
  Dy  Dy5  1  0.30748400  0.06196400  0.43460100  1
  Dy  Dy6  1  0.80748400  0.93803600  0.06539900  1
  Dy  Dy7  1  0.69251600  0.56196400  0.56539900  1
  Dy  Dy8  1  0.17248300  0.75000000  0.22988300  1
  Dy  Dy9  1  0.32751700  0.75000000  0.72988300  1
  Dy  Dy10  1  0.82751700  0.25000000  0.77011700  1
  Dy  Dy11  1  0.67248300  0.25000000  0.27011700  1
  Dy  Dy12  1  0.47596800  0.75000000  0.00459900  1
  Dy  Dy13  1  0.02403200  0.75000000  0.50459900  1
  Dy  Dy14  1  0.52403200  0.25000000  0.99540100  1
  Dy  Dy15  1  0.97596800  0.25000000  0.49540100  1
  Dy  Dy16  1  0.65685900  0.75000000  0.29115400  1
  Dy  Dy17  1  0.84314100  0.75000000  0.79115400  1
  Dy  Dy18  1  0.34314100  0.25000000  0.70884600  1
  Dy  Dy19  1  0.15685900  0.25000000  0.20884600  1
  Bi  Bi20  1  0.40221600  0.75000000  0.47562700  1
  Bi  Bi21  1  0.09778400  0.75000000  0.97562700  1
  Bi  Bi22  1  0.59778400  0.25000000  0.52437300  1
  Bi  Bi23  1  0.90221600  0.25000000  0.02437300  1
  Bi  Bi24  1  0.93405800  0.50836400  0.32494100  1
  Bi  Bi25  1  0.56594200  0.99163600  0.82494100  1
  Bi  Bi26  1  0.06594200  0.00836400  0.67505900  1
  Bi  Bi27  1  0.43405800  0.49163600  0.17505900  1
  Bi  Bi28  1  0.06594200  0.49163600  0.67505900  1
  Bi  Bi29  1  0.43405800  0.00836400  0.17505900  1
  Bi  Bi30  1  0.93405800  0.99163600  0.32494100  1
  Bi  Bi31  1  0.56594200  0.50836400  0.82494100  1
