# generated using pymatgen
data_MgIn2
_symmetry_space_group_name_H-M   'P 1'
_cell_length_a   6.57492934
_cell_length_b   6.57492934
_cell_length_c   7.66146876
_cell_angle_alpha   74.91303769
_cell_angle_beta   74.91303769
_cell_angle_gamma   28.64991245
_symmetry_Int_Tables_number   1
_chemical_formula_structural   MgIn2
_chemical_formula_sum   'Mg2 In4'
_cell_volume   152.96025191
_cell_formula_units_Z   2
loop_
 _symmetry_equiv_pos_site_id
 _symmetry_equiv_pos_as_xyz
  1  'x, y, z'
loop_
 _atom_site_type_symbol
 _atom_site_label
 _atom_site_symmetry_multiplicity
 _atom_site_fract_x
 _atom_site_fract_y
 _atom_site_fract_z
 _atom_site_occupancy
  Mg  Mg0  1  0.36028700  0.36028700  0.02748100  1
  Mg  Mg1  1  0.63971300  0.63971300  0.97251900  1
  In  In2  1  0.02721500  0.02721500  0.70680300  1
  In  In3  1  0.30491700  0.30491700  0.64709500  1
  In  In4  1  0.69508300  0.69508300  0.35290500  1
  In  In5  1  0.97278500  0.97278500  0.29319700  1
