# generated using pymatgen
data_SnH18W3C4(NO2)6
_symmetry_space_group_name_H-M   'P 1'
_cell_length_a   10.46861974
_cell_length_b   13.24298066
_cell_length_c   17.27764803
_cell_angle_alpha   81.25140675
_cell_angle_beta   72.36496512
_cell_angle_gamma   66.71833066
_symmetry_Int_Tables_number   1
_chemical_formula_structural   SnH18W3C4(NO2)6
_chemical_formula_sum   'Sn4 H72 W12 C16 N24 O48'
_cell_volume   2095.42441351
_cell_formula_units_Z   4
loop_
 _symmetry_equiv_pos_site_id
 _symmetry_equiv_pos_as_xyz
  1  'x, y, z'
loop_
 _atom_site_type_symbol
 _atom_site_label
 _atom_site_symmetry_multiplicity
 _atom_site_fract_x
 _atom_site_fract_y
 _atom_site_fract_z
 _atom_site_occupancy
  Sn  Sn0  1  0.13580389  0.18269454  0.90973356  1
  Sn  Sn1  1  0.22823199  0.31730546  0.59026644  1
  Sn  Sn2  1  0.86419611  0.81730546  0.09026644  1
  Sn  Sn3  1  0.77176801  0.68269454  0.40973356  1
  H  H4  1  0.82249061  0.14701289  0.65743114  1
  H  H5  1  0.62693464  0.35298711  0.84256886  1
  H  H6  1  0.17750939  0.85298711  0.34256886  1
  H  H7  1  0.37306536  0.64701289  0.15743114  1
  H  H8  1  0.00858222  0.11292828  0.64889457  1
  H  H9  1  0.77040507  0.38707172  0.85110543  1
  H  H10  1  0.99141778  0.88707172  0.35110543  1
  H  H11  1  0.22959493  0.61292828  0.14889457  1
  H  H12  1  0.70445139  0.02954464  0.74026461  1
  H  H13  1  0.47426064  0.47045536  0.75973539  1
  H  H14  1  0.29554861  0.97045536  0.25973539  1
  H  H15  1  0.52573936  0.52954464  0.24026461  1
  H  H16  1  0.80028169  0.92376199  0.79846809  1
  H  H17  1  0.52251177  0.57623801  0.70153191  1
  H  H18  1  0.19971831  0.07623801  0.20153191  1
  H  H19  1  0.47748823  0.42376199  0.29846809  1
  H  H20  1  0.13057480  0.96531360  0.71965924  1
  H  H21  1  0.81554764  0.53468640  0.78034076  1
  H  H22  1  0.86942520  0.03468640  0.28034076  1
  H  H23  1  0.18445236  0.46531360  0.21965924  1
  H  H24  1  0.04899406  0.87679797  0.77906670  1
  H  H25  1  0.70485873  0.62320203  0.72093330  1
  H  H26  1  0.95100594  0.12320203  0.22093330  1
  H  H27  1  0.29514127  0.37679797  0.27906670  1
  H  H28  1  0.29083989  0.72305995  0.87322538  1
  H  H29  1  0.88712522  0.77694005  0.62677462  1
  H  H30  1  0.70916011  0.27694005  0.12677462  1
  H  H31  1  0.11287478  0.22305995  0.37322538  1
  H  H32  1  0.34041828  0.82247618  0.80665764  1
  H  H33  1  0.96955210  0.67752382  0.69334236  1
  H  H34  1  0.65958172  0.17752382  0.19334236  1
  H  H35  1  0.03044790  0.32247618  0.30665764  1
  H  H36  1  0.42477477  0.63218008  0.96724378  1
  H  H37  1  0.02419863  0.86781992  0.53275622  1
  H  H38  1  0.57522523  0.36781992  0.03275622  1
  H  H39  1  0.97580137  0.13218008  0.46724378  1
  H  H40  1  0.57722455  0.66028609  0.96578025  1
  H  H41  1  0.20329089  0.83971391  0.53421975  1
  H  H42  1  0.42277545  0.33971391  0.03421975  1
  H  H43  1  0.79670911  0.16028609  0.46578025  1
  H  H44  1  0.63459983  0.79950867  0.87604368  1
  H  H45  1  0.31015219  0.70049133  0.62395632  1
  H  H46  1  0.36540017  0.20049133  0.12395632  1
  H  H47  1  0.68984781  0.29950867  0.37604368  1
  H  H48  1  0.53178914  0.86376198  0.80815505  1
  H  H49  1  0.20370617  0.63623802  0.69184495  1
  H  H50  1  0.46821086  0.13623802  0.19184495  1
  H  H51  1  0.79629383  0.36376198  0.30815505  1
  H  H52  1  0.90102827  0.19965865  0.86634567  1
  H  H53  1  0.96703259  0.30034135  0.63365433  1
  H  H54  1  0.09897173  0.80034135  0.13365433  1
  H  H55  1  0.03296741  0.69965865  0.36634567  1
  H  H56  1  0.96376876  0.07442537  0.92295639  1
  H  H57  1  0.96115052  0.42557463  0.57704361  1
  H  H58  1  0.03623124  0.92557463  0.07704361  1
  H  H59  1  0.03884948  0.57442537  0.42295639  1
  H  H60  1  0.85699098  0.20088049  0.97584482  1
  H  H61  1  0.03371628  0.29911951  0.52415518  1
  H  H62  1  0.14300902  0.79911951  0.02415518  1
  H  H63  1  0.96628372  0.70088049  0.47584482  1
  H  H64  1  0.33000585  0.11011129  0.99809894  1
  H  H65  1  0.43821608  0.38988871  0.50190106  1
  H  H66  1  0.66999415  0.88988871  0.00190106  1
  H  H67  1  0.56178392  0.61011129  0.49809894  1
  H  H68  1  0.26716475  0.00362041  0.99490001  1
  H  H69  1  0.26568517  0.49637959  0.50509999  1
  H  H70  1  0.73283525  0.99637959  0.00509999  1
  H  H71  1  0.73431483  0.50362041  0.49490001  1
  H  H72  1  0.39430688  0.03307452  0.90744736  1
  H  H73  1  0.33482876  0.46692548  0.59255264  1
  H  H74  1  0.60569312  0.96692548  0.09255264  1
  H  H75  1  0.66517124  0.53307452  0.40744736  1
  W  W76  1  0.86866643  0.46406298  0.98100772  1
  W  W77  1  0.31373713  0.03593702  0.51899228  1
  W  W78  1  0.13133357  0.53593702  0.01899228  1
  W  W79  1  0.68626287  0.96406298  0.48100772  1
  W  W80  1  0.95826852  0.68389276  0.88261938  1
  W  W81  1  0.52478066  0.81610724  0.61738062  1
  W  W82  1  0.04173148  0.31610724  0.11738062  1
  W  W83  1  0.47521934  0.18389276  0.38261938  1
  W  W84  1  0.13241303  0.43540245  0.79938909  1
  W  W85  1  0.36720458  0.06459755  0.70061091  1
  W  W86  1  0.86758697  0.56459755  0.20061091  1
  W  W87  1  0.63279542  0.93540245  0.29938909  1
  C  C88  1  0.91622313  0.01272467  0.72620770  1
  C  C89  1  0.65515551  0.48727533  0.77379230  1
  C  C90  1  0.08377687  0.98727533  0.27379230  1
  C  C91  1  0.34484449  0.51272467  0.22620770  1
  C  C92  1  0.45908828  0.75567721  0.88867721  1
  C  C93  1  0.10344270  0.74432279  0.61132279  1
  C  C94  1  0.54091172  0.24432279  0.11132279  1
  C  C95  1  0.89655730  0.25567721  0.38867721  1
  C  C96  1  0.93777701  0.16338412  0.92063776  1
  C  C97  1  0.02179890  0.33661588  0.57936224  1
  C  C98  1  0.06222299  0.83661588  0.07936224  1
  C  C99  1  0.97820110  0.66338412  0.42063776  1
  C  C100  1  0.30250064  0.06829720  0.95939672  1
  C  C101  1  0.33019456  0.43170280  0.54060328  1
  C  C102  1  0.69749936  0.93170280  0.04060328  1
  C  C103  1  0.66980544  0.56829720  0.45939672  1
  N  N104  1  0.91463682  0.09950986  0.67413256  1
  N  N105  1  0.68827923  0.40049014  0.82586744  1
  N  N106  1  0.08536318  0.90049014  0.32586744  1
  N  N107  1  0.31172077  0.59950986  0.17413256  1
  N  N108  1  0.79693479  0.99054515  0.75873404  1
  N  N109  1  0.54621398  0.50945485  0.74126596  1
  N  N110  1  0.20306521  0.00945485  0.24126596  1
  N  N111  1  0.45378602  0.49054515  0.25873404  1
  N  N112  1  0.03878811  0.94962158  0.74607424  1
  N  N113  1  0.73448393  0.55037842  0.75392576  1
  N  N114  1  0.96121189  0.05037842  0.25392576  1
  N  N115  1  0.26551607  0.44962158  0.24607424  1
  N  N116  1  0.34888313  0.77285895  0.85777699  1
  N  N117  1  0.97951907  0.72714105  0.64222301  1
  N  N118  1  0.65111687  0.22714105  0.14222301  1
  N  N119  1  0.02048093  0.27285895  0.35777699  1
  N  N120  1  0.48156718  0.68337363  0.95129576  1
  N  N121  1  0.11623657  0.81662637  0.54870424  1
  N  N122  1  0.51843282  0.31662637  0.04870424  1
  N  N123  1  0.88376343  0.18337363  0.45129576  1
  N  N124  1  0.54241926  0.81480116  0.85900430  1
  N  N125  1  0.21622472  0.68519884  0.64099570  1
  N  N126  1  0.45758074  0.18519884  0.14099570  1
  N  N127  1  0.78377528  0.31480116  0.35900430  1
  O  O128  1  0.71103043  0.43349784  0.02348750  1
  O  O129  1  0.16801578  0.06650216  0.47651250  1
  O  O130  1  0.28896957  0.56650216  0.97651250  1
  O  O131  1  0.83198422  0.93349784  0.52348750  1
  O  O132  1  0.10427478  0.72861303  0.83295166  1
  O  O133  1  0.66583947  0.77138697  0.66704834  1
  O  O134  1  0.89572522  0.27138697  0.16704834  1
  O  O135  1  0.33416053  0.22861303  0.33295166  1
  O  O136  1  0.28800530  0.47031017  0.76271948  1
  O  O137  1  0.52103496  0.02968983  0.73728052  1
  O  O138  1  0.71199470  0.52968983  0.23728052  1
  O  O139  1  0.47896504  0.97031017  0.26271948  1
  O  O140  1  0.79279095  0.61267571  0.95417207  1
  O  O141  1  0.35963874  0.88732429  0.54582793  1
  O  O142  1  0.20720905  0.38732429  0.04582793  1
  O  O143  1  0.64036126  0.11267571  0.45417207  1
  O  O144  1  0.93269229  0.41318817  0.87486352  1
  O  O145  1  0.22074398  0.08681183  0.62513648  1
  O  O146  1  0.06730771  0.58681183  0.12513648  1
  O  O147  1  0.77925602  0.91318817  0.37486352  1
  O  O148  1  0.98698949  0.59198998  0.79556487  1
  O  O149  1  0.37454434  0.90801002  0.70443513  1
  O  O150  1  0.01301051  0.40801002  0.20443513  1
  O  O151  1  0.62545566  0.09198998  0.29556487  1
  O  O152  1  0.07832770  0.51038416  0.92124222  1
  O  O153  1  0.50995408  0.98961584  0.57875778  1
  O  O154  1  0.92167230  0.48961584  0.07875778  1
  O  O155  1  0.49004592  0.01038416  0.42124222  1
  O  O156  1  0.02315458  0.31176024  0.00668646  1
  O  O157  1  0.34160128  0.18823976  0.49331354  1
  O  O158  1  0.97684542  0.68823976  0.99331354  1
  O  O159  1  0.65839872  0.81176024  0.50668646  1
  O  O160  1  0.80770575  0.80512076  0.87020644  1
  O  O161  1  0.48303295  0.69487924  0.62979356  1
  O  O162  1  0.19229425  0.19487924  0.12979356  1
  O  O163  1  0.51696705  0.30512076  0.37020644  1
  O  O164  1  0.11173026  0.39804803  0.70807736  1
  O  O165  1  0.21785564  0.10195197  0.79192264  1
  O  O166  1  0.88826974  0.60195197  0.29192264  1
  O  O167  1  0.78214436  0.89804803  0.20807736  1
  O  O168  1  0.21781130  0.29598373  0.84681902  1
  O  O169  1  0.36061405  0.20401627  0.65318098  1
  O  O170  1  0.78218870  0.70401627  0.15318098  1
  O  O171  1  0.63938595  0.79598373  0.34681902  1
  O  O172  1  0.52084975  0.25826949  0.83977509  1
  O  O173  1  0.61889433  0.24173051  0.66022491  1
  O  O174  1  0.47915025  0.74173051  0.16022491  1
  O  O175  1  0.38110567  0.75826949  0.33977509  1
