# generated using pymatgen
data_NaAl3Si3(HO6)2
_symmetry_space_group_name_H-M   'P 1'
_cell_length_a   8.96481000
_cell_length_b   5.16854900
_cell_length_c   19.36970118
_cell_angle_alpha   85.76675365
_cell_angle_beta   90.00000000
_cell_angle_gamma   90.00000000
_symmetry_Int_Tables_number   1
_chemical_formula_structural   NaAl3Si3(HO6)2
_chemical_formula_sum   'Na4 Al12 Si12 H8 O48'
_cell_volume   895.04772348
_cell_formula_units_Z   4
loop_
 _symmetry_equiv_pos_site_id
 _symmetry_equiv_pos_as_xyz
  1  'x, y, z'
loop_
 _atom_site_type_symbol
 _atom_site_label
 _atom_site_symmetry_multiplicity
 _atom_site_fract_x
 _atom_site_fract_y
 _atom_site_fract_z
 _atom_site_occupancy
  Na  Na0  1  0.58352600  0.50000000  0.75000000  1
  Na  Na1  1  0.41647400  0.50000000  0.25000000  1
  Na  Na2  1  0.11048600  0.00000000  0.75000000  1
  Na  Na3  1  0.88951400  0.00000000  0.25000000  1
  Al  Al4  1  0.08578500  0.75114200  0.50130900  1
  Al  Al5  1  0.25957000  0.54737200  0.64259900  1
  Al  Al6  1  0.08578500  0.24885800  0.99869100  1
  Al  Al7  1  0.25957000  0.45262800  0.85740100  1
  Al  Al8  1  0.91421500  0.24885800  0.49869100  1
  Al  Al9  1  0.74043000  0.45262800  0.35740100  1
  Al  Al10  1  0.91421500  0.75114200  0.00130900  1
  Al  Al11  1  0.74043000  0.54737200  0.14259900  1
  Al  Al12  1  0.58441800  0.25303000  0.49917000  1
  Al  Al13  1  0.58441800  0.74697000  0.00083000  1
  Al  Al14  1  0.41558200  0.74697000  0.50083000  1
  Al  Al15  1  0.41558200  0.25303000  0.99917000  1
  Si  Si16  1  0.92856300  0.55358600  0.64206100  1
  Si  Si17  1  0.92856300  0.44641400  0.85793900  1
  Si  Si18  1  0.07143700  0.44641400  0.35793900  1
  Si  Si19  1  0.07143700  0.55358600  0.14206100  1
  Si  Si20  1  0.42949400  0.03039300  0.64261000  1
  Si  Si21  1  0.75583900  0.06294900  0.64109100  1
  Si  Si22  1  0.42949400  0.96960700  0.85739000  1
  Si  Si23  1  0.75583900  0.93705100  0.85890900  1
  Si  Si24  1  0.57050600  0.96960700  0.35739000  1
  Si  Si25  1  0.24416100  0.93705100  0.35890900  1
  Si  Si26  1  0.57050600  0.03039300  0.14261000  1
  Si  Si27  1  0.24416100  0.06294900  0.14109100  1
  H  H28  1  0.66000000  0.64606900  0.55585900  1
  H  H29  1  0.66000000  0.35393100  0.94414100  1
  H  H30  1  0.34000000  0.35393100  0.44414100  1
  H  H31  1  0.34000000  0.64606900  0.05585900  1
  H  H32  1  0.14759400  0.13271700  0.57021000  1
  H  H33  1  0.14759400  0.86728300  0.92979000  1
  H  H34  1  0.85240600  0.86728300  0.42979000  1
  H  H35  1  0.85240600  0.13271700  0.07021000  1
  O  O36  1  0.94190400  0.54388600  0.55745800  1
  O  O37  1  0.25052200  0.62335900  0.55273300  1
  O  O38  1  0.56747300  0.55221800  0.55077000  1
  O  O39  1  0.08436600  0.62845900  0.67732800  1
  O  O40  1  0.79785000  0.75887900  0.66505600  1
  O  O41  1  0.87459300  0.26138100  0.67481000  1
  O  O42  1  0.94190400  0.45611400  0.94254200  1
  O  O43  1  0.25052200  0.37664100  0.94726700  1
  O  O44  1  0.56747300  0.44778200  0.94923000  1
  O  O45  1  0.08436600  0.37154100  0.82267200  1
  O  O46  1  0.79785000  0.24112100  0.83494400  1
  O  O47  1  0.87459300  0.73861900  0.82519000  1
  O  O48  1  0.05809600  0.45611400  0.44254200  1
  O  O49  1  0.74947800  0.37664100  0.44726700  1
  O  O50  1  0.43252700  0.44778200  0.44923000  1
  O  O51  1  0.91563400  0.37154100  0.32267200  1
  O  O52  1  0.20215000  0.24112100  0.33494400  1
  O  O53  1  0.12540700  0.73861900  0.32519000  1
  O  O54  1  0.05809600  0.54388600  0.05745800  1
  O  O55  1  0.74947800  0.62335900  0.05273300  1
  O  O56  1  0.43252700  0.55221800  0.05077000  1
  O  O57  1  0.91563400  0.62845900  0.17732800  1
  O  O58  1  0.20215000  0.75887900  0.16505600  1
  O  O59  1  0.12540700  0.26138100  0.17481000  1
  O  O60  1  0.44764000  0.04023400  0.55739700  1
  O  O61  1  0.75143100  0.11058200  0.55709300  1
  O  O62  1  0.06016700  0.05191900  0.55139200  1
  O  O63  1  0.59194700  0.12652700  0.67421600  1
  O  O64  1  0.29435100  0.21748000  0.66500100  1
  O  O65  1  0.39894900  0.73831000  0.67732700  1
  O  O66  1  0.44764000  0.95976600  0.94260300  1
  O  O67  1  0.75143100  0.88941800  0.94290700  1
  O  O68  1  0.06016700  0.94808100  0.94860800  1
  O  O69  1  0.59194700  0.87347300  0.82578400  1
  O  O70  1  0.29435100  0.78252000  0.83499900  1
  O  O71  1  0.39894900  0.26169000  0.82267300  1
  O  O72  1  0.55236000  0.95976600  0.44260300  1
  O  O73  1  0.24856900  0.88941800  0.44290700  1
  O  O74  1  0.93983300  0.94808100  0.44860800  1
  O  O75  1  0.40805300  0.87347300  0.32578400  1
  O  O76  1  0.70564900  0.78252000  0.33499900  1
  O  O77  1  0.60105100  0.26169000  0.32267300  1
  O  O78  1  0.55236000  0.04023400  0.05739700  1
  O  O79  1  0.24856900  0.11058200  0.05709300  1
  O  O80  1  0.93983300  0.05191900  0.05139200  1
  O  O81  1  0.40805300  0.12652700  0.17421600  1
  O  O82  1  0.70564900  0.21748000  0.16500100  1
  O  O83  1  0.60105100  0.73831000  0.17732700  1
