# generated using pymatgen
data_NiH16C4(N5O)2
_symmetry_space_group_name_H-M   'P 1'
_cell_length_a   7.25037700
_cell_length_b   7.38493900
_cell_length_c   22.91152600
_cell_angle_alpha   90.00000000
_cell_angle_beta   90.00000000
_cell_angle_gamma   90.00000000
_symmetry_Int_Tables_number   1
_chemical_formula_structural   NiH16C4(N5O)2
_chemical_formula_sum   'Ni4 H64 C16 N40 O8'
_cell_volume   1226.76539731
_cell_formula_units_Z   4
loop_
 _symmetry_equiv_pos_site_id
 _symmetry_equiv_pos_as_xyz
  1  'x, y, z'
loop_
 _atom_site_type_symbol
 _atom_site_label
 _atom_site_symmetry_multiplicity
 _atom_site_fract_x
 _atom_site_fract_y
 _atom_site_fract_z
 _atom_site_occupancy
  Ni  Ni0  1  0.00000000  0.50000000  0.50000000  1
  Ni  Ni1  1  0.50000000  0.00000000  0.50000000  1
  Ni  Ni2  1  0.00000000  0.00000000  0.00000000  1
  Ni  Ni3  1  0.50000000  0.50000000  0.00000000  1
  H  H4  1  0.12282600  0.16600200  0.49638800  1
  H  H5  1  0.62282600  0.33399800  0.50361200  1
  H  H6  1  0.87717400  0.66600200  0.00361200  1
  H  H7  1  0.37717400  0.83399800  0.99638800  1
  H  H8  1  0.87717400  0.83399800  0.50361200  1
  H  H9  1  0.37717400  0.66600200  0.49638800  1
  H  H10  1  0.12282600  0.33399800  0.99638800  1
  H  H11  1  0.62282600  0.16600200  0.00361200  1
  H  H12  1  0.15384100  0.94436800  0.43323300  1
  H  H13  1  0.65384100  0.55563200  0.56676700  1
  H  H14  1  0.84615900  0.44436800  0.06676700  1
  H  H15  1  0.34615900  0.05563200  0.93323300  1
  H  H16  1  0.84615900  0.05563200  0.56676700  1
  H  H17  1  0.34615900  0.44436800  0.43323300  1
  H  H18  1  0.15384100  0.55563200  0.93323300  1
  H  H19  1  0.65384100  0.94436800  0.06676700  1
  H  H20  1  0.08842600  0.97197100  0.36139100  1
  H  H21  1  0.58842600  0.52802900  0.63860900  1
  H  H22  1  0.91157400  0.47197100  0.13860900  1
  H  H23  1  0.41157400  0.02802900  0.86139100  1
  H  H24  1  0.91157400  0.02802900  0.63860900  1
  H  H25  1  0.41157400  0.47197100  0.36139100  1
  H  H26  1  0.08842600  0.52802900  0.86139100  1
  H  H27  1  0.58842600  0.97197100  0.13860900  1
  H  H28  1  0.85235200  0.68216900  0.41301700  1
  H  H29  1  0.35235200  0.81783100  0.58698300  1
  H  H30  1  0.14764800  0.18216900  0.08698300  1
  H  H31  1  0.64764800  0.31783100  0.91301700  1
  H  H32  1  0.14764800  0.31783100  0.58698300  1
  H  H33  1  0.64764800  0.18216900  0.41301700  1
  H  H34  1  0.85235200  0.81783100  0.91301700  1
  H  H35  1  0.35235200  0.68216900  0.08698300  1
  H  H36  1  0.79172800  0.64479400  0.32076100  1
  H  H37  1  0.29172800  0.85520600  0.67923900  1
  H  H38  1  0.20827200  0.14479400  0.17923900  1
  H  H39  1  0.70827200  0.35520600  0.82076100  1
  H  H40  1  0.20827200  0.35520600  0.67923900  1
  H  H41  1  0.70827200  0.14479400  0.32076100  1
  H  H42  1  0.79172800  0.85520600  0.82076100  1
  H  H43  1  0.29172800  0.64479400  0.17923900  1
  H  H44  1  0.86713400  0.45865500  0.28405800  1
  H  H45  1  0.36713400  0.04134500  0.71594200  1
  H  H46  1  0.13286600  0.95865500  0.21594200  1
  H  H47  1  0.63286600  0.54134500  0.78405800  1
  H  H48  1  0.13286600  0.54134500  0.71594200  1
  H  H49  1  0.63286600  0.95865500  0.28405800  1
  H  H50  1  0.86713400  0.04134500  0.78405800  1
  H  H51  1  0.36713400  0.45865500  0.21594200  1
  H  H52  1  0.30045100  0.79016400  0.30979400  1
  H  H53  1  0.80045100  0.70983600  0.69020600  1
  H  H54  1  0.69954900  0.29016400  0.19020600  1
  H  H55  1  0.19954900  0.20983600  0.80979400  1
  H  H56  1  0.69954900  0.20983600  0.69020600  1
  H  H57  1  0.19954900  0.29016400  0.30979400  1
  H  H58  1  0.30045100  0.70983600  0.80979400  1
  H  H59  1  0.80045100  0.79016400  0.19020600  1
  H  H60  1  0.10066400  0.71177600  0.29686100  1
  H  H61  1  0.60066400  0.78822400  0.70313900  1
  H  H62  1  0.89933600  0.21177600  0.20313900  1
  H  H63  1  0.39933600  0.28822400  0.79686100  1
  H  H64  1  0.89933600  0.28822400  0.70313900  1
  H  H65  1  0.39933600  0.21177600  0.29686100  1
  H  H66  1  0.10066400  0.78822400  0.79686100  1
  H  H67  1  0.60066400  0.71177600  0.20313900  1
  C  C68  1  0.04924800  0.19590500  0.41433900  1
  C  C69  1  0.54924800  0.30409500  0.58566100  1
  C  C70  1  0.95075200  0.69590500  0.08566100  1
  C  C71  1  0.45075200  0.80409500  0.91433900  1
  C  C72  1  0.95075200  0.80409500  0.58566100  1
  C  C73  1  0.45075200  0.69590500  0.41433900  1
  C  C74  1  0.04924800  0.30409500  0.91433900  1
  C  C75  1  0.54924800  0.19590500  0.08566100  1
  C  C76  1  0.92940200  0.46354000  0.37175900  1
  C  C77  1  0.42940200  0.03646000  0.62824100  1
  C  C78  1  0.07059800  0.96354000  0.12824100  1
  C  C79  1  0.57059800  0.53646000  0.87175900  1
  C  C80  1  0.07059800  0.53646000  0.62824100  1
  C  C81  1  0.57059800  0.96354000  0.37175900  1
  C  C82  1  0.92940200  0.03646000  0.87175900  1
  C  C83  1  0.42940200  0.46354000  0.12824100  1
  N  N84  1  0.07725200  0.26264300  0.46790500  1
  N  N85  1  0.57725200  0.23735700  0.53209500  1
  N  N86  1  0.92274800  0.76264300  0.03209500  1
  N  N87  1  0.42274800  0.73735700  0.96790500  1
  N  N88  1  0.92274800  0.73735700  0.53209500  1
  N  N89  1  0.42274800  0.76264300  0.46790500  1
  N  N90  1  0.07725200  0.23735700  0.96790500  1
  N  N91  1  0.57725200  0.26264300  0.03209500  1
  N  N92  1  0.07760100  0.01553100  0.40383400  1
  N  N93  1  0.57760100  0.48446900  0.59616600  1
  N  N94  1  0.92239900  0.51553100  0.09616600  1
  N  N95  1  0.42239900  0.98446900  0.90383400  1
  N  N96  1  0.92239900  0.98446900  0.59616600  1
  N  N97  1  0.42239900  0.51553100  0.40383400  1
  N  N98  1  0.07760100  0.48446900  0.90383400  1
  N  N99  1  0.57760100  0.01553100  0.09616600  1
  N  N100  1  0.99214700  0.29140200  0.36709600  1
  N  N101  1  0.49214700  0.20859800  0.63290400  1
  N  N102  1  0.00785300  0.79140200  0.13290400  1
  N  N103  1  0.50785300  0.70859800  0.86709600  1
  N  N104  1  0.00785300  0.70859800  0.63290400  1
  N  N105  1  0.50785300  0.79140200  0.36709600  1
  N  N106  1  0.99214700  0.20859800  0.86709600  1
  N  N107  1  0.49214700  0.29140200  0.13290400  1
  N  N108  1  0.90765000  0.55689000  0.42069600  1
  N  N109  1  0.40765000  0.94311000  0.57930400  1
  N  N110  1  0.09235000  0.05689000  0.07930400  1
  N  N111  1  0.59235000  0.44311000  0.92069600  1
  N  N112  1  0.09235000  0.44311000  0.57930400  1
  N  N113  1  0.59235000  0.05689000  0.42069600  1
  N  N114  1  0.90765000  0.94311000  0.92069600  1
  N  N115  1  0.40765000  0.55689000  0.07930400  1
  N  N116  1  0.88955500  0.54533600  0.31841400  1
  N  N117  1  0.38955500  0.95466400  0.68158600  1
  N  N118  1  0.11044500  0.04533600  0.18158600  1
  N  N119  1  0.61044500  0.45466400  0.81841400  1
  N  N120  1  0.11044500  0.45466400  0.68158600  1
  N  N121  1  0.61044500  0.04533600  0.31841400  1
  N  N122  1  0.88955500  0.95466400  0.81841400  1
  N  N123  1  0.38955500  0.54533600  0.18158600  1
  O  O124  1  0.18124600  0.81812000  0.29044300  1
  O  O125  1  0.68124600  0.68188000  0.70955700  1
  O  O126  1  0.81875400  0.31812000  0.20955700  1
  O  O127  1  0.31875400  0.18188000  0.79044300  1
  O  O128  1  0.81875400  0.18188000  0.70955700  1
  O  O129  1  0.31875400  0.31812000  0.29044300  1
  O  O130  1  0.18124600  0.68188000  0.79044300  1
  O  O131  1  0.68124600  0.81812000  0.20955700  1
