# generated using pymatgen
data_BaTi(SiO3)3
_symmetry_space_group_name_H-M   'P 1'
_cell_length_a   11.63030424
_cell_length_b   11.63030424
_cell_length_c   9.89041800
_cell_angle_alpha   90.00000000
_cell_angle_beta   90.00000000
_cell_angle_gamma   120.00000139
_symmetry_Int_Tables_number   1
_chemical_formula_structural   BaTi(SiO3)3
_chemical_formula_sum   'Ba6 Ti6 Si18 O54'
_cell_volume   1158.58372614
_cell_formula_units_Z   6
loop_
 _symmetry_equiv_pos_site_id
 _symmetry_equiv_pos_as_xyz
  1  'x, y, z'
loop_
 _atom_site_type_symbol
 _atom_site_label
 _atom_site_symmetry_multiplicity
 _atom_site_fract_x
 _atom_site_fract_y
 _atom_site_fract_z
 _atom_site_occupancy
  Ba  Ba0  1  0.00000000  0.00000000  0.49979400  1
  Ba  Ba1  1  0.00000000  0.00000000  0.99979400  1
  Ba  Ba2  1  0.33333300  0.66666700  0.52659800  1
  Ba  Ba3  1  0.66666700  0.33333300  0.02659800  1
  Ba  Ba4  1  0.66666700  0.33333300  0.52576400  1
  Ba  Ba5  1  0.33333300  0.66666700  0.02576400  1
  Ti  Ti6  1  0.66701600  0.66657200  0.51722500  1
  Ti  Ti7  1  0.33342800  0.00044300  0.51722500  1
  Ti  Ti8  1  0.99955700  0.33298400  0.51722500  1
  Ti  Ti9  1  0.66657200  0.66701600  0.01722500  1
  Ti  Ti10  1  0.00044300  0.33342800  0.01722500  1
  Ti  Ti11  1  0.33298400  0.99955700  0.01722500  1
  Si  Si12  1  0.28348100  0.16343000  0.76224300  1
  Si  Si13  1  0.83657000  0.12005100  0.76224300  1
  Si  Si14  1  0.87994900  0.71651900  0.76224300  1
  Si  Si15  1  0.16343000  0.28348100  0.26224300  1
  Si  Si16  1  0.12005100  0.83657000  0.26224300  1
  Si  Si17  1  0.71651900  0.87994900  0.26224300  1
  Si  Si18  1  0.50275000  0.45253300  0.76938900  1
  Si  Si19  1  0.54746700  0.05021700  0.76938900  1
  Si  Si20  1  0.94978300  0.49725000  0.76938900  1
  Si  Si21  1  0.45253300  0.50275000  0.26938900  1
  Si  Si22  1  0.05021700  0.54746700  0.26938900  1
  Si  Si23  1  0.49725000  0.94978300  0.26938900  1
  Si  Si24  1  0.83137700  0.61745100  0.26947400  1
  Si  Si25  1  0.38254900  0.21392600  0.26947400  1
  Si  Si26  1  0.78607400  0.16862300  0.26947400  1
  Si  Si27  1  0.61745100  0.83137700  0.76947400  1
  Si  Si28  1  0.21392600  0.38254900  0.76947400  1
  Si  Si29  1  0.16862300  0.78607400  0.76947400  1
  O  O30  1  0.95645800  0.77216300  0.27443400  1
  O  O31  1  0.22783700  0.18429400  0.27443400  1
  O  O32  1  0.81570600  0.04354200  0.27443400  1
  O  O33  1  0.77216300  0.95645800  0.77443400  1
  O  O34  1  0.18429400  0.22783700  0.77443400  1
  O  O35  1  0.04354200  0.81570600  0.77443400  1
  O  O36  1  0.37791600  0.48232100  0.76614200  1
  O  O37  1  0.51767900  0.89559400  0.76614200  1
  O  O38  1  0.10440600  0.62208400  0.76614200  1
  O  O39  1  0.48232100  0.37791600  0.26614200  1
  O  O40  1  0.89559400  0.51767900  0.26614200  1
  O  O41  1  0.62208400  0.10440600  0.26614200  1
  O  O42  1  0.43822000  0.28889500  0.76037200  1
  O  O43  1  0.71110500  0.14932500  0.76037200  1
  O  O44  1  0.85067500  0.56178000  0.76037200  1
  O  O45  1  0.28889500  0.43822000  0.26037200  1
  O  O46  1  0.14932500  0.71110500  0.26037200  1
  O  O47  1  0.56178000  0.85067500  0.26037200  1
  O  O48  1  0.59728400  0.51130500  0.63696500  1
  O  O49  1  0.48869500  0.08597900  0.63696500  1
  O  O50  1  0.91402100  0.40271600  0.63696500  1
  O  O51  1  0.51130500  0.59728400  0.13696500  1
  O  O52  1  0.08597900  0.48869500  0.13696500  1
  O  O53  1  0.40271600  0.91402100  0.13696500  1
  O  O54  1  0.58630900  0.74595600  0.63069300  1
  O  O55  1  0.25404400  0.84035400  0.63069300  1
  O  O56  1  0.15964600  0.41369100  0.63069300  1
  O  O57  1  0.74595600  0.58630900  0.13069300  1
  O  O58  1  0.84035400  0.25404400  0.13069300  1
  O  O59  1  0.41369100  0.15964600  0.13069300  1
  O  O60  1  0.24334500  0.07688800  0.62374300  1
  O  O61  1  0.92311200  0.16645700  0.62374300  1
  O  O62  1  0.83354300  0.75665500  0.62374300  1
  O  O63  1  0.07688800  0.24334500  0.12374300  1
  O  O64  1  0.16645700  0.92311200  0.12374300  1
  O  O65  1  0.75665500  0.83354300  0.12374300  1
  O  O66  1  0.18034500  0.92776700  0.39630000  1
  O  O67  1  0.07223300  0.25257800  0.39630000  1
  O  O68  1  0.74742200  0.81965500  0.39630000  1
  O  O69  1  0.92776700  0.18034500  0.89630000  1
  O  O70  1  0.25257800  0.07223300  0.89630000  1
  O  O71  1  0.81965500  0.74742200  0.89630000  1
  O  O72  1  0.50021100  0.58550800  0.41020900  1
  O  O73  1  0.41449200  0.91470300  0.41020900  1
  O  O74  1  0.08529700  0.49978900  0.41020900  1
  O  O75  1  0.58550800  0.50021100  0.91020900  1
  O  O76  1  0.91470300  0.41449200  0.91020900  1
  O  O77  1  0.49978900  0.08529700  0.91020900  1
  O  O78  1  0.73983000  0.57732300  0.40466000  1
  O  O79  1  0.42267700  0.16250700  0.40466000  1
  O  O80  1  0.83749300  0.26017000  0.40466000  1
  O  O81  1  0.57732300  0.73983000  0.90466000  1
  O  O82  1  0.16250700  0.42267700  0.90466000  1
  O  O83  1  0.26017000  0.83749300  0.90466000  1
