# generated using pymatgen
data_Sc5Sb3
_symmetry_space_group_name_H-M   'P 1'
_cell_length_a   7.66122100
_cell_length_b   8.77524700
_cell_length_c   11.18427700
_cell_angle_alpha   90.00000000
_cell_angle_beta   90.00000000
_cell_angle_gamma   90.00000000
_symmetry_Int_Tables_number   1
_chemical_formula_structural   Sc5Sb3
_chemical_formula_sum   'Sc20 Sb12'
_cell_volume   751.90895064
_cell_formula_units_Z   4
loop_
 _symmetry_equiv_pos_site_id
 _symmetry_equiv_pos_as_xyz
  1  'x, y, z'
loop_
 _atom_site_type_symbol
 _atom_site_label
 _atom_site_symmetry_multiplicity
 _atom_site_fract_x
 _atom_site_fract_y
 _atom_site_fract_z
 _atom_site_occupancy
  Sc  Sc0  1  0.80414800  0.56050300  0.06307700  1
  Sc  Sc1  1  0.69585200  0.93949700  0.56307700  1
  Sc  Sc2  1  0.19585200  0.06050300  0.93692300  1
  Sc  Sc3  1  0.30414800  0.43949700  0.43692300  1
  Sc  Sc4  1  0.19585200  0.43949700  0.93692300  1
  Sc  Sc5  1  0.30414800  0.06050300  0.43692300  1
  Sc  Sc6  1  0.80414800  0.93949700  0.06307700  1
  Sc  Sc7  1  0.69585200  0.56050300  0.56307700  1
  Sc  Sc8  1  0.17252100  0.75000000  0.22723300  1
  Sc  Sc9  1  0.32747900  0.75000000  0.72723300  1
  Sc  Sc10  1  0.82747900  0.25000000  0.77276700  1
  Sc  Sc11  1  0.67252100  0.25000000  0.27276700  1
  Sc  Sc12  1  0.47282300  0.75000000  0.00479100  1
  Sc  Sc13  1  0.02717700  0.75000000  0.50479100  1
  Sc  Sc14  1  0.52717700  0.25000000  0.99520900  1
  Sc  Sc15  1  0.97282300  0.25000000  0.49520900  1
  Sc  Sc16  1  0.65891200  0.75000000  0.28438600  1
  Sc  Sc17  1  0.84108800  0.75000000  0.78438600  1
  Sc  Sc18  1  0.34108800  0.25000000  0.71561400  1
  Sc  Sc19  1  0.15891200  0.25000000  0.21561400  1
  Sb  Sb20  1  0.40793100  0.75000000  0.47251900  1
  Sb  Sb21  1  0.09206900  0.75000000  0.97251900  1
  Sb  Sb22  1  0.59206900  0.25000000  0.52748100  1
  Sb  Sb23  1  0.90793100  0.25000000  0.02748100  1
  Sb  Sb24  1  0.93464200  0.50988200  0.32548300  1
  Sb  Sb25  1  0.56535800  0.99011800  0.82548300  1
  Sb  Sb26  1  0.06535800  0.00988200  0.67451700  1
  Sb  Sb27  1  0.43464200  0.49011800  0.17451700  1
  Sb  Sb28  1  0.06535800  0.49011800  0.67451700  1
  Sb  Sb29  1  0.43464200  0.00988200  0.17451700  1
  Sb  Sb30  1  0.93464200  0.99011800  0.32548300  1
  Sb  Sb31  1  0.56535800  0.50988200  0.82548300  1
