# generated using pymatgen
data_P3CN2Cl13
_symmetry_space_group_name_H-M   'P 1'
_cell_length_a   12.57807000
_cell_length_b   10.88622600
_cell_length_c   17.45580535
_cell_angle_alpha   82.49036192
_cell_angle_beta   90.00000000
_cell_angle_gamma   90.00000000
_symmetry_Int_Tables_number   1
_chemical_formula_structural   P3CN2Cl13
_chemical_formula_sum   'P12 C4 N8 Cl52'
_cell_volume   2369.68263422
_cell_formula_units_Z   4
loop_
 _symmetry_equiv_pos_site_id
 _symmetry_equiv_pos_as_xyz
  1  'x, y, z'
loop_
 _atom_site_type_symbol
 _atom_site_label
 _atom_site_symmetry_multiplicity
 _atom_site_fract_x
 _atom_site_fract_y
 _atom_site_fract_z
 _atom_site_occupancy
  P  P0  1  0.45969000  0.72143200  0.66015000  1
  P  P1  1  0.95969000  0.27856800  0.33985000  1
  P  P2  1  0.56038200  0.35379300  0.80546300  1
  P  P3  1  0.06038200  0.64620700  0.19453700  1
  P  P4  1  0.08379900  0.14244800  0.70655100  1
  P  P5  1  0.58379900  0.85755200  0.29344900  1
  P  P6  1  0.92683200  0.78765400  0.85052300  1
  P  P7  1  0.42683200  0.21234600  0.14947700  1
  P  P8  1  0.99569800  0.19653300  0.99987600  1
  P  P9  1  0.49569800  0.80346700  0.00012400  1
  P  P10  1  0.50014600  0.26630900  0.48609200  1
  P  P11  1  0.00014600  0.73369100  0.51390800  1
  C  C12  1  0.41282200  0.50866000  0.74682400  1
  C  C13  1  0.91282200  0.49134000  0.25317600  1
  C  C14  1  0.91837200  0.99134900  0.74759900  1
  C  C15  1  0.41837200  0.00865100  0.25240100  1
  N  N16  1  0.47787300  0.59640400  0.71591800  1
  N  N17  1  0.97787300  0.40359600  0.28408200  1
  N  N18  1  0.44331000  0.40237300  0.78596700  1
  N  N19  1  0.94331000  0.59762700  0.21403300  1
  N  N20  1  0.01649100  0.03212300  0.74920700  1
  N  N21  1  0.51649100  0.96787700  0.25079300  1
  N  N22  1  0.88317000  0.88617300  0.78383500  1
  N  N23  1  0.38317000  0.11382700  0.21616500  1
  Cl  Cl24  1  0.27600900  0.52620000  0.73806600  1
  Cl  Cl25  1  0.77600900  0.47380000  0.26193400  1
  Cl  Cl26  1  0.38731600  0.70111400  0.56172600  1
  Cl  Cl27  1  0.88731600  0.29888600  0.43827400  1
  Cl  Cl28  1  0.38048400  0.85132800  0.70642500  1
  Cl  Cl29  1  0.88048400  0.14867200  0.29357500  1
  Cl  Cl30  1  0.60273000  0.78933000  0.63382200  1
  Cl  Cl31  1  0.10273000  0.21067000  0.36617800  1
  Cl  Cl32  1  0.66735300  0.38396800  0.72083800  1
  Cl  Cl33  1  0.16735300  0.61603200  0.27916200  1
  Cl  Cl34  1  0.62246500  0.42146800  0.89572200  1
  Cl  Cl35  1  0.12246500  0.57853200  0.10427800  1
  Cl  Cl36  1  0.55084500  0.17260600  0.83335400  1
  Cl  Cl37  1  0.05084500  0.82739400  0.16664600  1
  Cl  Cl38  1  0.82021400  0.07743600  0.69435700  1
  Cl  Cl39  1  0.32021400  0.92256400  0.30564300  1
  Cl  Cl40  1  0.13277400  0.10889400  0.60347800  1
  Cl  Cl41  1  0.63277400  0.89110600  0.39652200  1
  Cl  Cl42  1  0.01827100  0.31050300  0.69097400  1
  Cl  Cl43  1  0.51827100  0.68949700  0.30902600  1
  Cl  Cl44  1  0.21270400  0.15798500  0.76917100  1
  Cl  Cl45  1  0.71270400  0.84201500  0.23082900  1
  Cl  Cl46  1  0.87476400  0.62292900  0.83196000  1
  Cl  Cl47  1  0.37476400  0.37707100  0.16804000  1
  Cl  Cl48  1  0.86692400  0.82496300  0.94994100  1
  Cl  Cl49  1  0.36692400  0.17503700  0.05005900  1
  Cl  Cl50  1  0.08313200  0.76782500  0.86717900  1
  Cl  Cl51  1  0.58313200  0.23217500  0.13282100  1
  Cl  Cl52  1  0.08642300  0.35007500  0.94487300  1
  Cl  Cl53  1  0.58642300  0.64992500  0.05512700  1
  Cl  Cl54  1  0.85263300  0.08974700  0.07668800  1
  Cl  Cl55  1  0.35263300  0.91025300  0.92331200  1
  Cl  Cl56  1  0.88441600  0.20791200  0.89730200  1
  Cl  Cl57  1  0.38441600  0.79208800  0.10269800  1
  Cl  Cl58  1  0.08177000  0.20176100  0.11244200  1
  Cl  Cl59  1  0.58177000  0.79823900  0.88755800  1
  Cl  Cl60  1  0.83315300  0.35099900  0.06716400  1
  Cl  Cl61  1  0.33315300  0.64900100  0.93283600  1
  Cl  Cl62  1  0.08255100  0.04921800  0.97000100  1
  Cl  Cl63  1  0.58255100  0.95078200  0.02999900  1
  Cl  Cl64  1  0.41280100  0.29847100  0.59356400  1
  Cl  Cl65  1  0.91280100  0.70152900  0.40643600  1
  Cl  Cl66  1  0.55759000  0.26394500  0.36276400  1
  Cl  Cl67  1  0.05759000  0.73605500  0.63723600  1
  Cl  Cl68  1  0.61491600  0.14728700  0.53884600  1
  Cl  Cl69  1  0.11491600  0.85271300  0.46115400  1
  Cl  Cl70  1  0.34094000  0.46038300  0.96120500  1
  Cl  Cl71  1  0.84094000  0.53961700  0.03879500  1
  Cl  Cl72  1  0.59118000  0.44194900  0.49031200  1
  Cl  Cl73  1  0.09118000  0.55805100  0.50968800  1
  Cl  Cl74  1  0.37931800  0.11810800  0.46753000  1
  Cl  Cl75  1  0.87931800  0.88189200  0.53247000  1
