# generated using pymatgen
data_SrAsO5
_symmetry_space_group_name_H-M   'P 1'
_cell_length_a   7.13992300
_cell_length_b   9.32705300
_cell_length_c   13.15809300
_cell_angle_alpha   90.00000000
_cell_angle_beta   90.00000000
_cell_angle_gamma   90.00000000
_symmetry_Int_Tables_number   1
_chemical_formula_structural   SrAsO5
_chemical_formula_sum   'Sr8 As8 O40'
_cell_volume   876.25583792
_cell_formula_units_Z   8
loop_
 _symmetry_equiv_pos_site_id
 _symmetry_equiv_pos_as_xyz
  1  'x, y, z'
loop_
 _atom_site_type_symbol
 _atom_site_label
 _atom_site_symmetry_multiplicity
 _atom_site_fract_x
 _atom_site_fract_y
 _atom_site_fract_z
 _atom_site_occupancy
  Sr  Sr0  1  0.37287100  0.82326200  0.92593100  1
  Sr  Sr1  1  0.87287100  0.67673800  0.07406900  1
  Sr  Sr2  1  0.62712900  0.32326200  0.57406900  1
  Sr  Sr3  1  0.12712900  0.17673800  0.42593100  1
  Sr  Sr4  1  0.62712900  0.17673800  0.07406900  1
  Sr  Sr5  1  0.12712900  0.32326200  0.92593100  1
  Sr  Sr6  1  0.37287100  0.67673800  0.42593100  1
  Sr  Sr7  1  0.87287100  0.82326200  0.57406900  1
  As  As8  1  0.36328300  0.94231100  0.62781600  1
  As  As9  1  0.86328300  0.55768900  0.37218400  1
  As  As10  1  0.63671700  0.44231100  0.87218400  1
  As  As11  1  0.13671700  0.05768900  0.12781600  1
  As  As12  1  0.63671700  0.05768900  0.37218400  1
  As  As13  1  0.13671700  0.44231100  0.62781600  1
  As  As14  1  0.36328300  0.55768900  0.12781600  1
  As  As15  1  0.86328300  0.94231100  0.87218400  1
  O  O16  1  0.17299600  0.96120900  0.54986200  1
  O  O17  1  0.67299600  0.53879100  0.45013800  1
  O  O18  1  0.82700400  0.46120900  0.95013800  1
  O  O19  1  0.32700400  0.03879100  0.04986200  1
  O  O20  1  0.82700400  0.03879100  0.45013800  1
  O  O21  1  0.32700400  0.46120900  0.54986200  1
  O  O22  1  0.17299600  0.53879100  0.04986200  1
  O  O23  1  0.67299600  0.96120900  0.95013800  1
  O  O24  1  0.51852200  0.83204500  0.56897400  1
  O  O25  1  0.01852200  0.66795500  0.43102600  1
  O  O26  1  0.48147800  0.33204500  0.93102600  1
  O  O27  1  0.98147800  0.16795500  0.06897400  1
  O  O28  1  0.48147800  0.16795500  0.43102600  1
  O  O29  1  0.98147800  0.33204500  0.56897400  1
  O  O30  1  0.51852200  0.66795500  0.06897400  1
  O  O31  1  0.01852200  0.83204500  0.93102600  1
  O  O32  1  0.45741800  0.11031900  0.65855600  1
  O  O33  1  0.95741800  0.38968100  0.34144400  1
  O  O34  1  0.54258200  0.61031900  0.84144400  1
  O  O35  1  0.04258200  0.88968100  0.15855600  1
  O  O36  1  0.54258200  0.88968100  0.34144400  1
  O  O37  1  0.04258200  0.61031900  0.65855600  1
  O  O38  1  0.45741800  0.38968100  0.15855600  1
  O  O39  1  0.95741800  0.11031900  0.84144400  1
  O  O40  1  0.28712300  0.87668300  0.74471600  1
  O  O41  1  0.78712300  0.62331700  0.25528400  1
  O  O42  1  0.71287700  0.37668300  0.75528400  1
  O  O43  1  0.21287700  0.12331700  0.24471600  1
  O  O44  1  0.71287700  0.12331700  0.25528400  1
  O  O45  1  0.21287700  0.37668300  0.74471600  1
  O  O46  1  0.28712300  0.62331700  0.24471600  1
  O  O47  1  0.78712300  0.87668300  0.75528400  1
  O  O48  1  0.31970900  0.08618400  0.80267000  1
  O  O49  1  0.81970900  0.41381600  0.19733000  1
  O  O50  1  0.68029100  0.58618400  0.69733000  1
  O  O51  1  0.18029100  0.91381600  0.30267000  1
  O  O52  1  0.68029100  0.91381600  0.19733000  1
  O  O53  1  0.18029100  0.58618400  0.80267000  1
  O  O54  1  0.31970900  0.41381600  0.30267000  1
  O  O55  1  0.81970900  0.08618400  0.69733000  1
