# generated using pymatgen
data_ZrP2O9
_symmetry_space_group_name_H-M   'P 1'
_cell_length_a   5.40577600
_cell_length_b   9.15241300
_cell_length_c   15.82024101
_cell_angle_alpha   69.93491803
_cell_angle_beta   90.00000000
_cell_angle_gamma   90.00000000
_symmetry_Int_Tables_number   1
_chemical_formula_structural   ZrP2O9
_chemical_formula_sum   'Zr4 P8 O36'
_cell_volume   735.21218863
_cell_formula_units_Z   4
loop_
 _symmetry_equiv_pos_site_id
 _symmetry_equiv_pos_as_xyz
  1  'x, y, z'
loop_
 _atom_site_type_symbol
 _atom_site_label
 _atom_site_symmetry_multiplicity
 _atom_site_fract_x
 _atom_site_fract_y
 _atom_site_fract_z
 _atom_site_occupancy
  Zr  Zr0  1  0.76650000  0.23528900  0.02725700  1
  Zr  Zr1  1  0.26650000  0.76471100  0.47274300  1
  Zr  Zr2  1  0.23350000  0.76471100  0.97274300  1
  Zr  Zr3  1  0.73350000  0.23528900  0.52725700  1
  P  P4  1  0.26246700  0.98971300  0.11988700  1
  P  P5  1  0.76246700  0.01028700  0.38011300  1
  P  P6  1  0.73753300  0.01028700  0.88011300  1
  P  P7  1  0.23753300  0.98971300  0.61988700  1
  P  P8  1  0.76950800  0.54847200  0.60414400  1
  P  P9  1  0.26950800  0.45152800  0.89585600  1
  P  P10  1  0.23049200  0.45152800  0.39585600  1
  P  P11  1  0.73049200  0.54847200  0.10414400  1
  O  O12  1  0.28677700  0.90024400  0.05404800  1
  O  O13  1  0.78677700  0.09975600  0.44595200  1
  O  O14  1  0.71322300  0.09975600  0.94595200  1
  O  O15  1  0.21322300  0.90024400  0.55404800  1
  O  O16  1  0.00528600  0.06612500  0.11064500  1
  O  O17  1  0.50528600  0.93387500  0.38935500  1
  O  O18  1  0.99471400  0.93387500  0.88935500  1
  O  O19  1  0.49471400  0.06612500  0.61064500  1
  O  O20  1  0.46287800  0.11636600  0.10072700  1
  O  O21  1  0.96287800  0.88363400  0.39927300  1
  O  O22  1  0.53712200  0.88363400  0.89927300  1
  O  O23  1  0.03712200  0.11636600  0.60072700  1
  O  O24  1  0.29473800  0.87000100  0.21706000  1
  O  O25  1  0.79473800  0.12999900  0.28294000  1
  O  O26  1  0.70526200  0.12999900  0.78294000  1
  O  O27  1  0.20526200  0.87000100  0.71706000  1
  O  O28  1  0.56695100  0.66505000  0.55604500  1
  O  O29  1  0.06695100  0.33495000  0.94395500  1
  O  O30  1  0.43304900  0.33495000  0.44395500  1
  O  O31  1  0.93304900  0.66505000  0.05604500  1
  O  O32  1  0.02301800  0.60303100  0.56096000  1
  O  O33  1  0.52301800  0.39696900  0.93904000  1
  O  O34  1  0.97698200  0.39696900  0.43904000  1
  O  O35  1  0.47698200  0.60303100  0.06096000  1
  O  O36  1  0.78559800  0.53273200  0.70604200  1
  O  O37  1  0.28559800  0.46726800  0.79395800  1
  O  O38  1  0.21440200  0.46726800  0.29395800  1
  O  O39  1  0.71440200  0.53273200  0.20604200  1
  O  O40  1  0.29472600  0.61274800  0.40085500  1
  O  O41  1  0.79472600  0.38725200  0.09914500  1
  O  O42  1  0.70527400  0.38725200  0.59914500  1
  O  O43  1  0.20527400  0.61274800  0.90085500  1
  O  O44  1  0.86194600  0.73560600  0.74102000  1
  O  O45  1  0.36194600  0.26439400  0.75898000  1
  O  O46  1  0.13805400  0.26439400  0.25898000  1
  O  O47  1  0.63805400  0.73560600  0.24102000  1
