# generated using pymatgen
data_KAl2P2H9O13
_symmetry_space_group_name_H-M   'P 1'
_cell_length_a   5.59781600
_cell_length_b   9.47636300
_cell_length_c   9.89692100
_cell_angle_alpha   90.00000000
_cell_angle_beta   90.00000000
_cell_angle_gamma   90.00000000
_symmetry_Int_Tables_number   1
_chemical_formula_structural   KAl2P2H9O13
_chemical_formula_sum   'K2 Al4 P4 H18 O26'
_cell_volume   525.00133907
_cell_formula_units_Z   2
loop_
 _symmetry_equiv_pos_site_id
 _symmetry_equiv_pos_as_xyz
  1  'x, y, z'
loop_
 _atom_site_type_symbol
 _atom_site_label
 _atom_site_symmetry_multiplicity
 _atom_site_fract_x
 _atom_site_fract_y
 _atom_site_fract_z
 _atom_site_occupancy
  K  K0  1  0.00827800  0.50000000  0.50000000  1
  K  K1  1  0.00827800  0.00000000  0.00000000  1
  Al  Al2  1  0.04949500  0.13783400  0.61147800  1
  Al  Al3  1  0.04949500  0.86216600  0.38852200  1
  Al  Al4  1  0.04949500  0.36216600  0.11147800  1
  Al  Al5  1  0.04949500  0.63783400  0.88852200  1
  P  P6  1  0.79945900  0.34961200  0.82765100  1
  P  P7  1  0.79945900  0.65038800  0.17234900  1
  P  P8  1  0.79945900  0.15038800  0.32765100  1
  P  P9  1  0.79945900  0.84961200  0.67234900  1
  H  H10  1  0.41980200  0.76266500  0.52432000  1
  H  H11  1  0.41980200  0.23733500  0.47568000  1
  H  H12  1  0.41980200  0.73733500  0.02432000  1
  H  H13  1  0.41980200  0.26266500  0.97568000  1
  H  H14  1  0.42930300  0.70747700  0.36866500  1
  H  H15  1  0.42930300  0.29252300  0.63133500  1
  H  H16  1  0.42930300  0.79252300  0.86866500  1
  H  H17  1  0.42930300  0.20747700  0.13133500  1
  H  H18  1  0.40215300  0.65311600  0.72030100  1
  H  H19  1  0.40215300  0.34688400  0.27969900  1
  H  H20  1  0.40215300  0.84688400  0.22030100  1
  H  H21  1  0.40215300  0.15311600  0.77969900  1
  H  H22  1  0.38209500  0.50937200  0.23189700  1
  H  H23  1  0.38209500  0.49062800  0.76810300  1
  H  H24  1  0.38209500  0.99062800  0.73189700  1
  H  H25  1  0.38209500  0.00937200  0.26810300  1
  H  H26  1  0.36672700  0.00000000  0.50000000  1
  H  H27  1  0.36672700  0.50000000  0.00000000  1
  O  O28  1  0.82444900  0.48754500  0.17763300  1
  O  O29  1  0.82444900  0.51245500  0.82236700  1
  O  O30  1  0.82444900  0.01245500  0.67763300  1
  O  O31  1  0.82444900  0.98754500  0.32236700  1
  O  O32  1  0.86436100  0.20915500  0.46910500  1
  O  O33  1  0.86436100  0.79084500  0.53089500  1
  O  O34  1  0.86436100  0.29084500  0.96910500  1
  O  O35  1  0.86436100  0.70915500  0.03089500  1
  O  O36  1  0.96433600  0.28614100  0.71920400  1
  O  O37  1  0.96433600  0.71385900  0.28079600  1
  O  O38  1  0.96433600  0.21385900  0.21920400  1
  O  O39  1  0.96433600  0.78614100  0.78079600  1
  O  O40  1  0.53161600  0.31453200  0.79960000  1
  O  O41  1  0.53161600  0.68546800  0.20040000  1
  O  O42  1  0.53161600  0.18546800  0.29960000  1
  O  O43  1  0.53161600  0.81453200  0.70040000  1
  O  O44  1  0.32233400  0.26994200  0.55334600  1
  O  O45  1  0.32233400  0.73005800  0.44665400  1
  O  O46  1  0.32233400  0.23005800  0.05334600  1
  O  O47  1  0.32233400  0.76994200  0.94665400  1
  O  O48  1  0.28701500  0.07541000  0.75680700  1
  O  O49  1  0.28701500  0.92459000  0.24319300  1
  O  O50  1  0.28701500  0.42459000  0.25680700  1
  O  O51  1  0.28701500  0.57541000  0.74319300  1
  O  O52  1  0.19304500  0.00000000  0.50000000  1
  O  O53  1  0.19304500  0.50000000  0.00000000  1
