# generated using pymatgen
data_Na5Cu2H14S4O19
_symmetry_space_group_name_H-M   'P 1'
_cell_length_a   9.63291200
_cell_length_b   13.92353100
_cell_length_c   15.53571922
_cell_angle_alpha   73.10657043
_cell_angle_beta   90.00000000
_cell_angle_gamma   90.00000000
_symmetry_Int_Tables_number   1
_chemical_formula_structural   Na5Cu2H14S4O19
_chemical_formula_sum   'Na20 Cu8 H56 S16 O76'
_cell_volume   1993.79638055
_cell_formula_units_Z   4
loop_
 _symmetry_equiv_pos_site_id
 _symmetry_equiv_pos_as_xyz
  1  'x, y, z'
loop_
 _atom_site_type_symbol
 _atom_site_label
 _atom_site_symmetry_multiplicity
 _atom_site_fract_x
 _atom_site_fract_y
 _atom_site_fract_z
 _atom_site_occupancy
  Na  Na0  1  0.27796300  0.25543000  0.48037200  1
  Na  Na1  1  0.77796300  0.24457000  0.51962800  1
  Na  Na2  1  0.72203700  0.74457000  0.51962800  1
  Na  Na3  1  0.22203700  0.75543000  0.48037200  1
  Na  Na4  1  0.04144900  0.17468300  0.34295000  1
  Na  Na5  1  0.54144900  0.32531700  0.65705000  1
  Na  Na6  1  0.95855100  0.82531700  0.65705000  1
  Na  Na7  1  0.45855100  0.67468300  0.34295000  1
  Na  Na8  1  0.75413900  0.08337700  0.24568800  1
  Na  Na9  1  0.25413900  0.41662300  0.75431200  1
  Na  Na10  1  0.24586100  0.91662300  0.75431200  1
  Na  Na11  1  0.74586100  0.58337700  0.24568800  1
  Na  Na12  1  0.03831000  0.42866100  0.34726500  1
  Na  Na13  1  0.53831000  0.07133900  0.65273500  1
  Na  Na14  1  0.96169000  0.57133900  0.65273500  1
  Na  Na15  1  0.46169000  0.92866100  0.34726500  1
  Na  Na16  1  0.54215400  0.11711600  0.00680500  1
  Na  Na17  1  0.04215400  0.38288400  0.99319500  1
  Na  Na18  1  0.45784600  0.88288400  0.99319500  1
  Na  Na19  1  0.95784600  0.61711600  0.00680500  1
  Cu  Cu20  1  0.55924600  0.30668400  0.33023200  1
  Cu  Cu21  1  0.05924600  0.19331600  0.66976800  1
  Cu  Cu22  1  0.44075400  0.69331600  0.66976800  1
  Cu  Cu23  1  0.94075400  0.80668400  0.33023200  1
  Cu  Cu24  1  0.25069400  0.00922700  0.46868800  1
  Cu  Cu25  1  0.75069400  0.49077300  0.53131200  1
  Cu  Cu26  1  0.74930600  0.99077300  0.53131200  1
  Cu  Cu27  1  0.24930600  0.50922700  0.46868800  1
  H  H28  1  0.22159100  0.02008200  0.25554300  1
  H  H29  1  0.72159100  0.47991800  0.74445700  1
  H  H30  1  0.77840900  0.97991800  0.74445700  1
  H  H31  1  0.27840900  0.52008200  0.25554300  1
  H  H32  1  0.29997600  0.11952300  0.26109900  1
  H  H33  1  0.79997700  0.38047700  0.73890100  1
  H  H34  1  0.70002400  0.88047700  0.73890100  1
  H  H35  1  0.20002400  0.61952300  0.26109900  1
  H  H36  1  0.52696800  0.94680200  0.15953000  1
  H  H37  1  0.02696800  0.55319800  0.84047000  1
  H  H38  1  0.47303200  0.05319800  0.84047000  1
  H  H39  1  0.97303200  0.44680200  0.15953000  1
  H  H40  1  0.36453200  0.95486800  0.14087800  1
  H  H41  1  0.86453200  0.54513200  0.85912200  1
  H  H42  1  0.63546800  0.04513200  0.85912200  1
  H  H43  1  0.13546800  0.45486800  0.14087800  1
  H  H44  1  0.70315100  0.29681300  0.96630000  1
  H  H45  1  0.20315100  0.20318700  0.03370000  1
  H  H46  1  0.29684900  0.70318700  0.03370000  1
  H  H47  1  0.79684900  0.79681300  0.96630000  1
  H  H48  1  0.71026100  0.26341100  0.87747700  1
  H  H49  1  0.21026100  0.23658900  0.12252300  1
  H  H50  1  0.28973900  0.73658900  0.12252300  1
  H  H51  1  0.78973900  0.76341100  0.87747700  1
  H  H52  1  0.49950500  0.20305700  0.16112800  1
  H  H53  1  0.99950500  0.29694300  0.83887200  1
  H  H54  1  0.50049500  0.79694300  0.83887200  1
  H  H55  1  0.00049500  0.70305700  0.16112800  1
  H  H56  1  0.63878400  0.24055000  0.11095400  1
  H  H57  1  0.13878400  0.25945000  0.88904600  1
  H  H58  1  0.36121600  0.75945000  0.88904600  1
  H  H59  1  0.86121600  0.74055000  0.11095400  1
  H  H60  1  0.84642300  0.05492100  0.05302400  1
  H  H61  1  0.34642300  0.44507900  0.94697600  1
  H  H62  1  0.15357700  0.94507900  0.94697600  1
  H  H63  1  0.65357700  0.55492100  0.05302400  1
  H  H64  1  0.81809200  0.05967700  0.94998300  1
  H  H65  1  0.31809200  0.44032300  0.05001700  1
  H  H66  1  0.18190800  0.94032300  0.05001700  1
  H  H67  1  0.68190800  0.55967700  0.94998300  1
  H  H68  1  0.26544000  0.08871300  0.95963200  1
  H  H69  1  0.76544000  0.41128700  0.04036800  1
  H  H70  1  0.73456000  0.91128700  0.04036800  1
  H  H71  1  0.23456000  0.58871300  0.95963200  1
  H  H72  1  0.31852100  0.18735300  0.88474100  1
  H  H73  1  0.81852100  0.31264700  0.11525900  1
  H  H74  1  0.68147900  0.81264700  0.11525900  1
  H  H75  1  0.18147900  0.68735300  0.88474100  1
  H  H76  1  0.00892600  0.01718500  0.15940000  1
  H  H77  1  0.50892600  0.48281500  0.84060000  1
  H  H78  1  0.99107400  0.98281500  0.84060000  1
  H  H79  1  0.49107400  0.51718500  0.15940000  1
  H  H80  1  0.01158100  0.13320400  0.11689900  1
  H  H81  1  0.51158100  0.36679600  0.88310100  1
  H  H82  1  0.98841900  0.86679600  0.88310100  1
  H  H83  1  0.48841900  0.63320400  0.11689900  1
  S  S84  1  0.53897100  0.41794800  0.41417700  1
  S  S85  1  0.03897100  0.08205200  0.58582300  1
  S  S86  1  0.46102900  0.58205200  0.58582300  1
  S  S87  1  0.96102900  0.91794800  0.41417700  1
  S  S88  1  0.54079000  0.13960600  0.41356400  1
  S  S89  1  0.04079000  0.36039400  0.58643600  1
  S  S90  1  0.45921000  0.86039400  0.58643600  1
  S  S91  1  0.95921000  0.63960600  0.41356400  1
  S  S92  1  0.34828300  0.32427200  0.25294400  1
  S  S93  1  0.84828300  0.17572800  0.74705600  1
  S  S94  1  0.65171700  0.67572800  0.74705600  1
  S  S95  1  0.15171700  0.82427200  0.25294400  1
  S  S96  1  0.78973600  0.32110100  0.28742100  1
  S  S97  1  0.28973600  0.17889900  0.71257900  1
  S  S98  1  0.21026400  0.67889900  0.71257900  1
  S  S99  1  0.71026400  0.82110100  0.28742100  1
  O  O100  1  0.57580600  0.52311800  0.36259100  1
  O  O101  1  0.07580600  0.97688200  0.63740900  1
  O  O102  1  0.42419400  0.47688200  0.63740900  1
  O  O103  1  0.92419400  0.02311800  0.36259100  1
  O  O104  1  0.38912000  0.41310400  0.44648500  1
  O  O105  1  0.88912000  0.08689600  0.55351500  1
  O  O106  1  0.61088000  0.58689600  0.55351500  1
  O  O107  1  0.11088000  0.91310400  0.44648500  1
  O  O108  1  0.62954800  0.38763600  0.50059300  1
  O  O109  1  0.12954800  0.11236400  0.49940700  1
  O  O110  1  0.37045200  0.61236400  0.49940700  1
  O  O111  1  0.87045200  0.88763600  0.50059300  1
  O  O112  1  0.62765500  0.11453100  0.50143400  1
  O  O113  1  0.12765500  0.38546900  0.49856600  1
  O  O114  1  0.37234500  0.88546900  0.49856600  1
  O  O115  1  0.87234500  0.61453100  0.50143400  1
  O  O116  1  0.38975000  0.12090300  0.44338100  1
  O  O117  1  0.88975000  0.37909700  0.55661900  1
  O  O118  1  0.61025000  0.87909700  0.55661900  1
  O  O119  1  0.11025000  0.62090300  0.44338100  1
  O  O120  1  0.58412100  0.06877600  0.36262300  1
  O  O121  1  0.08412100  0.43122400  0.63737700  1
  O  O122  1  0.41587900  0.93122400  0.63737700  1
  O  O123  1  0.91587900  0.56877600  0.36262300  1
  O  O124  1  0.34119100  0.24722100  0.19934100  1
  O  O125  1  0.84119100  0.25277900  0.80065900  1
  O  O126  1  0.65880900  0.75277900  0.80065900  1
  O  O127  1  0.15880900  0.74722100  0.19934100  1
  O  O128  1  0.33245700  0.42883600  0.18473800  1
  O  O129  1  0.83245700  0.07116400  0.81526200  1
  O  O130  1  0.66754300  0.57116400  0.81526200  1
  O  O131  1  0.16754300  0.92883600  0.18473800  1
  O  O132  1  0.22157300  0.30721700  0.31362600  1
  O  O133  1  0.72157300  0.19278300  0.68637400  1
  O  O134  1  0.77842700  0.69278300  0.68637400  1
  O  O135  1  0.27842700  0.80721700  0.31362600  1
  O  O136  1  0.83471300  0.25317200  0.23103800  1
  O  O137  1  0.33471300  0.24682800  0.76896200  1
  O  O138  1  0.16528700  0.74682800  0.76896200  1
  O  O139  1  0.66528700  0.75317200  0.23103800  1
  O  O140  1  0.83640300  0.42726600  0.23755400  1
  O  O141  1  0.33640300  0.07273400  0.76244600  1
  O  O142  1  0.16359700  0.57273400  0.76244600  1
  O  O143  1  0.66359700  0.92726600  0.23755400  1
  O  O144  1  0.87563400  0.28878800  0.37339100  1
  O  O145  1  0.37563400  0.21121200  0.62660900  1
  O  O146  1  0.12436600  0.71121200  0.62660900  1
  O  O147  1  0.62436600  0.78878800  0.37339100  1
  O  O148  1  0.26944200  0.05144000  0.29648900  1
  O  O149  1  0.76944200  0.44856000  0.70351100  1
  O  O150  1  0.73055800  0.94856000  0.70351100  1
  O  O151  1  0.23055800  0.55144000  0.29648900  1
  O  O152  1  0.45573600  0.96593200  0.11114300  1
  O  O153  1  0.95573600  0.53406800  0.88885700  1
  O  O154  1  0.54426400  0.03406800  0.88885700  1
  O  O155  1  0.04426400  0.46593200  0.11114300  1
  O  O156  1  0.64436700  0.27617500  0.92223300  1
  O  O157  1  0.14436700  0.22382500  0.07776700  1
  O  O158  1  0.35563300  0.72382500  0.07776700  1
  O  O159  1  0.85563300  0.77617500  0.92223300  1
  O  O160  1  0.58219600  0.18009800  0.13426600  1
  O  O161  1  0.08219600  0.31990200  0.86573400  1
  O  O162  1  0.41780400  0.81990200  0.86573400  1
  O  O163  1  0.91780400  0.68009800  0.13426600  1
  O  O164  1  0.77790400  0.03870900  0.01077300  1
  O  O165  1  0.27790400  0.46129100  0.98922700  1
  O  O166  1  0.22209600  0.96129100  0.98922700  1
  O  O167  1  0.72209600  0.53870900  0.01077300  1
  O  O168  1  0.29552200  0.15996400  0.95005200  1
  O  O169  1  0.79552200  0.34003600  0.04994800  1
  O  O170  1  0.70447800  0.84003600  0.04994800  1
  O  O171  1  0.20447800  0.65996300  0.95005200  1
  O  O172  1  0.94621500  0.07539900  0.13770300  1
  O  O173  1  0.44621500  0.42460100  0.86229700  1
  O  O174  1  0.05378500  0.92460100  0.86229700  1
  O  O175  1  0.55378500  0.57539900  0.13770300  1
