# generated using pymatgen
data_VP3(Pb2O7)2
_symmetry_space_group_name_H-M   'P 1'
_cell_length_a   13.48098705
_cell_length_b   13.71779171
_cell_length_c   14.02695693
_cell_angle_alpha   90.00000000
_cell_angle_beta   90.00000000
_cell_angle_gamma   91.92236968
_symmetry_Int_Tables_number   1
_chemical_formula_structural   VP3(Pb2O7)2
_chemical_formula_sum   'V8 P24 Pb32 O112'
_cell_volume   2592.53642825
_cell_formula_units_Z   8
loop_
 _symmetry_equiv_pos_site_id
 _symmetry_equiv_pos_as_xyz
  1  'x, y, z'
loop_
 _atom_site_type_symbol
 _atom_site_label
 _atom_site_symmetry_multiplicity
 _atom_site_fract_x
 _atom_site_fract_y
 _atom_site_fract_z
 _atom_site_occupancy
  V  V0  1  0.86622797  0.45054759  0.60697837  1
  V  V1  1  0.63377203  0.54945241  0.10697837  1
  V  V2  1  0.13377203  0.54945241  0.39302163  1
  V  V3  1  0.36622797  0.45054759  0.89302163  1
  V  V4  1  0.62990776  0.05876528  0.59091053  1
  V  V5  1  0.87009224  0.94123472  0.09091053  1
  V  V6  1  0.37009224  0.94123472  0.40908947  1
  V  V7  1  0.12990776  0.05876528  0.90908947  1
  P  P8  1  0.55778953  0.84896210  0.51275776  1
  P  P9  1  0.94221047  0.15103790  0.01275776  1
  P  P10  1  0.44221047  0.15103790  0.48724224  1
  P  P11  1  0.05778953  0.84896210  0.98724224  1
  P  P12  1  0.94482111  0.65523015  0.51771173  1
  P  P13  1  0.55517889  0.34476985  0.01771173  1
  P  P14  1  0.05517889  0.34476985  0.48228827  1
  P  P15  1  0.44482111  0.65523015  0.98228827  1
  P  P16  1  0.73762081  0.25448671  0.70192905  1
  P  P17  1  0.76237919  0.74551329  0.20192905  1
  P  P18  1  0.26237919  0.74551329  0.29807095  1
  P  P19  1  0.23762081  0.25448671  0.79807095  1
  P  P20  1  0.53139076  0.02536681  0.84248579  1
  P  P21  1  0.96860924  0.97463319  0.34248579  1
  P  P22  1  0.46860924  0.97463319  0.15751421  1
  P  P23  1  0.03139076  0.02536681  0.65751421  1
  P  P24  1  0.56848599  0.53628187  0.34959308  1
  P  P25  1  0.93151401  0.46371813  0.84959308  1
  P  P26  1  0.43151401  0.46371813  0.65040692  1
  P  P27  1  0.06848599  0.53628187  0.15040692  1
  P  P28  1  0.73172424  0.74939074  0.77120548  1
  P  P29  1  0.76827576  0.25060926  0.27120548  1
  P  P30  1  0.26827576  0.25060926  0.22879452  1
  P  P31  1  0.23172424  0.74939074  0.72879452  1
  Pb  Pb32  1  0.62317657  0.35539599  0.48714407  1
  Pb  Pb33  1  0.87682343  0.64460401  0.98714407  1
  Pb  Pb34  1  0.37682343  0.64460401  0.51285593  1
  Pb  Pb35  1  0.12317657  0.35539599  0.01285593  1
  Pb  Pb36  1  0.83905336  0.50488569  0.31519086  1
  Pb  Pb37  1  0.66094664  0.49511431  0.81519086  1
  Pb  Pb38  1  0.16094664  0.49511431  0.68480914  1
  Pb  Pb39  1  0.33905336  0.50488569  0.18480914  1
  Pb  Pb40  1  0.85897432  0.16289160  0.49109697  1
  Pb  Pb41  1  0.64102568  0.83710840  0.99109697  1
  Pb  Pb42  1  0.14102568  0.83710840  0.50890303  1
  Pb  Pb43  1  0.35897432  0.16289160  0.00890303  1
  Pb  Pb44  1  0.66804499  0.63608885  0.54718221  1
  Pb  Pb45  1  0.83195501  0.36391115  0.04718221  1
  Pb  Pb46  1  0.33195501  0.36391115  0.45281779  1
  Pb  Pb47  1  0.16804499  0.63608885  0.95281779  1
  Pb  Pb48  1  0.83342566  0.86852058  0.54575460  1
  Pb  Pb49  1  0.66657434  0.13147942  0.04575460  1
  Pb  Pb50  1  0.16657434  0.13147942  0.45424540  1
  Pb  Pb51  1  0.33342566  0.86852058  0.95424540  1
  Pb  Pb52  1  0.98563239  0.25468551  0.75150118  1
  Pb  Pb53  1  0.51436761  0.74531449  0.25150118  1
  Pb  Pb54  1  0.01436761  0.74531449  0.24849882  1
  Pb  Pb55  1  0.48563239  0.25468551  0.74849882  1
  Pb  Pb56  1  0.77229561  0.01126076  0.79054205  1
  Pb  Pb57  1  0.72770439  0.98873924  0.29054205  1
  Pb  Pb58  1  0.22770439  0.98873924  0.20945795  1
  Pb  Pb59  1  0.27229561  0.01126076  0.70945795  1
  Pb  Pb60  1  0.49167565  0.77837301  0.75025089  1
  Pb  Pb61  1  0.00832435  0.22162699  0.25025089  1
  Pb  Pb62  1  0.50832435  0.22162699  0.24974911  1
  Pb  Pb63  1  0.99167565  0.77837301  0.74974911  1
  O  O64  1  0.83714394  0.68462054  0.49761993  1
  O  O65  1  0.66285606  0.31537946  0.99761993  1
  O  O66  1  0.16285606  0.31537946  0.50238007  1
  O  O67  1  0.33714394  0.68462054  0.00238007  1
  O  O68  1  0.66463595  0.81415083  0.49621322  1
  O  O69  1  0.83536405  0.18584917  0.99621322  1
  O  O70  1  0.33536405  0.18584917  0.50378678  1
  O  O71  1  0.16463595  0.81415083  0.00378678  1
  O  O72  1  0.49756176  0.76464355  0.56220427  1
  O  O73  1  0.00243824  0.23535645  0.06220427  1
  O  O74  1  0.50243824  0.23535645  0.43779573  1
  O  O75  1  0.99756176  0.76464355  0.93779573  1
  O  O76  1  0.51090926  0.87957186  0.41631848  1
  O  O77  1  0.98909074  0.12042814  0.91631848  1
  O  O78  1  0.48909074  0.12042814  0.58368152  1
  O  O79  1  0.01090926  0.87957186  0.08368152  1
  O  O80  1  0.79298835  0.18513563  0.76808138  1
  O  O81  1  0.70701165  0.81486437  0.26808138  1
  O  O82  1  0.20701165  0.81486437  0.23191862  1
  O  O83  1  0.29298835  0.18513563  0.73191862  1
  O  O84  1  0.99927873  0.74544537  0.56735899  1
  O  O85  1  0.50072127  0.25455463  0.06735899  1
  O  O86  1  0.00072127  0.25455463  0.43264101  1
  O  O87  1  0.49927873  0.74544537  0.93264101  1
  O  O88  1  0.67298674  0.19691166  0.62526981  1
  O  O89  1  0.82701326  0.80308834  0.12526981  1
  O  O90  1  0.32701326  0.80308834  0.37473019  1
  O  O91  1  0.17298674  0.19691166  0.87473019  1
  O  O92  1  0.55944704  0.93445067  0.58767545  1
  O  O93  1  0.94055296  0.06554933  0.08767545  1
  O  O94  1  0.44055296  0.06554933  0.41232455  1
  O  O95  1  0.05944704  0.93445067  0.91232455  1
  O  O96  1  0.99526648  0.62945153  0.42202600  1
  O  O97  1  0.50473352  0.37054847  0.92202600  1
  O  O98  1  0.00473352  0.37054847  0.57797400  1
  O  O99  1  0.49526648  0.62945153  0.07797400  1
  O  O100  1  0.83537884  0.43762066  0.49166879  1
  O  O101  1  0.66462116  0.56237934  0.99166879  1
  O  O102  1  0.16462116  0.56237934  0.50833121  1
  O  O103  1  0.33537884  0.43762066  0.00833121  1
  O  O104  1  0.55367752  0.55611894  0.24128782  1
  O  O105  1  0.94632248  0.44388106  0.74128782  1
  O  O106  1  0.44632248  0.44388106  0.75871218  1
  O  O107  1  0.05367752  0.55611894  0.25871218  1
  O  O108  1  0.59851348  0.05509593  0.75564887  1
  O  O109  1  0.90148652  0.94490407  0.25564887  1
  O  O110  1  0.40148652  0.94490407  0.24435113  1
  O  O111  1  0.09851348  0.05509593  0.74435113  1
  O  O112  1  0.52945857  0.62798415  0.40194000  1
  O  O113  1  0.97054143  0.37201585  0.90194000  1
  O  O114  1  0.47054143  0.37201585  0.59806000  1
  O  O115  1  0.02945857  0.62798415  0.09806000  1
  O  O116  1  0.67929399  0.52726609  0.37951467  1
  O  O117  1  0.82070601  0.47273391  0.87951467  1
  O  O118  1  0.32070601  0.47273391  0.62048533  1
  O  O119  1  0.17929399  0.52726609  0.12048533  1
  O  O120  1  0.65431248  0.07185752  0.47686494  1
  O  O121  1  0.84568752  0.92814248  0.97686494  1
  O  O122  1  0.34568752  0.92814248  0.52313506  1
  O  O123  1  0.15431248  0.07185752  0.02313506  1
  O  O124  1  0.76330921  0.50003429  0.65546415  1
  O  O125  1  0.73669079  0.49996571  0.15546415  1
  O  O126  1  0.23669079  0.49996571  0.34453585  1
  O  O127  1  0.26330921  0.50003429  0.84453585  1
  O  O128  1  0.66741052  0.83613899  0.80625767  1
  O  O129  1  0.83258948  0.16386101  0.30625767  1
  O  O130  1  0.33258948  0.16386101  0.19374233  1
  O  O131  1  0.16741052  0.83613899  0.69374233  1
  O  O132  1  0.94852575  0.57014849  0.59199290  1
  O  O133  1  0.55147425  0.42985151  0.09199290  1
  O  O134  1  0.05147425  0.42985151  0.40800710  1
  O  O135  1  0.44852575  0.57014849  0.90800710  1
  O  O136  1  0.82214075  0.31210422  0.64562275  1
  O  O137  1  0.67785925  0.68789578  0.14562275  1
  O  O138  1  0.17785925  0.68789578  0.35437725  1
  O  O139  1  0.32214075  0.31210422  0.85437725  1
  O  O140  1  0.66656267  0.32231904  0.75339658  1
  O  O141  1  0.83343733  0.67768096  0.25339658  1
  O  O142  1  0.33343733  0.67768096  0.24660342  1
  O  O143  1  0.16656267  0.32231904  0.74660342  1
  O  O144  1  0.47845163  0.11767913  0.87781813  1
  O  O145  1  0.02154837  0.88232087  0.37781813  1
  O  O146  1  0.52154837  0.88232087  0.12218187  1
  O  O147  1  0.97845163  0.11767913  0.62218187  1
  O  O148  1  0.45433226  0.94317800  0.81460682  1
  O  O149  1  0.04566774  0.05682200  0.31460682  1
  O  O150  1  0.54566774  0.05682200  0.18539318  1
  O  O151  1  0.95433226  0.94317800  0.68539318  1
  O  O152  1  0.74398998  0.01066485  0.62785019  1
  O  O153  1  0.75601002  0.98933515  0.12785019  1
  O  O154  1  0.25601002  0.98933515  0.37214981  1
  O  O155  1  0.24398998  0.01066485  0.87214981  1
  O  O156  1  0.51257347  0.44090131  0.38141276  1
  O  O157  1  0.98742653  0.55909869  0.88141276  1
  O  O158  1  0.48742653  0.55909869  0.61858724  1
  O  O159  1  0.01257347  0.44090131  0.11858724  1
  O  O160  1  0.60135420  0.98999458  0.92383614  1
  O  O161  1  0.89864580  0.01000542  0.42383614  1
  O  O162  1  0.39864580  0.01000542  0.07616386  1
  O  O163  1  0.10135420  0.98999458  0.57616386  1
  O  O164  1  0.65726237  0.67176463  0.72724955  1
  O  O165  1  0.84273763  0.32823537  0.22724955  1
  O  O166  1  0.34273763  0.32823537  0.27275045  1
  O  O167  1  0.15726237  0.67176463  0.77275045  1
  O  O168  1  0.80698495  0.78753679  0.69463054  1
  O  O169  1  0.69301505  0.21246321  0.19463054  1
  O  O170  1  0.19301505  0.21246321  0.30536946  1
  O  O171  1  0.30698495  0.78753679  0.80536946  1
  O  O172  1  0.79048775  0.70760256  0.85454573  1
  O  O173  1  0.70951225  0.29239744  0.35454573  1
  O  O174  1  0.20951225  0.29239744  0.14545427  1
  O  O175  1  0.29048775  0.70760256  0.64545427  1
