# generated using pymatgen
data_Ba(SO2)4
_symmetry_space_group_name_H-M   'P 1'
_cell_length_a   9.39104200
_cell_length_b   5.56516800
_cell_length_c   19.89393935
_cell_angle_alpha   84.30663988
_cell_angle_beta   90.00000000
_cell_angle_gamma   90.00000000
_symmetry_Int_Tables_number   1
_chemical_formula_structural   Ba(SO2)4
_chemical_formula_sum   'Ba4 S16 O32'
_cell_volume   1034.58268882
_cell_formula_units_Z   4
loop_
 _symmetry_equiv_pos_site_id
 _symmetry_equiv_pos_as_xyz
  1  'x, y, z'
loop_
 _atom_site_type_symbol
 _atom_site_label
 _atom_site_symmetry_multiplicity
 _atom_site_fract_x
 _atom_site_fract_y
 _atom_site_fract_z
 _atom_site_occupancy
  Ba  Ba0  1  0.10314400  0.74647800  0.86211500  1
  Ba  Ba1  1  0.60314400  0.25352200  0.63788500  1
  Ba  Ba2  1  0.89685600  0.25352200  0.13788500  1
  Ba  Ba3  1  0.39685600  0.74647800  0.36211500  1
  S  S4  1  0.54893000  0.65973800  0.88198900  1
  S  S5  1  0.04893000  0.34026200  0.61801100  1
  S  S6  1  0.45107000  0.34026200  0.11801100  1
  S  S7  1  0.95107000  0.65973800  0.38198900  1
  S  S8  1  0.62397000  0.95761400  0.92769600  1
  S  S9  1  0.12397000  0.04238600  0.57230400  1
  S  S10  1  0.37603000  0.04238600  0.07230400  1
  S  S11  1  0.87603000  0.95761400  0.42769600  1
  S  S12  1  0.69174100  0.68566400  0.78453900  1
  S  S13  1  0.19174100  0.31433600  0.71546100  1
  S  S14  1  0.30825900  0.31433600  0.21546100  1
  S  S15  1  0.80825900  0.68566400  0.28453900  1
  S  S16  1  0.78407000  0.80808400  0.99980500  1
  S  S17  1  0.28407000  0.19191600  0.50019500  1
  S  S18  1  0.21593000  0.19191600  0.00019500  1
  S  S19  1  0.71593000  0.80808400  0.49980500  1
  O  O20  1  0.83293400  0.75433300  0.80622500  1
  O  O21  1  0.33293400  0.24566700  0.69377500  1
  O  O22  1  0.16706600  0.24566700  0.19377500  1
  O  O23  1  0.66706600  0.75433300  0.30622500  1
  O  O24  1  0.67919200  0.44126700  0.76404200  1
  O  O25  1  0.17919200  0.55873300  0.73595800  1
  O  O26  1  0.32080800  0.55873300  0.23595800  1
  O  O27  1  0.82080800  0.44126700  0.26404200  1
  O  O28  1  0.61606100  0.87122100  0.74029100  1
  O  O29  1  0.11606100  0.12877900  0.75970900  1
  O  O30  1  0.38393900  0.12877900  0.25970900  1
  O  O31  1  0.88393900  0.87122100  0.24029100  1
  O  O32  1  0.89330800  0.70256100  0.96023700  1
  O  O33  1  0.39330800  0.29743900  0.53976300  1
  O  O34  1  0.10669200  0.29743900  0.03976300  1
  O  O35  1  0.60669200  0.70256100  0.46023700  1
  O  O36  1  0.81899900  0.04032300  0.02425000  1
  O  O37  1  0.31899900  0.95967700  0.47575000  1
  O  O38  1  0.18100100  0.95967700  0.97575000  1
  O  O39  1  0.68100100  0.04032300  0.52425000  1
  O  O40  1  0.71471800  0.63448200  0.04918400  1
  O  O41  1  0.21471800  0.36551800  0.45081600  1
  O  O42  1  0.28528200  0.36551800  0.95081600  1
  O  O43  1  0.78528200  0.63448200  0.54918400  1
  O  O44  1  0.02681900  0.24714900  0.87063200  1
  O  O45  1  0.52681900  0.75285100  0.62936800  1
  O  O46  1  0.97318100  0.75285100  0.12936800  1
  O  O47  1  0.47318100  0.24714900  0.37063200  1
  O  O48  1  0.40562900  0.72962000  0.85448200  1
  O  O49  1  0.90562900  0.27038000  0.64551800  1
  O  O50  1  0.59437100  0.27038000  0.14551800  1
  O  O51  1  0.09437100  0.72962000  0.35448200  1
