# generated using pymatgen
data_MgIn2
_symmetry_space_group_name_H-M   'P 1'
_cell_length_a   3.32812766
_cell_length_b   3.32812766
_cell_length_c   16.00103400
_cell_angle_alpha   90.00000000
_cell_angle_beta   90.00000000
_cell_angle_gamma   119.99999320
_symmetry_Int_Tables_number   1
_chemical_formula_structural   MgIn2
_chemical_formula_sum   'Mg2 In4'
_cell_volume   153.48949672
_cell_formula_units_Z   2
loop_
 _symmetry_equiv_pos_site_id
 _symmetry_equiv_pos_as_xyz
  1  'x, y, z'
loop_
 _atom_site_type_symbol
 _atom_site_label
 _atom_site_symmetry_multiplicity
 _atom_site_fract_x
 _atom_site_fract_y
 _atom_site_fract_z
 _atom_site_occupancy
  Mg  Mg0  1  0.66666700  0.33333300  0.33969900  1
  Mg  Mg1  1  0.66666700  0.33333300  0.66030100  1
  In  In2  1  0.00000000  0.00000000  0.81901300  1
  In  In3  1  0.66666700  0.33333300  0.00000000  1
  In  In4  1  0.00000000  0.00000000  0.18098700  1
  In  In5  1  0.00000000  0.00000000  0.50000000  1
