# generated using pymatgen
data_CoN5O9
_symmetry_space_group_name_H-M   'P 1'
_cell_length_a   10.05296100
_cell_length_b   8.89107100
_cell_length_c   14.44408255
_cell_angle_alpha   53.10725319
_cell_angle_beta   90.00000000
_cell_angle_gamma   90.00000000
_symmetry_Int_Tables_number   1
_chemical_formula_structural   CoN5O9
_chemical_formula_sum   'Co4 N20 O36'
_cell_volume   1032.51905593
_cell_formula_units_Z   4
loop_
 _symmetry_equiv_pos_site_id
 _symmetry_equiv_pos_as_xyz
  1  'x, y, z'
loop_
 _atom_site_type_symbol
 _atom_site_label
 _atom_site_symmetry_multiplicity
 _atom_site_fract_x
 _atom_site_fract_y
 _atom_site_fract_z
 _atom_site_occupancy
  Co  Co0  1  0.56642500  0.82044000  0.70561900  1
  Co  Co1  1  0.93357500  0.82044000  0.20561900  1
  Co  Co2  1  0.43357500  0.17956000  0.29438100  1
  Co  Co3  1  0.06642500  0.17956000  0.79438100  1
  N  N4  1  0.03105600  0.75072400  0.31065100  1
  N  N5  1  0.46894400  0.75072400  0.81065100  1
  N  N6  1  0.96894400  0.24927600  0.68934900  1
  N  N7  1  0.53105600  0.24927600  0.18934900  1
  N  N8  1  0.18100100  0.31780200  0.77386100  1
  N  N9  1  0.31899900  0.31780200  0.27386100  1
  N  N10  1  0.81899900  0.68219800  0.22613900  1
  N  N11  1  0.68100100  0.68219800  0.72613900  1
  N  N12  1  0.05244300  0.80684000  0.10246100  1
  N  N13  1  0.44755700  0.80684000  0.60246100  1
  N  N14  1  0.94755700  0.19316000  0.89753900  1
  N  N15  1  0.55244300  0.19316000  0.39753900  1
  N  N16  1  0.03861500  0.77192700  0.54168600  1
  N  N17  1  0.46138500  0.77192700  0.04168600  1
  N  N18  1  0.96138500  0.22807300  0.45831400  1
  N  N19  1  0.53861500  0.22807300  0.95831400  1
  N  N20  1  0.81820500  0.60491200  0.97128700  1
  N  N21  1  0.68179500  0.60491200  0.47128700  1
  N  N22  1  0.18179500  0.39508800  0.02871300  1
  N  N23  1  0.31820500  0.39508800  0.52871300  1
  O  O24  1  0.62996500  0.06512100  0.64682200  1
  O  O25  1  0.87003500  0.06512100  0.14682200  1
  O  O26  1  0.37003500  0.93487900  0.35317800  1
  O  O27  1  0.12996500  0.93487900  0.85317800  1
  O  O28  1  0.13267900  0.92590500  0.05586700  1
  O  O29  1  0.36732100  0.92590500  0.55586700  1
  O  O30  1  0.86732100  0.07409500  0.94413300  1
  O  O31  1  0.63267900  0.07409500  0.44413300  1
  O  O32  1  0.56873900  0.07835500  0.05469400  1
  O  O33  1  0.93126100  0.07835500  0.55469400  1
  O  O34  1  0.43126100  0.92164500  0.94530600  1
  O  O35  1  0.06873900  0.92164500  0.44530600  1
  O  O36  1  0.56882100  0.69079700  0.05513900  1
  O  O37  1  0.93117900  0.69079700  0.55513900  1
  O  O38  1  0.43117900  0.30920300  0.94486100  1
  O  O39  1  0.06882100  0.30920300  0.44486100  1
  O  O40  1  0.61872700  0.29508400  0.87529800  1
  O  O41  1  0.88127300  0.29508400  0.37529800  1
  O  O42  1  0.38127300  0.70491600  0.12470200  1
  O  O43  1  0.11872700  0.70491600  0.62470200  1
  O  O44  1  0.84958800  0.76869500  0.88863300  1
  O  O45  1  0.65041200  0.76869500  0.38863300  1
  O  O46  1  0.15041200  0.23130500  0.11136700  1
  O  O47  1  0.34958800  0.23130500  0.61136700  1
  O  O48  1  0.63186900  0.52503700  0.56996000  1
  O  O49  1  0.86813100  0.52503700  0.06996000  1
  O  O50  1  0.36813100  0.47496300  0.43004000  1
  O  O51  1  0.13186900  0.47496300  0.93004000  1
  O  O52  1  0.26565700  0.48526600  0.04308700  1
  O  O53  1  0.23434300  0.48526600  0.54308700  1
  O  O54  1  0.73434300  0.51473400  0.95691300  1
  O  O55  1  0.76565700  0.51473400  0.45691300  1
  O  O56  1  0.67925800  0.10825400  0.70763100  1
  O  O57  1  0.82074200  0.10825400  0.20763100  1
  O  O58  1  0.32074200  0.89174600  0.29236900  1
  O  O59  1  0.17925800  0.89174600  0.79236900  1
