# generated using pymatgen
data_MgH4S2O9
_symmetry_space_group_name_H-M   'P 1'
_cell_length_a   8.88696700
_cell_length_b   5.16601500
_cell_length_c   16.83906559
_cell_angle_alpha   90.00000000
_cell_angle_beta   109.86446701
_cell_angle_gamma   90.00000000
_symmetry_Int_Tables_number   1
_chemical_formula_structural   MgH4S2O9
_chemical_formula_sum   'Mg4 H16 S8 O36'
_cell_volume   727.08565261
_cell_formula_units_Z   4
loop_
 _symmetry_equiv_pos_site_id
 _symmetry_equiv_pos_as_xyz
  1  'x, y, z'
loop_
 _atom_site_type_symbol
 _atom_site_label
 _atom_site_symmetry_multiplicity
 _atom_site_fract_x
 _atom_site_fract_y
 _atom_site_fract_z
 _atom_site_occupancy
  Mg  Mg0  1  0.75812700  0.74767200  0.50985200  1
  Mg  Mg1  1  0.75812700  0.75232800  0.00985200  1
  Mg  Mg2  1  0.24187300  0.25232800  0.49014800  1
  Mg  Mg3  1  0.24187300  0.24767200  0.99014800  1
  H  H4  1  0.42642600  0.71771700  0.21603600  1
  H  H5  1  0.42642600  0.78228300  0.71603600  1
  H  H6  1  0.57357400  0.28228300  0.78396400  1
  H  H7  1  0.57357400  0.21771700  0.28396400  1
  H  H8  1  0.14822700  0.41897100  0.22410500  1
  H  H9  1  0.14822700  0.08102900  0.72410500  1
  H  H10  1  0.85177300  0.58102900  0.77589500  1
  H  H11  1  0.85177300  0.91897100  0.27589500  1
  H  H12  1  0.28491800  0.70148600  0.31402700  1
  H  H13  1  0.28491800  0.79851400  0.81402700  1
  H  H14  1  0.71508200  0.29851400  0.68597300  1
  H  H15  1  0.71508200  0.20148600  0.18597300  1
  H  H16  1  0.17560100  0.84052500  0.23254100  1
  H  H17  1  0.17560100  0.65947500  0.73254100  1
  H  H18  1  0.82439900  0.15947500  0.76745900  1
  H  H19  1  0.82439900  0.34052500  0.26745900  1
  S  S20  1  0.53165100  0.24306500  0.40309500  1
  S  S21  1  0.53165100  0.25693500  0.90309500  1
  S  S22  1  0.46834900  0.75693500  0.59690500  1
  S  S23  1  0.46834900  0.74306500  0.09690500  1
  S  S24  1  0.00645700  0.75356600  0.39425800  1
  S  S25  1  0.00645700  0.74643400  0.89425800  1
  S  S26  1  0.99354300  0.24643400  0.60574200  1
  S  S27  1  0.99354300  0.25356600  0.10574200  1
  O  O28  1  0.66379700  0.42505300  0.43602900  1
  O  O29  1  0.66379700  0.07494700  0.93602900  1
  O  O30  1  0.33620300  0.57494700  0.56397100  1
  O  O31  1  0.33620300  0.92505300  0.06397100  1
  O  O32  1  0.57585400  0.97521300  0.42884000  1
  O  O33  1  0.57585400  0.52478700  0.92884000  1
  O  O34  1  0.42414600  0.02478700  0.57116000  1
  O  O35  1  0.42414600  0.47521300  0.07116000  1
  O  O36  1  0.38453300  0.32571500  0.41648100  1
  O  O37  1  0.38453300  0.17428500  0.91648100  1
  O  O38  1  0.61546700  0.67428500  0.58351900  1
  O  O39  1  0.61546700  0.82571500  0.08351900  1
  O  O40  1  0.48030900  0.25056300  0.30317500  1
  O  O41  1  0.48030900  0.24943700  0.80317500  1
  O  O42  1  0.51969100  0.74943700  0.69682500  1
  O  O43  1  0.51969100  0.75056300  0.19682500  1
  O  O44  1  0.88893100  0.82506900  0.43302400  1
  O  O45  1  0.88893100  0.67493100  0.93302400  1
  O  O46  1  0.11106900  0.17493100  0.56697600  1
  O  O47  1  0.11106900  0.32506900  0.06697600  1
  O  O48  1  0.86224400  0.05846600  0.58891300  1
  O  O49  1  0.86224400  0.44153400  0.08891300  1
  O  O50  1  0.13775600  0.94153400  0.41108700  1
  O  O51  1  0.13775600  0.55846600  0.91108700  1
  O  O52  1  0.93695800  0.51333800  0.58997200  1
  O  O53  1  0.93695800  0.98666200  0.08997200  1
  O  O54  1  0.06304200  0.48666200  0.41002800  1
  O  O55  1  0.06304200  0.01333800  0.91002800  1
  O  O56  1  0.08400900  0.25256800  0.20469800  1
  O  O57  1  0.08400900  0.24743200  0.70469800  1
  O  O58  1  0.91599100  0.74743200  0.79530200  1
  O  O59  1  0.91599100  0.75256800  0.29530200  1
  O  O60  1  0.24848100  0.80749100  0.75238000  1
  O  O61  1  0.24848100  0.69250900  0.25238000  1
  O  O62  1  0.75151900  0.19250900  0.24762000  1
  O  O63  1  0.75151900  0.30749100  0.74762000  1
