# generated using pymatgen
data_Hg2C3I7N9
_symmetry_space_group_name_H-M   'P 1'
_cell_length_a   8.79981683
_cell_length_b   8.79981683
_cell_length_c   17.63055735
_cell_angle_alpha   80.64756305
_cell_angle_beta   80.64756305
_cell_angle_gamma   93.14150904
_symmetry_Int_Tables_number   1
_chemical_formula_structural   Hg2C3I7N9
_chemical_formula_sum   'Hg4 C6 I14 N18'
_cell_volume   1324.56699245
_cell_formula_units_Z   2
loop_
 _symmetry_equiv_pos_site_id
 _symmetry_equiv_pos_as_xyz
  1  'x, y, z'
loop_
 _atom_site_type_symbol
 _atom_site_label
 _atom_site_symmetry_multiplicity
 _atom_site_fract_x
 _atom_site_fract_y
 _atom_site_fract_z
 _atom_site_occupancy
  Hg  Hg0  1  0.06402900  0.09734100  0.13309500  1
  Hg  Hg1  1  0.90265900  0.93597100  0.36690500  1
  Hg  Hg2  1  0.93597100  0.90265900  0.86690500  1
  Hg  Hg3  1  0.09734100  0.06402900  0.63309500  1
  C  C4  1  0.42350600  0.57649400  0.25000000  1
  C  C5  1  0.57649400  0.42350600  0.75000000  1
  C  C6  1  0.56930000  0.74918200  0.05231600  1
  C  C7  1  0.25081800  0.43070000  0.44768400  1
  C  C8  1  0.43070000  0.25081800  0.94768400  1
  C  C9  1  0.74918200  0.56930000  0.55231600  1
  I  I10  1  0.91439100  0.24404300  0.01663400  1
  I  I11  1  0.75595700  0.08560900  0.48336600  1
  I  I12  1  0.08560900  0.75595700  0.98336600  1
  I  I13  1  0.24404300  0.91439100  0.51663400  1
  I  I14  1  0.98163200  0.72480300  0.15283900  1
  I  I15  1  0.27519700  0.01836800  0.34716100  1
  I  I16  1  0.01836800  0.27519700  0.84716100  1
  I  I17  1  0.72480300  0.98163200  0.65283900  1
  I  I18  1  0.35024600  0.07041400  0.17522400  1
  I  I19  1  0.92958600  0.64975400  0.32477600  1
  I  I20  1  0.64975400  0.92958600  0.82477600  1
  I  I21  1  0.07041400  0.35024600  0.67522400  1
  I  I22  1  0.82629000  0.17371000  0.25000000  1
  I  I23  1  0.17371000  0.82629000  0.75000000  1
  N  N24  1  0.53089900  0.46910100  0.25000000  1
  N  N25  1  0.46910100  0.53089900  0.75000000  1
  N  N26  1  0.29398600  0.49083900  0.25934900  1
  N  N27  1  0.50916100  0.70601400  0.24065100  1
  N  N28  1  0.70601400  0.50916100  0.74065100  1
  N  N29  1  0.49083900  0.29398600  0.75934900  1
  N  N30  1  0.51426200  0.60212400  0.07975900  1
  N  N31  1  0.39787600  0.48573800  0.42024100  1
  N  N32  1  0.48573800  0.39787600  0.92024100  1
  N  N33  1  0.60212400  0.51426200  0.57975900  1
  N  N34  1  0.64901500  0.86163200  0.02139600  1
  N  N35  1  0.13836800  0.35098500  0.47860400  1
  N  N36  1  0.35098500  0.13836800  0.97860400  1
  N  N37  1  0.86163200  0.64901500  0.52139600  1
  N  N38  1  0.39213800  0.52770900  0.09219900  1
  N  N39  1  0.47229100  0.60786200  0.40780100  1
  N  N40  1  0.60786200  0.47229100  0.90780100  1
  N  N41  1  0.52770900  0.39213800  0.59219900  1
