# generated using pymatgen
data_AlH10C3N
_symmetry_space_group_name_H-M   'P 1'
_cell_length_a   5.96179199
_cell_length_b   10.73915600
_cell_length_c   10.37560348
_cell_angle_alpha   90.00000000
_cell_angle_beta   100.98640560
_cell_angle_gamma   90.00000000
_symmetry_Int_Tables_number   1
_chemical_formula_structural   AlH10C3N
_chemical_formula_sum   'Al4 H40 C12 N4'
_cell_volume   652.11911434
_cell_formula_units_Z   4
loop_
 _symmetry_equiv_pos_site_id
 _symmetry_equiv_pos_as_xyz
  1  'x, y, z'
loop_
 _atom_site_type_symbol
 _atom_site_label
 _atom_site_symmetry_multiplicity
 _atom_site_fract_x
 _atom_site_fract_y
 _atom_site_fract_z
 _atom_site_occupancy
  Al  Al0  1  0.22302400  0.55135300  0.52318900  1
  Al  Al1  1  0.72302400  0.94864700  0.02318900  1
  Al  Al2  1  0.77697600  0.44864700  0.47681100  1
  Al  Al3  1  0.27697600  0.05135300  0.97681100  1
  H  H4  1  0.42955900  0.46893500  0.60366400  1
  H  H5  1  0.92955900  0.03106500  0.10366400  1
  H  H6  1  0.57044100  0.53106500  0.39633600  1
  H  H7  1  0.07044100  0.96893500  0.89633600  1
  H  H8  1  0.25505300  0.69489900  0.48774300  1
  H  H9  1  0.75505300  0.80510100  0.98774300  1
  H  H10  1  0.74494700  0.30510100  0.51225700  1
  H  H11  1  0.24494700  0.19489900  0.01225700  1
  H  H12  1  0.19745700  0.28532100  0.44389000  1
  H  H13  1  0.69745700  0.21467900  0.94389000  1
  H  H14  1  0.80254300  0.71467900  0.55611000  1
  H  H15  1  0.30254300  0.78532100  0.05611000  1
  H  H16  1  0.26412300  0.34505300  0.29529400  1
  H  H17  1  0.76412300  0.15494700  0.79529400  1
  H  H18  1  0.73587700  0.65494700  0.70470600  1
  H  H19  1  0.23587700  0.84505300  0.20470600  1
  H  H20  1  0.99573700  0.27274400  0.29475800  1
  H  H21  1  0.49573700  0.22725600  0.79475800  1
  H  H22  1  0.00426300  0.72725600  0.70524200  1
  H  H23  1  0.50426300  0.77274400  0.20524200  1
  H  H24  1  0.13886900  0.54733900  0.21946600  1
  H  H25  1  0.63886900  0.95266100  0.71946600  1
  H  H26  1  0.86113100  0.45266100  0.78053400  1
  H  H27  1  0.36113100  0.04733900  0.28053400  1
  H  H28  1  0.91319200  0.62123500  0.27874200  1
  H  H29  1  0.41319200  0.87876500  0.77874200  1
  H  H30  1  0.08680800  0.37876500  0.72125800  1
  H  H31  1  0.58680800  0.12123500  0.22125800  1
  H  H32  1  0.76834000  0.53827500  0.06262600  1
  H  H33  1  0.26834000  0.96172500  0.56262600  1
  H  H34  1  0.23166000  0.46172500  0.93737400  1
  H  H35  1  0.73166000  0.03827500  0.43737400  1
  H  H36  1  0.64420300  0.44789000  0.17482200  1
  H  H37  1  0.14420300  0.05211000  0.67482200  1
  H  H38  1  0.35579700  0.55211000  0.82517800  1
  H  H39  1  0.85579700  0.94789000  0.32517800  1
  H  H40  1  0.87221600  0.38606700  0.10550900  1
  H  H41  1  0.37221600  0.11393300  0.60550900  1
  H  H42  1  0.12778400  0.61393300  0.89449100  1
  H  H43  1  0.62778400  0.88606700  0.39449100  1
  C  C44  1  0.12699700  0.33325100  0.35205200  1
  C  C45  1  0.62699700  0.16674900  0.85205200  1
  C  C46  1  0.87300300  0.66674900  0.64794800  1
  C  C47  1  0.37300300  0.83325100  0.14794800  1
  C  C48  1  0.97829100  0.53005400  0.25456200  1
  C  C49  1  0.47829100  0.96994600  0.75456200  1
  C  C50  1  0.02170900  0.46994600  0.74543800  1
  C  C51  1  0.52170900  0.03005400  0.24543800  1
  C  C52  1  0.80586600  0.47083400  0.14400600  1
  C  C53  1  0.30586600  0.02916600  0.64400600  1
  C  C54  1  0.19413400  0.52916600  0.85599400  1
  C  C55  1  0.69413400  0.97083400  0.35599400  1
  N  N56  1  0.03337600  0.45653000  0.37878100  1
  N  N57  1  0.53337600  0.04347000  0.87878100  1
  N  N58  1  0.96662400  0.54347000  0.62121900  1
  N  N59  1  0.46662400  0.95653000  0.12121900  1
