# generated using pymatgen
data_SrGa
_symmetry_space_group_name_H-M   'P 1'
_cell_length_a   12.59135400
_cell_length_b   12.59135400
_cell_length_c   12.59135400
_cell_angle_alpha   90.00000000
_cell_angle_beta   90.00000000
_cell_angle_gamma   90.00000000
_symmetry_Int_Tables_number   1
_chemical_formula_structural   SrGa
_chemical_formula_sum   'Sr32 Ga32'
_cell_volume   1996.26090815
_cell_formula_units_Z   32
loop_
 _symmetry_equiv_pos_site_id
 _symmetry_equiv_pos_as_xyz
  1  'x, y, z'
loop_
 _atom_site_type_symbol
 _atom_site_label
 _atom_site_symmetry_multiplicity
 _atom_site_fract_x
 _atom_site_fract_y
 _atom_site_fract_z
 _atom_site_occupancy
  Sr  Sr0  1  0.50785500  0.79834500  0.93989900  1
  Sr  Sr1  1  0.06010100  0.00785500  0.70165500  1
  Sr  Sr2  1  0.29834500  0.56010100  0.49214500  1
  Sr  Sr3  1  0.00785500  0.70165500  0.06010100  1
  Sr  Sr4  1  0.56010100  0.49214500  0.29834500  1
  Sr  Sr5  1  0.79834500  0.93989900  0.50785500  1
  Sr  Sr6  1  0.49214500  0.29834500  0.56010100  1
  Sr  Sr7  1  0.93989900  0.50785500  0.79834500  1
  Sr  Sr8  1  0.70165500  0.06010100  0.00785500  1
  Sr  Sr9  1  0.99214500  0.20165500  0.43989900  1
  Sr  Sr10  1  0.43989900  0.99214500  0.20165500  1
  Sr  Sr11  1  0.20165500  0.43989900  0.99214500  1
  Sr  Sr12  1  0.43651600  0.51957600  0.79123200  1
  Sr  Sr13  1  0.20876800  0.93651600  0.98042400  1
  Sr  Sr14  1  0.01957600  0.70876800  0.56348400  1
  Sr  Sr15  1  0.93651600  0.98042400  0.20876800  1
  Sr  Sr16  1  0.70876800  0.56348400  0.01957600  1
  Sr  Sr17  1  0.51957600  0.79123200  0.43651600  1
  Sr  Sr18  1  0.56348400  0.01957600  0.70876800  1
  Sr  Sr19  1  0.79123200  0.43651600  0.51957600  1
  Sr  Sr20  1  0.98042400  0.20876800  0.93651600  1
  Sr  Sr21  1  0.06348400  0.48042400  0.29123200  1
  Sr  Sr22  1  0.29123200  0.06348400  0.48042400  1
  Sr  Sr23  1  0.48042400  0.29123200  0.06348400  1
  Sr  Sr24  1  0.31347200  0.81347200  0.68652800  1
  Sr  Sr25  1  0.81347200  0.68652800  0.31347200  1
  Sr  Sr26  1  0.68652800  0.31347200  0.81347200  1
  Sr  Sr27  1  0.18652800  0.18652800  0.18652800  1
  Sr  Sr28  1  0.69421500  0.19421500  0.30578500  1
  Sr  Sr29  1  0.19421500  0.30578500  0.69421500  1
  Sr  Sr30  1  0.30578500  0.69421500  0.19421500  1
  Sr  Sr31  1  0.80578500  0.80578500  0.80578500  1
  Ga  Ga32  1  0.07364300  0.75324400  0.30989000  1
  Ga  Ga33  1  0.69011000  0.57364300  0.74675600  1
  Ga  Ga34  1  0.25324400  0.19011000  0.92635700  1
  Ga  Ga35  1  0.57364300  0.74675600  0.69011000  1
  Ga  Ga36  1  0.19011000  0.92635700  0.25324400  1
  Ga  Ga37  1  0.75324400  0.30989000  0.07364300  1
  Ga  Ga38  1  0.92635700  0.25324400  0.19011000  1
  Ga  Ga39  1  0.30989000  0.07364300  0.75324400  1
  Ga  Ga40  1  0.74675600  0.69011000  0.57364300  1
  Ga  Ga41  1  0.42635700  0.24675600  0.80989000  1
  Ga  Ga42  1  0.80989000  0.42635700  0.24675600  1
  Ga  Ga43  1  0.24675600  0.80989000  0.42635700  1
  Ga  Ga44  1  0.08112100  0.76335900  0.81817200  1
  Ga  Ga45  1  0.18182800  0.58112100  0.73664100  1
  Ga  Ga46  1  0.26335900  0.68182800  0.91887900  1
  Ga  Ga47  1  0.58112100  0.73664100  0.18182800  1
  Ga  Ga48  1  0.68182800  0.91887900  0.26335900  1
  Ga  Ga49  1  0.76335900  0.81817200  0.08112100  1
  Ga  Ga50  1  0.91887900  0.26335900  0.68182800  1
  Ga  Ga51  1  0.81817200  0.08112100  0.76335900  1
  Ga  Ga52  1  0.73664100  0.18182800  0.58112100  1
  Ga  Ga53  1  0.41887900  0.23664100  0.31817200  1
  Ga  Ga54  1  0.31817200  0.41887900  0.23664100  1
  Ga  Ga55  1  0.23664100  0.31817200  0.41887900  1
  Ga  Ga56  1  0.93406300  0.43406300  0.06593700  1
  Ga  Ga57  1  0.43406300  0.06593700  0.93406300  1
  Ga  Ga58  1  0.06593700  0.93406300  0.43406300  1
  Ga  Ga59  1  0.56593700  0.56593700  0.56593700  1
  Ga  Ga60  1  0.55258900  0.05258900  0.44741100  1
  Ga  Ga61  1  0.05258900  0.44741100  0.55258900  1
  Ga  Ga62  1  0.44741100  0.55258900  0.05258900  1
  Ga  Ga63  1  0.94741100  0.94741100  0.94741100  1
