# generated using pymatgen
data_Zn3P6H6O19
_symmetry_space_group_name_H-M   'P 1'
_cell_length_a   12.56004332
_cell_length_b   12.56004332
_cell_length_c   12.56004319
_cell_angle_alpha   115.70571874
_cell_angle_beta   115.70571874
_cell_angle_gamma   115.70571855
_symmetry_Int_Tables_number   1
_chemical_formula_structural   Zn3P6H6O19
_chemical_formula_sum   'Zn6 P12 H12 O38'
_cell_volume   1034.08847076
_cell_formula_units_Z   2
loop_
 _symmetry_equiv_pos_site_id
 _symmetry_equiv_pos_as_xyz
  1  'x, y, z'
loop_
 _atom_site_type_symbol
 _atom_site_label
 _atom_site_symmetry_multiplicity
 _atom_site_fract_x
 _atom_site_fract_y
 _atom_site_fract_z
 _atom_site_occupancy
  Zn  Zn0  1  0.15918600  0.58051200  0.92524500  1
  Zn  Zn1  1  0.58051200  0.92524500  0.15918600  1
  Zn  Zn2  1  0.92524500  0.15918600  0.58051200  1
  Zn  Zn3  1  0.84081400  0.41948800  0.07475500  1
  Zn  Zn4  1  0.41948800  0.07475500  0.84081400  1
  Zn  Zn5  1  0.07475500  0.84081400  0.41948800  1
  P  P6  1  0.88512500  0.93070400  0.26548800  1
  P  P7  1  0.93070400  0.26548800  0.88512500  1
  P  P8  1  0.26548800  0.88512500  0.93070400  1
  P  P9  1  0.11487500  0.06929600  0.73451200  1
  P  P10  1  0.06929600  0.73451200  0.11487500  1
  P  P11  1  0.73451200  0.11487500  0.06929600  1
  P  P12  1  0.49619900  0.24001800  0.70227800  1
  P  P13  1  0.24001800  0.70227800  0.49619900  1
  P  P14  1  0.70227800  0.49619900  0.24001800  1
  P  P15  1  0.50380100  0.75998200  0.29772200  1
  P  P16  1  0.75998200  0.29772200  0.50380100  1
  P  P17  1  0.29772200  0.50380100  0.75998200  1
  H  H18  1  0.92450300  0.24228600  0.19288100  1
  H  H19  1  0.24228600  0.19288100  0.92450300  1
  H  H20  1  0.19288100  0.92450300  0.24228600  1
  H  H21  1  0.07549700  0.75771400  0.80711900  1
  H  H22  1  0.75771400  0.80711900  0.07549700  1
  H  H23  1  0.80711900  0.07549700  0.75771400  1
  H  H24  1  0.57428400  0.40726400  0.77557100  1
  H  H25  1  0.40726400  0.77557100  0.57428400  1
  H  H26  1  0.77557100  0.57428400  0.40726400  1
  H  H27  1  0.42571600  0.59273600  0.22442900  1
  H  H28  1  0.59273600  0.22442900  0.42571600  1
  H  H29  1  0.22442900  0.42571600  0.59273600  1
  O  O30  1  0.81901900  0.99646100  0.31762200  1
  O  O31  1  0.99646100  0.31762200  0.81901900  1
  O  O32  1  0.31762200  0.81901900  0.99646100  1
  O  O33  1  0.18098100  0.00353900  0.68237800  1
  O  O34  1  0.00353900  0.68237800  0.18098100  1
  O  O35  1  0.68237800  0.18098100  0.00353900  1
  O  O36  1  0.89437300  0.83320500  0.30400400  1
  O  O37  1  0.83320500  0.30400400  0.89437300  1
  O  O38  1  0.30400400  0.89437300  0.83320500  1
  O  O39  1  0.10562700  0.16679500  0.69599600  1
  O  O40  1  0.16679500  0.69599600  0.10562700  1
  O  O41  1  0.69599600  0.10562700  0.16679500  1
  O  O42  1  0.07757200  0.10162900  0.37494100  1
  O  O43  1  0.10162900  0.37494100  0.07757200  1
  O  O44  1  0.37494100  0.07757200  0.10162900  1
  O  O45  1  0.92242800  0.89837100  0.62505900  1
  O  O46  1  0.89837100  0.62505900  0.92242800  1
  O  O47  1  0.62505900  0.92242800  0.89837100  1
  O  O48  1  0.56998300  0.27027900  0.85992200  1
  O  O49  1  0.27027900  0.85992200  0.56998300  1
  O  O50  1  0.85992200  0.56998300  0.27027900  1
  O  O51  1  0.43001700  0.72972100  0.14007800  1
  O  O52  1  0.72972100  0.14007800  0.43001700  1
  O  O53  1  0.14007800  0.43001700  0.72972100  1
  O  O54  1  0.28416100  0.08737300  0.53788800  1
  O  O55  1  0.08737300  0.53788800  0.28416100  1
  O  O56  1  0.53788800  0.28416100  0.08737300  1
  O  O57  1  0.71583900  0.91262700  0.46211200  1
  O  O58  1  0.91262700  0.46211200  0.71583900  1
  O  O59  1  0.46211200  0.71583900  0.91262700  1
  O  O60  1  0.52883000  0.16679900  0.60135500  1
  O  O61  1  0.16679900  0.60135500  0.52883000  1
  O  O62  1  0.60135500  0.52883000  0.16679900  1
  O  O63  1  0.47117000  0.83320100  0.39864500  1
  O  O64  1  0.83320100  0.39864500  0.47117000  1
  O  O65  1  0.39864500  0.47117000  0.83320100  1
  O  O66  1  0.29235800  0.29235800  0.29235800  1
  O  O67  1  0.70764200  0.70764200  0.70764200  1
