# generated using pymatgen
data_MgH22SO15
_symmetry_space_group_name_H-M   'P 1'
_cell_length_a   6.78214300
_cell_length_b   6.87808585
_cell_length_c   17.46256350
_cell_angle_alpha   92.21631063
_cell_angle_beta   89.36043198
_cell_angle_gamma   117.27133690
_symmetry_Int_Tables_number   1
_chemical_formula_structural   MgH22SO15
_chemical_formula_sum   'Mg2 H44 S2 O30'
_cell_volume   723.48994444
_cell_formula_units_Z   2
loop_
 _symmetry_equiv_pos_site_id
 _symmetry_equiv_pos_as_xyz
  1  'x, y, z'
loop_
 _atom_site_type_symbol
 _atom_site_label
 _atom_site_symmetry_multiplicity
 _atom_site_fract_x
 _atom_site_fract_y
 _atom_site_fract_z
 _atom_site_occupancy
  Mg  Mg0  1  0.00000000  0.00000000  0.00000000  1
  Mg  Mg1  1  0.00000000  0.00000000  0.50000000  1
  H  H2  1  0.55542500  0.76693100  0.05092500  1
  H  H3  1  0.44457500  0.23306900  0.94907500  1
  H  H4  1  0.56416800  0.81016300  0.96201600  1
  H  H5  1  0.43583200  0.18983700  0.03798400  1
  H  H6  1  0.11684700  0.40465000  0.07402400  1
  H  H7  1  0.88315300  0.59535000  0.92597600  1
  H  H8  1  0.85430800  0.26984700  0.07680000  1
  H  H9  1  0.14569200  0.73015300  0.92320000  1
  H  H10  1  0.04302700  0.95969500  0.15527000  1
  H  H11  1  0.95697300  0.04030500  0.84473000  1
  H  H12  1  0.13312400  0.80811900  0.11105200  1
  H  H13  1  0.86687600  0.19188100  0.88894800  1
  H  H14  1  0.30281600  0.12333700  0.38353300  1
  H  H15  1  0.69718400  0.87666300  0.61646700  1
  H  H16  1  0.07839000  0.08766000  0.34335500  1
  H  H17  1  0.92161000  0.91234000  0.65664500  1
  H  H18  1  0.77111100  0.24420600  0.52526200  1
  H  H19  1  0.22888900  0.75579400  0.47473800  1
  H  H20  1  0.71228800  0.13943800  0.44036400  1
  H  H21  1  0.28771200  0.86056200  0.55963600  1
  H  H22  1  0.80043900  0.66606200  0.39752300  1
  H  H23  1  0.19956100  0.33393800  0.60247700  1
  H  H24  1  0.59988300  0.68476000  0.43778800  1
  H  H25  1  0.40011700  0.31524000  0.56221200  1
  H  H26  1  0.28808300  0.59232200  0.35673300  1
  H  H27  1  0.71191700  0.40767800  0.64326700  1
  H  H28  1  0.23892000  0.44130200  0.42633200  1
  H  H29  1  0.76108000  0.55869800  0.57366800  1
  H  H30  1  0.55946900  0.12896000  0.15589100  1
  H  H31  1  0.44053100  0.87104000  0.84410900  1
  H  H32  1  0.58995700  0.36933200  0.14564000  1
  H  H33  1  0.41004300  0.63066800  0.85436000  1
  H  H34  1  0.53655900  0.04392200  0.31641400  1
  H  H35  1  0.46344100  0.95607800  0.68358600  1
  H  H36  1  0.65908300  0.29532300  0.33971300  1
  H  H37  1  0.34091700  0.70467700  0.66028700  1
  H  H38  1  0.74231300  0.58676900  0.26830800  1
  H  H39  1  0.25768700  0.41323100  0.73169200  1
  H  H40  1  0.97191700  0.58300000  0.28524600  1
  H  H41  1  0.02808300  0.41700000  0.71475400  1
  H  H42  1  0.06302900  0.25064500  0.24040200  1
  H  H43  1  0.93697100  0.74935500  0.75959800  1
  H  H44  1  0.83423900  0.03273400  0.23882800  1
  H  H45  1  0.16576100  0.96726600  0.76117200  1
  S  S46  1  0.40627800  0.68004500  0.20109400  1
  S  S47  1  0.59372200  0.31995500  0.79890600  1
  O  O48  1  0.65720100  0.82681800  0.00784200  1
  O  O49  1  0.34279900  0.17318200  0.99215800  1
  O  O50  1  0.98988800  0.26857400  0.05542500  1
  O  O51  1  0.01011200  0.73142600  0.94457500  1
  O  O52  1  0.04756300  0.88987800  0.10519700  1
  O  O53  1  0.95243700  0.11012200  0.89480300  1
  O  O54  1  0.15317800  0.11341300  0.39407000  1
  O  O55  1  0.84682200  0.88658700  0.60593000  1
  O  O56  1  0.80401500  0.15446500  0.48628300  1
  O  O57  1  0.19598500  0.84553500  0.51371700  1
  O  O58  1  0.75670100  0.71641000  0.44591000  1
  O  O59  1  0.24329900  0.28359000  0.55409000  1
  O  O60  1  0.31651200  0.66838900  0.12264600  1
  O  O61  1  0.68348800  0.33161100  0.87735400  1
  O  O62  1  0.21871800  0.56315500  0.25556300  1
  O  O63  1  0.78128200  0.43684500  0.74443700  1
  O  O64  1  0.53176400  0.91703800  0.22733300  1
  O  O65  1  0.46823600  0.08296200  0.77266700  1
  O  O66  1  0.55817100  0.57901600  0.20057400  1
  O  O67  1  0.44182900  0.42098400  0.79942600  1
  O  O68  1  0.31278700  0.59649100  0.41278000  1
  O  O69  1  0.68721300  0.40350900  0.58722000  1
  O  O70  1  0.60503800  0.24694100  0.11912000  1
  O  O71  1  0.39496200  0.75305900  0.88088000  1
  O  O72  1  0.56102000  0.14844600  0.36034000  1
  O  O73  1  0.43898000  0.85155400  0.63966000  1
  O  O74  1  0.82871500  0.55829700  0.30821100  1
  O  O75  1  0.17128500  0.44170300  0.69178900  1
  O  O76  1  0.99632200  0.09062400  0.24609000  1
  O  O77  1  0.00367800  0.90937600  0.75391000  1
