# generated using pymatgen
data_K2TcCl5O
_symmetry_space_group_name_H-M   'P 1'
_cell_length_a   7.00519800
_cell_length_b   10.19516800
_cell_length_c   13.57051800
_cell_angle_alpha   90.00000000
_cell_angle_beta   90.00000000
_cell_angle_gamma   90.00000000
_symmetry_Int_Tables_number   1
_chemical_formula_structural   K2TcCl5O
_chemical_formula_sum   'K8 Tc4 Cl20 O4'
_cell_volume   969.19513859
_cell_formula_units_Z   4
loop_
 _symmetry_equiv_pos_site_id
 _symmetry_equiv_pos_as_xyz
  1  'x, y, z'
loop_
 _atom_site_type_symbol
 _atom_site_label
 _atom_site_symmetry_multiplicity
 _atom_site_fract_x
 _atom_site_fract_y
 _atom_site_fract_z
 _atom_site_occupancy
  K  K0  1  0.16467500  0.00060200  0.14390000  1
  K  K1  1  0.33532500  0.49939800  0.64390000  1
  K  K2  1  0.83532500  0.50060200  0.85610000  1
  K  K3  1  0.66467500  0.99939800  0.35610000  1
  K  K4  1  0.83532500  0.99939800  0.85610000  1
  K  K5  1  0.66467500  0.50060200  0.35610000  1
  K  K6  1  0.16467500  0.49939800  0.14390000  1
  K  K7  1  0.33532500  0.00060200  0.64390000  1
  Tc  Tc8  1  0.66873900  0.75000000  0.09525100  1
  Tc  Tc9  1  0.83126100  0.75000000  0.59525100  1
  Tc  Tc10  1  0.33126100  0.25000000  0.90474900  1
  Tc  Tc11  1  0.16873900  0.25000000  0.40474900  1
  Cl  Cl12  1  0.89104900  0.75000000  0.24563200  1
  Cl  Cl13  1  0.60895100  0.75000000  0.74563200  1
  Cl  Cl14  1  0.10895100  0.25000000  0.75436800  1
  Cl  Cl15  1  0.39104900  0.25000000  0.25436800  1
  Cl  Cl16  1  0.68692500  0.51590100  0.10680300  1
  Cl  Cl17  1  0.81307500  0.98409900  0.60680300  1
  Cl  Cl18  1  0.31307500  0.01590100  0.89319700  1
  Cl  Cl19  1  0.18692500  0.48409900  0.39319700  1
  Cl  Cl20  1  0.31307500  0.48409900  0.89319700  1
  Cl  Cl21  1  0.18692500  0.01590100  0.39319700  1
  Cl  Cl22  1  0.68692500  0.98409900  0.10680300  1
  Cl  Cl23  1  0.81307500  0.51590100  0.60680300  1
  Cl  Cl24  1  0.42486700  0.75000000  0.21929400  1
  Cl  Cl25  1  0.07513300  0.75000000  0.71929400  1
  Cl  Cl26  1  0.57513300  0.25000000  0.78070600  1
  Cl  Cl27  1  0.92486700  0.25000000  0.28070600  1
  Cl  Cl28  1  0.96163400  0.75000000  0.00344700  1
  Cl  Cl29  1  0.53836600  0.75000000  0.50344800  1
  Cl  Cl30  1  0.03836600  0.25000000  0.99655200  1
  Cl  Cl31  1  0.46163400  0.25000000  0.49655300  1
  O  O32  1  0.52035900  0.75000000  0.99934500  1
  O  O33  1  0.97964100  0.75000000  0.49934500  1
  O  O34  1  0.47964100  0.25000000  0.00065500  1
  O  O35  1  0.02035900  0.25000000  0.50065500  1
