# generated using pymatgen
data_K2LuSi4O11
_symmetry_space_group_name_H-M   'P 1'
_cell_length_a   8.62504600
_cell_length_b   11.68512100
_cell_length_c   11.83010728
_cell_angle_alpha   68.01074026
_cell_angle_beta   90.00000000
_cell_angle_gamma   90.00000000
_symmetry_Int_Tables_number   1
_chemical_formula_structural   K2LuSi4O11
_chemical_formula_sum   'K8 Lu4 Si16 O44'
_cell_volume   1105.55934578
_cell_formula_units_Z   4
loop_
 _symmetry_equiv_pos_site_id
 _symmetry_equiv_pos_as_xyz
  1  'x, y, z'
loop_
 _atom_site_type_symbol
 _atom_site_label
 _atom_site_symmetry_multiplicity
 _atom_site_fract_x
 _atom_site_fract_y
 _atom_site_fract_z
 _atom_site_occupancy
  K  K0  1  0.75000000  0.44412400  0.94096000  1
  K  K1  1  0.25000000  0.55587600  0.05904000  1
  K  K2  1  0.75000000  0.01054200  0.97469900  1
  K  K3  1  0.25000000  0.98945800  0.02530100  1
  K  K4  1  0.25000000  0.08774300  0.41917000  1
  K  K5  1  0.75000000  0.91225700  0.58083000  1
  K  K6  1  0.25000000  0.47104100  0.46184800  1
  K  K7  1  0.75000000  0.52895900  0.53815200  1
  Lu  Lu8  1  0.00264000  0.28861500  0.79156000  1
  Lu  Lu9  1  0.50264000  0.71138500  0.20844000  1
  Lu  Lu10  1  0.99736000  0.71138500  0.20844000  1
  Lu  Lu11  1  0.49736000  0.28861500  0.79156000  1
  Si  Si12  1  0.93690400  0.39190000  0.26774700  1
  Si  Si13  1  0.43690400  0.60810000  0.73225300  1
  Si  Si14  1  0.06309600  0.60810000  0.73225300  1
  Si  Si15  1  0.56309600  0.39190000  0.26774700  1
  Si  Si16  1  0.92854200  0.98808600  0.25714200  1
  Si  Si17  1  0.42854200  0.01191400  0.74285800  1
  Si  Si18  1  0.07145800  0.01191400  0.74285800  1
  Si  Si19  1  0.57145800  0.98808600  0.25714200  1
  Si  Si20  1  0.92885000  0.22031200  0.53357400  1
  Si  Si21  1  0.42885000  0.77968800  0.46642600  1
  Si  Si22  1  0.07115000  0.77968800  0.46642600  1
  Si  Si23  1  0.57115000  0.22031200  0.53357400  1
  Si  Si24  1  0.06841100  0.24800400  0.11611500  1
  Si  Si25  1  0.56841100  0.75199600  0.88388500  1
  Si  Si26  1  0.93158900  0.75199600  0.88388500  1
  Si  Si27  1  0.43158900  0.24800400  0.11611500  1
  O  O28  1  0.75000000  0.25708900  0.83165500  1
  O  O29  1  0.25000000  0.74291100  0.16834500  1
  O  O30  1  0.75000000  0.17021800  0.53024800  1
  O  O31  1  0.25000000  0.82978200  0.46975200  1
  O  O32  1  0.75000000  0.04100500  0.25051400  1
  O  O33  1  0.25000000  0.95899500  0.74948600  1
  O  O34  1  0.75000000  0.40863700  0.27970300  1
  O  O35  1  0.25000000  0.59136300  0.72029700  1
  O  O36  1  0.96274700  0.34817200  0.15091600  1
  O  O37  1  0.46274700  0.65182800  0.84908400  1
  O  O38  1  0.03725300  0.65182800  0.84908400  1
  O  O39  1  0.53725300  0.34817200  0.15091600  1
  O  O40  1  0.94356300  0.31528800  0.60110400  1
  O  O41  1  0.44356300  0.68471200  0.39889600  1
  O  O42  1  0.05643700  0.68471200  0.39889600  1
  O  O43  1  0.55643700  0.31528800  0.60110400  1
  O  O44  1  0.96845700  0.48539200  0.74960000  1
  O  O45  1  0.46845700  0.51460800  0.25040000  1
  O  O46  1  0.03154300  0.51460800  0.25040000  1
  O  O47  1  0.53154300  0.48539200  0.74960000  1
  O  O48  1  0.02732800  0.25363000  0.98334000  1
  O  O49  1  0.52732800  0.74637000  0.01666000  1
  O  O50  1  0.97267200  0.74637000  0.01666000  1
  O  O51  1  0.47267200  0.25363000  0.98334000  1
  O  O52  1  0.99650700  0.27654800  0.39240400  1
  O  O53  1  0.49650700  0.72345200  0.60759600  1
  O  O54  1  0.00349300  0.72345200  0.60759600  1
  O  O55  1  0.50349300  0.27654800  0.39240400  1
  O  O56  1  0.03417300  0.09280700  0.59651500  1
  O  O57  1  0.53417300  0.90719300  0.40348500  1
  O  O58  1  0.96582700  0.90719300  0.40348500  1
  O  O59  1  0.46582700  0.09280700  0.59651500  1
  O  O60  1  0.04576500  0.10840800  0.22207700  1
  O  O61  1  0.54576500  0.89159200  0.77792300  1
  O  O62  1  0.95423500  0.89159200  0.77792300  1
  O  O63  1  0.45423500  0.10840800  0.22207700  1
  O  O64  1  0.25000000  0.32521900  0.74146800  1
  O  O65  1  0.75000000  0.67478100  0.25853200  1
  O  O66  1  0.25000000  0.28599000  0.13289000  1
  O  O67  1  0.75000000  0.71401000  0.86711000  1
  O  O68  1  0.04432800  0.09049000  0.82653800  1
  O  O69  1  0.54432800  0.90951000  0.17346200  1
  O  O70  1  0.95567200  0.90951000  0.17346200  1
  O  O71  1  0.45567200  0.09049000  0.82653800  1
