# generated using pymatgen
data_Cs3FeMo4O15
_symmetry_space_group_name_H-M   'P 1'
_cell_length_a   10.32267000
_cell_length_b   11.77034300
_cell_length_c   18.99871757
_cell_angle_alpha   52.66910121
_cell_angle_beta   90.00000000
_cell_angle_gamma   90.00000000
_symmetry_Int_Tables_number   1
_chemical_formula_structural   Cs3FeMo4O15
_chemical_formula_sum   'Cs12 Fe4 Mo16 O60'
_cell_volume   1835.49259204
_cell_formula_units_Z   4
loop_
 _symmetry_equiv_pos_site_id
 _symmetry_equiv_pos_as_xyz
  1  'x, y, z'
loop_
 _atom_site_type_symbol
 _atom_site_label
 _atom_site_symmetry_multiplicity
 _atom_site_fract_x
 _atom_site_fract_y
 _atom_site_fract_z
 _atom_site_occupancy
  Cs  Cs0  1  0.82020500  0.31759200  0.93997500  1
  Cs  Cs1  1  0.67979500  0.31759200  0.43997500  1
  Cs  Cs2  1  0.17979500  0.68240800  0.06002500  1
  Cs  Cs3  1  0.32020500  0.68240800  0.56002500  1
  Cs  Cs4  1  0.87703200  0.80530300  0.18562900  1
  Cs  Cs5  1  0.62296800  0.80530300  0.68562900  1
  Cs  Cs6  1  0.12296800  0.19469700  0.81437100  1
  Cs  Cs7  1  0.37703200  0.19469700  0.31437100  1
  Cs  Cs8  1  0.38750400  0.69526100  0.31777400  1
  Cs  Cs9  1  0.11249600  0.69526100  0.81777400  1
  Cs  Cs10  1  0.61249600  0.30473900  0.68222600  1
  Cs  Cs11  1  0.88750400  0.30473900  0.18222600  1
  Fe  Fe12  1  0.00000000  0.50000000  0.50000000  1
  Fe  Fe13  1  0.50000000  0.50000000  0.00000000  1
  Fe  Fe14  1  0.00000000  0.00000000  0.50000000  1
  Fe  Fe15  1  0.50000000  0.00000000  0.00000000  1
  Mo  Mo16  1  0.72898800  0.66390200  0.44305100  1
  Mo  Mo17  1  0.77101200  0.66390200  0.94305100  1
  Mo  Mo18  1  0.27101200  0.33609800  0.55694900  1
  Mo  Mo19  1  0.22898800  0.33609800  0.05694900  1
  Mo  Mo20  1  0.70463200  0.97650500  0.43158700  1
  Mo  Mo21  1  0.79536800  0.97650500  0.93158700  1
  Mo  Mo22  1  0.29536800  0.02349500  0.56841300  1
  Mo  Mo23  1  0.20463200  0.02349500  0.06841300  1
  Mo  Mo24  1  0.06497600  0.38048000  0.37664400  1
  Mo  Mo25  1  0.43502400  0.38048000  0.87664400  1
  Mo  Mo26  1  0.93502400  0.61952000  0.62335600  1
  Mo  Mo27  1  0.56497600  0.61952000  0.12335600  1
  Mo  Mo28  1  0.02056000  0.89871800  0.35910600  1
  Mo  Mo29  1  0.47944000  0.89871800  0.85910600  1
  Mo  Mo30  1  0.97944000  0.10128200  0.64089400  1
  Mo  Mo31  1  0.52056000  0.10128200  0.14089400  1
  O  O32  1  0.57309200  0.62998300  0.48764600  1
  O  O33  1  0.92690800  0.62998300  0.98764600  1
  O  O34  1  0.42690800  0.37001700  0.51235400  1
  O  O35  1  0.07309200  0.37001700  0.01235400  1
  O  O36  1  0.70262200  0.68709100  0.34394600  1
  O  O37  1  0.79737800  0.68709100  0.84394600  1
  O  O38  1  0.29737800  0.31290900  0.65605400  1
  O  O39  1  0.20262200  0.31290900  0.15605400  1
  O  O40  1  0.80644200  0.48411900  0.51416600  1
  O  O41  1  0.69355800  0.48411900  0.01416600  1
  O  O42  1  0.19355800  0.51588100  0.48583400  1
  O  O43  1  0.30644200  0.51588100  0.98583400  1
  O  O44  1  0.75454300  0.87024800  0.39174300  1
  O  O45  1  0.74545700  0.87024800  0.89174300  1
  O  O46  1  0.24545700  0.12975200  0.60825700  1
  O  O47  1  0.25454300  0.12975200  0.10825700  1
  O  O48  1  0.95325800  0.71007900  0.42607500  1
  O  O49  1  0.54674200  0.71007900  0.92607500  1
  O  O50  1  0.04674200  0.28992100  0.57392500  1
  O  O51  1  0.45325800  0.28992100  0.07392500  1
  O  O52  1  0.77582200  0.65327200  0.57758900  1
  O  O53  1  0.72417800  0.65327200  0.07758900  1
  O  O54  1  0.22417800  0.34672800  0.42241100  1
  O  O55  1  0.27582200  0.34672800  0.92241100  1
  O  O56  1  0.55302700  0.91076000  0.48071300  1
  O  O57  1  0.94697300  0.91076000  0.98071300  1
  O  O58  1  0.44697300  0.08924000  0.51928700  1
  O  O59  1  0.05302700  0.08924000  0.01928700  1
  O  O60  1  0.68278100  0.15730200  0.33999500  1
  O  O61  1  0.81721900  0.15730200  0.83999500  1
  O  O62  1  0.31721900  0.84269800  0.66000500  1
  O  O63  1  0.18278100  0.84269800  0.16000500  1
  O  O64  1  0.80444300  0.97003100  0.51394100  1
  O  O65  1  0.69555700  0.97003100  0.01394100  1
  O  O66  1  0.19555700  0.02996900  0.48605900  1
  O  O67  1  0.30444300  0.02996900  0.98605900  1
  O  O68  1  0.07382000  0.46087300  0.26264300  1
  O  O69  1  0.42618000  0.46087300  0.76264300  1
  O  O70  1  0.92618000  0.53912700  0.73735700  1
  O  O71  1  0.57382000  0.53912700  0.23735700  1
  O  O72  1  0.97351100  0.21372800  0.43254100  1
  O  O73  1  0.52648900  0.21372800  0.93254100  1
  O  O74  1  0.02648900  0.78627200  0.56745900  1
  O  O75  1  0.47351100  0.78627200  0.06745900  1
  O  O76  1  0.98193000  0.50130600  0.39144600  1
  O  O77  1  0.51807000  0.50130600  0.89144600  1
  O  O78  1  0.01807000  0.49869400  0.60855400  1
  O  O79  1  0.48193000  0.49869400  0.10855400  1
  O  O80  1  0.18932900  0.87879400  0.36897000  1
  O  O81  1  0.31067100  0.87879400  0.86897000  1
  O  O82  1  0.81067100  0.12120600  0.63103000  1
  O  O83  1  0.68932900  0.12120600  0.13103000  1
  O  O84  1  0.97915700  0.98895300  0.24795600  1
  O  O85  1  0.52084300  0.98895300  0.74795600  1
  O  O86  1  0.02084300  0.01104700  0.75204400  1
  O  O87  1  0.47915700  0.01104700  0.25204400  1
  O  O88  1  0.97544700  0.01651500  0.38888300  1
  O  O89  1  0.52455300  0.01651500  0.88888300  1
  O  O90  1  0.02455300  0.98348500  0.61111700  1
  O  O91  1  0.47544700  0.98348500  0.11111700  1
