# generated using pymatgen
data_MgPd3
_symmetry_space_group_name_H-M   'P 1'
_cell_length_a   5.65184668
_cell_length_b   5.65184668
_cell_length_c   4.55773200
_cell_angle_alpha   90.00000000
_cell_angle_beta   90.00000000
_cell_angle_gamma   120.00000797
_symmetry_Int_Tables_number   1
_chemical_formula_structural   MgPd3
_chemical_formula_sum   'Mg2 Pd6'
_cell_volume   126.08404276
_cell_formula_units_Z   2
loop_
 _symmetry_equiv_pos_site_id
 _symmetry_equiv_pos_as_xyz
  1  'x, y, z'
loop_
 _atom_site_type_symbol
 _atom_site_label
 _atom_site_symmetry_multiplicity
 _atom_site_fract_x
 _atom_site_fract_y
 _atom_site_fract_z
 _atom_site_occupancy
  Mg  Mg0  1  0.66666700  0.33333300  0.25000000  1
  Mg  Mg1  1  0.33333300  0.66666700  0.75000000  1
  Pd  Pd2  1  0.16660000  0.33320100  0.25000000  1
  Pd  Pd3  1  0.16660000  0.83340000  0.25000000  1
  Pd  Pd4  1  0.66679900  0.83340000  0.25000000  1
  Pd  Pd5  1  0.33320100  0.16660000  0.75000000  1
  Pd  Pd6  1  0.83340000  0.16660000  0.75000000  1
  Pd  Pd7  1  0.83340000  0.66679900  0.75000000  1
