# generated using pymatgen
data_Tb2HfS5
_symmetry_space_group_name_H-M   'P 1'
_cell_length_a   7.27112600
_cell_length_b   7.76936300
_cell_length_c   11.57353500
_cell_angle_alpha   90.00000000
_cell_angle_beta   90.00000000
_cell_angle_gamma   90.00000000
_symmetry_Int_Tables_number   1
_chemical_formula_structural   Tb2HfS5
_chemical_formula_sum   'Tb8 Hf4 S20'
_cell_volume   653.81233959
_cell_formula_units_Z   4
loop_
 _symmetry_equiv_pos_site_id
 _symmetry_equiv_pos_as_xyz
  1  'x, y, z'
loop_
 _atom_site_type_symbol
 _atom_site_label
 _atom_site_symmetry_multiplicity
 _atom_site_fract_x
 _atom_site_fract_y
 _atom_site_fract_z
 _atom_site_occupancy
  Tb  Tb0  1  0.52443500  0.00241300  0.32185400  1
  Tb  Tb1  1  0.97556500  0.49758700  0.82185400  1
  Tb  Tb2  1  0.47556500  0.50241300  0.67814600  1
  Tb  Tb3  1  0.02443500  0.99758700  0.17814600  1
  Tb  Tb4  1  0.47556500  0.99758700  0.67814600  1
  Tb  Tb5  1  0.02443500  0.50241300  0.17814600  1
  Tb  Tb6  1  0.52443500  0.49758700  0.32185400  1
  Tb  Tb7  1  0.97556500  0.00241300  0.82185400  1
  Hf  Hf8  1  0.07543000  0.75000000  0.49391800  1
  Hf  Hf9  1  0.42457000  0.75000000  0.99391800  1
  Hf  Hf10  1  0.92457000  0.25000000  0.50608200  1
  Hf  Hf11  1  0.57543000  0.25000000  0.00608200  1
  S  S12  1  0.83916500  0.53608200  0.59292200  1
  S  S13  1  0.66083500  0.96391800  0.09292200  1
  S  S14  1  0.16083500  0.03608200  0.40707800  1
  S  S15  1  0.33916500  0.46391800  0.90707800  1
  S  S16  1  0.16083500  0.46391800  0.40707800  1
  S  S17  1  0.33916500  0.03608200  0.90707800  1
  S  S18  1  0.83916500  0.96391800  0.59292200  1
  S  S19  1  0.66083500  0.53608200  0.09292200  1
  S  S20  1  0.83361500  0.75000000  0.31890600  1
  S  S21  1  0.66638500  0.75000000  0.81890600  1
  S  S22  1  0.16638500  0.25000000  0.68109400  1
  S  S23  1  0.33361500  0.25000000  0.18109400  1
  S  S24  1  0.44613700  0.75000000  0.49646600  1
  S  S25  1  0.05386300  0.75000000  0.99646600  1
  S  S26  1  0.55386300  0.25000000  0.50353400  1
  S  S27  1  0.94613700  0.25000000  0.00353400  1
  S  S28  1  0.18768200  0.75000000  0.70698000  1
  S  S29  1  0.31231800  0.75000000  0.20698000  1
  S  S30  1  0.81231800  0.25000000  0.29302000  1
  S  S31  1  0.68768200  0.25000000  0.79302000  1
