# generated using pymatgen
data_MgPb2
_symmetry_space_group_name_H-M   'P 1'
_cell_length_a   6.84150538
_cell_length_b   6.84150538
_cell_length_c   7.77866924
_cell_angle_alpha   75.44281318
_cell_angle_beta   75.44281318
_cell_angle_gamma   29.56210443
_symmetry_Int_Tables_number   1
_chemical_formula_structural   MgPb2
_chemical_formula_sum   'Mg2 Pb4'
_cell_volume   173.45460511
_cell_formula_units_Z   2
loop_
 _symmetry_equiv_pos_site_id
 _symmetry_equiv_pos_as_xyz
  1  'x, y, z'
loop_
 _atom_site_type_symbol
 _atom_site_label
 _atom_site_symmetry_multiplicity
 _atom_site_fract_x
 _atom_site_fract_y
 _atom_site_fract_z
 _atom_site_occupancy
  Mg  Mg0  1  0.35422600  0.35422600  0.03223000  1
  Mg  Mg1  1  0.64577400  0.64577400  0.96777000  1
  Pb  Pb2  1  0.02625200  0.02625200  0.72452800  1
  Pb  Pb3  1  0.30709100  0.30709100  0.65055600  1
  Pb  Pb4  1  0.69290900  0.69290900  0.34944400  1
  Pb  Pb5  1  0.97374800  0.97374800  0.27547200  1
