# generated using pymatgen
data_RhN3Cl6O
_symmetry_space_group_name_H-M   'P 1'
_cell_length_a   8.25544200
_cell_length_b   13.90115300
_cell_length_c   14.84866300
_cell_angle_alpha   90.00000000
_cell_angle_beta   90.00000000
_cell_angle_gamma   90.00000000
_symmetry_Int_Tables_number   1
_chemical_formula_structural   RhN3Cl6O
_chemical_formula_sum   'Rh4 N12 Cl24 O4'
_cell_volume   1704.03497618
_cell_formula_units_Z   4
loop_
 _symmetry_equiv_pos_site_id
 _symmetry_equiv_pos_as_xyz
  1  'x, y, z'
loop_
 _atom_site_type_symbol
 _atom_site_label
 _atom_site_symmetry_multiplicity
 _atom_site_fract_x
 _atom_site_fract_y
 _atom_site_fract_z
 _atom_site_occupancy
  Rh  Rh0  1  0.25000000  0.34751600  0.50823400  1
  Rh  Rh1  1  0.25000000  0.84751600  0.99176600  1
  Rh  Rh2  1  0.75000000  0.65248400  0.49176600  1
  Rh  Rh3  1  0.75000000  0.15248400  0.00823400  1
  N  N4  1  0.25000000  0.39707600  0.00226300  1
  N  N5  1  0.25000000  0.89707600  0.49773700  1
  N  N6  1  0.75000000  0.60292400  0.99773700  1
  N  N7  1  0.75000000  0.10292400  0.50226300  1
  N  N8  1  0.25000000  0.18264100  0.20920600  1
  N  N9  1  0.25000000  0.68264100  0.29079400  1
  N  N10  1  0.75000000  0.81735900  0.79079400  1
  N  N11  1  0.75000000  0.31735900  0.70920600  1
  N  N12  1  0.25000000  0.56815800  0.75261700  1
  N  N13  1  0.25000000  0.06815800  0.74738300  1
  N  N14  1  0.75000000  0.43184200  0.24738300  1
  N  N15  1  0.75000000  0.93184200  0.25261700  1
  Cl  Cl16  1  0.25000000  0.36255900  0.89912400  1
  Cl  Cl17  1  0.25000000  0.86255900  0.60087600  1
  Cl  Cl18  1  0.75000000  0.63744100  0.10087600  1
  Cl  Cl19  1  0.75000000  0.13744100  0.39912400  1
  Cl  Cl20  1  0.25000000  0.10714100  0.29066200  1
  Cl  Cl21  1  0.25000000  0.60714100  0.20933800  1
  Cl  Cl22  1  0.75000000  0.89285900  0.70933800  1
  Cl  Cl23  1  0.75000000  0.39285900  0.79066200  1
  Cl  Cl24  1  0.47234300  0.37452100  0.58469300  1
  Cl  Cl25  1  0.02765700  0.87452100  0.91530700  1
  Cl  Cl26  1  0.97234300  0.62547900  0.41530700  1
  Cl  Cl27  1  0.52765700  0.12547900  0.08469300  1
  Cl  Cl28  1  0.52765700  0.62547900  0.41530700  1
  Cl  Cl29  1  0.97234300  0.12547900  0.08469300  1
  Cl  Cl30  1  0.02765700  0.37452100  0.58469300  1
  Cl  Cl31  1  0.47234300  0.87452100  0.91530700  1
  Cl  Cl32  1  0.42044400  0.12863500  0.71578000  1
  Cl  Cl33  1  0.07955600  0.62863500  0.78422000  1
  Cl  Cl34  1  0.92044400  0.87136500  0.28422000  1
  Cl  Cl35  1  0.57955600  0.37136500  0.21578000  1
  Cl  Cl36  1  0.57955600  0.87136500  0.28422000  1
  Cl  Cl37  1  0.92044400  0.37136500  0.21578000  1
  Cl  Cl38  1  0.07955600  0.12863500  0.71578000  1
  Cl  Cl39  1  0.42044400  0.62863500  0.78422000  1
  O  O40  1  0.25000000  0.30661900  0.40094500  1
  O  O41  1  0.25000000  0.80661900  0.09905500  1
  O  O42  1  0.75000000  0.69338100  0.59905500  1
  O  O43  1  0.75000000  0.19338100  0.90094500  1
