# generated using pymatgen
data_Mn8Si6ClO24
_symmetry_space_group_name_H-M   'P 1'
_cell_length_a   7.94921057
_cell_length_b   13.00800000
_cell_length_c   13.08687921
_cell_angle_alpha   119.80081635
_cell_angle_beta   103.73270041
_cell_angle_gamma   90.00000000
_symmetry_Int_Tables_number   1
_chemical_formula_structural   Mn8Si6ClO24
_chemical_formula_sum   'Mn16 Si12 Cl2 O48'
_cell_volume   1129.47790687
_cell_formula_units_Z   2
loop_
 _symmetry_equiv_pos_site_id
 _symmetry_equiv_pos_as_xyz
  1  'x, y, z'
loop_
 _atom_site_type_symbol
 _atom_site_label
 _atom_site_symmetry_multiplicity
 _atom_site_fract_x
 _atom_site_fract_y
 _atom_site_fract_z
 _atom_site_occupancy
  Mn  Mn0  1  0.00000000  0.88358700  0.00000000  1
  Mn  Mn1  1  0.00000000  0.11641300  0.00000000  1
  Mn  Mn2  1  0.00000000  0.65550400  0.00000000  1
  Mn  Mn3  1  0.00000000  0.34449600  0.00000000  1
  Mn  Mn4  1  0.98569500  0.87262800  0.74525700  1
  Mn  Mn5  1  0.01430500  0.12737200  0.25474300  1
  Mn  Mn6  1  0.99679500  0.62651300  0.75628900  1
  Mn  Mn7  1  0.99679500  0.12977600  0.75628900  1
  Mn  Mn8  1  0.00320500  0.37348700  0.24371100  1
  Mn  Mn9  1  0.00320500  0.87022400  0.24371100  1
  Mn  Mn10  1  0.00021200  0.37925100  0.75850200  1
  Mn  Mn11  1  0.99978800  0.62074900  0.24149800  1
  Mn  Mn12  1  0.95093500  0.63859600  0.50036700  1
  Mn  Mn13  1  0.95093500  0.86177100  0.50036700  1
  Mn  Mn14  1  0.04906500  0.36140400  0.49963300  1
  Mn  Mn15  1  0.04906500  0.13822900  0.49963300  1
  Si  Si16  1  0.64078700  0.41571800  0.59225900  1
  Si  Si17  1  0.64078700  0.17654100  0.59225900  1
  Si  Si18  1  0.35921300  0.58428200  0.40774100  1
  Si  Si19  1  0.35921300  0.82345900  0.40774100  1
  Si  Si20  1  0.62921000  0.42210100  0.35539700  1
  Si  Si21  1  0.62921000  0.93329600  0.35539700  1
  Si  Si22  1  0.37079000  0.57789900  0.64460300  1
  Si  Si23  1  0.37079000  0.06670400  0.64460300  1
  Si  Si24  1  0.63082700  0.18137000  0.12270800  1
  Si  Si25  1  0.63082700  0.94133700  0.12270800  1
  Si  Si26  1  0.36917300  0.81863000  0.87729200  1
  Si  Si27  1  0.36917300  0.05866300  0.87729200  1
  Cl  Cl28  1  0.80836200  0.44647900  0.89295900  1
  Cl  Cl29  1  0.19163800  0.55352100  0.10704100  1
  O  O30  1  0.50000000  0.83109100  0.00000000  1
  O  O31  1  0.50000000  0.16890900  0.00000000  1
  O  O32  1  0.41804500  0.93467900  0.86935800  1
  O  O33  1  0.58195500  0.06532100  0.13064200  1
  O  O34  1  0.41778200  0.70455300  0.76801700  1
  O  O35  1  0.41778200  0.06346400  0.76801700  1
  O  O36  1  0.58221800  0.29544700  0.23198300  1
  O  O37  1  0.58221800  0.93653600  0.23198300  1
  O  O38  1  0.50968900  0.49566600  0.66956100  1
  O  O39  1  0.50968900  0.17389500  0.66956100  1
  O  O40  1  0.49031100  0.50433400  0.33043900  1
  O  O41  1  0.49031100  0.82610500  0.33043900  1
  O  O42  1  0.41118900  0.59928400  0.54124400  1
  O  O43  1  0.41118900  0.94196100  0.54124400  1
  O  O44  1  0.58881100  0.40071600  0.45875600  1
  O  O45  1  0.58881100  0.05803900  0.45875600  1
  O  O46  1  0.40431600  0.71416100  0.42832200  1
  O  O47  1  0.59568400  0.28583900  0.57167800  1
  O  O48  1  0.85221600  0.45964900  0.65504300  1
  O  O49  1  0.85221600  0.19539400  0.65504300  1
  O  O50  1  0.14778400  0.54035100  0.34495700  1
  O  O51  1  0.14778400  0.80460600  0.34495700  1
  O  O52  1  0.83821900  0.47299300  0.39281100  1
  O  O53  1  0.83821900  0.91981800  0.39281100  1
  O  O54  1  0.16178100  0.52700700  0.60718900  1
  O  O55  1  0.16178100  0.08018200  0.60718900  1
  O  O56  1  0.84307200  0.20098400  0.14164900  1
  O  O57  1  0.84307200  0.94066500  0.14164900  1
  O  O58  1  0.15692800  0.79901600  0.85835100  1
  O  O59  1  0.15692800  0.05933500  0.85835100  1
  O  O60  1  0.89647900  0.94403500  0.88806900  1
  O  O61  1  0.10352100  0.05596500  0.11193100  1
  O  O62  1  0.87831100  0.71709200  0.90422500  1
  O  O63  1  0.87831100  0.18713300  0.90422500  1
  O  O64  1  0.12168900  0.28290800  0.09577500  1
  O  O65  1  0.12168900  0.81286700  0.09577500  1
  O  O66  1  0.88694600  0.68549700  0.65131800  1
  O  O67  1  0.88694600  0.96582000  0.65131800  1
  O  O68  1  0.11305400  0.31450300  0.34868200  1
  O  O69  1  0.11305400  0.03418000  0.34868200  1
  O  O70  1  0.88814800  0.68643200  0.37286500  1
  O  O71  1  0.11185200  0.31356800  0.62713500  1
  O  O72  1  0.92383100  0.20083500  0.40167100  1
  O  O73  1  0.07616900  0.79916500  0.59832900  1
  O  O74  1  0.90081200  0.43298800  0.13732600  1
  O  O75  1  0.90081200  0.70433800  0.13732600  1
  O  O76  1  0.09918800  0.56701200  0.86267400  1
  O  O77  1  0.09918800  0.29566200  0.86267400  1
