# generated using pymatgen
data_Mn2As2O9
_symmetry_space_group_name_H-M   'P 1'
_cell_length_a   14.33451500
_cell_length_b   6.68402800
_cell_length_c   9.61199761
_cell_angle_alpha   51.98643289
_cell_angle_beta   90.00000000
_cell_angle_gamma   90.00000000
_symmetry_Int_Tables_number   1
_chemical_formula_structural   Mn2As2O9
_chemical_formula_sum   'Mn8 As8 O36'
_cell_volume   725.58232933
_cell_formula_units_Z   4
loop_
 _symmetry_equiv_pos_site_id
 _symmetry_equiv_pos_as_xyz
  1  'x, y, z'
loop_
 _atom_site_type_symbol
 _atom_site_label
 _atom_site_symmetry_multiplicity
 _atom_site_fract_x
 _atom_site_fract_y
 _atom_site_fract_z
 _atom_site_occupancy
  Mn  Mn0  1  0.38904400  0.16480100  0.09275800  1
  Mn  Mn1  1  0.11095600  0.16480100  0.59275800  1
  Mn  Mn2  1  0.61095600  0.83519900  0.90724200  1
  Mn  Mn3  1  0.88904400  0.83519900  0.40724200  1
  Mn  Mn4  1  0.74737300  0.31890600  0.13543300  1
  Mn  Mn5  1  0.75262700  0.31890600  0.63543300  1
  Mn  Mn6  1  0.25262700  0.68109400  0.86456700  1
  Mn  Mn7  1  0.24737300  0.68109400  0.36456700  1
  As  As8  1  0.57832400  0.40079000  0.84053800  1
  As  As9  1  0.92167600  0.40079000  0.34053800  1
  As  As10  1  0.42167600  0.59921000  0.15946200  1
  As  As11  1  0.07832400  0.59921000  0.65946200  1
  As  As12  1  0.68577600  0.89456000  0.54670200  1
  As  As13  1  0.81422400  0.89456000  0.04670200  1
  As  As14  1  0.31422400  0.10544000  0.45329800  1
  As  As15  1  0.18577600  0.10544000  0.95329800  1
  O  O16  1  0.62650800  0.46420900  0.97423100  1
  O  O17  1  0.87349200  0.46420900  0.47423100  1
  O  O18  1  0.37349200  0.53579100  0.02576900  1
  O  O19  1  0.12650800  0.53579100  0.52576900  1
  O  O20  1  0.46627000  0.30985700  0.87281100  1
  O  O21  1  0.03373000  0.30985700  0.37281100  1
  O  O22  1  0.53373000  0.69014300  0.12718900  1
  O  O23  1  0.96627000  0.69014300  0.62718900  1
  O  O24  1  0.65214900  0.19807900  0.83874200  1
  O  O25  1  0.84785100  0.19807900  0.33874200  1
  O  O26  1  0.34785100  0.80192100  0.16125800  1
  O  O27  1  0.15214900  0.80192100  0.66125800  1
  O  O28  1  0.58265600  0.70301700  0.62612800  1
  O  O29  1  0.91734400  0.70301700  0.12612800  1
  O  O30  1  0.41734400  0.29698300  0.37387200  1
  O  O31  1  0.08265600  0.29698300  0.87387200  1
  O  O32  1  0.70603200  0.96767800  0.68839600  1
  O  O33  1  0.79396800  0.96767800  0.18839600  1
  O  O34  1  0.29396800  0.03232200  0.31160400  1
  O  O35  1  0.20603200  0.03232200  0.81160400  1
  O  O36  1  0.65809500  0.13656300  0.33585000  1
  O  O37  1  0.84190500  0.13656300  0.83585000  1
  O  O38  1  0.34190500  0.86343700  0.66415000  1
  O  O39  1  0.15809500  0.86343700  0.16415000  1
  O  O40  1  0.77419000  0.69913600  0.56895800  1
  O  O41  1  0.72581000  0.69913600  0.06895800  1
  O  O42  1  0.22581000  0.30086400  0.43104200  1
  O  O43  1  0.27419000  0.30086400  0.93104200  1
  O  O44  1  0.82660700  0.47347200  0.95899500  1
  O  O45  1  0.67339300  0.47347200  0.45899500  1
  O  O46  1  0.17339300  0.52652800  0.04100500  1
  O  O47  1  0.32660700  0.52652800  0.54100500  1
  O  O48  1  0.48543900  0.03373700  0.23125500  1
  O  O49  1  0.01456100  0.03373700  0.73125500  1
  O  O50  1  0.51456100  0.96626300  0.76874500  1
  O  O51  1  0.98543900  0.96626300  0.26874500  1
