# generated using pymatgen
data_K2PH4S3O2
_symmetry_space_group_name_H-M   'P 1'
_cell_length_a   11.43624400
_cell_length_b   8.09371500
_cell_length_c   11.72663038
_cell_angle_alpha   50.65023113
_cell_angle_beta   90.00000000
_cell_angle_gamma   90.00000000
_symmetry_Int_Tables_number   1
_chemical_formula_structural   K2PH4S3O2
_chemical_formula_sum   'K8 P4 H16 S12 O8'
_cell_volume   839.35717465
_cell_formula_units_Z   4
loop_
 _symmetry_equiv_pos_site_id
 _symmetry_equiv_pos_as_xyz
  1  'x, y, z'
loop_
 _atom_site_type_symbol
 _atom_site_label
 _atom_site_symmetry_multiplicity
 _atom_site_fract_x
 _atom_site_fract_y
 _atom_site_fract_z
 _atom_site_occupancy
  K  K0  1  0.27412900  0.98775300  0.40701000  1
  K  K1  1  0.22587100  0.98775300  0.90701000  1
  K  K2  1  0.72587100  0.01224700  0.59299000  1
  K  K3  1  0.77412900  0.01224700  0.09299000  1
  K  K4  1  0.34236600  0.48025600  0.96798100  1
  K  K5  1  0.15763400  0.48025600  0.46798100  1
  K  K6  1  0.65763400  0.51974400  0.03201900  1
  K  K7  1  0.84236600  0.51974400  0.53201900  1
  P  P8  1  0.03320200  0.35421700  0.11460300  1
  P  P9  1  0.46679800  0.35421700  0.61460300  1
  P  P10  1  0.96679800  0.64578300  0.88539700  1
  P  P11  1  0.53320200  0.64578300  0.38539700  1
  H  H12  1  0.51283800  0.15019800  0.28918400  1
  H  H13  1  0.98716200  0.15019800  0.78918400  1
  H  H14  1  0.48716200  0.84980200  0.71081600  1
  H  H15  1  0.01283800  0.84980200  0.21081600  1
  H  H16  1  0.53057800  0.65818400  0.71986600  1
  H  H17  1  0.96942200  0.65818400  0.21986600  1
  H  H18  1  0.46942200  0.34181600  0.28013400  1
  H  H19  1  0.03057800  0.34181600  0.78013400  1
  H  H20  1  0.05011500  0.76424600  0.57565400  1
  H  H21  1  0.44988500  0.76424600  0.07565400  1
  H  H22  1  0.94988500  0.23575400  0.42434600  1
  H  H23  1  0.55011500  0.23575400  0.92434600  1
  H  H24  1  0.00114400  0.89360400  0.41401800  1
  H  H25  1  0.49885600  0.89360400  0.91401800  1
  H  H26  1  0.99885600  0.10639600  0.58598200  1
  H  H27  1  0.50114400  0.10639600  0.08598200  1
  S  S28  1  0.85710100  0.52771000  0.81645200  1
  S  S29  1  0.64289900  0.52771000  0.31645200  1
  S  S30  1  0.14289900  0.47229000  0.18354800  1
  S  S31  1  0.35710100  0.47229000  0.68354800  1
  S  S32  1  0.11880600  0.16056500  0.08704200  1
  S  S33  1  0.38119400  0.16056500  0.58704200  1
  S  S34  1  0.88119400  0.83943500  0.91295800  1
  S  S35  1  0.61880600  0.83943500  0.41295800  1
  S  S36  1  0.88877700  0.20633300  0.24563200  1
  S  S37  1  0.61122300  0.20633300  0.74563200  1
  S  S38  1  0.11122300  0.79366700  0.75436800  1
  S  S39  1  0.38877700  0.79366700  0.25436800  1
  O  O40  1  0.45753000  0.27250100  0.23646800  1
  O  O41  1  0.04247000  0.27250100  0.73646800  1
  O  O42  1  0.54247000  0.72749900  0.76353200  1
  O  O43  1  0.95753000  0.72749900  0.26353200  1
  O  O44  1  0.05166700  0.77115900  0.48849700  1
  O  O45  1  0.44833300  0.77115900  0.98849700  1
  O  O46  1  0.94833300  0.22884100  0.51150300  1
  O  O47  1  0.55166700  0.22884100  0.01150300  1
