# generated using pymatgen
data_Zn4P3C3N3O13
_symmetry_space_group_name_H-M   'P 1'
_cell_length_a   15.40884400
_cell_length_b   7.73949300
_cell_length_c   7.74850842
_cell_angle_alpha   87.17276938
_cell_angle_beta   90.00000000
_cell_angle_gamma   90.00000000
_symmetry_Int_Tables_number   1
_chemical_formula_structural   Zn4P3C3N3O13
_chemical_formula_sum   'Zn8 P6 C6 N6 O26'
_cell_volume   922.93632186
_cell_formula_units_Z   2
loop_
 _symmetry_equiv_pos_site_id
 _symmetry_equiv_pos_as_xyz
  1  'x, y, z'
loop_
 _atom_site_type_symbol
 _atom_site_label
 _atom_site_symmetry_multiplicity
 _atom_site_fract_x
 _atom_site_fract_y
 _atom_site_fract_z
 _atom_site_occupancy
  Zn  Zn0  1  0.70129200  0.19711600  0.09391900  1
  Zn  Zn1  1  0.20129200  0.80288400  0.90608100  1
  Zn  Zn2  1  0.70643200  0.91740200  0.78452500  1
  Zn  Zn3  1  0.20643200  0.08259800  0.21547500  1
  Zn  Zn4  1  0.54125700  0.19738100  0.80635800  1
  Zn  Zn5  1  0.04125700  0.80261900  0.19364200  1
  Zn  Zn6  1  0.56344600  0.87342500  0.10388500  1
  Zn  Zn7  1  0.06344600  0.12657500  0.89611500  1
  P  P8  1  0.61697600  0.07961400  0.44409800  1
  P  P9  1  0.11697600  0.92038600  0.55590200  1
  P  P10  1  0.87542900  0.99683900  0.01428500  1
  P  P11  1  0.37542900  0.00316100  0.98571500  1
  P  P12  1  0.63919600  0.54443900  0.91316000  1
  P  P13  1  0.13919600  0.45556100  0.08684000  1
  C  C14  1  0.92827500  0.57549800  0.78263500  1
  C  C15  1  0.42827500  0.42450200  0.21736500  1
  C  C16  1  0.41592100  0.77601400  0.55119800  1
  C  C17  1  0.91592100  0.22398600  0.44880200  1
  C  C18  1  0.75220400  0.63487200  0.36687000  1
  C  C19  1  0.25220400  0.36512800  0.63313000  1
  N  N20  1  0.90155400  0.51740000  0.91539600  1
  N  N21  1  0.40155400  0.48260000  0.08460400  1
  N  N22  1  0.39433700  0.92068200  0.52518200  1
  N  N23  1  0.89433700  0.07931800  0.47481800  1
  N  N24  1  0.68421600  0.58927200  0.42120200  1
  N  N25  1  0.18421600  0.41072800  0.57879800  1
  O  O26  1  0.62783600  0.04592100  0.94521700  1
  O  O27  1  0.12783600  0.95407900  0.05478300  1
  O  O28  1  0.71322200  0.41954800  0.96938400  1
  O  O29  1  0.21322200  0.58045200  0.03061600  1
  O  O30  1  0.64201600  0.22782500  0.31298900  1
  O  O31  1  0.14201600  0.77217500  0.68701100  1
  O  O32  1  0.80900600  0.07397400  0.13779800  1
  O  O33  1  0.30900600  0.92602600  0.86220200  1
  O  O34  1  0.69737900  0.02095500  0.55100100  1
  O  O35  1  0.19737900  0.97904500  0.44899900  1
  O  O36  1  0.67095600  0.67690400  0.77188900  1
  O  O37  1  0.17095600  0.32309600  0.22811100  1
  O  O38  1  0.82793100  0.93149300  0.85363700  1
  O  O39  1  0.32793100  0.06850700  0.14636300  1
  O  O40  1  0.54460300  0.14042500  0.56433000  1
  O  O41  1  0.04460300  0.85957500  0.43567000  1
  O  O42  1  0.92392800  0.84583700  0.10771100  1
  O  O43  1  0.42392800  0.15416300  0.89228900  1
  O  O44  1  0.56169600  0.44231000  0.84289200  1
  O  O45  1  0.06169600  0.55769000  0.15710800  1
  O  O46  1  0.60855100  0.64146600  0.07211200  1
  O  O47  1  0.10855100  0.35853400  0.92788800  1
  O  O48  1  0.58405800  0.92334400  0.34486400  1
  O  O49  1  0.08405800  0.07665600  0.65513600  1
  O  O50  1  0.94018300  0.13914000  0.94927400  1
  O  O51  1  0.44018300  0.86086000  0.05072600  1
