# generated using pymatgen
data_KNa2Tb(SiO3)8
_symmetry_space_group_name_H-M   'P 1'
_cell_length_a   14.03390848
_cell_length_b   14.03390848
_cell_length_c   6.64893981
_cell_angle_alpha   89.62990111
_cell_angle_beta   89.62990111
_cell_angle_gamma   60.98324666
_symmetry_Int_Tables_number   1
_chemical_formula_structural   KNa2Tb(SiO3)8
_chemical_formula_sum   'K2 Na4 Tb2 Si16 O48'
_cell_volume   1145.10766863
_cell_formula_units_Z   2
loop_
 _symmetry_equiv_pos_site_id
 _symmetry_equiv_pos_as_xyz
  1  'x, y, z'
loop_
 _atom_site_type_symbol
 _atom_site_label
 _atom_site_symmetry_multiplicity
 _atom_site_fract_x
 _atom_site_fract_y
 _atom_site_fract_z
 _atom_site_occupancy
  K  K0  1  0.00000000  0.50000000  0.00000000  1
  K  K1  1  0.50000000  0.00000000  0.00000000  1
  Na  Na2  1  0.25673800  0.74326200  0.00000000  1
  Na  Na3  1  0.74326200  0.25673800  0.00000000  1
  Na  Na4  1  0.89108000  0.10892000  0.50000000  1
  Na  Na5  1  0.10892000  0.89108000  0.50000000  1
  Tb  Tb6  1  0.50000000  0.50000000  0.00000000  1
  Tb  Tb7  1  0.00000000  0.00000000  0.00000000  1
  Si  Si8  1  0.25013100  0.52396000  0.23296700  1
  Si  Si9  1  0.52396000  0.25013100  0.23296700  1
  Si  Si10  1  0.74986900  0.47604000  0.76703300  1
  Si  Si11  1  0.47604000  0.74986900  0.76703300  1
  Si  Si12  1  0.11189800  0.11189800  0.39991700  1
  Si  Si13  1  0.88810200  0.88810200  0.60008300  1
  Si  Si14  1  0.97044100  0.25049200  0.76497600  1
  Si  Si15  1  0.25049200  0.97044100  0.76497600  1
  Si  Si16  1  0.02955900  0.74950800  0.23502400  1
  Si  Si17  1  0.74950800  0.02955900  0.23502400  1
  Si  Si18  1  0.31565200  0.31565200  0.98533700  1
  Si  Si19  1  0.68434800  0.68434800  0.01466300  1
  Si  Si20  1  0.39048500  0.39048500  0.60128400  1
  Si  Si21  1  0.60951500  0.60951500  0.39871600  1
  Si  Si22  1  0.18211300  0.18211300  0.01338300  1
  Si  Si23  1  0.81788700  0.81788700  0.98661700  1
  O  O24  1  0.28832800  0.47489700  0.45888200  1
  O  O25  1  0.47489700  0.28832800  0.45888200  1
  O  O26  1  0.71167200  0.52510300  0.54111800  1
  O  O27  1  0.52510300  0.71167200  0.54111800  1
  O  O28  1  0.06326600  0.25568400  0.91036900  1
  O  O29  1  0.25568400  0.06326600  0.91036900  1
  O  O30  1  0.93673400  0.74431600  0.08963100  1
  O  O31  1  0.74431600  0.93673400  0.08963100  1
  O  O32  1  0.44691000  0.44691000  0.72368700  1
  O  O33  1  0.55309000  0.55309000  0.27631300  1
  O  O34  1  0.24841600  0.24841600  0.98597800  1
  O  O35  1  0.75158400  0.75158400  0.01402200  1
  O  O36  1  0.92984700  0.16822400  0.84893400  1
  O  O37  1  0.16822400  0.92984700  0.84893400  1
  O  O38  1  0.07015300  0.83177600  0.15106600  1
  O  O39  1  0.83177600  0.07015300  0.15106600  1
  O  O40  1  0.12289700  0.62215600  0.24957500  1
  O  O41  1  0.62215600  0.12289700  0.24957500  1
  O  O42  1  0.87710300  0.37784400  0.75042500  1
  O  O43  1  0.37784400  0.87710300  0.75042500  1
  O  O44  1  0.33588000  0.33588000  0.75357900  1
  O  O45  1  0.66412000  0.66412000  0.24642100  1
  O  O46  1  0.23706200  0.43002100  0.10115600  1
  O  O47  1  0.43002100  0.23706200  0.10115600  1
  O  O48  1  0.76293800  0.56997900  0.89884400  1
  O  O49  1  0.56997900  0.76293800  0.89884400  1
  O  O50  1  0.05263600  0.05263600  0.28988400  1
  O  O51  1  0.94736400  0.94736400  0.71011600  1
  O  O52  1  0.16629600  0.16629600  0.25073000  1
  O  O53  1  0.83370400  0.83370400  0.74927000  1
  O  O54  1  0.32685300  0.56344800  0.12434400  1
  O  O55  1  0.56344800  0.32685300  0.12434400  1
  O  O56  1  0.67314700  0.43655200  0.87565600  1
  O  O57  1  0.43655200  0.67314700  0.87565600  1
  O  O58  1  0.02347800  0.21257800  0.53951100  1
  O  O59  1  0.21257800  0.02347800  0.53951100  1
  O  O60  1  0.97652200  0.78742200  0.46048900  1
  O  O61  1  0.78742200  0.97652200  0.46048900  1
  O  O62  1  0.22875800  0.70578800  0.61658900  1
  O  O63  1  0.70578800  0.22875800  0.61658900  1
  O  O64  1  0.77124200  0.29421200  0.38341100  1
  O  O65  1  0.29421200  0.77124200  0.38341100  1
  O  O66  1  0.02998900  0.51011900  0.55307300  1
  O  O67  1  0.51011900  0.02998900  0.55307300  1
  O  O68  1  0.97001100  0.48988100  0.44692700  1
  O  O69  1  0.48988100  0.97001100  0.44692700  1
  O  O70  1  0.31101800  0.68898200  0.50000000  1
  O  O71  1  0.68898200  0.31101800  0.50000000  1
