# generated using pymatgen
data_Co5P4H12(O8F)2
_symmetry_space_group_name_H-M   'P 1'
_cell_length_a   8.64218700
_cell_length_b   9.97801500
_cell_length_c   10.26868921
_cell_angle_alpha   90.00000000
_cell_angle_beta   114.88528708
_cell_angle_gamma   90.00000000
_symmetry_Int_Tables_number   1
_chemical_formula_structural   Co5P4H12(O8F)2
_chemical_formula_sum   'Co10 P8 H24 O32 F4'
_cell_volume   803.27256218
_cell_formula_units_Z   2
loop_
 _symmetry_equiv_pos_site_id
 _symmetry_equiv_pos_as_xyz
  1  'x, y, z'
loop_
 _atom_site_type_symbol
 _atom_site_label
 _atom_site_symmetry_multiplicity
 _atom_site_fract_x
 _atom_site_fract_y
 _atom_site_fract_z
 _atom_site_occupancy
  Co  Co0  1  0.05247300  0.41992300  0.36083000  1
  Co  Co1  1  0.69164300  0.58007700  0.63917000  1
  Co  Co2  1  0.55247300  0.08007700  0.36083000  1
  Co  Co3  1  0.19164300  0.91992300  0.63917000  1
  Co  Co4  1  0.06759000  0.57456700  0.64781800  1
  Co  Co5  1  0.41977200  0.42543300  0.35218200  1
  Co  Co6  1  0.56759000  0.92543300  0.64781800  1
  Co  Co7  1  0.91977200  0.07456700  0.35218200  1
  Co  Co8  1  0.04786700  0.50000000  0.00000000  1
  Co  Co9  1  0.54786700  0.00000000  0.00000000  1
  P  P10  1  0.82469800  0.31449100  0.54070400  1
  P  P11  1  0.28399400  0.68550900  0.45929600  1
  P  P12  1  0.32469800  0.18550900  0.54070400  1
  P  P13  1  0.78399400  0.81449100  0.45929600  1
  P  P14  1  0.79382700  0.27078600  0.07219100  1
  P  P15  1  0.72163600  0.72921400  0.92780900  1
  P  P16  1  0.29382700  0.22921400  0.07219100  1
  P  P17  1  0.22163600  0.77078600  0.92780900  1
  H  H18  1  0.85509600  0.58636400  0.15641300  1
  H  H19  1  0.69868400  0.41363600  0.84358700  1
  H  H20  1  0.35509600  0.91363600  0.15641300  1
  H  H21  1  0.19868400  0.08636400  0.84358700  1
  H  H22  1  0.76656100  0.57627400  0.26978400  1
  H  H23  1  0.49677700  0.42372600  0.73021600  1
  H  H24  1  0.26656100  0.92372600  0.26978400  1
  H  H25  1  0.99677700  0.07627400  0.73021600  1
  H  H26  1  0.02890900  0.02885300  0.16199400  1
  H  H27  1  0.86691500  0.97114700  0.83800600  1
  H  H28  1  0.52890900  0.47114700  0.16199400  1
  H  H29  1  0.36691500  0.52885300  0.83800600  1
  H  H30  1  0.90047900  0.91133100  0.14148600  1
  H  H31  1  0.75899300  0.08866900  0.85851400  1
  H  H32  1  0.40047900  0.58866900  0.14148600  1
  H  H33  1  0.25899300  0.41133100  0.85851400  1
  H  H34  1  0.65201000  0.33649500  0.07798400  1
  H  H35  1  0.57402600  0.66350500  0.92201600  1
  H  H36  1  0.15201000  0.16350500  0.07798400  1
  H  H37  1  0.07402600  0.83649500  0.92201600  1
  H  H38  1  0.88436800  0.27589300  0.68574400  1
  H  H39  1  0.19862500  0.72410700  0.31425600  1
  H  H40  1  0.38436800  0.22410700  0.68574400  1
  H  H41  1  0.69862500  0.77589300  0.31425600  1
  O  O42  1  0.96872200  0.39425000  0.52602000  1
  O  O43  1  0.44270200  0.60575000  0.47398000  1
  O  O44  1  0.46872200  0.10575000  0.52602000  1
  O  O45  1  0.94270200  0.89425000  0.47398000  1
  O  O46  1  0.84710000  0.53468700  0.23804400  1
  O  O47  1  0.60905600  0.46531300  0.76195600  1
  O  O48  1  0.34710000  0.96531200  0.23804400  1
  O  O49  1  0.10905600  0.03468700  0.76195600  1
  O  O50  1  0.92555700  0.24962600  0.23074100  1
  O  O51  1  0.69481500  0.75037400  0.76925900  1
  O  O52  1  0.42555700  0.25037400  0.23074100  1
  O  O53  1  0.19481500  0.74962600  0.76925900  1
  O  O54  1  0.15700100  0.59711400  0.49094400  1
  O  O55  1  0.66605800  0.40288600  0.50905600  1
  O  O56  1  0.65700100  0.90288600  0.49094400  1
  O  O57  1  0.16605800  0.09711400  0.50905600  1
  O  O58  1  0.28150400  0.31545500  0.44987100  1
  O  O59  1  0.83163400  0.68454500  0.55012900  1
  O  O60  1  0.78150400  0.18454500  0.44987100  1
  O  O61  1  0.33163400  0.81545500  0.55012900  1
  O  O62  1  0.86073500  0.35906500  0.98494400  1
  O  O63  1  0.87579200  0.64093500  0.01505600  1
  O  O64  1  0.36073500  0.14093500  0.98494400  1
  O  O65  1  0.37579200  0.85906500  0.01505600  1
  O  O66  1  0.72488900  0.13854300  0.99207800  1
  O  O67  1  0.73281100  0.86145700  0.00792200  1
  O  O68  1  0.22488900  0.36145700  0.99207800  1
  O  O69  1  0.23281100  0.63854300  0.00792200  1
  O  O70  1  0.00128300  0.96094900  0.21723300  1
  O  O71  1  0.78405100  0.03905100  0.78276700  1
  O  O72  1  0.50128300  0.53905100  0.21723300  1
  O  O73  1  0.28405100  0.46094900  0.78276700  1
  F  F74  1  0.16747500  0.47825700  0.22332400  1
  F  F75  1  0.94415100  0.52174300  0.77667600  1
  F  F76  1  0.66747500  0.02174300  0.22332400  1
  F  F77  1  0.44415100  0.97825700  0.77667600  1
