# generated using pymatgen
data_BaNaAlMo6(H13O17)2
_symmetry_space_group_name_H-M   'P 1'
_cell_length_a   13.32409511
_cell_length_b   13.32409511
_cell_length_c   11.32175377
_cell_angle_alpha   84.87903803
_cell_angle_beta   84.87903803
_cell_angle_gamma   51.41233286
_symmetry_Int_Tables_number   1
_chemical_formula_structural   BaNaAlMo6(H13O17)2
_chemical_formula_sum   'Ba2 Na2 Al2 Mo12 H52 O68'
_cell_volume   1563.37308320
_cell_formula_units_Z   2
loop_
 _symmetry_equiv_pos_site_id
 _symmetry_equiv_pos_as_xyz
  1  'x, y, z'
loop_
 _atom_site_type_symbol
 _atom_site_label
 _atom_site_symmetry_multiplicity
 _atom_site_fract_x
 _atom_site_fract_y
 _atom_site_fract_z
 _atom_site_occupancy
  Ba  Ba0  1  0.34520000  0.65480000  0.25000000  1
  Ba  Ba1  1  0.65480000  0.34520000  0.75000000  1
  Na  Na2  1  0.95751800  0.04248200  0.25000000  1
  Na  Na3  1  0.04248200  0.95751800  0.75000000  1
  Al  Al4  1  0.00000000  0.50000000  0.00000000  1
  Al  Al5  1  0.50000000  0.00000000  0.50000000  1
  Mo  Mo6  1  0.96620800  0.67160700  0.22037100  1
  Mo  Mo7  1  0.32839300  0.03379200  0.27962900  1
  Mo  Mo8  1  0.03379200  0.32839300  0.77962900  1
  Mo  Mo9  1  0.67160700  0.96620800  0.72037100  1
  Mo  Mo10  1  0.83203500  0.52528100  0.24894400  1
  Mo  Mo11  1  0.47471900  0.16796500  0.25105600  1
  Mo  Mo12  1  0.16796500  0.47471900  0.75105600  1
  Mo  Mo13  1  0.52528100  0.83203500  0.74894400  1
  Mo  Mo14  1  0.86538400  0.35100800  0.02967200  1
  Mo  Mo15  1  0.64899200  0.13461600  0.47032800  1
  Mo  Mo16  1  0.13461600  0.64899200  0.97032800  1
  Mo  Mo17  1  0.35100800  0.86538400  0.52967200  1
  H  H18  1  0.80958000  0.56685700  0.87360400  1
  H  H19  1  0.43314300  0.19042000  0.62639600  1
  H  H20  1  0.19042000  0.43314300  0.12639600  1
  H  H21  1  0.56685700  0.80958000  0.37360400  1
  H  H22  1  0.22155600  0.28881500  0.93000400  1
  H  H23  1  0.71118500  0.77844400  0.56999600  1
  H  H24  1  0.77844400  0.71118500  0.06999600  1
  H  H25  1  0.28881500  0.22155600  0.43000400  1
  H  H26  1  0.92808300  0.69256900  0.84928800  1
  H  H27  1  0.30743100  0.07191700  0.65071200  1
  H  H28  1  0.07191700  0.30743100  0.15071200  1
  H  H29  1  0.69256900  0.92808300  0.34928800  1
  H  H30  1  0.21409700  0.93225400  0.15238300  1
  H  H31  1  0.06774600  0.78590300  0.34761700  1
  H  H32  1  0.78590300  0.06774600  0.84761700  1
  H  H33  1  0.93225400  0.21409700  0.65238300  1
  H  H34  1  0.14885900  0.93172500  0.04567000  1
  H  H35  1  0.06827500  0.85114100  0.45433000  1
  H  H36  1  0.85114100  0.06827500  0.95433000  1
  H  H37  1  0.93172500  0.14885900  0.54567000  1
  H  H38  1  0.56602300  0.33969100  0.19439100  1
  H  H39  1  0.66030900  0.43397700  0.30560900  1
  H  H40  1  0.43397700  0.66030900  0.80560900  1
  H  H41  1  0.33969100  0.56602300  0.69439100  1
  H  H42  1  0.50969300  0.39592000  0.06959500  1
  H  H43  1  0.60408000  0.49030700  0.43040500  1
  H  H44  1  0.49030700  0.60408000  0.93040500  1
  H  H45  1  0.39592000  0.50969300  0.56959500  1
  H  H46  1  0.25368000  0.52102000  0.45966500  1
  H  H47  1  0.47898000  0.74632000  0.04033500  1
  H  H48  1  0.74632000  0.47898000  0.54033500  1
  H  H49  1  0.52102000  0.25368000  0.95966500  1
  H  H50  1  0.39189000  0.40697300  0.41383000  1
  H  H51  1  0.59302700  0.60811000  0.08617000  1
  H  H52  1  0.60811000  0.59302700  0.58617000  1
  H  H53  1  0.40697300  0.39189000  0.91383000  1
  H  H54  1  0.77507200  0.04351100  0.12767300  1
  H  H55  1  0.95648900  0.22492800  0.37232700  1
  H  H56  1  0.22492800  0.95648900  0.87232700  1
  H  H57  1  0.04351100  0.77507200  0.62767300  1
  H  H58  1  0.90787000  0.91563400  0.08879200  1
  H  H59  1  0.08436600  0.09213000  0.41120800  1
  H  H60  1  0.09213000  0.08436600  0.91120800  1
  H  H61  1  0.91563400  0.90787000  0.58879200  1
  H  H62  1  0.58171000  0.89155600  0.09945300  1
  H  H63  1  0.10844400  0.41829000  0.40054700  1
  H  H64  1  0.41829000  0.10844400  0.90054700  1
  H  H65  1  0.89155600  0.58171000  0.59945300  1
  H  H66  1  0.60798000  0.87053700  0.96223600  1
  H  H67  1  0.12946300  0.39202000  0.53776400  1
  H  H68  1  0.39202000  0.12946300  0.03776400  1
  H  H69  1  0.87053700  0.60798000  0.46223600  1
  O  O70  1  0.89012300  0.49045800  0.90951000  1
  O  O71  1  0.50954200  0.10987700  0.59049000  1
  O  O72  1  0.10987700  0.50954200  0.09049000  1
  O  O73  1  0.49045800  0.89012300  0.40951000  1
  O  O74  1  0.13552600  0.36751100  0.89987300  1
  O  O75  1  0.63248900  0.86447400  0.60012700  1
  O  O76  1  0.86447400  0.63248900  0.10012700  1
  O  O77  1  0.36751100  0.13552600  0.39987300  1
  O  O78  1  0.00589500  0.61327700  0.88649100  1
  O  O79  1  0.38672300  0.99410500  0.61350900  1
  O  O80  1  0.99410500  0.38672300  0.11350900  1
  O  O81  1  0.61327700  0.00589500  0.38649100  1
  O  O82  1  0.98054800  0.75433700  0.07500800  1
  O  O83  1  0.24566300  0.01945200  0.42499200  1
  O  O84  1  0.01945200  0.24566300  0.92499200  1
  O  O85  1  0.75433700  0.98054800  0.57500800  1
  O  O86  1  0.82224500  0.80869400  0.27766400  1
  O  O87  1  0.19130600  0.17775500  0.22233600  1
  O  O88  1  0.17775500  0.19130600  0.72233600  1
  O  O89  1  0.80869400  0.82224500  0.77766400  1
  O  O90  1  0.08757600  0.64666200  0.29870500  1
  O  O91  1  0.35333800  0.91242400  0.20129500  1
  O  O92  1  0.91242400  0.35333800  0.70129500  1
  O  O93  1  0.64666200  0.08757600  0.79870500  1
  O  O94  1  0.96125800  0.53846300  0.30521400  1
  O  O95  1  0.46153700  0.03874200  0.19478600  1
  O  O96  1  0.03874200  0.46153700  0.69478600  1
  O  O97  1  0.53846300  0.96125800  0.80521400  1
  O  O98  1  0.69337200  0.66671700  0.30540700  1
  O  O99  1  0.33328300  0.30662800  0.19459300  1
  O  O100  1  0.30662800  0.33328300  0.69459300  1
  O  O101  1  0.66671700  0.69337200  0.80540700  1
  O  O102  1  0.86671600  0.40057300  0.34906300  1
  O  O103  1  0.59942700  0.13328400  0.15093700  1
  O  O104  1  0.13328400  0.59942700  0.65093700  1
  O  O105  1  0.40057300  0.86671600  0.84906300  1
  O  O106  1  0.75238700  0.50380900  0.12634700  1
  O  O107  1  0.49619100  0.24761300  0.37365300  1
  O  O108  1  0.24761300  0.49619100  0.87365300  1
  O  O109  1  0.50380900  0.75238700  0.62634700  1
  O  O110  1  0.89592100  0.23205600  0.13317000  1
  O  O111  1  0.76794400  0.10407900  0.36683000  1
  O  O112  1  0.10407900  0.76794400  0.86683000  1
  O  O113  1  0.23205600  0.89592100  0.63317000  1
  O  O114  1  0.75146300  0.37709500  0.93900500  1
  O  O115  1  0.62290500  0.24853700  0.56099500  1
  O  O116  1  0.24853700  0.62290500  0.06099500  1
  O  O117  1  0.37709500  0.75146300  0.43900500  1
  O  O118  1  0.16069100  0.90877600  0.13237800  1
  O  O119  1  0.09122400  0.83930900  0.36762200  1
  O  O120  1  0.83930900  0.09122400  0.86762200  1
  O  O121  1  0.90877600  0.16069100  0.63237800  1
  O  O122  1  0.52210400  0.41857800  0.14526200  1
  O  O123  1  0.58142200  0.47789600  0.35473800  1
  O  O124  1  0.47789600  0.58142200  0.85473800  1
  O  O125  1  0.41857800  0.52210400  0.64526200  1
  O  O126  1  0.33764200  0.49835400  0.43591800  1
  O  O127  1  0.50164600  0.66235800  0.06408200  1
  O  O128  1  0.66235800  0.50164600  0.56408200  1
  O  O129  1  0.49835400  0.33764200  0.93591800  1
  O  O130  1  0.86365900  0.00768400  0.10068100  1
  O  O131  1  0.99231600  0.13634100  0.39931900  1
  O  O132  1  0.13634100  0.99231600  0.89931900  1
  O  O133  1  0.00768400  0.86365900  0.60068100  1
  O  O134  1  0.63152300  0.82479200  0.04034000  1
  O  O135  1  0.17520800  0.36847700  0.45966000  1
  O  O136  1  0.36847700  0.17520800  0.95966000  1
  O  O137  1  0.82479200  0.63152300  0.54034000  1
