# generated using pymatgen
data_NaAl(SO7)2
_symmetry_space_group_name_H-M   'P 1'
_cell_length_a   6.22605914
_cell_length_b   7.53586468
_cell_length_c   25.82975800
_cell_angle_alpha   90.00000000
_cell_angle_beta   90.00000000
_cell_angle_gamma   94.77043299
_symmetry_Int_Tables_number   1
_chemical_formula_structural   NaAl(SO7)2
_chemical_formula_sum   'Na4 Al4 S8 O56'
_cell_volume   1207.70154530
_cell_formula_units_Z   4
loop_
 _symmetry_equiv_pos_site_id
 _symmetry_equiv_pos_as_xyz
  1  'x, y, z'
loop_
 _atom_site_type_symbol
 _atom_site_label
 _atom_site_symmetry_multiplicity
 _atom_site_fract_x
 _atom_site_fract_y
 _atom_site_fract_z
 _atom_site_occupancy
  Na  Na0  1  0.19655700  0.11789600  0.44657100  1
  Na  Na1  1  0.80344300  0.38210400  0.94657100  1
  Na  Na2  1  0.80344300  0.88210400  0.55342900  1
  Na  Na3  1  0.19655700  0.61789600  0.05342900  1
  Al  Al4  1  0.67904000  0.64242200  0.35499900  1
  Al  Al5  1  0.32096000  0.85757800  0.85499900  1
  Al  Al6  1  0.32096000  0.35757800  0.64500100  1
  Al  Al7  1  0.67904000  0.14242200  0.14500100  1
  S  S8  1  0.21030100  0.14334900  0.31700900  1
  S  S9  1  0.78969900  0.35665100  0.81700900  1
  S  S10  1  0.78969900  0.85665100  0.68299100  1
  S  S11  1  0.21030100  0.64334900  0.18299100  1
  S  S12  1  0.74451800  0.20377800  0.47878800  1
  S  S13  1  0.25548200  0.29622200  0.97878800  1
  S  S14  1  0.25548200  0.79622200  0.52121200  1
  S  S15  1  0.74451800  0.70377800  0.02121200  1
  O  O16  1  0.04749600  0.06038600  0.28007900  1
  O  O17  1  0.95250400  0.43961400  0.78007900  1
  O  O18  1  0.95250400  0.93961400  0.71992100  1
  O  O19  1  0.04749600  0.56038600  0.21992100  1
  O  O20  1  0.14218700  0.31486400  0.33677500  1
  O  O21  1  0.85781300  0.18513600  0.83677500  1
  O  O22  1  0.85781300  0.68513600  0.66322500  1
  O  O23  1  0.14218700  0.81486400  0.16322500  1
  O  O24  1  0.23429000  0.01520200  0.35966900  1
  O  O25  1  0.76571000  0.48479800  0.85966900  1
  O  O26  1  0.76571000  0.98479800  0.64033100  1
  O  O27  1  0.23429000  0.51520200  0.14033100  1
  O  O28  1  0.41634000  0.18215000  0.28846500  1
  O  O29  1  0.58366000  0.31785000  0.78846500  1
  O  O30  1  0.58366000  0.81785000  0.71153500  1
  O  O31  1  0.41634000  0.68215000  0.21153500  1
  O  O32  1  0.25687900  0.78765200  0.46296000  1
  O  O33  1  0.74312100  0.71234800  0.96296000  1
  O  O34  1  0.74312100  0.21234800  0.53704000  1
  O  O35  1  0.25687900  0.28765200  0.03704000  1
  O  O36  1  0.54008800  0.25500100  0.45783900  1
  O  O37  1  0.45991200  0.24499900  0.95783900  1
  O  O38  1  0.45991200  0.74499900  0.54216100  1
  O  O39  1  0.54008800  0.75500100  0.04216100  1
  O  O40  1  0.79557200  0.02308400  0.46312700  1
  O  O41  1  0.20442800  0.47691600  0.96312700  1
  O  O42  1  0.20442800  0.97691600  0.53687300  1
  O  O43  1  0.79557200  0.52308400  0.03687300  1
  O  O44  1  0.92858700  0.33631600  0.46472100  1
  O  O45  1  0.07141300  0.16368400  0.96472100  1
  O  O46  1  0.07141300  0.66368400  0.53527900  1
  O  O47  1  0.92858700  0.83631600  0.03527900  1
  O  O48  1  0.43083000  0.62301900  0.31587000  1
  O  O49  1  0.56917000  0.87698100  0.81587000  1
  O  O50  1  0.56917000  0.37698100  0.68413000  1
  O  O51  1  0.43083000  0.12301900  0.18413000  1
  O  O52  1  0.50323700  0.56501200  0.41013100  1
  O  O53  1  0.49676300  0.93498800  0.91013100  1
  O  O54  1  0.49676300  0.43498800  0.58986900  1
  O  O55  1  0.50323700  0.06501200  0.08986900  1
  O  O56  1  0.63883100  0.87541600  0.37276000  1
  O  O57  1  0.36116900  0.62458400  0.87276100  1
  O  O58  1  0.36116900  0.12458400  0.62723900  1
  O  O59  1  0.63883100  0.37541600  0.12724000  1
  O  O60  1  0.72695600  0.41144300  0.33733300  1
  O  O61  1  0.27304400  0.08855700  0.83733300  1
  O  O62  1  0.27304400  0.58855700  0.66266700  1
  O  O63  1  0.72695600  0.91144300  0.16266700  1
  O  O64  1  0.83968300  0.73498000  0.29982200  1
  O  O65  1  0.16031700  0.76502000  0.79982200  1
  O  O66  1  0.16031700  0.26502000  0.70017800  1
  O  O67  1  0.83968300  0.23498000  0.20017800  1
  O  O68  1  0.91590900  0.63843500  0.39731200  1
  O  O69  1  0.08409100  0.86156500  0.89731200  1
  O  O70  1  0.08409100  0.36156500  0.60268800  1
  O  O71  1  0.91590900  0.13843500  0.10268800  1
