# generated using pymatgen
data_TbCO4
_symmetry_space_group_name_H-M   'P 1'
_cell_length_a   12.14705370
_cell_length_b   12.14705370
_cell_length_c   9.71301600
_cell_angle_alpha   90.00000000
_cell_angle_beta   90.00000000
_cell_angle_gamma   119.99999837
_symmetry_Int_Tables_number   1
_chemical_formula_structural   TbCO4
_chemical_formula_sum   'Tb18 C18 O72'
_cell_volume   1241.15678538
_cell_formula_units_Z   18
loop_
 _symmetry_equiv_pos_site_id
 _symmetry_equiv_pos_as_xyz
  1  'x, y, z'
loop_
 _atom_site_type_symbol
 _atom_site_label
 _atom_site_symmetry_multiplicity
 _atom_site_fract_x
 _atom_site_fract_y
 _atom_site_fract_z
 _atom_site_occupancy
  Tb  Tb0  1  0.77883500  0.21480500  0.73983900  1
  Tb  Tb1  1  0.78519500  0.56403100  0.73983900  1
  Tb  Tb2  1  0.43596900  0.22116500  0.73983900  1
  Tb  Tb3  1  0.77883500  0.21480500  0.26016100  1
  Tb  Tb4  1  0.78519500  0.56403100  0.26016100  1
  Tb  Tb5  1  0.43596900  0.22116500  0.26016100  1
  Tb  Tb6  1  0.44514400  0.54870500  0.75682000  1
  Tb  Tb7  1  0.45129500  0.89643900  0.75682000  1
  Tb  Tb8  1  0.10356100  0.55485600  0.75682000  1
  Tb  Tb9  1  0.44514400  0.54870500  0.24318000  1
  Tb  Tb10  1  0.45129500  0.89643900  0.24318000  1
  Tb  Tb11  1  0.10356100  0.55485600  0.24318000  1
  Tb  Tb12  1  0.10972600  0.23068900  0.75609500  1
  Tb  Tb13  1  0.76931100  0.87903700  0.75609500  1
  Tb  Tb14  1  0.12096300  0.89027400  0.75609500  1
  Tb  Tb15  1  0.10972600  0.23068900  0.24390500  1
  Tb  Tb16  1  0.76931100  0.87903700  0.24390500  1
  Tb  Tb17  1  0.12096300  0.89027400  0.24390500  1
  C  C18  1  0.52846200  0.68551400  0.50000000  1
  C  C19  1  0.31448600  0.84294800  0.50000000  1
  C  C20  1  0.15705200  0.47153800  0.50000000  1
  C  C21  1  0.57435100  0.12950400  0.50000000  1
  C  C22  1  0.87049600  0.44484700  0.50000000  1
  C  C23  1  0.55515300  0.42564900  0.50000000  1
  C  C24  1  0.97257700  0.17012700  0.50000000  1
  C  C25  1  0.82987300  0.80244900  0.50000000  1
  C  C26  1  0.19755100  0.02742300  0.50000000  1
  C  C27  1  0.21887900  0.46175100  0.00000000  1
  C  C28  1  0.53824900  0.75712800  0.00000000  1
  C  C29  1  0.24287200  0.78112100  0.00000000  1
  C  C30  1  0.20504700  0.09756100  0.00000000  1
  C  C31  1  0.90243900  0.10748600  0.00000000  1
  C  C32  1  0.89251400  0.79495300  0.00000000  1
  C  C33  1  0.64612300  0.13273900  0.00000000  1
  C  C34  1  0.86726100  0.51338400  0.00000000  1
  C  C35  1  0.48661600  0.35387700  0.00000000  1
  O  O36  1  0.42355100  0.57619900  0.50000000  1
  O  O37  1  0.42380100  0.84735200  0.50000000  1
  O  O38  1  0.15264800  0.57644900  0.50000000  1
  O  O39  1  0.57772400  0.73514200  0.61761100  1
  O  O40  1  0.26485800  0.84258200  0.61761100  1
  O  O41  1  0.15741800  0.42227600  0.61761100  1
  O  O42  1  0.57772400  0.73514200  0.38238900  1
  O  O43  1  0.26485800  0.84258200  0.38238900  1
  O  O44  1  0.15741800  0.42227600  0.38238900  1
  O  O45  1  0.69759600  0.19237500  0.50000000  1
  O  O46  1  0.80762500  0.50522100  0.50000000  1
  O  O47  1  0.49477900  0.30240400  0.50000000  1
  O  O48  1  0.90059600  0.41561200  0.61680500  1
  O  O49  1  0.58438800  0.48498500  0.61680500  1
  O  O50  1  0.51501500  0.09940400  0.61680500  1
  O  O51  1  0.90059600  0.41561200  0.38319500  1
  O  O52  1  0.58438800  0.48498500  0.38319500  1
  O  O53  1  0.51501500  0.09940400  0.38319500  1
  O  O54  1  0.08149400  0.17495100  0.50000000  1
  O  O55  1  0.82504900  0.90654300  0.50000000  1
  O  O56  1  0.09345700  0.91850600  0.50000000  1
  O  O57  1  0.92233400  0.17024700  0.61688800  1
  O  O58  1  0.82975300  0.75208800  0.61688800  1
  O  O59  1  0.24791200  0.07766600  0.61688800  1
  O  O60  1  0.92233400  0.17024700  0.38311200  1
  O  O61  1  0.82975300  0.75208800  0.38311200  1
  O  O62  1  0.24791200  0.07766600  0.38311200  1
  O  O63  1  0.47168000  0.63445700  0.00000000  1
  O  O64  1  0.36554300  0.83722300  0.00000000  1
  O  O65  1  0.16277700  0.52832000  0.00000000  1
  O  O66  1  0.24611000  0.42856300  0.88392100  1
  O  O67  1  0.57143700  0.81754700  0.88392100  1
  O  O68  1  0.18245300  0.75389000  0.88392100  1
  O  O69  1  0.24611000  0.42856300  0.11607900  1
  O  O70  1  0.57143700  0.81754700  0.11607900  1
  O  O71  1  0.18245300  0.75389000  0.11607900  1
  O  O72  1  0.02566800  0.17314800  0.00000000  1
  O  O73  1  0.82685200  0.85252100  0.00000000  1
  O  O74  1  0.14747900  0.97433200  0.00000000  1
  O  O75  1  0.23274800  0.15724600  0.88348000  1
  O  O76  1  0.84275400  0.07550200  0.88348000  1
  O  O77  1  0.92449800  0.76725200  0.88348000  1
  O  O78  1  0.23274800  0.15724600  0.11652000  1
  O  O79  1  0.84275400  0.07550200  0.11652000  1
  O  O80  1  0.92449800  0.76725200  0.11652000  1
  O  O81  1  0.75416800  0.23821400  0.00000000  1
  O  O82  1  0.76178600  0.51595400  0.00000000  1
  O  O83  1  0.48404600  0.24583200  0.00000000  1
  O  O84  1  0.59578100  0.08207000  0.88335300  1
  O  O85  1  0.91793000  0.51371100  0.88335300  1
  O  O86  1  0.48628900  0.40421900  0.88335300  1
  O  O87  1  0.59578100  0.08207000  0.11664700  1
  O  O88  1  0.91793000  0.51371100  0.11664700  1
  O  O89  1  0.48628900  0.40421900  0.11664700  1
  O  O90  1  0.66666700  0.33333300  0.75771800  1
  O  O91  1  0.66666700  0.33333300  0.24228200  1
  O  O92  1  0.33333300  0.66666700  0.74707200  1
  O  O93  1  0.33333300  0.66666700  0.25292800  1
  O  O94  1  0.00000000  0.00000000  0.74456800  1
  O  O95  1  0.00000000  0.00000000  0.25543200  1
  O  O96  1  0.66450600  0.65645900  0.80982800  1
  O  O97  1  0.34354100  0.00804700  0.80982800  1
  O  O98  1  0.99195300  0.33549400  0.80982800  1
  O  O99  1  0.66450600  0.65645900  0.19017200  1
  O  O100  1  0.34354100  0.00804700  0.19017200  1
  O  O101  1  0.99195300  0.33549400  0.19017200  1
  O  O102  1  0.32466100  0.33215400  0.69168200  1
  O  O103  1  0.66784600  0.99250700  0.69168200  1
  O  O104  1  0.00749300  0.67533900  0.69168200  1
  O  O105  1  0.32466100  0.33215400  0.30831800  1
  O  O106  1  0.66784600  0.99250700  0.30831800  1
  O  O107  1  0.00749300  0.67533900  0.30831800  1
