# generated using pymatgen
data_K2Zn(H2N)4
_symmetry_space_group_name_H-M   'P 1'
_cell_length_a   7.33037700
_cell_length_b   7.71889881
_cell_length_c   13.45082991
_cell_angle_alpha   106.05557938
_cell_angle_beta   90.00000000
_cell_angle_gamma   90.00000000
_symmetry_Int_Tables_number   1
_chemical_formula_structural   K2Zn(H2N)4
_chemical_formula_sum   'K8 Zn4 H32 N16'
_cell_volume   731.39393394
_cell_formula_units_Z   4
loop_
 _symmetry_equiv_pos_site_id
 _symmetry_equiv_pos_as_xyz
  1  'x, y, z'
loop_
 _atom_site_type_symbol
 _atom_site_label
 _atom_site_symmetry_multiplicity
 _atom_site_fract_x
 _atom_site_fract_y
 _atom_site_fract_z
 _atom_site_occupancy
  K  K0  1  0.61909400  0.07449800  0.89656200  1
  K  K1  1  0.11909400  0.92550200  0.60343800  1
  K  K2  1  0.38090600  0.92550200  0.10343800  1
  K  K3  1  0.88090600  0.07449800  0.39656200  1
  K  K4  1  0.62998700  0.57780200  0.89894900  1
  K  K5  1  0.12998700  0.42219800  0.60105100  1
  K  K6  1  0.37001300  0.42219800  0.10105100  1
  K  K7  1  0.87001300  0.57780200  0.39894900  1
  Zn  Zn8  1  0.72027400  0.20529600  0.65062900  1
  Zn  Zn9  1  0.22027400  0.79470400  0.84937100  1
  Zn  Zn10  1  0.27972600  0.79470400  0.34937100  1
  Zn  Zn11  1  0.77972600  0.20529600  0.15062900  1
  H  H12  1  0.72749800  0.86402300  0.60898400  1
  H  H13  1  0.22749800  0.13597700  0.89101600  1
  H  H14  1  0.27250200  0.13597700  0.39101600  1
  H  H15  1  0.77250200  0.86402300  0.10898400  1
  H  H16  1  0.61802100  0.91599200  0.51808600  1
  H  H17  1  0.11802100  0.08400800  0.98191400  1
  H  H18  1  0.38197900  0.08400800  0.48191400  1
  H  H19  1  0.88197900  0.91599200  0.01808600  1
  H  H20  1  0.62177300  0.36069500  0.51551100  1
  H  H21  1  0.12177300  0.63930500  0.98448900  1
  H  H22  1  0.37822700  0.63930500  0.48448900  1
  H  H23  1  0.87822700  0.36069500  0.01551100  1
  H  H24  1  0.73728900  0.50027400  0.60336300  1
  H  H25  1  0.23728900  0.49972600  0.89663700  1
  H  H26  1  0.26271100  0.49972600  0.39663700  1
  H  H27  1  0.76271100  0.50027400  0.10336300  1
  H  H28  1  0.96608400  0.16543200  0.78433500  1
  H  H29  1  0.46608400  0.83456800  0.71566500  1
  H  H30  1  0.03391600  0.83456800  0.21566500  1
  H  H31  1  0.53391600  0.16543200  0.28433500  1
  H  H32  1  0.96765500  0.37221900  0.78499300  1
  H  H33  1  0.46765500  0.62778100  0.71500700  1
  H  H34  1  0.03234500  0.62778100  0.21500700  1
  H  H35  1  0.53234500  0.37221900  0.28499300  1
  H  H36  1  0.41485700  0.35470000  0.73458300  1
  H  H37  1  0.91485700  0.64530000  0.76541700  1
  H  H38  1  0.58514300  0.64530000  0.26541700  1
  H  H39  1  0.08514300  0.35470000  0.23458300  1
  H  H40  1  0.41012200  0.14872800  0.73429200  1
  H  H41  1  0.91012200  0.85127200  0.76570800  1
  H  H42  1  0.58987800  0.85127200  0.26570800  1
  H  H43  1  0.08987800  0.14872800  0.23429200  1
  N  N44  1  0.73892700  0.94156400  0.55816600  1
  N  N45  1  0.23892700  0.05843600  0.94183400  1
  N  N46  1  0.26107300  0.05843600  0.44183400  1
  N  N47  1  0.76107300  0.94156400  0.05816600  1
  N  N48  1  0.74475200  0.37255500  0.55362500  1
  N  N49  1  0.24475200  0.62744500  0.94637500  1
  N  N50  1  0.25524800  0.62744500  0.44637500  1
  N  N51  1  0.75524800  0.37255500  0.05362500  1
  N  N52  1  0.95910700  0.24502300  0.73453700  1
  N  N53  1  0.45910700  0.75497700  0.76546300  1
  N  N54  1  0.04089300  0.75497700  0.26546300  1
  N  N55  1  0.54089300  0.24502300  0.23453700  1
  N  N56  1  0.49791600  0.25667200  0.74849500  1
  N  N57  1  0.99791600  0.74332800  0.75150500  1
  N  N58  1  0.50208400  0.74332800  0.25150500  1
  N  N59  1  0.00208400  0.25667200  0.24849500  1
