# generated using pymatgen
data_Cs2InCl5O
_symmetry_space_group_name_H-M   'P 1'
_cell_length_a   7.49773300
_cell_length_b   11.52491200
_cell_length_c   14.65219200
_cell_angle_alpha   90.00000000
_cell_angle_beta   90.00000000
_cell_angle_gamma   90.00000000
_symmetry_Int_Tables_number   1
_chemical_formula_structural   Cs2InCl5O
_chemical_formula_sum   'Cs8 In4 Cl20 O4'
_cell_volume   1266.10635809
_cell_formula_units_Z   4
loop_
 _symmetry_equiv_pos_site_id
 _symmetry_equiv_pos_as_xyz
  1  'x, y, z'
loop_
 _atom_site_type_symbol
 _atom_site_label
 _atom_site_symmetry_multiplicity
 _atom_site_fract_x
 _atom_site_fract_y
 _atom_site_fract_z
 _atom_site_occupancy
  Cs  Cs0  1  0.21189900  0.49059500  0.37063000  1
  Cs  Cs1  1  0.28810100  0.00940500  0.87063000  1
  Cs  Cs2  1  0.78810100  0.99059500  0.62937000  1
  Cs  Cs3  1  0.71189900  0.50940500  0.12937000  1
  Cs  Cs4  1  0.78810100  0.50940500  0.62937000  1
  Cs  Cs5  1  0.71189900  0.99059500  0.12937000  1
  Cs  Cs6  1  0.21189900  0.00940500  0.37063000  1
  Cs  Cs7  1  0.28810100  0.49059500  0.87063000  1
  In  In8  1  0.26279800  0.75000000  0.61618200  1
  In  In9  1  0.23720200  0.75000000  0.11618200  1
  In  In10  1  0.73720200  0.25000000  0.38381800  1
  In  In11  1  0.76279800  0.25000000  0.88381800  1
  Cl  Cl12  1  0.89971600  0.75000000  0.23762100  1
  Cl  Cl13  1  0.60028400  0.75000000  0.73762100  1
  Cl  Cl14  1  0.10028400  0.25000000  0.76237900  1
  Cl  Cl15  1  0.39971600  0.25000000  0.26237900  1
  Cl  Cl16  1  0.39914700  0.75000000  0.26138500  1
  Cl  Cl17  1  0.10085300  0.75000000  0.76138500  1
  Cl  Cl18  1  0.60085300  0.25000000  0.73861500  1
  Cl  Cl19  1  0.89914700  0.25000000  0.23861500  1
  Cl  Cl20  1  0.44736900  0.75000000  0.98705600  1
  Cl  Cl21  1  0.05263100  0.75000000  0.48705600  1
  Cl  Cl22  1  0.55263100  0.25000000  0.01294400  1
  Cl  Cl23  1  0.94736900  0.25000000  0.51294400  1
  Cl  Cl24  1  0.22511400  0.53009100  0.10994600  1
  Cl  Cl25  1  0.27488600  0.96990900  0.60994600  1
  Cl  Cl26  1  0.77488600  0.03009100  0.89005400  1
  Cl  Cl27  1  0.72511400  0.46990900  0.39005400  1
  Cl  Cl28  1  0.77488600  0.46990900  0.89005400  1
  Cl  Cl29  1  0.72511400  0.03009100  0.39005400  1
  Cl  Cl30  1  0.22511400  0.96990900  0.10994600  1
  Cl  Cl31  1  0.27488600  0.53009100  0.60994600  1
  O  O32  1  0.94997000  0.75000000  0.12488200  1
  O  O33  1  0.55003000  0.75000000  0.62488200  1
  O  O34  1  0.05003000  0.25000000  0.87511800  1
  O  O35  1  0.44997000  0.25000000  0.37511800  1
