# generated using pymatgen
data_ZnAs3OF18
_symmetry_space_group_name_H-M   'P 1'
_cell_length_a   9.68448600
_cell_length_b   10.55431500
_cell_length_c   14.24900200
_cell_angle_alpha   90.00000000
_cell_angle_beta   90.00000000
_cell_angle_gamma   90.00000000
_symmetry_Int_Tables_number   1
_chemical_formula_structural   ZnAs3OF18
_chemical_formula_sum   'Zn4 As12 O4 F72'
_cell_volume   1456.43489227
_cell_formula_units_Z   4
loop_
 _symmetry_equiv_pos_site_id
 _symmetry_equiv_pos_as_xyz
  1  'x, y, z'
loop_
 _atom_site_type_symbol
 _atom_site_label
 _atom_site_symmetry_multiplicity
 _atom_site_fract_x
 _atom_site_fract_y
 _atom_site_fract_z
 _atom_site_occupancy
  Zn  Zn0  1  0.00000000  0.00000000  0.50000000  1
  Zn  Zn1  1  0.50000000  0.50000000  0.00000000  1
  Zn  Zn2  1  0.00000000  0.00000000  0.00000000  1
  Zn  Zn3  1  0.50000000  0.50000000  0.50000000  1
  As  As4  1  0.19599400  0.70385600  0.44842900  1
  As  As5  1  0.30400600  0.20385600  0.05157100  1
  As  As6  1  0.80400600  0.29614400  0.94842900  1
  As  As7  1  0.69599400  0.79614400  0.55157100  1
  As  As8  1  0.80400600  0.29614400  0.55157100  1
  As  As9  1  0.69599400  0.79614400  0.94842900  1
  As  As10  1  0.19599400  0.70385600  0.05157100  1
  As  As11  1  0.30400600  0.20385600  0.44842900  1
  As  As12  1  0.10796500  0.97696500  0.75000000  1
  As  As13  1  0.39203500  0.47696500  0.75000000  1
  As  As14  1  0.89203500  0.02303500  0.25000000  1
  As  As15  1  0.60796500  0.52303500  0.25000000  1
  O  O16  1  0.51938100  0.06810800  0.75000000  1
  O  O17  1  0.98061900  0.56810800  0.75000000  1
  O  O18  1  0.48061900  0.93189200  0.25000000  1
  O  O19  1  0.01938100  0.43189200  0.25000000  1
  F  F20  1  0.28119300  0.78369000  0.35744900  1
  F  F21  1  0.21880700  0.28369000  0.14255100  1
  F  F22  1  0.71880700  0.21631000  0.85744900  1
  F  F23  1  0.78119300  0.71631000  0.64255100  1
  F  F24  1  0.71880700  0.21631000  0.64255100  1
  F  F25  1  0.78119300  0.71631000  0.85744900  1
  F  F26  1  0.28119300  0.78369000  0.14255100  1
  F  F27  1  0.21880700  0.28369000  0.35744900  1
  F  F28  1  0.09812100  0.62161300  0.36415800  1
  F  F29  1  0.40187900  0.12161300  0.13584200  1
  F  F30  1  0.90187900  0.37838700  0.86415800  1
  F  F31  1  0.59812100  0.87838700  0.63584200  1
  F  F32  1  0.90187900  0.37838700  0.63584200  1
  F  F33  1  0.59812100  0.87838700  0.86415800  1
  F  F34  1  0.09812100  0.62161300  0.13584200  1
  F  F35  1  0.40187900  0.12161300  0.36415800  1
  F  F36  1  0.10950200  0.62312900  0.53789500  1
  F  F37  1  0.39049800  0.12312900  0.96210500  1
  F  F38  1  0.89049800  0.37687100  0.03789500  1
  F  F39  1  0.60950200  0.87687100  0.46210500  1
  F  F40  1  0.89049800  0.37687100  0.46210500  1
  F  F41  1  0.60950200  0.87687100  0.03789500  1
  F  F42  1  0.10950200  0.62312900  0.96210500  1
  F  F43  1  0.39049800  0.12312900  0.53789500  1
  F  F44  1  0.29374800  0.78554700  0.53171100  1
  F  F45  1  0.20625200  0.28554700  0.96828900  1
  F  F46  1  0.70625200  0.21445300  0.03171100  1
  F  F47  1  0.79374800  0.71445300  0.46828900  1
  F  F48  1  0.70625200  0.21445300  0.46828900  1
  F  F49  1  0.79374800  0.71445300  0.03171100  1
  F  F50  1  0.29374800  0.78554700  0.96828900  1
  F  F51  1  0.20625200  0.28554700  0.53171100  1
  F  F52  1  0.06464900  0.82781900  0.45072800  1
  F  F53  1  0.43535100  0.32781900  0.04927200  1
  F  F54  1  0.93535100  0.17218100  0.95072800  1
  F  F55  1  0.56464900  0.67218100  0.54927200  1
  F  F56  1  0.93535100  0.17218100  0.54927200  1
  F  F57  1  0.56464900  0.67218100  0.95072800  1
  F  F58  1  0.06464900  0.82781900  0.04927200  1
  F  F59  1  0.43535100  0.32781900  0.45072800  1
  F  F60  1  0.05766600  0.81666000  0.75000000  1
  F  F61  1  0.44233400  0.31666000  0.75000000  1
  F  F62  1  0.94233400  0.18334000  0.25000000  1
  F  F63  1  0.55766600  0.68334000  0.25000000  1
  F  F64  1  0.28157000  0.92543400  0.75000000  1
  F  F65  1  0.21843000  0.42543400  0.75000000  1
  F  F66  1  0.71843000  0.07456600  0.25000000  1
  F  F67  1  0.78157000  0.57456600  0.25000000  1
  F  F68  1  0.32631300  0.57869800  0.44281300  1
  F  F69  1  0.17368700  0.07869800  0.05718700  1
  F  F70  1  0.67368700  0.42130200  0.94281300  1
  F  F71  1  0.82631300  0.92130200  0.55718700  1
  F  F72  1  0.67368700  0.42130200  0.55718700  1
  F  F73  1  0.82631300  0.92130200  0.94281300  1
  F  F74  1  0.32631300  0.57869800  0.05718700  1
  F  F75  1  0.17368700  0.07869800  0.44281300  1
  F  F76  1  0.16498300  0.13288500  0.75000000  1
  F  F77  1  0.33501700  0.63288500  0.75000000  1
  F  F78  1  0.83501700  0.86711500  0.25000000  1
  F  F79  1  0.66498300  0.36711500  0.25000000  1
  F  F80  1  0.10941700  0.97453400  0.62211200  1
  F  F81  1  0.39058300  0.47453400  0.87788800  1
  F  F82  1  0.89058300  0.02546600  0.12211200  1
  F  F83  1  0.60941700  0.52546600  0.37788800  1
  F  F84  1  0.89058300  0.02546600  0.37788800  1
  F  F85  1  0.60941700  0.52546600  0.12211200  1
  F  F86  1  0.10941700  0.97453400  0.87788800  1
  F  F87  1  0.39058300  0.47453400  0.62211200  1
  F  F88  1  0.93519000  0.02408500  0.75000000  1
  F  F89  1  0.56481000  0.52408500  0.75000000  1
  F  F90  1  0.06481000  0.97591500  0.25000000  1
  F  F91  1  0.43519000  0.47591500  0.25000000  1
