# generated using pymatgen
data_VZnPbO5
_symmetry_space_group_name_H-M   'P 1'
_cell_length_a   6.06231600
_cell_length_b   7.85950600
_cell_length_c   9.41839700
_cell_angle_alpha   90.00000000
_cell_angle_beta   90.00000000
_cell_angle_gamma   90.00000000
_symmetry_Int_Tables_number   1
_chemical_formula_structural   VZnPbO5
_chemical_formula_sum   'V4 Zn4 Pb4 O20'
_cell_volume   448.75656272
_cell_formula_units_Z   4
loop_
 _symmetry_equiv_pos_site_id
 _symmetry_equiv_pos_as_xyz
  1  'x, y, z'
loop_
 _atom_site_type_symbol
 _atom_site_label
 _atom_site_symmetry_multiplicity
 _atom_site_fract_x
 _atom_site_fract_y
 _atom_site_fract_z
 _atom_site_occupancy
  V  V0  1  0.49463900  0.11247900  0.81298000  1
  V  V1  1  0.00536100  0.88752100  0.31298000  1
  V  V2  1  0.50536100  0.61247900  0.68702000  1
  V  V3  1  0.99463900  0.38752100  0.18702000  1
  Zn  Zn4  1  0.24987900  0.75106300  0.99834500  1
  Zn  Zn5  1  0.25012100  0.24893700  0.49834500  1
  Zn  Zn6  1  0.75012100  0.25106300  0.50165500  1
  Zn  Zn7  1  0.74987900  0.74893700  0.00165500  1
  Pb  Pb8  1  0.99120000  0.87828500  0.67963700  1
  Pb  Pb9  1  0.50880000  0.12171500  0.17963700  1
  Pb  Pb10  1  0.00880000  0.37828500  0.82036300  1
  Pb  Pb11  1  0.49120000  0.62171500  0.32036300  1
  O  O12  1  0.50086200  0.93372200  0.92514000  1
  O  O13  1  0.99913800  0.06627800  0.42514000  1
  O  O14  1  0.49913800  0.43372200  0.57486000  1
  O  O15  1  0.00086200  0.56627800  0.07486000  1
  O  O16  1  0.47695000  0.28597500  0.91849900  1
  O  O17  1  0.02305000  0.71402500  0.41849900  1
  O  O18  1  0.52305000  0.78597500  0.58150100  1
  O  O19  1  0.97695000  0.21402500  0.08150100  1
  O  O20  1  0.74607600  0.12916500  0.71316700  1
  O  O21  1  0.75392400  0.87083500  0.21316700  1
  O  O22  1  0.25392400  0.62916500  0.78683300  1
  O  O23  1  0.24607600  0.37083500  0.28683300  1
  O  O24  1  0.25227200  0.11246000  0.70467100  1
  O  O25  1  0.24772800  0.88754000  0.20467100  1
  O  O26  1  0.74772800  0.61246000  0.79532900  1
  O  O27  1  0.75227200  0.38754000  0.29532900  1
  O  O28  1  0.99770500  0.87913600  0.92513200  1
  O  O29  1  0.50229500  0.12086400  0.42513200  1
  O  O30  1  0.00229500  0.37913600  0.57486800  1
  O  O31  1  0.49770500  0.62086400  0.07486800  1
