# generated using pymatgen
data_Sn4Ge(H3C)12
_symmetry_space_group_name_H-M   'P 1'
_cell_length_a   9.75267300
_cell_length_b   10.58759183
_cell_length_c   15.43789105
_cell_angle_alpha   90.01207397
_cell_angle_beta   90.59943116
_cell_angle_gamma   111.72868928
_symmetry_Int_Tables_number   1
_chemical_formula_structural   Sn4Ge(H3C)12
_chemical_formula_sum   'Sn8 Ge2 H72 C24'
_cell_volume   1480.71659291
_cell_formula_units_Z   2
loop_
 _symmetry_equiv_pos_site_id
 _symmetry_equiv_pos_as_xyz
  1  'x, y, z'
loop_
 _atom_site_type_symbol
 _atom_site_label
 _atom_site_symmetry_multiplicity
 _atom_site_fract_x
 _atom_site_fract_y
 _atom_site_fract_z
 _atom_site_occupancy
  Sn  Sn0  1  0.23279400  0.51548300  0.24857700  1
  Sn  Sn1  1  0.76720600  0.48451700  0.75142300  1
  Sn  Sn2  1  0.32182500  0.20396900  0.09300000  1
  Sn  Sn3  1  0.67817500  0.79603100  0.90700000  1
  Sn  Sn4  1  0.43651400  0.24409200  0.36697000  1
  Sn  Sn5  1  0.56348600  0.75590800  0.63303000  1
  Sn  Sn6  1  0.97178700  0.08385500  0.28944400  1
  Sn  Sn7  1  0.02821300  0.91614500  0.71055600  1
  Ge  Ge8  1  0.24076400  0.26374200  0.24898600  1
  Ge  Ge9  1  0.75923600  0.73625800  0.75101400  1
  H  H10  1  0.44607100  0.76982400  0.22386600  1
  H  H11  1  0.55392900  0.23017600  0.77613400  1
  H  H12  1  0.52849600  0.66285400  0.27421000  1
  H  H13  1  0.47150400  0.33714600  0.72579000  1
  H  H14  1  0.48932100  0.64858900  0.16040800  1
  H  H15  1  0.51067900  0.35141100  0.83959200  1
  H  H16  1  0.08211200  0.64274800  0.15335400  1
  H  H17  1  0.91788800  0.35725200  0.84664600  1
  H  H18  1  0.11495900  0.51992000  0.08596700  1
  H  H19  1  0.88504100  0.48008000  0.91403300  1
  H  H20  1  0.96921300  0.46713800  0.16325800  1
  H  H21  1  0.03078700  0.53286200  0.83674200  1
  H  H22  1  0.16028000  0.66917000  0.37054600  1
  H  H23  1  0.83972000  0.33083000  0.62945400  1
  H  H24  1  0.05084400  0.49414300  0.38712600  1
  H  H25  1  0.94915600  0.50585700  0.61287400  1
  H  H26  1  0.23852300  0.56165200  0.42431900  1
  H  H27  1  0.76147700  0.43834800  0.57568100  1
  H  H28  1  0.21756300  0.19800800  0.92614600  1
  H  H29  1  0.78243700  0.80199200  0.07385400  1
  H  H30  1  0.06613300  0.15502300  0.99925500  1
  H  H31  1  0.93386700  0.84497700  0.00074500  1
  H  H32  1  0.18443200  0.32875500  0.98519500  1
  H  H33  1  0.81556800  0.67124500  0.01480500  1
  H  H34  1  0.34684800  0.97308400  0.02492800  1
  H  H35  1  0.65315200  0.02691600  0.97507200  1
  H  H36  1  0.38818400  0.98225900  0.13831600  1
  H  H37  1  0.61181600  0.01774100  0.86168400  1
  H  H38  1  0.20048100  0.92479100  0.10154500  1
  H  H39  1  0.79951900  0.07520900  0.89845500  1
  H  H40  1  0.57647700  0.30437500  0.99801400  1
  H  H41  1  0.42352300  0.69562500  0.00198600  1
  H  H42  1  0.55899600  0.43999200  0.06046500  1
  H  H43  1  0.44100400  0.56000800  0.93953500  1
  H  H44  1  0.62374800  0.32001600  0.11045700  1
  H  H45  1  0.37625200  0.67998400  0.88954300  1
  H  H46  1  0.46581100  0.27332400  0.54421400  1
  H  H47  1  0.53418900  0.72667600  0.45578600  1
  H  H48  1  0.38222600  0.38618800  0.50325300  1
  H  H49  1  0.61777400  0.61381200  0.49674700  1
  H  H50  1  0.27426600  0.20945400  0.51558700  1
  H  H51  1  0.72573400  0.79054600  0.48441300  1
  H  H52  1  0.73674900  0.37386300  0.39185600  1
  H  H53  1  0.26325100  0.62613700  0.60814400  1
  H  H54  1  0.69556700  0.36450600  0.27829700  1
  H  H55  1  0.30443300  0.63549400  0.72170300  1
  H  H56  1  0.66389800  0.48960700  0.34406100  1
  H  H57  1  0.33610200  0.51039300  0.65593900  1
  H  H58  1  0.51536100  0.02928900  0.41592300  1
  H  H59  1  0.48463900  0.97071100  0.58407700  1
  H  H60  1  0.32517800  0.96673600  0.38398000  1
  H  H61  1  0.67482200  0.03326400  0.61602000  1
  H  H62  1  0.46559800  0.01239200  0.30356100  1
  H  H63  1  0.53440200  0.98760800  0.69643900  1
  H  H64  1  0.69692500  0.01730500  0.21326600  1
  H  H65  1  0.30307500  0.98269500  0.78673400  1
  H  H66  1  0.80189400  0.19390900  0.19597200  1
  H  H67  1  0.19810600  0.80609100  0.80402800  1
  H  H68  1  0.83455100  0.06807300  0.13137300  1
  H  H69  1  0.16544900  0.93192700  0.86862700  1
  H  H70  1  0.79725700  0.05392100  0.43342500  1
  H  H71  1  0.20274300  0.94607900  0.56657500  1
  H  H72  1  0.98729000  0.12216100  0.46591600  1
  H  H73  1  0.01271000  0.87783900  0.53408400  1
  H  H74  1  0.90427100  0.23029400  0.41809900  1
  H  H75  1  0.09572900  0.76970600  0.58190100  1
  H  H76  1  0.84808700  0.80556300  0.30721600  1
  H  H77  1  0.15191300  0.19443700  0.69278400  1
  H  H78  1  0.98726400  0.84697300  0.22648300  1
  H  H79  1  0.01273600  0.15302700  0.77351700  1
  H  H80  1  0.03838200  0.86304800  0.33878700  1
  H  H81  1  0.96161800  0.13695200  0.66121300  1
  C  C82  1  0.45074600  0.66772500  0.22363000  1
  C  C83  1  0.54925400  0.33227500  0.77637000  1
  C  C84  1  0.08139600  0.53904100  0.15078900  1
  C  C85  1  0.91860400  0.46095900  0.84921100  1
  C  C86  1  0.16206900  0.56608800  0.37286400  1
  C  C87  1  0.83793100  0.43391200  0.62713600  1
  C  C88  1  0.18023400  0.22395400  0.98812100  1
  C  C89  1  0.81976600  0.77604600  0.01187900  1
  C  C90  1  0.31312600  0.99562200  0.08913900  1
  C  C91  1  0.68687400  0.00437800  0.91086100  1
  C  C92  1  0.54774200  0.33320600  0.06182600  1
  C  C93  1  0.45225800  0.66679400  0.93817400  1
  C  C94  1  0.38332900  0.28323100  0.49853700  1
  C  C95  1  0.61667100  0.71676900  0.50146300  1
  C  C96  1  0.66051400  0.38509400  0.34225200  1
  C  C97  1  0.33948600  0.61490600  0.65774800  1
  C  C98  1  0.43585900  0.03812700  0.36765500  1
  C  C99  1  0.56414100  0.96187300  0.63234500  1
  C  C100  1  0.80594200  0.09188600  0.19623900  1
  C  C101  1  0.19405800  0.90811400  0.80376100  1
  C  C102  1  0.90732400  0.12775900  0.41735100  1
  C  C103  1  0.09267600  0.87224100  0.58264900  1
  C  C104  1  0.96025400  0.87446900  0.29046900  1
  C  C105  1  0.03974600  0.12553100  0.70953100  1
