# generated using pymatgen
data_SnH6C2S
_symmetry_space_group_name_H-M   'P 1'
_cell_length_a   10.21087900
_cell_length_b   10.21087900
_cell_length_c   18.07521700
_cell_angle_alpha   90.00000000
_cell_angle_beta   90.00000000
_cell_angle_gamma   90.00000000
_symmetry_Int_Tables_number   1
_chemical_formula_structural   SnH6C2S
_chemical_formula_sum   'Sn12 H72 C24 S12'
_cell_volume   1884.55917776
_cell_formula_units_Z   12
loop_
 _symmetry_equiv_pos_site_id
 _symmetry_equiv_pos_as_xyz
  1  'x, y, z'
loop_
 _atom_site_type_symbol
 _atom_site_label
 _atom_site_symmetry_multiplicity
 _atom_site_fract_x
 _atom_site_fract_y
 _atom_site_fract_z
 _atom_site_occupancy
  Sn  Sn0  1  0.42678000  0.57322000  0.25000000  1
  Sn  Sn1  1  0.57322000  0.42678000  0.75000000  1
  Sn  Sn2  1  0.07322000  0.07322000  0.50000000  1
  Sn  Sn3  1  0.92678000  0.92678000  0.00000000  1
  Sn  Sn4  1  0.58970900  0.26698800  0.15772700  1
  Sn  Sn5  1  0.41029100  0.73301200  0.65772700  1
  Sn  Sn6  1  0.76698800  0.91029100  0.40772700  1
  Sn  Sn7  1  0.23301200  0.08970900  0.90772700  1
  Sn  Sn8  1  0.73301200  0.41029100  0.34227300  1
  Sn  Sn9  1  0.26698800  0.58970900  0.84227300  1
  Sn  Sn10  1  0.91029100  0.76698800  0.59227300  1
  Sn  Sn11  1  0.08970900  0.23301200  0.09227300  1
  H  H12  1  0.72304800  0.38965800  0.04716600  1
  H  H13  1  0.27695200  0.61034200  0.54716600  1
  H  H14  1  0.88965800  0.77695200  0.29716600  1
  H  H15  1  0.11034200  0.22304800  0.79716600  1
  H  H16  1  0.61034200  0.27695200  0.45283400  1
  H  H17  1  0.38965800  0.72304800  0.95283400  1
  H  H18  1  0.77695200  0.88965800  0.70283400  1
  H  H19  1  0.22304800  0.11034200  0.20283400  1
  H  H20  1  0.65553500  0.50785500  0.11115100  1
  H  H21  1  0.34446500  0.49214500  0.61115100  1
  H  H22  1  0.00785500  0.84446500  0.36115100  1
  H  H23  1  0.99214500  0.15553500  0.86115100  1
  H  H24  1  0.49214500  0.34446500  0.38884900  1
  H  H25  1  0.50785500  0.65553500  0.88884900  1
  H  H26  1  0.84446500  0.00785500  0.63884900  1
  H  H27  1  0.15553500  0.99214500  0.13884900  1
  H  H28  1  0.55115100  0.43034900  0.04311300  1
  H  H29  1  0.44884900  0.56965100  0.54311300  1
  H  H30  1  0.93034900  0.94884900  0.29311300  1
  H  H31  1  0.06965100  0.05115100  0.79311300  1
  H  H32  1  0.56965100  0.44884900  0.45688700  1
  H  H33  1  0.43034900  0.55115100  0.95688700  1
  H  H34  1  0.94884900  0.93034900  0.70688700  1
  H  H35  1  0.05115100  0.06965100  0.20688700  1
  H  H36  1  0.39255200  0.79415100  0.16636800  1
  H  H37  1  0.60744800  0.20584900  0.66636800  1
  H  H38  1  0.29415100  0.10744800  0.41636800  1
  H  H39  1  0.70584900  0.89255200  0.91636800  1
  H  H40  1  0.20584900  0.60744800  0.33363200  1
  H  H41  1  0.79415100  0.39255200  0.83363200  1
  H  H42  1  0.10744800  0.29415100  0.58363200  1
  H  H43  1  0.89255200  0.70584900  0.08363200  1
  H  H44  1  0.27155300  0.67460600  0.14241200  1
  H  H45  1  0.72844700  0.32539400  0.64241200  1
  H  H46  1  0.17460600  0.22844700  0.39241200  1
  H  H47  1  0.82539400  0.77155300  0.89241200  1
  H  H48  1  0.32539400  0.72844700  0.35758800  1
  H  H49  1  0.67460600  0.27155300  0.85758800  1
  H  H50  1  0.22844700  0.17460600  0.60758800  1
  H  H51  1  0.77155300  0.82539400  0.10758800  1
  H  H52  1  0.43521600  0.65864200  0.10762600  1
  H  H53  1  0.56478400  0.34135800  0.60762600  1
  H  H54  1  0.15864200  0.06478400  0.35762600  1
  H  H55  1  0.84135800  0.93521600  0.85762600  1
  H  H56  1  0.34135800  0.56478400  0.39237400  1
  H  H57  1  0.65864200  0.43521600  0.89237400  1
  H  H58  1  0.06478400  0.15864200  0.64237400  1
  H  H59  1  0.93521600  0.84135800  0.14237400  1
  H  H60  1  0.62443500  0.00559500  0.13284100  1
  H  H61  1  0.37556500  0.99440500  0.63284100  1
  H  H62  1  0.50559500  0.87556500  0.38284100  1
  H  H63  1  0.49440500  0.12443500  0.88284100  1
  H  H64  1  0.99440500  0.37556500  0.36715900  1
  H  H65  1  0.00559500  0.62443500  0.86715900  1
  H  H66  1  0.87556500  0.50559500  0.61715900  1
  H  H67  1  0.12443500  0.49440500  0.11715900  1
  H  H68  1  0.54033900  0.07713900  0.05556100  1
  H  H69  1  0.45966100  0.92286100  0.55556100  1
  H  H70  1  0.57713900  0.95966100  0.30556100  1
  H  H71  1  0.42286100  0.04033900  0.80556100  1
  H  H72  1  0.92286100  0.45966100  0.44443900  1
  H  H73  1  0.07713900  0.54033900  0.94443900  1
  H  H74  1  0.95966100  0.57713900  0.69443900  1
  H  H75  1  0.04033900  0.42286100  0.19443900  1
  H  H76  1  0.45204300  0.03990700  0.13820900  1
  H  H77  1  0.54795700  0.96009300  0.63820900  1
  H  H78  1  0.53990700  0.04795700  0.38820900  1
  H  H79  1  0.46009300  0.95204300  0.88820900  1
  H  H80  1  0.96009300  0.54795700  0.36179100  1
  H  H81  1  0.03990700  0.45204300  0.86179100  1
  H  H82  1  0.04795700  0.53990700  0.61179100  1
  H  H83  1  0.95204300  0.46009300  0.11179100  1
  C  C84  1  0.63695900  0.41864300  0.07930600  1
  C  C85  1  0.36304100  0.58135700  0.57930600  1
  C  C86  1  0.91864300  0.86304100  0.32930600  1
  C  C87  1  0.08135700  0.13695900  0.82930600  1
  C  C88  1  0.58135700  0.36304100  0.42069400  1
  C  C89  1  0.41864300  0.63695900  0.92069400  1
  C  C90  1  0.86304100  0.91864300  0.67069400  1
  C  C91  1  0.13695900  0.08135700  0.17069400  1
  C  C92  1  0.37551900  0.69016700  0.15478400  1
  C  C93  1  0.62448100  0.30983300  0.65478400  1
  C  C94  1  0.19016700  0.12448100  0.40478400  1
  C  C95  1  0.80983300  0.87551900  0.90478400  1
  C  C96  1  0.30983300  0.62448100  0.34521600  1
  C  C97  1  0.69016700  0.37551900  0.84521600  1
  C  C98  1  0.12448100  0.19016700  0.59521600  1
  C  C99  1  0.87551900  0.80983300  0.09521600  1
  C  C100  1  0.54664700  0.07289700  0.11592400  1
  C  C101  1  0.45335300  0.92710300  0.61592400  1
  C  C102  1  0.57289700  0.95335300  0.36592400  1
  C  C103  1  0.42710300  0.04664700  0.86592400  1
  C  C104  1  0.92710300  0.45335300  0.38407600  1
  C  C105  1  0.07289700  0.54664700  0.88407600  1
  C  C106  1  0.95335300  0.57289700  0.63407600  1
  C  C107  1  0.04664700  0.42710300  0.13407600  1
  S  S108  1  0.76281000  0.23719000  0.25000000  1
  S  S109  1  0.23719000  0.76281000  0.75000000  1
  S  S110  1  0.73719000  0.73719000  0.50000000  1
  S  S111  1  0.26281000  0.26281000  0.00000000  1
  S  S112  1  0.39352600  0.34042300  0.22566900  1
  S  S113  1  0.60647400  0.65957700  0.72566900  1
  S  S114  1  0.84042300  0.10647400  0.47566900  1
  S  S115  1  0.15957700  0.89352600  0.97566900  1
  S  S116  1  0.65957700  0.60647400  0.27433100  1
  S  S117  1  0.34042300  0.39352600  0.77433100  1
  S  S118  1  0.10647400  0.84042300  0.52433100  1
  S  S119  1  0.89352600  0.15957700  0.02433100  1
