# generated using pymatgen
data_MnH20C2S2(NO2)6
_symmetry_space_group_name_H-M   'P 1'
_cell_length_a   6.44438800
_cell_length_b   6.47715770
_cell_length_c   10.14355805
_cell_angle_alpha   89.63339980
_cell_angle_beta   95.97207107
_cell_angle_gamma   109.55765040
_symmetry_Int_Tables_number   1
_chemical_formula_structural   MnH20C2S2(NO2)6
_chemical_formula_sum   'Mn1 H20 C2 S2 N6 O12'
_cell_volume   396.62916762
_cell_formula_units_Z   1
loop_
 _symmetry_equiv_pos_site_id
 _symmetry_equiv_pos_as_xyz
  1  'x, y, z'
loop_
 _atom_site_type_symbol
 _atom_site_label
 _atom_site_symmetry_multiplicity
 _atom_site_fract_x
 _atom_site_fract_y
 _atom_site_fract_z
 _atom_site_occupancy
  Mn  Mn0  1  0.50000000  0.50000000  0.50000000  1
  H  H1  1  0.67583900  0.93131200  0.61201600  1
  H  H2  1  0.32416100  0.06868800  0.38798400  1
  H  H3  1  0.41402400  0.87092500  0.61125700  1
  H  H4  1  0.58597600  0.12907500  0.38874300  1
  H  H5  1  0.88300600  0.40853400  0.62847500  1
  H  H6  1  0.11699400  0.59146600  0.37152500  1
  H  H7  1  0.94581700  0.67037900  0.62228300  1
  H  H8  1  0.05418300  0.32962100  0.37771700  1
  H  H9  1  0.80833100  0.17155900  0.84385400  1
  H  H10  1  0.19166900  0.82844100  0.15614600  1
  H  H11  1  0.75966500  0.03569600  0.99374300  1
  H  H12  1  0.24033500  0.96430400  0.00625700  1
  H  H13  1  0.68302800  0.45606600  0.17126500  1
  H  H14  1  0.31697200  0.54393400  0.82873500  1
  H  H15  1  0.72420900  0.20348400  0.17930600  1
  H  H16  1  0.27579100  0.79651600  0.82069400  1
  H  H17  1  0.74648400  0.52144300  0.82824300  1
  H  H18  1  0.25351600  0.47855700  0.17175700  1
  H  H19  1  0.74671600  0.65117300  0.98187600  1
  H  H20  1  0.25328400  0.34882700  0.01812400  1
  C  C21  1  0.73051700  0.33467900  0.99425400  1
  C  C22  1  0.26948300  0.66532100  0.00574600  1
  S  S23  1  0.83830000  0.85893900  0.28369800  1
  S  S24  1  0.16170000  0.14106100  0.71630200  1
  N  N25  1  0.74641700  0.15880400  0.93354700  1
  N  N26  1  0.25358300  0.84119600  0.06645300  1
  N  N27  1  0.70145400  0.32683600  0.12312200  1
  N  N28  1  0.29854600  0.67316400  0.87687800  1
  N  N29  1  0.73782500  0.51546900  0.92799600  1
  N  N30  1  0.26217500  0.48453100  0.07200400  1
  O  O31  1  0.53223400  0.81145100  0.59531500  1
  O  O32  1  0.46776600  0.18854900  0.40468500  1
  O  O33  1  0.82124100  0.52991300  0.62160100  1
  O  O34  1  0.17875900  0.47008700  0.37839900  1
  O  O35  1  0.79455900  0.85542100  0.13691900  1
  O  O36  1  0.20544100  0.14457900  0.86308100  1
  O  O37  1  0.82431900  0.06592100  0.34122400  1
  O  O38  1  0.17568100  0.93407900  0.65877600  1
  O  O39  1  0.67075500  0.66320500  0.33440800  1
  O  O40  1  0.32924500  0.33679500  0.66559200  1
  O  O41  1  0.06541500  0.84612700  0.32243300  1
  O  O42  1  0.93458500  0.15387300  0.67756700  1
