# generated using pymatgen
data_US2O13
_symmetry_space_group_name_H-M   'P 1'
_cell_length_a   5.62709200
_cell_length_b   12.11646400
_cell_length_c   14.70169700
_cell_angle_alpha   90.00000000
_cell_angle_beta   90.00000000
_cell_angle_gamma   90.00000000
_symmetry_Int_Tables_number   1
_chemical_formula_structural   US2O13
_chemical_formula_sum   'U4 S8 O52'
_cell_volume   1002.36842958
_cell_formula_units_Z   4
loop_
 _symmetry_equiv_pos_site_id
 _symmetry_equiv_pos_as_xyz
  1  'x, y, z'
loop_
 _atom_site_type_symbol
 _atom_site_label
 _atom_site_symmetry_multiplicity
 _atom_site_fract_x
 _atom_site_fract_y
 _atom_site_fract_z
 _atom_site_occupancy
  U  U0  1  0.87113600  0.75000000  0.16423700  1
  U  U1  1  0.62886400  0.75000000  0.66423700  1
  U  U2  1  0.12886400  0.25000000  0.83576300  1
  U  U3  1  0.37113600  0.25000000  0.33576300  1
  S  S4  1  0.61976600  0.44116300  0.14943200  1
  S  S5  1  0.88023400  0.05883700  0.64943200  1
  S  S6  1  0.38023400  0.94116300  0.85056800  1
  S  S7  1  0.11976600  0.55883700  0.35056800  1
  S  S8  1  0.38023400  0.55883700  0.85056800  1
  S  S9  1  0.11976600  0.94116300  0.35056800  1
  S  S10  1  0.61976600  0.05883700  0.14943200  1
  S  S11  1  0.88023400  0.44116300  0.64943200  1
  O  O12  1  0.65111700  0.55906400  0.16990800  1
  O  O13  1  0.84888300  0.94093600  0.66990800  1
  O  O14  1  0.34888300  0.05906400  0.83009200  1
  O  O15  1  0.15111700  0.44093600  0.33009200  1
  O  O16  1  0.34888300  0.44093600  0.83009200  1
  O  O17  1  0.15111700  0.05906400  0.33009200  1
  O  O18  1  0.65111700  0.94093600  0.16990800  1
  O  O19  1  0.84888300  0.55906400  0.66990800  1
  O  O20  1  0.82213100  0.39351000  0.09853300  1
  O  O21  1  0.67786900  0.10649000  0.59853300  1
  O  O22  1  0.17786900  0.89351000  0.90146700  1
  O  O23  1  0.32213100  0.60649000  0.40146700  1
  O  O24  1  0.17786900  0.60649000  0.90146700  1
  O  O25  1  0.32213100  0.89351000  0.40146700  1
  O  O26  1  0.82213100  0.10649000  0.09853300  1
  O  O27  1  0.67786900  0.39351000  0.59853300  1
  O  O28  1  0.59608300  0.38131300  0.23834600  1
  O  O29  1  0.90391700  0.11868700  0.73834600  1
  O  O30  1  0.40391700  0.88131300  0.76165400  1
  O  O31  1  0.09608300  0.61868700  0.26165400  1
  O  O32  1  0.40391700  0.61868700  0.76165400  1
  O  O33  1  0.09608300  0.88131300  0.26165400  1
  O  O34  1  0.59608300  0.11868700  0.23834600  1
  O  O35  1  0.90391700  0.38131300  0.73834600  1
  O  O36  1  0.41385300  0.42350300  0.08855300  1
  O  O37  1  0.08614700  0.07649700  0.58855300  1
  O  O38  1  0.58614700  0.92350300  0.91144700  1
  O  O39  1  0.91385300  0.57649700  0.41144700  1
  O  O40  1  0.58614700  0.57649700  0.91144700  1
  O  O41  1  0.91385300  0.92350300  0.41144700  1
  O  O42  1  0.41385300  0.07649700  0.08855300  1
  O  O43  1  0.08614700  0.42350300  0.58855300  1
  O  O44  1  0.71270600  0.75000000  0.27095200  1
  O  O45  1  0.78729400  0.75000000  0.77095200  1
  O  O46  1  0.28729400  0.25000000  0.72904800  1
  O  O47  1  0.21270600  0.25000000  0.22904800  1
  O  O48  1  0.69882400  0.75000000  0.05251400  1
  O  O49  1  0.80117600  0.75000000  0.55251400  1
  O  O50  1  0.30117600  0.25000000  0.94748600  1
  O  O51  1  0.19882400  0.25000000  0.44748600  1
  O  O52  1  0.06012600  0.65407500  0.09048900  1
  O  O53  1  0.43987400  0.84592500  0.59048900  1
  O  O54  1  0.93987400  0.15407500  0.90951100  1
  O  O55  1  0.56012600  0.34592500  0.40951100  1
  O  O56  1  0.93987400  0.34592500  0.90951100  1
  O  O57  1  0.56012600  0.15407500  0.40951100  1
  O  O58  1  0.06012600  0.84592500  0.09048900  1
  O  O59  1  0.43987400  0.65407500  0.59048900  1
  O  O60  1  0.36558500  0.75000000  0.15654700  1
  O  O61  1  0.13441500  0.75000000  0.65654700  1
  O  O62  1  0.63441500  0.25000000  0.84345300  1
  O  O63  1  0.86558500  0.25000000  0.34345300  1
