# generated using pymatgen
data_Ca6Si6O19
_symmetry_space_group_name_H-M   'P 1'
_cell_length_a   7.42366300
_cell_length_b   7.06721800
_cell_length_c   17.41876133
_cell_angle_alpha   89.59819053
_cell_angle_beta   90.00000000
_cell_angle_gamma   90.00000000
_symmetry_Int_Tables_number   1
_chemical_formula_structural   Ca6Si6O19
_chemical_formula_sum   'Ca12 Si12 O38'
_cell_volume   913.84665350
_cell_formula_units_Z   2
loop_
 _symmetry_equiv_pos_site_id
 _symmetry_equiv_pos_as_xyz
  1  'x, y, z'
loop_
 _atom_site_type_symbol
 _atom_site_label
 _atom_site_symmetry_multiplicity
 _atom_site_fract_x
 _atom_site_fract_y
 _atom_site_fract_z
 _atom_site_occupancy
  Ca  Ca0  1  0.62533400  0.00000000  0.25000000  1
  Ca  Ca1  1  0.37466600  0.00000000  0.75000000  1
  Ca  Ca2  1  0.12436900  0.00000000  0.25000000  1
  Ca  Ca3  1  0.87563100  0.00000000  0.75000000  1
  Ca  Ca4  1  0.87437400  0.15976900  0.43462100  1
  Ca  Ca5  1  0.87437400  0.84023100  0.06537900  1
  Ca  Ca6  1  0.12562600  0.84023100  0.56537900  1
  Ca  Ca7  1  0.12562600  0.15976900  0.93462100  1
  Ca  Ca8  1  0.37543200  0.16068400  0.43302100  1
  Ca  Ca9  1  0.37543200  0.83931600  0.06697900  1
  Ca  Ca10  1  0.62456800  0.83931600  0.56697900  1
  Ca  Ca11  1  0.62456800  0.16068400  0.93302100  1
  Si  Si12  1  0.83465000  0.26906000  0.10540400  1
  Si  Si13  1  0.83465000  0.73094000  0.39459600  1
  Si  Si14  1  0.16535000  0.73094000  0.89459600  1
  Si  Si15  1  0.16535000  0.26906000  0.60540400  1
  Si  Si16  1  0.41453700  0.26771100  0.10539300  1
  Si  Si17  1  0.41453700  0.73228900  0.39460700  1
  Si  Si18  1  0.58546300  0.73228900  0.89460700  1
  Si  Si19  1  0.58546300  0.26771100  0.60539300  1
  Si  Si20  1  0.12474800  0.44533900  0.34078100  1
  Si  Si21  1  0.12474800  0.55466100  0.15921900  1
  Si  Si22  1  0.87525200  0.55466100  0.65921900  1
  Si  Si23  1  0.87525200  0.44533900  0.84078100  1
  O  O24  1  0.12532400  0.50000000  0.25000000  1
  O  O25  1  0.87467600  0.50000000  0.75000000  1
  O  O26  1  0.62436900  0.34227600  0.10571200  1
  O  O27  1  0.62436900  0.65772400  0.39428800  1
  O  O28  1  0.37563100  0.65772400  0.89428800  1
  O  O29  1  0.37563100  0.34227600  0.60571200  1
  O  O30  1  0.37471800  0.11553500  0.17367900  1
  O  O31  1  0.37471800  0.88446500  0.32632100  1
  O  O32  1  0.62528200  0.88446500  0.82632100  1
  O  O33  1  0.62528200  0.11553500  0.67367900  1
  O  O34  1  0.87478200  0.11637500  0.17350700  1
  O  O35  1  0.87478200  0.88362500  0.32649300  1
  O  O36  1  0.12521800  0.88362500  0.82649300  1
  O  O37  1  0.12521800  0.11637500  0.67350700  1
  O  O38  1  0.94554100  0.47269200  0.11525900  1
  O  O39  1  0.94554100  0.52730800  0.38474100  1
  O  O40  1  0.05445900  0.52730800  0.88474100  1
  O  O41  1  0.05445900  0.47269200  0.61525900  1
  O  O42  1  0.30268600  0.47115400  0.11472000  1
  O  O43  1  0.30268600  0.52884600  0.38528000  1
  O  O44  1  0.69731400  0.52884600  0.88528000  1
  O  O45  1  0.69731400  0.47115400  0.61472000  1
  O  O46  1  0.37278700  0.16729000  0.02318600  1
  O  O47  1  0.37278700  0.83271000  0.47681400  1
  O  O48  1  0.62721300  0.83271000  0.97681400  1
  O  O49  1  0.62721300  0.16729000  0.52318600  1
  O  O50  1  0.87717700  0.17036300  0.02291300  1
  O  O51  1  0.87717700  0.82963700  0.47708700  1
  O  O52  1  0.12282300  0.82963700  0.97708700  1
  O  O53  1  0.12282300  0.17036300  0.52291300  1
  O  O54  1  0.12520600  0.21947800  0.35260600  1
  O  O55  1  0.12520600  0.78052200  0.14739400  1
  O  O56  1  0.87479400  0.78052200  0.64739400  1
  O  O57  1  0.87479400  0.21947800  0.85260600  1
  O  O58  1  0.62454300  0.19963800  0.35375100  1
  O  O59  1  0.62454300  0.80036200  0.14624900  1
  O  O60  1  0.37545700  0.80036200  0.64624900  1
  O  O61  1  0.37545700  0.19963800  0.85375100  1
