# generated using pymatgen
data_H24AuC16S2N3O4
_symmetry_space_group_name_H-M   'P 1'
_cell_length_a   10.70791300
_cell_length_b   11.15020375
_cell_length_c   11.44239985
_cell_angle_alpha   112.45657075
_cell_angle_beta   95.21982466
_cell_angle_gamma   102.46627603
_symmetry_Int_Tables_number   1
_chemical_formula_structural   H24AuC16S2N3O4
_chemical_formula_sum   'H48 Au2 C32 S4 N6 O8'
_cell_volume   1209.82135515
_cell_formula_units_Z   2
loop_
 _symmetry_equiv_pos_site_id
 _symmetry_equiv_pos_as_xyz
  1  'x, y, z'
loop_
 _atom_site_type_symbol
 _atom_site_label
 _atom_site_symmetry_multiplicity
 _atom_site_fract_x
 _atom_site_fract_y
 _atom_site_fract_z
 _atom_site_occupancy
  H  H0  1  0.97312100  0.61952900  0.31271000  1
  H  H1  1  0.02687900  0.38047100  0.68729000  1
  H  H2  1  0.85935600  0.45570500  0.24104100  1
  H  H3  1  0.14064400  0.54429500  0.75895900  1
  H  H4  1  0.99362800  0.49120800  0.36445600  1
  H  H5  1  0.00637200  0.50879200  0.63554400  1
  H  H6  1  0.08978000  0.29930500  0.05481900  1
  H  H7  1  0.91022000  0.70069500  0.94518100  1
  H  H8  1  0.04486600  0.28501000  0.19747500  1
  H  H9  1  0.95513400  0.71499000  0.80252500  1
  H  H10  1  0.92216900  0.27016900  0.07143200  1
  H  H11  1  0.07783100  0.72983100  0.92856800  1
  H  H12  1  0.51040400  0.51494400  0.13303000  1
  H  H13  1  0.48959600  0.48505600  0.86697000  1
  H  H14  1  0.64479000  0.54692800  0.25485900  1
  H  H15  1  0.35521000  0.45307200  0.74514100  1
  H  H16  1  0.52222300  0.38839800  0.19045000  1
  H  H17  1  0.47777700  0.61160200  0.80955000  1
  H  H18  1  0.43607500  0.73041900  0.44740300  1
  H  H19  1  0.56392500  0.26958100  0.55259700  1
  H  H20  1  0.60077000  0.74285700  0.42296900  1
  H  H21  1  0.39923000  0.25714300  0.57703100  1
  H  H22  1  0.47799200  0.73500400  0.30037900  1
  H  H23  1  0.52200800  0.26499600  0.69962100  1
  H  H24  1  0.32766800  0.01349200  0.59124400  1
  H  H25  1  0.67233200  0.98650800  0.40875600  1
  H  H26  1  0.45744200  0.03020300  0.71325200  1
  H  H27  1  0.54255800  0.96979700  0.28674800  1
  H  H28  1  0.35236500  0.86581000  0.60797300  1
  H  H29  1  0.64763500  0.13419000  0.39202700  1
  H  H30  1  0.06367000  0.92019300  0.74652300  1
  H  H31  1  0.93633000  0.07980700  0.25347700  1
  H  H32  1  0.10709000  0.94210000  0.60729200  1
  H  H33  1  0.89291000  0.05790000  0.39270800  1
  H  H34  1  0.12922600  0.79832300  0.63218500  1
  H  H35  1  0.87077400  0.20167700  0.36781500  1
  H  H36  1  0.19620200  0.13461800  0.88497300  1
  H  H37  1  0.80379800  0.86538200  0.11502700  1
  H  H38  1  0.36583500  0.18708900  0.88051600  1
  H  H39  1  0.63416500  0.81291100  0.11948400  1
  H  H40  1  0.24283300  0.16851900  0.75206600  1
  H  H41  1  0.75716700  0.83148100  0.24793400  1
  H  H42  1  0.31102900  0.82777300  0.79492700  1
  H  H43  1  0.68897100  0.17222700  0.20507300  1
  H  H44  1  0.41167900  0.99470400  0.89520500  1
  H  H45  1  0.58832100  0.00529600  0.10479500  1
  H  H46  1  0.24845100  0.94400900  0.91835400  1
  H  H47  1  0.75154900  0.05599100  0.08164600  1
  Au  Au48  1  0.23661300  0.01303600  0.25322900  1
  Au  Au49  1  0.76338700  0.98696400  0.74677100  1
  C  C50  1  0.16374500  0.69100300  0.18340200  1
  C  C51  1  0.83625500  0.30899700  0.81659800  1
  C  C52  1  0.12351200  0.54893700  0.14976400  1
  C  C53  1  0.87648800  0.45106300  0.85023600  1
  C  C54  1  0.33165300  0.33913600  0.32805500  1
  C  C55  1  0.66834700  0.66086400  0.67194500  1
  C  C56  1  0.38267300  0.47968600  0.35884600  1
  C  C57  1  0.61732700  0.52031400  0.64115400  1
  C  C58  1  0.25788900  0.67425700  0.09587600  1
  C  C59  1  0.74211100  0.32574300  0.90412400  1
  C  C60  1  0.21451500  0.52355400  0.05692200  1
  C  C61  1  0.78548500  0.47644600  0.94307800  1
  C  C62  1  0.24974400  0.36810200  0.42713700  1
  C  C63  1  0.75025600  0.63189800  0.57286300  1
  C  C64  1  0.30142300  0.51706000  0.45978900  1
  C  C65  1  0.69857700  0.48294000  0.54021100  1
  C  C66  1  0.96242300  0.51156100  0.28117300  1
  C  C67  1  0.03757700  0.48843900  0.71882700  1
  C  C68  1  0.02363700  0.32124400  0.12288800  1
  C  C69  1  0.97636300  0.67875600  0.87711200  1
  C  C70  1  0.54013600  0.49678500  0.21800900  1
  C  C71  1  0.45986400  0.50321500  0.78199100  1
  C  C72  1  0.49726100  0.69954200  0.37596500  1
  C  C73  1  0.50273900  0.30045800  0.62403500  1
  C  C74  1  0.35844100  0.97300300  0.65904500  1
  C  C75  1  0.64155900  0.02699700  0.34095500  1
  C  C76  1  0.13159700  0.90480400  0.67960600  1
  C  C77  1  0.86840300  0.09519600  0.32039400  1
  C  C78  1  0.26844600  0.12970800  0.82281000  1
  C  C79  1  0.73155400  0.87029200  0.17719000  1
  C  C80  1  0.31209400  0.93329500  0.84738500  1
  C  C81  1  0.68790600  0.06670500  0.15261500  1
  S  S82  1  0.12105800  0.82783300  0.28252400  1
  S  S83  1  0.87894200  0.17216700  0.71747600  1
  S  S84  1  0.35301900  0.19440800  0.21904000  1
  S  S85  1  0.64698100  0.80559200  0.78096000  1
  N  N86  1  0.04048700  0.46648400  0.18334300  1
  N  N87  1  0.95951300  0.53351600  0.81665700  1
  N  N88  1  0.46776400  0.55291100  0.31814200  1
  N  N89  1  0.53223600  0.44708900  0.68185800  1
  N  N90  1  0.26716600  0.98506100  0.75242100  1
  N  N91  1  0.73283400  0.01493900  0.24757900  1
  O  O92  1  0.33857800  0.75182100  0.06792500  1
  O  O93  1  0.66142200  0.24817900  0.93207500  1
  O  O94  1  0.24127600  0.42295700  0.98158100  1
  O  O95  1  0.75872400  0.57704300  0.01841900  1
  O  O96  1  0.17221500  0.29897500  0.46555000  1
  O  O97  1  0.82778500  0.70102500  0.53445000  1
  O  O98  1  0.28338100  0.62323300  0.53523100  1
  O  O99  1  0.71661900  0.37676700  0.46476900  1
