# generated using pymatgen
data_AgH12C4Se5N
_symmetry_space_group_name_H-M   'P 1'
_cell_length_a   11.12005592
_cell_length_b   11.12005592
_cell_length_c   7.58723743
_cell_angle_alpha   72.76142105
_cell_angle_beta   72.76142105
_cell_angle_gamma   117.20659466
_symmetry_Int_Tables_number   1
_chemical_formula_structural   AgH12C4Se5N
_chemical_formula_sum   'Ag2 H24 C8 Se10 N2'
_cell_volume   686.24623883
_cell_formula_units_Z   2
loop_
 _symmetry_equiv_pos_site_id
 _symmetry_equiv_pos_as_xyz
  1  'x, y, z'
loop_
 _atom_site_type_symbol
 _atom_site_label
 _atom_site_symmetry_multiplicity
 _atom_site_fract_x
 _atom_site_fract_y
 _atom_site_fract_z
 _atom_site_occupancy
  Ag  Ag0  1  0.37108600  0.33259800  0.68966100  1
  Ag  Ag1  1  0.33259800  0.37108600  0.18966100  1
  H  H2  1  0.31752200  0.03775800  0.16798000  1
  H  H3  1  0.03775800  0.31752200  0.66798000  1
  H  H4  1  0.35960200  0.92130200  0.07965400  1
  H  H5  1  0.92130200  0.35960200  0.57965400  1
  H  H6  1  0.30384800  0.02916000  0.94096200  1
  H  H7  1  0.02916000  0.30384800  0.44096200  1
  H  H8  1  0.10307300  0.79066300  0.98716200  1
  H  H9  1  0.79066300  0.10307300  0.48716200  1
  H  H10  1  0.15210000  0.67951200  0.13370900  1
  H  H11  1  0.67951200  0.15210000  0.63370900  1
  H  H12  1  0.95341900  0.62010100  0.25095600  1
  H  H13  1  0.62010100  0.95341900  0.75095600  1
  H  H14  1  0.16689200  0.69406000  0.44405600  1
  H  H15  1  0.69406000  0.16689200  0.94405600  1
  H  H16  1  0.12432000  0.81395000  0.52280500  1
  H  H17  1  0.81395000  0.12432000  0.02280500  1
  H  H18  1  0.96747200  0.63365300  0.56591800  1
  H  H19  1  0.63365300  0.96747200  0.06591800  1
  H  H20  1  0.89154800  0.76916300  0.37775700  1
  H  H21  1  0.76916300  0.89154800  0.87775700  1
  H  H22  1  0.04500600  0.94658200  0.34654500  1
  H  H23  1  0.94658200  0.04500600  0.84654500  1
  H  H24  1  0.03494200  0.94428500  0.11555600  1
  H  H25  1  0.94428500  0.03494200  0.61555600  1
  C  C26  1  0.28736700  0.96342700  0.09702300  1
  C  C27  1  0.96342700  0.28736700  0.59702300  1
  C  C28  1  0.07841500  0.72023800  0.14689100  1
  C  C29  1  0.72023800  0.07841500  0.64689100  1
  C  C30  1  0.09243400  0.73369400  0.46056900  1
  C  C31  1  0.73369400  0.09243400  0.96056900  1
  C  C32  1  0.01416800  0.87452600  0.27287400  1
  C  C33  1  0.87452600  0.01416800  0.77287400  1
  Se  Se34  1  0.14521000  0.27652600  0.03221100  1
  Se  Se35  1  0.27652600  0.14521000  0.53221100  1
  Se  Se36  1  0.14433500  0.49602600  0.87713400  1
  Se  Se37  1  0.49602600  0.14433500  0.37713400  1
  Se  Se38  1  0.41206500  0.71269700  0.63892500  1
  Se  Se39  1  0.71269700  0.41206500  0.13892500  1
  Se  Se40  1  0.50815400  0.64102000  0.39443200  1
  Se  Se41  1  0.64102000  0.50815400  0.89443200  1
  Se  Se42  1  0.64121400  0.40024700  0.66849300  1
  Se  Se43  1  0.40024700  0.64121400  0.16849300  1
  N  N44  1  0.11813300  0.82268700  0.24382600  1
  N  N45  1  0.82268700  0.11813300  0.74382600  1
