# generated using pymatgen
data_YbP2H4NO7
_symmetry_space_group_name_H-M   'P 1'
_cell_length_a   11.28475400
_cell_length_b   7.71560000
_cell_length_c   8.79053210
_cell_angle_alpha   75.01907608
_cell_angle_beta   90.00000000
_cell_angle_gamma   90.00000000
_symmetry_Int_Tables_number   1
_chemical_formula_structural   YbP2H4NO7
_chemical_formula_sum   'Yb4 P8 H16 N4 O28'
_cell_volume   739.36597495
_cell_formula_units_Z   4
loop_
 _symmetry_equiv_pos_site_id
 _symmetry_equiv_pos_as_xyz
  1  'x, y, z'
loop_
 _atom_site_type_symbol
 _atom_site_label
 _atom_site_symmetry_multiplicity
 _atom_site_fract_x
 _atom_site_fract_y
 _atom_site_fract_z
 _atom_site_occupancy
  Yb  Yb0  1  0.10208800  0.26776700  0.75161800  1
  Yb  Yb1  1  0.60208800  0.73223300  0.74838200  1
  Yb  Yb2  1  0.89791200  0.73223300  0.24838200  1
  Yb  Yb3  1  0.39791200  0.26776700  0.25161800  1
  P  P4  1  0.40311300  0.36721900  0.81141400  1
  P  P5  1  0.90311300  0.63278100  0.68858600  1
  P  P6  1  0.59688700  0.63278100  0.18858600  1
  P  P7  1  0.09688700  0.36721900  0.31141400  1
  P  P8  1  0.36189100  0.05817000  0.68716000  1
  P  P9  1  0.86189100  0.94183000  0.81284000  1
  P  P10  1  0.63810900  0.94183000  0.31284000  1
  P  P11  1  0.13810900  0.05817000  0.18716000  1
  H  H12  1  0.36625600  0.73275700  0.53795100  1
  H  H13  1  0.86625600  0.26724300  0.96204900  1
  H  H14  1  0.63374400  0.26724300  0.46204900  1
  H  H15  1  0.13374400  0.73275700  0.03795100  1
  H  H16  1  0.38969700  0.62651500  0.39413300  1
  H  H17  1  0.88969700  0.37348500  0.10586700  1
  H  H18  1  0.61030300  0.37348500  0.60586700  1
  H  H19  1  0.11030300  0.62651500  0.89413300  1
  H  H20  1  0.29853800  0.81008800  0.36184800  1
  H  H21  1  0.79853800  0.18991200  0.13815200  1
  H  H22  1  0.70146200  0.18991200  0.63815200  1
  H  H23  1  0.20146200  0.81008800  0.86184800  1
  H  H24  1  0.25803700  0.61045900  0.48839900  1
  H  H25  1  0.75803700  0.38954100  0.01160100  1
  H  H26  1  0.74196300  0.38954100  0.51160200  1
  H  H27  1  0.24196300  0.61045900  0.98839800  1
  N  N28  1  0.32731100  0.69499300  0.44505700  1
  N  N29  1  0.82731100  0.30500700  0.05494300  1
  N  N30  1  0.67268900  0.30500700  0.55494300  1
  N  N31  1  0.17268900  0.69499300  0.94505700  1
  O  O32  1  0.27911300  0.42231600  0.74587100  1
  O  O33  1  0.77911300  0.57768400  0.75412900  1
  O  O34  1  0.72088700  0.57768400  0.25412900  1
  O  O35  1  0.22088700  0.42231600  0.24587100  1
  O  O36  1  0.40891900  0.36964300  0.98415200  1
  O  O37  1  0.90891900  0.63035700  0.51584800  1
  O  O38  1  0.59108100  0.63035700  0.01584800  1
  O  O39  1  0.09108100  0.36964300  0.48415200  1
  O  O40  1  0.42663800  0.16050100  0.80586100  1
  O  O41  1  0.92663800  0.83949900  0.69413900  1
  O  O42  1  0.57336200  0.83949900  0.19413900  1
  O  O43  1  0.07336200  0.16050100  0.30586100  1
  O  O44  1  0.50244100  0.47844800  0.71428000  1
  O  O45  1  0.00244100  0.52155200  0.78572000  1
  O  O46  1  0.49755900  0.52155200  0.28572000  1
  O  O47  1  0.99755900  0.47844800  0.21428000  1
  O  O48  1  0.23098000  0.03711400  0.73338100  1
  O  O49  1  0.73098000  0.96288600  0.76661900  1
  O  O50  1  0.76902000  0.96288600  0.26661900  1
  O  O51  1  0.26902000  0.03711400  0.23338100  1
  O  O52  1  0.38225800  0.17136700  0.51930400  1
  O  O53  1  0.88225800  0.82863300  0.98069600  1
  O  O54  1  0.61774200  0.82863300  0.48069600  1
  O  O55  1  0.11774200  0.17136700  0.01930400  1
  O  O56  1  0.42409200  0.87663300  0.71692900  1
  O  O57  1  0.92409200  0.12336700  0.78307100  1
  O  O58  1  0.57590800  0.12336700  0.28307100  1
  O  O59  1  0.07590800  0.87663300  0.21692900  1
