# generated using pymatgen
data_H9C3SeN3
_symmetry_space_group_name_H-M   'P 1'
_cell_length_a   5.97446500
_cell_length_b   10.21849500
_cell_length_c   22.40079500
_cell_angle_alpha   90.00000000
_cell_angle_beta   90.00000000
_cell_angle_gamma   90.00000000
_symmetry_Int_Tables_number   1
_chemical_formula_structural   H9C3SeN3
_chemical_formula_sum   'H72 C24 Se8 N24'
_cell_volume   1367.56944714
_cell_formula_units_Z   8
loop_
 _symmetry_equiv_pos_site_id
 _symmetry_equiv_pos_as_xyz
  1  'x, y, z'
loop_
 _atom_site_type_symbol
 _atom_site_label
 _atom_site_symmetry_multiplicity
 _atom_site_fract_x
 _atom_site_fract_y
 _atom_site_fract_z
 _atom_site_occupancy
  H  H0  1  0.67903300  0.08251300  0.55899500  1
  H  H1  1  0.82096700  0.91748700  0.05899500  1
  H  H2  1  0.17903300  0.41748700  0.44100500  1
  H  H3  1  0.32096700  0.58251300  0.94100500  1
  H  H4  1  0.56793700  0.16655500  0.62298600  1
  H  H5  1  0.93206300  0.83344500  0.12298600  1
  H  H6  1  0.06793700  0.33344500  0.37701400  1
  H  H7  1  0.43206300  0.66655500  0.87701400  1
  H  H8  1  0.39108800  0.05283200  0.58156100  1
  H  H9  1  0.10891200  0.94716800  0.08156100  1
  H  H10  1  0.89108800  0.44716800  0.41843900  1
  H  H11  1  0.60891200  0.55283200  0.91843900  1
  H  H12  1  0.38519300  0.81314500  0.58103000  1
  H  H13  1  0.11480700  0.18685500  0.08103000  1
  H  H14  1  0.88519300  0.68685500  0.41897000  1
  H  H15  1  0.61480700  0.31314500  0.91897000  1
  H  H16  1  0.57516900  0.70266700  0.62035300  1
  H  H17  1  0.92483100  0.29733300  0.12035300  1
  H  H18  1  0.07516900  0.79733300  0.37964700  1
  H  H19  1  0.42483100  0.20266700  0.87964700  1
  H  H20  1  0.66951900  0.78967300  0.55467000  1
  H  H21  1  0.83048100  0.21032700  0.05467000  1
  H  H22  1  0.16951900  0.71032700  0.44533000  1
  H  H23  1  0.33048100  0.28967300  0.94533000  1
  H  H24  1  0.25132900  0.92433000  0.66990300  1
  H  H25  1  0.24867100  0.07567000  0.16990300  1
  H  H26  1  0.75132900  0.57567000  0.33009700  1
  H  H27  1  0.74867100  0.42433000  0.83009700  1
  H  H28  1  0.40200000  0.01432700  0.72656300  1
  H  H29  1  0.09800000  0.98567300  0.22656300  1
  H  H30  1  0.90200000  0.48567300  0.27343700  1
  H  H31  1  0.59800000  0.51432700  0.77343700  1
  H  H32  1  0.41089700  0.83721800  0.72566500  1
  H  H33  1  0.08910300  0.16278200  0.22566500  1
  H  H34  1  0.91089700  0.66278200  0.27433500  1
  H  H35  1  0.58910300  0.33721800  0.77433500  1
  H  H36  1  0.71281700  0.18915200  0.44110500  1
  H  H37  1  0.78718300  0.81084800  0.94110500  1
  H  H38  1  0.21281700  0.31084800  0.55889500  1
  H  H39  1  0.28718300  0.68915200  0.05889500  1
  H  H40  1  0.41937400  0.20699900  0.46106600  1
  H  H41  1  0.08062600  0.79300100  0.96106600  1
  H  H42  1  0.91937400  0.29300100  0.53893400  1
  H  H43  1  0.58062600  0.70699900  0.03893400  1
  H  H44  1  0.53056200  0.29721600  0.39808200  1
  H  H45  1  0.96943800  0.70278400  0.89808200  1
  H  H46  1  0.03056200  0.20278400  0.60191800  1
  H  H47  1  0.46943800  0.79721600  0.10191800  1
  H  H48  1  0.75149900  0.15292400  0.30072100  1
  H  H49  1  0.74850100  0.84707600  0.80072100  1
  H  H50  1  0.25149900  0.34707600  0.69927900  1
  H  H51  1  0.24850100  0.65292400  0.19927900  1
  H  H52  1  0.75582700  0.97603100  0.30014400  1
  H  H53  1  0.74417300  0.02396900  0.80014400  1
  H  H54  1  0.25582700  0.52396900  0.69985600  1
  H  H55  1  0.24417300  0.47603100  0.19985600  1
  H  H56  1  0.87947500  0.06491800  0.36221500  1
  H  H57  1  0.62052500  0.93508200  0.86221500  1
  H  H58  1  0.37947500  0.43508200  0.63778500  1
  H  H59  1  0.12052500  0.56491800  0.13778500  1
  H  H60  1  0.71397700  0.94369000  0.44214800  1
  H  H61  1  0.78602300  0.05631000  0.94214800  1
  H  H62  1  0.21397700  0.55631000  0.55785200  1
  H  H63  1  0.28602300  0.44369000  0.05785200  1
  H  H64  1  0.54150600  0.83057400  0.39972200  1
  H  H65  1  0.95849400  0.16942600  0.89972200  1
  H  H66  1  0.04150600  0.66942600  0.60027800  1
  H  H67  1  0.45849400  0.33057400  0.10027800  1
  H  H68  1  0.42082300  0.91915800  0.46136500  1
  H  H69  1  0.07917700  0.08084200  0.96136500  1
  H  H70  1  0.92082300  0.58084200  0.53863500  1
  H  H71  1  0.57917700  0.41915800  0.03863500  1
  C  C72  1  0.56091900  0.07712400  0.59620400  1
  C  C73  1  0.93908100  0.92287600  0.09620400  1
  C  C74  1  0.06091900  0.42287600  0.40379600  1
  C  C75  1  0.43908100  0.57712400  0.90379600  1
  C  C76  1  0.55888600  0.79172700  0.59361300  1
  C  C77  1  0.94111400  0.20827300  0.09361300  1
  C  C78  1  0.05888600  0.70827300  0.40638700  1
  C  C79  1  0.44111400  0.29172700  0.90638700  1
  C  C80  1  0.40000500  0.92638300  0.69852700  1
  C  C81  1  0.09999500  0.07361700  0.19852700  1
  C  C82  1  0.90000500  0.57361700  0.30147300  1
  C  C83  1  0.59999500  0.42638300  0.80147300  1
  C  C84  1  0.54253800  0.20777100  0.42492200  1
  C  C85  1  0.95746200  0.79222900  0.92492200  1
  C  C86  1  0.04253800  0.29222900  0.57507800  1
  C  C87  1  0.45746200  0.70777100  0.07507800  1
  C  C88  1  0.74813000  0.06405600  0.32803600  1
  C  C89  1  0.75187000  0.93594400  0.82803600  1
  C  C90  1  0.24813000  0.43594400  0.67196400  1
  C  C91  1  0.25187000  0.56405600  0.17196400  1
  C  C92  1  0.54577800  0.92117500  0.42572000  1
  C  C93  1  0.95422200  0.07882500  0.92572000  1
  C  C94  1  0.04577800  0.57882500  0.57428000  1
  C  C95  1  0.45422200  0.42117500  0.07428000  1
  Se  Se96  1  0.66319900  0.93194900  0.64614700  1
  Se  Se97  1  0.83680100  0.06805100  0.14614700  1
  Se  Se98  1  0.16319900  0.56805100  0.35385300  1
  Se  Se99  1  0.33680100  0.43194900  0.85385300  1
  Se  Se100  1  0.46321200  0.06331400  0.37143600  1
  Se  Se101  1  0.03678800  0.93668600  0.87143600  1
  Se  Se102  1  0.96321200  0.43668600  0.62856400  1
  Se  Se103  1  0.53678800  0.56331400  0.12856400  1
  N  N104  1  0.43936300  0.93199900  0.96295400  1
  N  N105  1  0.06063700  0.06800100  0.46295400  1
  N  N106  1  0.93936300  0.56800100  0.03704600  1
  N  N107  1  0.56063700  0.43199900  0.53704600  1
  N  N108  1  0.44761900  0.00292100  0.00508700  1
  N  N109  1  0.05238100  0.99707900  0.50508700  1
  N  N110  1  0.94761900  0.49707900  0.99491300  1
  N  N111  1  0.55238100  0.50292100  0.49491300  1
  N  N112  1  0.45631000  0.07376700  0.04728200  1
  N  N113  1  0.04369000  0.92623300  0.54728200  1
  N  N114  1  0.95631000  0.42623300  0.95271800  1
  N  N115  1  0.54369000  0.57376700  0.45271800  1
  N  N116  1  0.35437300  0.81783300  0.28746300  1
  N  N117  1  0.14562700  0.18216700  0.78746300  1
  N  N118  1  0.85437300  0.68216700  0.71253700  1
  N  N119  1  0.64562700  0.31783300  0.21253700  1
  N  N120  1  0.49337700  0.81547900  0.24935300  1
  N  N121  1  0.00662300  0.18452100  0.74935300  1
  N  N122  1  0.99337700  0.68452100  0.75064700  1
  N  N123  1  0.50662300  0.31547900  0.25064700  1
  N  N124  1  0.63233000  0.81311200  0.21122500  1
  N  N125  1  0.86767000  0.18688800  0.71122500  1
  N  N126  1  0.13233000  0.68688800  0.78877500  1
  N  N127  1  0.36767000  0.31311200  0.28877500  1
