# generated using pymatgen
data_BiN3O14
_symmetry_space_group_name_H-M   'P 1'
_cell_length_a   6.56764000
_cell_length_b   8.73572339
_cell_length_c   9.96573641
_cell_angle_alpha   79.31036913
_cell_angle_beta   85.22482766
_cell_angle_gamma   77.58898255
_symmetry_Int_Tables_number   1
_chemical_formula_structural   BiN3O14
_chemical_formula_sum   'Bi2 N6 O28'
_cell_volume   548.15226616
_cell_formula_units_Z   2
loop_
 _symmetry_equiv_pos_site_id
 _symmetry_equiv_pos_as_xyz
  1  'x, y, z'
loop_
 _atom_site_type_symbol
 _atom_site_label
 _atom_site_symmetry_multiplicity
 _atom_site_fract_x
 _atom_site_fract_y
 _atom_site_fract_z
 _atom_site_occupancy
  Bi  Bi0  1  0.11051400  0.71116800  0.19761600  1
  Bi  Bi1  1  0.88948600  0.28883200  0.80238400  1
  N  N2  1  0.10636100  0.33780600  0.18004100  1
  N  N3  1  0.89363900  0.66219400  0.81995900  1
  N  N4  1  0.83906400  0.83558200  0.40285800  1
  N  N5  1  0.16093600  0.16441800  0.59714200  1
  N  N6  1  0.33911400  0.84991000  0.94737700  1
  N  N7  1  0.66088600  0.15009000  0.05262300  1
  O  O8  1  0.17661500  0.39243900  0.06038800  1
  O  O9  1  0.82338500  0.60756100  0.93961200  1
  O  O10  1  0.10148100  0.42711400  0.27110600  1
  O  O11  1  0.89851900  0.57288600  0.72889400  1
  O  O12  1  0.04690300  0.21225600  0.20887100  1
  O  O13  1  0.95309700  0.78774400  0.79112900  1
  O  O14  1  0.86824000  0.68586100  0.39208600  1
  O  O15  1  0.13176000  0.31413900  0.60791400  1
  O  O16  1  0.94383500  0.92065800  0.31227700  1
  O  O17  1  0.05616500  0.07934200  0.68772300  1
  O  O18  1  0.72420600  0.89219500  0.49078200  1
  O  O19  1  0.27579400  0.10780500  0.50921800  1
  O  O20  1  0.34573900  0.69983700  0.98349700  1
  O  O21  1  0.65426100  0.30016300  0.01650300  1
  O  O22  1  0.22494300  0.93934100  0.02817800  1
  O  O23  1  0.77505700  0.06065900  0.97182200  1
  O  O24  1  0.43221700  0.90562300  0.84515100  1
  O  O25  1  0.56778300  0.09437700  0.15484900  1
  O  O26  1  0.59366500  0.39877800  0.30034200  1
  O  O27  1  0.40633500  0.60122200  0.69965800  1
  O  O28  1  0.27746900  0.64324800  0.49759900  1
  O  O29  1  0.72253100  0.35675200  0.50240100  1
  O  O30  1  0.40043000  0.70208700  0.29661900  1
  O  O31  1  0.59957000  0.29791300  0.70338100  1
  O  O32  1  0.80283800  0.77879000  0.08397300  1
  O  O33  1  0.19716200  0.22121000  0.91602700  1
  O  O34  1  0.60562700  0.31435500  0.41876200  1
  O  O35  1  0.39437300  0.68564500  0.58123800  1
