# generated using pymatgen
data_Nb4Ag2O11
_symmetry_space_group_name_H-M   'P 1'
_cell_length_a   13.04401412
_cell_length_b   13.04401412
_cell_length_c   13.04401381
_cell_angle_alpha   27.95345320
_cell_angle_beta   27.95345320
_cell_angle_gamma   27.95345045
_symmetry_Int_Tables_number   1
_chemical_formula_structural   Nb4Ag2O11
_chemical_formula_sum   'Nb8 Ag4 O22'
_cell_volume   430.70060378
_cell_formula_units_Z   2
loop_
 _symmetry_equiv_pos_site_id
 _symmetry_equiv_pos_as_xyz
  1  'x, y, z'
loop_
 _atom_site_type_symbol
 _atom_site_label
 _atom_site_symmetry_multiplicity
 _atom_site_fract_x
 _atom_site_fract_y
 _atom_site_fract_z
 _atom_site_occupancy
  Nb  Nb0  1  0.38613900  0.11386100  0.75000000  1
  Nb  Nb1  1  0.75000000  0.38613900  0.11386100  1
  Nb  Nb2  1  0.11386100  0.75000000  0.38613900  1
  Nb  Nb3  1  0.25000000  0.61386100  0.88613900  1
  Nb  Nb4  1  0.88613900  0.25000000  0.61386100  1
  Nb  Nb5  1  0.61386100  0.88613900  0.25000000  1
  Nb  Nb6  1  0.00000000  0.00000000  0.00000000  1
  Nb  Nb7  1  0.50000000  0.50000000  0.50000000  1
  Ag  Ag8  1  0.67148000  0.67148000  0.67148000  1
  Ag  Ag9  1  0.17148000  0.17148000  0.17148000  1
  Ag  Ag10  1  0.32852000  0.32852000  0.32852000  1
  Ag  Ag11  1  0.82852000  0.82852000  0.82852000  1
  O  O12  1  0.74500200  0.43624800  0.22566500  1
  O  O13  1  0.22566500  0.74500200  0.43624800  1
  O  O14  1  0.43624800  0.22566500  0.74500200  1
  O  O15  1  0.72566500  0.93624800  0.24500200  1
  O  O16  1  0.24500200  0.72566500  0.93624800  1
  O  O17  1  0.93624800  0.24500200  0.72566500  1
  O  O18  1  0.25499800  0.56375200  0.77433500  1
  O  O19  1  0.77433500  0.25499800  0.56375200  1
  O  O20  1  0.56375200  0.77433500  0.25499800  1
  O  O21  1  0.27433500  0.06375200  0.75499800  1
  O  O22  1  0.75499800  0.27433500  0.06375200  1
  O  O23  1  0.06375200  0.75499800  0.27433500  1
  O  O24  1  0.99872400  0.50127600  0.75000000  1
  O  O25  1  0.75000000  0.99872400  0.50127600  1
  O  O26  1  0.50127600  0.75000000  0.99872400  1
  O  O27  1  0.25000000  0.00127600  0.49872400  1
  O  O28  1  0.49872400  0.25000000  0.00127600  1
  O  O29  1  0.00127600  0.49872400  0.25000000  1
  O  O30  1  0.59346800  0.59346800  0.59346800  1
  O  O31  1  0.09346800  0.09346800  0.09346800  1
  O  O32  1  0.40653200  0.40653200  0.40653200  1
  O  O33  1  0.90653200  0.90653200  0.90653200  1
