# generated using pymatgen
data_ZnSO10
_symmetry_space_group_name_H-M   'P 1'
_cell_length_a   5.29407870
_cell_length_b   5.29407870
_cell_length_c   24.22710658
_cell_angle_alpha   86.43181748
_cell_angle_beta   86.43181748
_cell_angle_gamma   74.06313284
_symmetry_Int_Tables_number   1
_chemical_formula_structural   ZnSO10
_chemical_formula_sum   'Zn4 S4 O40'
_cell_volume   650.93419781
_cell_formula_units_Z   4
loop_
 _symmetry_equiv_pos_site_id
 _symmetry_equiv_pos_as_xyz
  1  'x, y, z'
loop_
 _atom_site_type_symbol
 _atom_site_label
 _atom_site_symmetry_multiplicity
 _atom_site_fract_x
 _atom_site_fract_y
 _atom_site_fract_z
 _atom_site_occupancy
  Zn  Zn0  1  0.00000000  0.00000000  0.50000000  1
  Zn  Zn1  1  0.00000000  0.00000000  0.00000000  1
  Zn  Zn2  1  0.07579500  0.92420500  0.25000000  1
  Zn  Zn3  1  0.92420500  0.07579500  0.75000000  1
  S  S4  1  0.38266400  0.32417000  0.38561700  1
  S  S5  1  0.67583000  0.61733600  0.11438300  1
  S  S6  1  0.61733600  0.67583000  0.61438300  1
  S  S7  1  0.32417000  0.38266400  0.88561700  1
  O  O8  1  0.09450600  0.37415300  0.37826900  1
  O  O9  1  0.62584700  0.90549400  0.12173100  1
  O  O10  1  0.90549400  0.62584700  0.62173100  1
  O  O11  1  0.37415300  0.09450600  0.87826900  1
  O  O12  1  0.50792000  0.43163800  0.33773300  1
  O  O13  1  0.56836200  0.49208000  0.16226700  1
  O  O14  1  0.49208000  0.56836200  0.66226700  1
  O  O15  1  0.43163800  0.50792000  0.83773300  1
  O  O16  1  0.41580100  0.44995400  0.43892000  1
  O  O17  1  0.55004600  0.58419900  0.06108000  1
  O  O18  1  0.58419900  0.55004600  0.56108000  1
  O  O19  1  0.44995400  0.41580100  0.93892000  1
  O  O20  1  0.51081600  0.03591100  0.39403000  1
  O  O21  1  0.96408900  0.48918400  0.10597000  1
  O  O22  1  0.48918400  0.96408900  0.60597000  1
  O  O23  1  0.03591100  0.51081600  0.89403000  1
  O  O24  1  0.87032800  0.39941700  0.46229200  1
  O  O25  1  0.60058300  0.12967200  0.03770800  1
  O  O26  1  0.12967200  0.60058300  0.53770800  1
  O  O27  1  0.39941700  0.87032800  0.96229200  1
  O  O28  1  0.15261400  0.87310300  0.42731600  1
  O  O29  1  0.12689700  0.84738600  0.07268400  1
  O  O30  1  0.84738600  0.12689700  0.57268400  1
  O  O31  1  0.87310300  0.15261400  0.92731600  1
  O  O32  1  0.73933200  0.79908400  0.48346400  1
  O  O33  1  0.20091600  0.26066800  0.01653600  1
  O  O34  1  0.26066800  0.20091600  0.51653600  1
  O  O35  1  0.79908400  0.73933200  0.98346400  1
  O  O36  1  0.67671900  0.02845700  0.22586700  1
  O  O37  1  0.97154300  0.32328100  0.27413300  1
  O  O38  1  0.32328100  0.97154300  0.77413300  1
  O  O39  1  0.02845700  0.67671900  0.72586700  1
  O  O40  1  0.08554700  0.57516700  0.21683200  1
  O  O41  1  0.42483300  0.91445300  0.28316800  1
  O  O42  1  0.91445300  0.42483300  0.78316800  1
  O  O43  1  0.57516700  0.08554700  0.71683200  1
  O  O44  1  0.86943800  0.74583700  0.30130600  1
  O  O45  1  0.25416300  0.13056200  0.19869400  1
  O  O46  1  0.13056200  0.25416300  0.69869400  1
  O  O47  1  0.74583700  0.86943800  0.80130600  1
