# generated using pymatgen
data_Na2CaP2H16(S3O4)2
_symmetry_space_group_name_H-M   'P 1'
_cell_length_a   8.73480653
_cell_length_b   8.73480653
_cell_length_c   13.82457558
_cell_angle_alpha   96.14408512
_cell_angle_beta   105.06493026
_cell_angle_gamma   114.78661618
_symmetry_Int_Tables_number   1
_chemical_formula_structural   Na2CaP2H16(S3O4)2
_chemical_formula_sum   'Na4 Ca2 P4 H32 S12 O16'
_cell_volume   896.18494144
_cell_formula_units_Z   2
loop_
 _symmetry_equiv_pos_site_id
 _symmetry_equiv_pos_as_xyz
  1  'x, y, z'
loop_
 _atom_site_type_symbol
 _atom_site_label
 _atom_site_symmetry_multiplicity
 _atom_site_fract_x
 _atom_site_fract_y
 _atom_site_fract_z
 _atom_site_occupancy
  Na  Na0  1  0.00000000  0.50000000  0.00000000  1
  Na  Na1  1  0.00000000  0.00000000  0.50000000  1
  Na  Na2  1  0.42492100  0.17492100  0.25000000  1
  Na  Na3  1  0.57507900  0.82507900  0.75000000  1
  Ca  Ca4  1  0.00065300  0.75065300  0.25000000  1
  Ca  Ca5  1  0.99934700  0.24934700  0.75000000  1
  P  P6  1  0.60356500  0.95897000  0.04178900  1
  P  P7  1  0.41718100  0.56177600  0.45821100  1
  P  P8  1  0.39643500  0.04103000  0.95821100  1
  P  P9  1  0.58281900  0.43822400  0.54178900  1
  H  H10  1  0.62779000  0.70506300  0.20129500  1
  H  H11  1  0.00376700  0.42649500  0.29870500  1
  H  H12  1  0.37221000  0.29493700  0.79870500  1
  H  H13  1  0.99623300  0.57350500  0.70129500  1
  H  H14  1  0.65725100  0.63427200  0.29859200  1
  H  H15  1  0.83568000  0.35865900  0.20140800  1
  H  H16  1  0.34274900  0.36572800  0.70140800  1
  H  H17  1  0.16432000  0.64134100  0.79859200  1
  H  H18  1  0.02660800  0.02523500  0.12647900  1
  H  H19  1  0.39875600  0.90012900  0.37352100  1
  H  H20  1  0.97339200  0.97476500  0.87352100  1
  H  H21  1  0.60124400  0.09987100  0.62647900  1
  H  H22  1  0.11686600  0.92643000  0.08077400  1
  H  H23  1  0.34565500  0.03609200  0.41922600  1
  H  H24  1  0.88313400  0.07357000  0.91922600  1
  H  H25  1  0.65434500  0.96390800  0.58077400  1
  H  H26  1  0.70540800  0.47802200  0.05826200  1
  H  H27  1  0.91976000  0.64714600  0.44173800  1
  H  H28  1  0.29459200  0.52197800  0.94173800  1
  H  H29  1  0.08024000  0.35285400  0.55826200  1
  H  H30  1  0.75593000  0.65307500  0.02651400  1
  H  H31  1  0.12656100  0.72941600  0.47348600  1
  H  H32  1  0.24407000  0.34692500  0.97348600  1
  H  H33  1  0.87343900  0.27058400  0.52651400  1
  H  H34  1  0.22089700  0.57296600  0.21821200  1
  H  H35  1  0.85475400  0.00268500  0.28178800  1
  H  H36  1  0.77910300  0.42703400  0.78178800  1
  H  H37  1  0.14524600  0.99731500  0.71821200  1
  H  H38  1  0.30462600  0.73566500  0.17293600  1
  H  H39  1  0.06272900  0.13169000  0.32706400  1
  H  H40  1  0.69537400  0.26433500  0.82706400  1
  H  H41  1  0.93727100  0.86831000  0.67293600  1
  S  S42  1  0.54896900  0.73481000  0.94737800  1
  S  S43  1  0.28743200  0.60159100  0.55262200  1
  S  S44  1  0.45103100  0.26519000  0.05262200  1
  S  S45  1  0.71256800  0.39840900  0.44737800  1
  S  S46  1  0.85195400  0.15649300  0.06392200  1
  S  S47  1  0.59257200  0.78803300  0.43607800  1
  S  S48  1  0.14804600  0.84350700  0.93607800  1
  S  S49  1  0.40742800  0.21196700  0.56392200  1
  S  S50  1  0.57059900  0.93651300  0.18207500  1
  S  S51  1  0.25443800  0.38852400  0.31792500  1
  S  S52  1  0.42940100  0.06348700  0.81792500  1
  S  S53  1  0.74556200  0.61147600  0.68207500  1
  O  O54  1  0.68493300  0.63800100  0.23405800  1
  O  O55  1  0.90394300  0.45087500  0.26594200  1
  O  O56  1  0.31506700  0.36199900  0.76594200  1
  O  O57  1  0.09605700  0.54912500  0.73405800  1
  O  O58  1  0.10163200  0.96639700  0.14648200  1
  O  O59  1  0.31991500  0.95515000  0.35351800  1
  O  O60  1  0.89836800  0.03360300  0.85351800  1
  O  O61  1  0.68008500  0.04485000  0.64648200  1
  O  O62  1  0.81218200  0.58663500  0.06159300  1
  O  O63  1  0.02504200  0.75058900  0.43840700  1
  O  O64  1  0.18781800  0.41336500  0.93840700  1
  O  O65  1  0.97495800  0.24941100  0.56159300  1
  O  O66  1  0.18913200  0.64827000  0.17693200  1
  O  O67  1  0.97133800  0.01220000  0.32306800  1
  O  O68  1  0.81086800  0.35173000  0.82306800  1
  O  O69  1  0.02866200  0.98780000  0.67693200  1
