# generated using pymatgen
data_AgWC9S4N3
_symmetry_space_group_name_H-M   'P 1'
_cell_length_a   6.64083312
_cell_length_b   7.55219800
_cell_length_c   18.85855587
_cell_angle_alpha   90.00000000
_cell_angle_beta   91.74107673
_cell_angle_gamma   90.00000000
_symmetry_Int_Tables_number   1
_chemical_formula_structural   AgWC9S4N3
_chemical_formula_sum   'Ag2 W2 C18 S8 N6'
_cell_volume   945.37436627
_cell_formula_units_Z   2
loop_
 _symmetry_equiv_pos_site_id
 _symmetry_equiv_pos_as_xyz
  1  'x, y, z'
loop_
 _atom_site_type_symbol
 _atom_site_label
 _atom_site_symmetry_multiplicity
 _atom_site_fract_x
 _atom_site_fract_y
 _atom_site_fract_z
 _atom_site_occupancy
  Ag  Ag0  1  0.46767700  0.30950900  0.68033400  1
  Ag  Ag1  1  0.53232300  0.80950900  0.31966600  1
  W  W2  1  0.20128700  0.29489000  0.79989200  1
  W  W3  1  0.79871300  0.79489000  0.20010800  1
  C  C4  1  0.65642700  0.28111900  0.59449900  1
  C  C5  1  0.34357300  0.78111900  0.40550100  1
  C  C6  1  0.97150500  0.88405000  0.94206800  1
  C  C7  1  0.02849500  0.38405000  0.05793200  1
  C  C8  1  0.75766400  0.90948200  0.92506300  1
  C  C9  1  0.24233600  0.40948200  0.07493700  1
  C  C10  1  0.85367400  0.60687500  0.87223400  1
  C  C11  1  0.14632600  0.10687500  0.12776600  1
  C  C12  1  0.85804500  0.45829500  0.84416500  1
  C  C13  1  0.14195500  0.95829500  0.15583500  1
  C  C14  1  0.91738600  0.88741900  0.57051100  1
  C  C15  1  0.08261400  0.38741900  0.42948900  1
  C  C16  1  0.11986800  0.57648300  0.69348000  1
  C  C17  1  0.88013200  0.07648300  0.30652000  1
  C  C18  1  0.04768200  0.65693300  0.64042600  1
  C  C19  1  0.95231800  0.15693300  0.35957400  1
  C  C20  1  0.88030600  0.04312300  0.55100100  1
  C  C21  1  0.11969400  0.54312300  0.44899900  1
  S  S22  1  0.30472400  0.05874900  0.74348400  1
  S  S23  1  0.69527600  0.55874900  0.25651600  1
  S  S24  1  0.31655100  0.56263400  0.75169800  1
  S  S25  1  0.68344900  0.06263400  0.24830200  1
  S  S26  1  0.34493900  0.28538800  0.90168800  1
  S  S27  1  0.65506100  0.78538800  0.09831200  1
  S  S28  1  0.84466100  0.25973000  0.80826300  1
  S  S29  1  0.15533900  0.75973000  0.19173700  1
  N  N30  1  0.76436400  0.17243000  0.57079400  1
  N  N31  1  0.23563600  0.67243000  0.42920600  1
  N  N32  1  0.85955100  0.75841000  0.90409800  1
  N  N33  1  0.14044900  0.25841000  0.09590200  1
  N  N34  1  0.96568700  0.72898000  0.58574100  1
  N  N35  1  0.03431300  0.22898000  0.41425900  1
