# generated using pymatgen
data_H13PtC3N3Cl2O
_symmetry_space_group_name_H-M   'P 1'
_cell_length_a   6.42302000
_cell_length_b   7.24643047
_cell_length_c   12.07487277
_cell_angle_alpha   105.79134456
_cell_angle_beta   96.57896163
_cell_angle_gamma   98.65231409
_symmetry_Int_Tables_number   1
_chemical_formula_structural   H13PtC3N3Cl2O
_chemical_formula_sum   'H26 Pt2 C6 N6 Cl4 O2'
_cell_volume   527.45496477
_cell_formula_units_Z   2
loop_
 _symmetry_equiv_pos_site_id
 _symmetry_equiv_pos_as_xyz
  1  'x, y, z'
loop_
 _atom_site_type_symbol
 _atom_site_label
 _atom_site_symmetry_multiplicity
 _atom_site_fract_x
 _atom_site_fract_y
 _atom_site_fract_z
 _atom_site_occupancy
  H  H0  1  0.43875300  0.06485700  0.28788500  1
  H  H1  1  0.56124700  0.93514300  0.71211500  1
  H  H2  1  0.60561200  0.28322600  0.32696800  1
  H  H3  1  0.39438800  0.71677400  0.67303200  1
  H  H4  1  0.68292800  0.09300700  0.36113100  1
  H  H5  1  0.31707200  0.90699300  0.63886900  1
  H  H6  1  0.83833600  0.20686200  0.56370500  1
  H  H7  1  0.16166400  0.79313800  0.43629500  1
  H  H8  1  0.81870500  0.43980000  0.61030800  1
  H  H9  1  0.18129500  0.56020000  0.38969200  1
  H  H10  1  0.72949300  0.28412700  0.68222500  1
  H  H11  1  0.27050700  0.71587300  0.31777500  1
  H  H12  1  0.33600800  0.24686600  0.94129100  1
  H  H13  1  0.66399200  0.75313400  0.05870900  1
  H  H14  1  0.33043500  0.42787100  0.07524500  1
  H  H15  1  0.66956500  0.57212900  0.92475500  1
  H  H16  1  0.31000900  0.17830000  0.07154000  1
  H  H17  1  0.68999100  0.82170000  0.92846000  1
  H  H18  1  0.74556300  0.23360800  0.05632500  1
  H  H19  1  0.25443700  0.76639200  0.94367500  1
  H  H20  1  0.97022800  0.21143400  0.15266100  1
  H  H21  1  0.02977200  0.78856600  0.84733900  1
  H  H22  1  0.94482400  0.44228800  0.13489500  1
  H  H23  1  0.05517600  0.55771200  0.86510500  1
  H  H24  1  0.05030800  0.16467700  0.81767400  1
  H  H25  1  0.94969200  0.83532300  0.18232600  1
  Pt  Pt26  1  0.44191500  0.25460100  0.50669700  1
  Pt  Pt27  1  0.55808500  0.74539900  0.49330300  1
  C  C28  1  0.26569400  0.27668000  0.02155100  1
  C  C29  1  0.73430600  0.72332000  0.97844900  1
  C  C30  1  0.91656100  0.28511800  0.08933300  1
  C  C31  1  0.08343900  0.71488200  0.91066700  1
  C  C32  1  0.93673400  0.18742900  0.88030100  1
  C  C33  1  0.06326600  0.81257100  0.11969900  1
  N  N34  1  0.55561700  0.16108300  0.35210400  1
  N  N35  1  0.44438300  0.83891700  0.64789600  1
  N  N36  1  0.74258900  0.29962700  0.60107000  1
  N  N37  1  0.25741100  0.70037300  0.39893000  1
  N  N38  1  0.03440400  0.24626600  0.99232700  1
  N  N39  1  0.96559600  0.75373400  0.00767300  1
  Cl  Cl40  1  0.32321400  0.36937300  0.68325700  1
  Cl  Cl41  1  0.67678600  0.63062700  0.31674300  1
  Cl  Cl42  1  0.10506000  0.21055500  0.39769700  1
  Cl  Cl43  1  0.89494000  0.78944500  0.60230300  1
  O  O44  1  0.73982500  0.16115900  0.84709200  1
  O  O45  1  0.26017500  0.83884100  0.15290800  1
