# generated using pymatgen
data_Yb3Ge13Pt4
_symmetry_space_group_name_H-M   'P 1'
_cell_length_a   12.90641200
_cell_length_b   12.90641200
_cell_length_c   9.09287400
_cell_angle_alpha   90.00000000
_cell_angle_beta   90.00000000
_cell_angle_gamma   90.00000000
_symmetry_Int_Tables_number   1
_chemical_formula_structural   Yb3Ge13Pt4
_chemical_formula_sum   'Yb12 Ge52 Pt16'
_cell_volume   1514.64976669
_cell_formula_units_Z   4
loop_
 _symmetry_equiv_pos_site_id
 _symmetry_equiv_pos_as_xyz
  1  'x, y, z'
loop_
 _atom_site_type_symbol
 _atom_site_label
 _atom_site_symmetry_multiplicity
 _atom_site_fract_x
 _atom_site_fract_y
 _atom_site_fract_z
 _atom_site_occupancy
  Yb  Yb0  1  0.00000000  0.00000000  0.99950200  1
  Yb  Yb1  1  0.00000000  0.00000000  0.49950200  1
  Yb  Yb2  1  0.50000000  0.50000000  0.00191300  1
  Yb  Yb3  1  0.50000000  0.50000000  0.50191300  1
  Yb  Yb4  1  0.12787300  0.37732800  0.25837800  1
  Yb  Yb5  1  0.87212700  0.62267200  0.25837800  1
  Yb  Yb6  1  0.37732800  0.87212700  0.75837800  1
  Yb  Yb7  1  0.62267200  0.12787300  0.75837800  1
  Yb  Yb8  1  0.87212700  0.37732800  0.75837800  1
  Yb  Yb9  1  0.12787300  0.62267200  0.75837800  1
  Yb  Yb10  1  0.62267200  0.87212700  0.25837800  1
  Yb  Yb11  1  0.37732800  0.12787300  0.25837800  1
  Ge  Ge12  1  0.17119400  0.17119400  0.10503300  1
  Ge  Ge13  1  0.82880600  0.82880600  0.10503300  1
  Ge  Ge14  1  0.17119400  0.82880600  0.60503300  1
  Ge  Ge15  1  0.82880600  0.17119400  0.60503300  1
  Ge  Ge16  1  0.24709400  0.24709400  0.75773200  1
  Ge  Ge17  1  0.75290600  0.75290600  0.75773200  1
  Ge  Ge18  1  0.24709400  0.75290600  0.25773200  1
  Ge  Ge19  1  0.75290600  0.24709400  0.25773200  1
  Ge  Ge20  1  0.17251200  0.17251200  0.41244800  1
  Ge  Ge21  1  0.82748800  0.82748800  0.41244800  1
  Ge  Ge22  1  0.17251200  0.82748800  0.91244800  1
  Ge  Ge23  1  0.82748800  0.17251200  0.91244800  1
  Ge  Ge24  1  0.31457600  0.31457600  0.03631600  1
  Ge  Ge25  1  0.68542400  0.68542400  0.03631600  1
  Ge  Ge26  1  0.31457600  0.68542400  0.53631600  1
  Ge  Ge27  1  0.68542400  0.31457600  0.53631600  1
  Ge  Ge28  1  0.31090900  0.31090900  0.51025600  1
  Ge  Ge29  1  0.68909100  0.68909100  0.51025600  1
  Ge  Ge30  1  0.31090900  0.68909100  0.01025600  1
  Ge  Ge31  1  0.68909100  0.31090900  0.01025600  1
  Ge  Ge32  1  0.11997600  0.61636500  0.37098600  1
  Ge  Ge33  1  0.88002400  0.38363500  0.37098600  1
  Ge  Ge34  1  0.61636500  0.88002400  0.87098600  1
  Ge  Ge35  1  0.38363500  0.11997600  0.87098600  1
  Ge  Ge36  1  0.88002400  0.61636500  0.87098600  1
  Ge  Ge37  1  0.11997600  0.38363500  0.87098600  1
  Ge  Ge38  1  0.38363500  0.88002400  0.37098600  1
  Ge  Ge39  1  0.61636500  0.11997600  0.37098600  1
  Ge  Ge40  1  0.34440800  0.49852500  0.25525000  1
  Ge  Ge41  1  0.65559200  0.50147500  0.25525000  1
  Ge  Ge42  1  0.49852500  0.65559200  0.75525000  1
  Ge  Ge43  1  0.50147500  0.34440800  0.75525000  1
  Ge  Ge44  1  0.65559200  0.49852500  0.75525000  1
  Ge  Ge45  1  0.34440800  0.50147500  0.75525000  1
  Ge  Ge46  1  0.50147500  0.65559200  0.25525000  1
  Ge  Ge47  1  0.49852500  0.34440800  0.25525000  1
  Ge  Ge48  1  0.07506500  0.57439100  0.09031200  1
  Ge  Ge49  1  0.92493500  0.42560900  0.09031200  1
  Ge  Ge50  1  0.57439100  0.92493500  0.59031200  1
  Ge  Ge51  1  0.42560900  0.07506500  0.59031200  1
  Ge  Ge52  1  0.92493500  0.57439100  0.59031200  1
  Ge  Ge53  1  0.07506500  0.42560900  0.59031200  1
  Ge  Ge54  1  0.42560900  0.92493500  0.09031200  1
  Ge  Ge55  1  0.57439100  0.07506500  0.09031200  1
  Ge  Ge56  1  0.04099700  0.17851800  0.75215100  1
  Ge  Ge57  1  0.95900300  0.82148200  0.75215100  1
  Ge  Ge58  1  0.17851800  0.95900300  0.25215100  1
  Ge  Ge59  1  0.82148200  0.04099700  0.25215100  1
  Ge  Ge60  1  0.95900300  0.17851800  0.25215100  1
  Ge  Ge61  1  0.04099700  0.82148200  0.25215100  1
  Ge  Ge62  1  0.82148200  0.95900300  0.75215100  1
  Ge  Ge63  1  0.17851800  0.04099700  0.75215100  1
  Pt  Pt64  1  0.25083500  0.50102100  0.00472100  1
  Pt  Pt65  1  0.74916500  0.49897900  0.00472100  1
  Pt  Pt66  1  0.50102100  0.74916500  0.50472100  1
  Pt  Pt67  1  0.49897900  0.25083500  0.50472100  1
  Pt  Pt68  1  0.74916500  0.50102100  0.50472100  1
  Pt  Pt69  1  0.25083500  0.49897900  0.50472100  1
  Pt  Pt70  1  0.49897900  0.74916500  0.00472100  1
  Pt  Pt71  1  0.50102100  0.25083500  0.00472100  1
  Pt  Pt72  1  0.00180000  0.25117200  0.00426700  1
  Pt  Pt73  1  0.99820000  0.74882800  0.00426700  1
  Pt  Pt74  1  0.25117200  0.99820000  0.50426700  1
  Pt  Pt75  1  0.74882800  0.00180000  0.50426700  1
  Pt  Pt76  1  0.99820000  0.25117200  0.50426700  1
  Pt  Pt77  1  0.00180000  0.74882800  0.50426700  1
  Pt  Pt78  1  0.74882800  0.99820000  0.00426700  1
  Pt  Pt79  1  0.25117200  0.00180000  0.00426700  1
