# generated using pymatgen
data_K2HfO6
_symmetry_space_group_name_H-M   'P 1'
_cell_length_a   10.53715440
_cell_length_b   10.53715440
_cell_length_c   5.78340900
_cell_angle_alpha   90.00000000
_cell_angle_beta   90.00000000
_cell_angle_gamma   98.72686715
_symmetry_Int_Tables_number   1
_chemical_formula_structural   K2HfO6
_chemical_formula_sum   'K8 Hf4 O24'
_cell_volume   634.70711967
_cell_formula_units_Z   4
loop_
 _symmetry_equiv_pos_site_id
 _symmetry_equiv_pos_as_xyz
  1  'x, y, z'
loop_
 _atom_site_type_symbol
 _atom_site_label
 _atom_site_symmetry_multiplicity
 _atom_site_fract_x
 _atom_site_fract_y
 _atom_site_fract_z
 _atom_site_occupancy
  K  K0  1  0.39426100  0.60573900  0.33292000  1
  K  K1  1  0.60573900  0.39426100  0.66708000  1
  K  K2  1  0.89426100  0.10573900  0.66708000  1
  K  K3  1  0.10573900  0.89426100  0.33292000  1
  K  K4  1  0.61152200  0.88847800  0.00000000  1
  K  K5  1  0.88847800  0.61152200  0.00000000  1
  K  K6  1  0.38847800  0.11152200  0.00000000  1
  K  K7  1  0.11152100  0.38847900  0.00000000  1
  Hf  Hf8  1  0.25000000  0.75000000  0.84174100  1
  Hf  Hf9  1  0.75000000  0.25000000  0.15825900  1
  Hf  Hf10  1  0.75000000  0.75000000  0.50000000  1
  Hf  Hf11  1  0.25000000  0.25000000  0.50000000  1
  O  O12  1  0.36550400  0.86550400  0.60612800  1
  O  O13  1  0.86550400  0.36550400  0.39387200  1
  O  O14  1  0.63449600  0.13449600  0.39387200  1
  O  O15  1  0.13449600  0.63449600  0.60612800  1
  O  O16  1  0.35499900  0.85499900  0.08389400  1
  O  O17  1  0.85499900  0.35499900  0.91610600  1
  O  O18  1  0.64500100  0.14500100  0.91610600  1
  O  O19  1  0.14500100  0.64500100  0.08389400  1
  O  O20  1  0.37986500  0.62013500  0.82151300  1
  O  O21  1  0.62013500  0.37986500  0.17848700  1
  O  O22  1  0.87986500  0.12013500  0.17848700  1
  O  O23  1  0.12013500  0.87986500  0.82151300  1
  O  O24  1  0.62595100  0.65784300  0.74110300  1
  O  O25  1  0.65784300  0.62595100  0.25889700  1
  O  O26  1  0.84215700  0.87404900  0.25889700  1
  O  O27  1  0.87404900  0.84215700  0.74110300  1
  O  O28  1  0.37404900  0.34215700  0.25889700  1
  O  O29  1  0.34215700  0.37404900  0.74110300  1
  O  O30  1  0.15784300  0.12595100  0.74110300  1
  O  O31  1  0.12595100  0.15784300  0.25889700  1
  O  O32  1  0.87836300  0.62163700  0.50000000  1
  O  O33  1  0.62163700  0.87836300  0.50000000  1
  O  O34  1  0.12163700  0.37836300  0.50000000  1
  O  O35  1  0.37836300  0.12163700  0.50000000  1
