# generated using pymatgen
data_CsU2(PO4)4
_symmetry_space_group_name_H-M   'P 1'
_cell_length_a   15.28861068
_cell_length_b   15.28861068
_cell_length_c   6.97158805
_cell_angle_alpha   81.57754332
_cell_angle_beta   81.57754332
_cell_angle_gamma   25.03880977
_symmetry_Int_Tables_number   1
_chemical_formula_structural   CsU2(PO4)4
_chemical_formula_sum   'Cs2 U4 P8 O32'
_cell_volume   681.87089102
_cell_formula_units_Z   2
loop_
 _symmetry_equiv_pos_site_id
 _symmetry_equiv_pos_as_xyz
  1  'x, y, z'
loop_
 _atom_site_type_symbol
 _atom_site_label
 _atom_site_symmetry_multiplicity
 _atom_site_fract_x
 _atom_site_fract_y
 _atom_site_fract_z
 _atom_site_occupancy
  Cs  Cs0  1  0.71070600  0.28929400  0.25000000  1
  Cs  Cs1  1  0.28929400  0.71070600  0.75000000  1
  U  U2  1  0.98719800  0.67292400  0.71330400  1
  U  U3  1  0.32707600  0.01280200  0.78669600  1
  U  U4  1  0.01280200  0.32707600  0.28669600  1
  U  U5  1  0.67292400  0.98719800  0.21330400  1
  P  P6  1  0.48489000  0.10541000  0.73635700  1
  P  P7  1  0.89459000  0.51511000  0.76364300  1
  P  P8  1  0.51511000  0.89459000  0.26364300  1
  P  P9  1  0.10541000  0.48489000  0.23635700  1
  P  P10  1  0.11034300  0.72354900  0.33313600  1
  P  P11  1  0.27645100  0.88965700  0.16686400  1
  P  P12  1  0.88965700  0.27645100  0.66686400  1
  P  P13  1  0.72354900  0.11034300  0.83313600  1
  O  O14  1  0.91459700  0.59609500  0.78401800  1
  O  O15  1  0.40390500  0.08540300  0.71598200  1
  O  O16  1  0.08540300  0.40390500  0.21598200  1
  O  O17  1  0.59609500  0.91459700  0.28401800  1
  O  O18  1  0.15758500  0.60405500  0.51872900  1
  O  O19  1  0.39594500  0.84241500  0.98127100  1
  O  O20  1  0.84241500  0.39594500  0.48127100  1
  O  O21  1  0.60405500  0.15758500  0.01872900  1
  O  O22  1  0.00406100  0.63464000  0.06056000  1
  O  O23  1  0.36536000  0.99593900  0.43944000  1
  O  O24  1  0.99593900  0.36536000  0.93944000  1
  O  O25  1  0.63464000  0.00406100  0.56056000  1
  O  O26  1  0.97713500  0.62482200  0.41207600  1
  O  O27  1  0.37517800  0.02286500  0.08792400  1
  O  O28  1  0.02286500  0.37517800  0.58792400  1
  O  O29  1  0.62482200  0.97713500  0.91207600  1
  O  O30  1  0.29598700  0.33618600  0.75275900  1
  O  O31  1  0.66381400  0.70401300  0.74724100  1
  O  O32  1  0.70401300  0.66381400  0.24724100  1
  O  O33  1  0.33618600  0.29598700  0.25275900  1
  O  O34  1  0.88207700  0.88817200  0.77867000  1
  O  O35  1  0.11182800  0.11792300  0.72133000  1
  O  O36  1  0.11792300  0.11182800  0.22133000  1
  O  O37  1  0.88817200  0.88207700  0.27867000  1
  O  O38  1  0.93159100  0.15417600  0.58920400  1
  O  O39  1  0.84582400  0.06840900  0.91079600  1
  O  O40  1  0.06840900  0.84582400  0.41079600  1
  O  O41  1  0.15417600  0.93159100  0.08920400  1
  O  O42  1  0.26675800  0.57331000  0.17595600  1
  O  O43  1  0.42669000  0.73324200  0.32404400  1
  O  O44  1  0.73324200  0.42669000  0.82404400  1
  O  O45  1  0.57331000  0.26675800  0.67595600  1
