# generated using pymatgen
data_Fe3Te3ClO10
_symmetry_space_group_name_H-M   'P 1'
_cell_length_a   16.44255800
_cell_length_b   5.00460400
_cell_length_c   13.09846959
_cell_angle_alpha   70.13557084
_cell_angle_beta   90.00000000
_cell_angle_gamma   90.00000000
_symmetry_Int_Tables_number   1
_chemical_formula_structural   Fe3Te3ClO10
_chemical_formula_sum   'Fe12 Te12 Cl4 O40'
_cell_volume   1013.72023838
_cell_formula_units_Z   4
loop_
 _symmetry_equiv_pos_site_id
 _symmetry_equiv_pos_as_xyz
  1  'x, y, z'
loop_
 _atom_site_type_symbol
 _atom_site_label
 _atom_site_symmetry_multiplicity
 _atom_site_fract_x
 _atom_site_fract_y
 _atom_site_fract_z
 _atom_site_occupancy
  Fe  Fe0  1  0.76287500  0.79175600  0.22013100  1
  Fe  Fe1  1  0.26287500  0.20824400  0.27986900  1
  Fe  Fe2  1  0.23712500  0.20824400  0.77986900  1
  Fe  Fe3  1  0.73712500  0.79175600  0.72013100  1
  Fe  Fe4  1  0.94821300  0.64510300  0.39683600  1
  Fe  Fe5  1  0.44821300  0.35489700  0.10316400  1
  Fe  Fe6  1  0.05178700  0.35489700  0.60316400  1
  Fe  Fe7  1  0.55178700  0.64510300  0.89683600  1
  Fe  Fe8  1  0.06436100  0.13880500  0.40611500  1
  Fe  Fe9  1  0.56436100  0.86119500  0.09388500  1
  Fe  Fe10  1  0.93563900  0.86119500  0.59388500  1
  Fe  Fe11  1  0.43563900  0.13880500  0.90611500  1
  Te  Te12  1  0.75293600  0.56363400  0.49766700  1
  Te  Te13  1  0.25293600  0.43636600  0.00233300  1
  Te  Te14  1  0.24706400  0.43636600  0.50233300  1
  Te  Te15  1  0.74706400  0.56363400  0.99766700  1
  Te  Te16  1  0.91529200  0.37003200  0.19817000  1
  Te  Te17  1  0.41529200  0.62996800  0.30183000  1
  Te  Te18  1  0.08470800  0.62996800  0.80183000  1
  Te  Te19  1  0.58470800  0.37003200  0.69817000  1
  Te  Te20  1  0.12007800  0.83241000  0.21479200  1
  Te  Te21  1  0.62007800  0.16759000  0.28520800  1
  Te  Te22  1  0.87992200  0.16759000  0.78520800  1
  Te  Te23  1  0.37992200  0.83241000  0.71479200  1
  Cl  Cl24  1  0.91271800  0.42603300  0.94717300  1
  Cl  Cl25  1  0.41271800  0.57396700  0.55282700  1
  Cl  Cl26  1  0.08728200  0.57396700  0.05282700  1
  Cl  Cl27  1  0.58728200  0.42603300  0.44717300  1
  O  O28  1  0.70008400  0.76441400  0.57742500  1
  O  O29  1  0.20008400  0.23558600  0.92257500  1
  O  O30  1  0.29991600  0.23558600  0.42257500  1
  O  O31  1  0.79991600  0.76441400  0.07742500  1
  O  O32  1  0.86274200  0.73204200  0.49474600  1
  O  O33  1  0.36274200  0.26795800  0.00525400  1
  O  O34  1  0.13725800  0.26795800  0.50525400  1
  O  O35  1  0.63725800  0.73204200  0.99474600  1
  O  O36  1  0.73277300  0.84848600  0.35936800  1
  O  O37  1  0.23277300  0.15151400  0.14063200  1
  O  O38  1  0.26722700  0.15151400  0.64063200  1
  O  O39  1  0.76722700  0.84848600  0.85936800  1
  O  O40  1  0.86557400  0.53681400  0.30021800  1
  O  O41  1  0.36557400  0.46318600  0.19978200  1
  O  O42  1  0.13442600  0.46318600  0.69978200  1
  O  O43  1  0.63442600  0.53681400  0.80021800  1
  O  O44  1  0.83050600  0.14151200  0.18057200  1
  O  O45  1  0.33050600  0.85848800  0.31942800  1
  O  O46  1  0.16949400  0.85848800  0.81942800  1
  O  O47  1  0.66949400  0.14151200  0.68057200  1
  O  O48  1  0.97350200  0.05731100  0.30457000  1
  O  O49  1  0.47350200  0.94268900  0.19543000  1
  O  O50  1  0.02649800  0.94268900  0.69543000  1
  O  O51  1  0.52649800  0.05731100  0.80457000  1
  O  O52  1  0.97359500  0.24932500  0.49789300  1
  O  O53  1  0.47359500  0.75067500  0.00210700  1
  O  O54  1  0.02640500  0.75067500  0.50210700  1
  O  O55  1  0.52640500  0.24932500  0.99789300  1
  O  O56  1  0.04037000  0.54930500  0.30776100  1
  O  O57  1  0.54037000  0.45069500  0.19223900  1
  O  O58  1  0.95963000  0.45069500  0.69223900  1
  O  O59  1  0.45963000  0.54930500  0.80776100  1
  O  O60  1  0.20213400  0.56197600  0.25535500  1
  O  O61  1  0.70213400  0.43802400  0.24464500  1
  O  O62  1  0.79786600  0.43802400  0.74464500  1
  O  O63  1  0.29786600  0.56197600  0.75535500  1
  O  O64  1  0.15154000  0.98659300  0.33180600  1
  O  O65  1  0.65154000  0.01340700  0.16819400  1
  O  O66  1  0.84846000  0.01340700  0.66819400  1
  O  O67  1  0.34846000  0.98659300  0.83180600  1
