# generated using pymatgen
data_NaSb2(OF3)2
_symmetry_space_group_name_H-M   'P 1'
_cell_length_a   9.23234600
_cell_length_b   6.13991000
_cell_length_c   14.24577340
_cell_angle_alpha   72.71321871
_cell_angle_beta   90.00000000
_cell_angle_gamma   90.00000000
_symmetry_Int_Tables_number   1
_chemical_formula_structural   NaSb2(OF3)2
_chemical_formula_sum   'Na4 Sb8 O8 F24'
_cell_volume   771.05593361
_cell_formula_units_Z   4
loop_
 _symmetry_equiv_pos_site_id
 _symmetry_equiv_pos_as_xyz
  1  'x, y, z'
loop_
 _atom_site_type_symbol
 _atom_site_label
 _atom_site_symmetry_multiplicity
 _atom_site_fract_x
 _atom_site_fract_y
 _atom_site_fract_z
 _atom_site_occupancy
  Na  Na0  1  0.54390900  0.84667900  0.90106800  1
  Na  Na1  1  0.04390900  0.15332100  0.59893200  1
  Na  Na2  1  0.45609100  0.15332100  0.09893200  1
  Na  Na3  1  0.95609100  0.84667900  0.40106800  1
  Sb  Sb4  1  0.84260500  0.18019300  0.94905000  1
  Sb  Sb5  1  0.34260500  0.81980700  0.55095000  1
  Sb  Sb6  1  0.15739500  0.81980700  0.05095000  1
  Sb  Sb7  1  0.65739500  0.18019300  0.44905000  1
  Sb  Sb8  1  0.85324400  0.55372900  0.70133700  1
  Sb  Sb9  1  0.35324400  0.44627100  0.79866300  1
  Sb  Sb10  1  0.14675600  0.44627100  0.29866300  1
  Sb  Sb11  1  0.64675600  0.55372900  0.20133700  1
  O  O12  1  0.82165500  0.47247200  0.84626100  1
  O  O13  1  0.32165500  0.52752800  0.65373900  1
  O  O14  1  0.17834500  0.52752800  0.15373900  1
  O  O15  1  0.67834500  0.47247200  0.34626100  1
  O  O16  1  0.88487400  0.86076600  0.68192800  1
  O  O17  1  0.38487400  0.13923400  0.81807200  1
  O  O18  1  0.11512600  0.13923400  0.31807200  1
  O  O19  1  0.61512600  0.86076600  0.18192800  1
  F  F20  1  0.80298800  0.97164300  0.87481700  1
  F  F21  1  0.30298800  0.02835700  0.62518300  1
  F  F22  1  0.19701200  0.02835700  0.12518300  1
  F  F23  1  0.69701200  0.97164300  0.37481700  1
  F  F24  1  0.92417200  0.88056800  0.06211700  1
  F  F25  1  0.42417200  0.11943200  0.43788300  1
  F  F26  1  0.07582800  0.11943200  0.93788300  1
  F  F27  1  0.57582800  0.88056800  0.56211700  1
  F  F28  1  0.63548000  0.14106000  0.98394900  1
  F  F29  1  0.13548000  0.85894000  0.51605100  1
  F  F30  1  0.36452000  0.85894000  0.01605100  1
  F  F31  1  0.86452000  0.14106000  0.48394900  1
  F  F32  1  0.88294100  0.55698800  0.56324400  1
  F  F33  1  0.38294100  0.44301200  0.93675600  1
  F  F34  1  0.11705900  0.44301200  0.43675600  1
  F  F35  1  0.61705900  0.55698800  0.06324400  1
  F  F36  1  0.67648200  0.39963700  0.68932400  1
  F  F37  1  0.17648200  0.60036300  0.81067600  1
  F  F38  1  0.32351800  0.60036300  0.31067600  1
  F  F39  1  0.82351800  0.39963700  0.18932400  1
  F  F40  1  0.99908500  0.31516600  0.72529400  1
  F  F41  1  0.49908500  0.68483400  0.77470600  1
  F  F42  1  0.00091500  0.68483400  0.27470600  1
  F  F43  1  0.50091500  0.31516600  0.22529400  1
