# generated using pymatgen
data_Rb2PtBr4O
_symmetry_space_group_name_H-M   'P 1'
_cell_length_a   7.16017500
_cell_length_b   10.83328600
_cell_length_c   14.30964800
_cell_angle_alpha   90.00000000
_cell_angle_beta   90.00000000
_cell_angle_gamma   90.00000000
_symmetry_Int_Tables_number   1
_chemical_formula_structural   Rb2PtBr4O
_chemical_formula_sum   'Rb8 Pt4 Br16 O4'
_cell_volume   1109.97397549
_cell_formula_units_Z   4
loop_
 _symmetry_equiv_pos_site_id
 _symmetry_equiv_pos_as_xyz
  1  'x, y, z'
loop_
 _atom_site_type_symbol
 _atom_site_label
 _atom_site_symmetry_multiplicity
 _atom_site_fract_x
 _atom_site_fract_y
 _atom_site_fract_z
 _atom_site_occupancy
  Rb  Rb0  1  0.27961000  0.02840600  0.37173300  1
  Rb  Rb1  1  0.22039000  0.47159400  0.87173300  1
  Rb  Rb2  1  0.72039000  0.52840600  0.62826700  1
  Rb  Rb3  1  0.77961000  0.97159400  0.12826700  1
  Rb  Rb4  1  0.72039000  0.97159400  0.62826700  1
  Rb  Rb5  1  0.77961000  0.52840600  0.12826700  1
  Rb  Rb6  1  0.27961000  0.47159400  0.37173300  1
  Rb  Rb7  1  0.22039000  0.02840600  0.87173300  1
  Pt  Pt8  1  0.28181500  0.25000000  0.12293700  1
  Pt  Pt9  1  0.21818500  0.25000000  0.62293700  1
  Pt  Pt10  1  0.71818500  0.75000000  0.87706300  1
  Pt  Pt11  1  0.78181500  0.75000000  0.37706300  1
  Br  Br12  1  0.28144500  0.47702900  0.12313600  1
  Br  Br13  1  0.21855500  0.02297100  0.62313600  1
  Br  Br14  1  0.71855500  0.97702900  0.87686400  1
  Br  Br15  1  0.78144500  0.52297100  0.37686400  1
  Br  Br16  1  0.71855500  0.52297100  0.87686400  1
  Br  Br17  1  0.78144500  0.97702900  0.37686400  1
  Br  Br18  1  0.28144500  0.02297100  0.12313600  1
  Br  Br19  1  0.21855500  0.47702900  0.62313600  1
  Br  Br20  1  0.05481200  0.75000000  0.27444300  1
  Br  Br21  1  0.44518800  0.75000000  0.77444300  1
  Br  Br22  1  0.94518800  0.25000000  0.72555700  1
  Br  Br23  1  0.55481200  0.25000000  0.22555700  1
  Br  Br24  1  0.49906200  0.25000000  0.52463800  1
  Br  Br25  1  0.00093800  0.25000000  0.02463800  1
  Br  Br26  1  0.50093800  0.75000000  0.47536200  1
  Br  Br27  1  0.99906200  0.75000000  0.97536200  1
  O  O28  1  0.54199500  0.75000000  0.13970500  1
  O  O29  1  0.95800500  0.75000000  0.63970500  1
  O  O30  1  0.45800500  0.25000000  0.86029500  1
  O  O31  1  0.04199500  0.25000000  0.36029500  1
