# generated using pymatgen
data_HfSO6
_symmetry_space_group_name_H-M   'P 1'
_cell_length_a   5.67975600
_cell_length_b   6.83022000
_cell_length_c   11.32074400
_cell_angle_alpha   90.00000000
_cell_angle_beta   90.00000000
_cell_angle_gamma   90.00000000
_symmetry_Int_Tables_number   1
_chemical_formula_structural   HfSO6
_chemical_formula_sum   'Hf4 S4 O24'
_cell_volume   439.17675058
_cell_formula_units_Z   4
loop_
 _symmetry_equiv_pos_site_id
 _symmetry_equiv_pos_as_xyz
  1  'x, y, z'
loop_
 _atom_site_type_symbol
 _atom_site_label
 _atom_site_symmetry_multiplicity
 _atom_site_fract_x
 _atom_site_fract_y
 _atom_site_fract_z
 _atom_site_occupancy
  Hf  Hf0  1  0.25000000  0.33529400  0.57065600  1
  Hf  Hf1  1  0.25000000  0.16470600  0.07065600  1
  Hf  Hf2  1  0.75000000  0.66470600  0.42934400  1
  Hf  Hf3  1  0.75000000  0.83529400  0.92934400  1
  S  S4  1  0.25000000  0.54791100  0.85673600  1
  S  S5  1  0.25000000  0.95208900  0.35673600  1
  S  S6  1  0.75000000  0.45208900  0.14326400  1
  S  S7  1  0.75000000  0.04791100  0.64326400  1
  O  O8  1  0.99931300  0.06643900  0.94581600  1
  O  O9  1  0.50068700  0.43356100  0.44581600  1
  O  O10  1  0.49931300  0.93356100  0.05418400  1
  O  O11  1  0.00068700  0.56643900  0.55418400  1
  O  O12  1  0.00068700  0.93356100  0.05418400  1
  O  O13  1  0.49931300  0.56643900  0.55418400  1
  O  O14  1  0.50068700  0.06643900  0.94581600  1
  O  O15  1  0.99931300  0.43356100  0.44581600  1
  O  O16  1  0.25000000  0.42933700  0.96602500  1
  O  O17  1  0.25000000  0.07066300  0.46602500  1
  O  O18  1  0.75000000  0.57066300  0.03397500  1
  O  O19  1  0.75000000  0.92933700  0.53397500  1
  O  O20  1  0.25000000  0.41658200  0.75379600  1
  O  O21  1  0.25000000  0.08341800  0.25379600  1
  O  O22  1  0.75000000  0.58341800  0.24620400  1
  O  O23  1  0.75000000  0.91658200  0.74620400  1
  O  O24  1  0.03785600  0.67271100  0.85216700  1
  O  O25  1  0.46214400  0.82728900  0.35216700  1
  O  O26  1  0.53785600  0.32728900  0.14783300  1
  O  O27  1  0.96214400  0.17271100  0.64783300  1
  O  O28  1  0.96214400  0.32728900  0.14783300  1
  O  O29  1  0.53785600  0.17271100  0.64783300  1
  O  O30  1  0.46214400  0.67271100  0.85216700  1
  O  O31  1  0.03785600  0.82728900  0.35216700  1
