# generated using pymatgen
data_CdSe2O9
_symmetry_space_group_name_H-M   'P 1'
_cell_length_a   5.28636300
_cell_length_b   9.01727900
_cell_length_c   16.81271918
_cell_angle_alpha   69.85041746
_cell_angle_beta   90.00000000
_cell_angle_gamma   90.00000000
_symmetry_Int_Tables_number   1
_chemical_formula_structural   CdSe2O9
_chemical_formula_sum   'Cd4 Se8 O36'
_cell_volume   752.38808941
_cell_formula_units_Z   4
loop_
 _symmetry_equiv_pos_site_id
 _symmetry_equiv_pos_as_xyz
  1  'x, y, z'
loop_
 _atom_site_type_symbol
 _atom_site_label
 _atom_site_symmetry_multiplicity
 _atom_site_fract_x
 _atom_site_fract_y
 _atom_site_fract_z
 _atom_site_occupancy
  Cd  Cd0  1  0.74207600  0.24001700  0.02128900  1
  Cd  Cd1  1  0.75792400  0.24001700  0.52128900  1
  Cd  Cd2  1  0.25792400  0.75998300  0.97871100  1
  Cd  Cd3  1  0.24207600  0.75998300  0.47871100  1
  Se  Se4  1  0.24037700  0.45998000  0.88785400  1
  Se  Se5  1  0.25962300  0.45998000  0.38785400  1
  Se  Se6  1  0.75962300  0.54002000  0.11214600  1
  Se  Se7  1  0.74037700  0.54002000  0.61214600  1
  Se  Se8  1  0.76639500  0.01297000  0.87376900  1
  Se  Se9  1  0.73360500  0.01297000  0.37376900  1
  Se  Se10  1  0.23360500  0.98703000  0.12623100  1
  Se  Se11  1  0.26639500  0.98703000  0.62623100  1
  O  O12  1  0.38938100  0.29110000  0.93869800  1
  O  O13  1  0.11061900  0.29110000  0.43869800  1
  O  O14  1  0.61061900  0.70890000  0.06130200  1
  O  O15  1  0.88938100  0.70890000  0.56130200  1
  O  O16  1  0.94060900  0.45662000  0.92033200  1
  O  O17  1  0.55939100  0.45662000  0.42033200  1
  O  O18  1  0.05939100  0.54338000  0.07966800  1
  O  O19  1  0.44060900  0.54338000  0.57966800  1
  O  O20  1  0.39693800  0.61573600  0.89643400  1
  O  O21  1  0.10306200  0.61573600  0.39643400  1
  O  O22  1  0.60306200  0.38426400  0.10356600  1
  O  O23  1  0.89693800  0.38426400  0.60356600  1
  O  O24  1  0.23514900  0.48227400  0.78198000  1
  O  O25  1  0.26485100  0.48227400  0.28198000  1
  O  O26  1  0.76485100  0.51772600  0.21802000  1
  O  O27  1  0.73514900  0.51772600  0.71802000  1
  O  O28  1  0.45577000  0.98937200  0.88999500  1
  O  O29  1  0.04423000  0.98937200  0.38999500  1
  O  O30  1  0.54423000  0.01062800  0.11000500  1
  O  O31  1  0.95577000  0.01062800  0.61000500  1
  O  O32  1  0.91065600  0.83914800  0.89372400  1
  O  O33  1  0.58934400  0.83914800  0.39372400  1
  O  O34  1  0.08934400  0.16085200  0.10627600  1
  O  O35  1  0.41065600  0.16085200  0.60627600  1
  O  O36  1  0.90636800  0.10447900  0.93587500  1
  O  O37  1  0.59363200  0.10447900  0.43587500  1
  O  O38  1  0.09363200  0.89552100  0.06412500  1
  O  O39  1  0.40636800  0.89552100  0.56412500  1
  O  O40  1  0.81439600  0.13514900  0.77269200  1
  O  O41  1  0.68560400  0.13514900  0.27269200  1
  O  O42  1  0.18560400  0.86485100  0.22730800  1
  O  O43  1  0.31439600  0.86485100  0.72730800  1
  O  O44  1  0.15679500  0.26718900  0.74828300  1
  O  O45  1  0.34320500  0.26718900  0.24828300  1
  O  O46  1  0.84320500  0.73281100  0.25171700  1
  O  O47  1  0.65679500  0.73281100  0.75171700  1
