# generated using pymatgen
data_Cu3SO8
_symmetry_space_group_name_H-M   'P 1'
_cell_length_a   5.90866000
_cell_length_b   7.99474000
_cell_length_c   12.66537700
_cell_angle_alpha   90.00000000
_cell_angle_beta   90.00000000
_cell_angle_gamma   90.00000000
_symmetry_Int_Tables_number   1
_chemical_formula_structural   Cu3SO8
_chemical_formula_sum   'Cu12 S4 O32'
_cell_volume   598.28961748
_cell_formula_units_Z   4
loop_
 _symmetry_equiv_pos_site_id
 _symmetry_equiv_pos_as_xyz
  1  'x, y, z'
loop_
 _atom_site_type_symbol
 _atom_site_label
 _atom_site_symmetry_multiplicity
 _atom_site_fract_x
 _atom_site_fract_y
 _atom_site_fract_z
 _atom_site_occupancy
  Cu  Cu0  1  0.25000000  0.50093200  0.50185400  1
  Cu  Cu1  1  0.25000000  0.00093200  0.99814600  1
  Cu  Cu2  1  0.75000000  0.49906800  0.49814600  1
  Cu  Cu3  1  0.75000000  0.99906800  0.00185400  1
  Cu  Cu4  1  0.00313000  0.78585800  0.61988000  1
  Cu  Cu5  1  0.49687000  0.28585800  0.88012000  1
  Cu  Cu6  1  0.50313000  0.21414200  0.38012000  1
  Cu  Cu7  1  0.99687000  0.71414200  0.11988000  1
  Cu  Cu8  1  0.99687000  0.21414200  0.38012000  1
  Cu  Cu9  1  0.50313000  0.71414200  0.11988000  1
  Cu  Cu10  1  0.49687000  0.78585800  0.61988000  1
  Cu  Cu11  1  0.00313000  0.28585800  0.88012000  1
  S  S12  1  0.25000000  0.62038200  0.86026700  1
  S  S13  1  0.25000000  0.12038200  0.63973300  1
  S  S14  1  0.75000000  0.37961800  0.13973300  1
  S  S15  1  0.75000000  0.87961800  0.36026700  1
  O  O16  1  0.25000000  0.74816400  0.77742400  1
  O  O17  1  0.25000000  0.24816400  0.72257600  1
  O  O18  1  0.75000000  0.25183600  0.22257600  1
  O  O19  1  0.75000000  0.75183600  0.27742400  1
  O  O20  1  0.25000000  0.69842400  0.96655800  1
  O  O21  1  0.25000000  0.19842400  0.53344200  1
  O  O22  1  0.75000000  0.30157600  0.03344200  1
  O  O23  1  0.75000000  0.80157600  0.46655800  1
  O  O24  1  0.03721700  0.51630700  0.84580500  1
  O  O25  1  0.46278300  0.01630700  0.65419500  1
  O  O26  1  0.53721700  0.48369300  0.15419500  1
  O  O27  1  0.96278300  0.98369300  0.34580500  1
  O  O28  1  0.96278300  0.48369300  0.15419500  1
  O  O29  1  0.53721700  0.98369300  0.34580500  1
  O  O30  1  0.46278300  0.51630700  0.84580500  1
  O  O31  1  0.03721700  0.01630700  0.65419500  1
  O  O32  1  0.25000000  0.78603500  0.53597600  1
  O  O33  1  0.25000000  0.28603500  0.96402400  1
  O  O34  1  0.75000000  0.21396500  0.46402400  1
  O  O35  1  0.75000000  0.71396500  0.03597600  1
  O  O36  1  0.25000000  0.22644000  0.30059300  1
  O  O37  1  0.25000000  0.72644000  0.19940700  1
  O  O38  1  0.75000000  0.77356000  0.69940700  1
  O  O39  1  0.75000000  0.27356000  0.80059300  1
  O  O40  1  0.50840800  0.55533800  0.58914000  1
  O  O41  1  0.99159200  0.05533800  0.91086000  1
  O  O42  1  0.00840800  0.44466200  0.41086000  1
  O  O43  1  0.49159200  0.94466200  0.08914000  1
  O  O44  1  0.49159200  0.44466200  0.41086000  1
  O  O45  1  0.00840800  0.94466200  0.08914000  1
  O  O46  1  0.99159200  0.55533800  0.58914000  1
  O  O47  1  0.50840800  0.05533800  0.91086000  1
