# generated using pymatgen
data_Al4P5HN2O21
_symmetry_space_group_name_H-M   'P 1'
_cell_length_a   21.88608100
_cell_length_b   5.15385400
_cell_length_c   8.40040376
_cell_angle_alpha   88.54923332
_cell_angle_beta   90.00000000
_cell_angle_gamma   90.00000000
_symmetry_Int_Tables_number   1
_chemical_formula_structural   Al4P5HN2O21
_chemical_formula_sum   'Al8 P10 H2 N4 O42'
_cell_volume   947.24220143
_cell_formula_units_Z   2
loop_
 _symmetry_equiv_pos_site_id
 _symmetry_equiv_pos_as_xyz
  1  'x, y, z'
loop_
 _atom_site_type_symbol
 _atom_site_label
 _atom_site_symmetry_multiplicity
 _atom_site_fract_x
 _atom_site_fract_y
 _atom_site_fract_z
 _atom_site_occupancy
  Al  Al0  1  0.66206500  0.02254000  0.31428300  1
  Al  Al1  1  0.16206500  0.97746000  0.68571700  1
  Al  Al2  1  0.42287900  0.96695500  0.96339600  1
  Al  Al3  1  0.92287900  0.03304500  0.03660400  1
  Al  Al4  1  0.82773200  0.46883000  0.48361600  1
  Al  Al5  1  0.32773200  0.53117000  0.51638400  1
  Al  Al6  1  0.58555200  0.52453500  0.81570900  1
  Al  Al7  1  0.08555200  0.47546500  0.18429100  1
  P  P8  1  0.67824800  0.50672400  0.52453800  1
  P  P9  1  0.17824800  0.49327600  0.47546200  1
  P  P10  1  0.79785800  0.96818800  0.24315800  1
  P  P11  1  0.29785800  0.03181200  0.75684200  1
  P  P12  1  0.44717900  0.47550500  0.75289300  1
  P  P13  1  0.94717900  0.52449500  0.24710700  1
  P  P14  1  0.57027800  0.00385300  0.02442100  1
  P  P15  1  0.07027800  0.99614700  0.97557900  1
  P  P16  1  0.88197500  0.96961700  0.67291300  1
  P  P17  1  0.38197500  0.03038300  0.32708700  1
  H  H18  1  0.97971800  0.93376600  0.63336600  1
  H  H19  1  0.47971800  0.06623400  0.36663400  1
  N  N20  1  0.73278300  0.98949800  0.80974100  1
  N  N21  1  0.23278300  0.01050200  0.19025900  1
  N  N22  1  0.79001700  0.49975800  0.92783900  1
  N  N23  1  0.29001700  0.50024200  0.07216100  1
  O  O24  1  0.66692300  0.79133500  0.47014100  1
  O  O25  1  0.16692300  0.20866500  0.52985900  1
  O  O26  1  0.64455300  0.45752400  0.68361100  1
  O  O27  1  0.14455300  0.54247600  0.31638900  1
  O  O28  1  0.74596800  0.45035700  0.54905200  1
  O  O29  1  0.24596800  0.54964300  0.45094800  1
  O  O30  1  0.65098100  0.32762200  0.39731200  1
  O  O31  1  0.15098100  0.67237800  0.60268800  1
  O  O32  1  0.80428600  0.68844000  0.30768800  1
  O  O33  1  0.30428600  0.31156000  0.69231200  1
  O  O34  1  0.72997000  0.01641200  0.19977100  1
  O  O35  1  0.22997000  0.98358800  0.80022900  1
  O  O36  1  0.83766700  0.01244000  0.09385300  1
  O  O37  1  0.33766700  0.98756000  0.90614700  1
  O  O38  1  0.81861900  0.16666900  0.36440500  1
  O  O39  1  0.31861900  0.83333100  0.63559500  1
  O  O40  1  0.51472100  0.54045900  0.71374200  1
  O  O41  1  0.01472100  0.45954100  0.28625800  1
  O  O42  1  0.40912700  0.52118400  0.60150800  1
  O  O43  1  0.90912700  0.47881600  0.39849200  1
  O  O44  1  0.42429800  0.64194100  0.89084100  1
  O  O45  1  0.92429800  0.35805900  0.10915900  1
  O  O46  1  0.44386600  0.18855500  0.80585600  1
  O  O47  1  0.94386600  0.81144500  0.19414400  1
  O  O48  1  0.50254600  0.94108700  0.04325200  1
  O  O49  1  0.00254600  0.05891300  0.95674800  1
  O  O50  1  0.60023000  0.96024100  0.18933000  1
  O  O51  1  0.10023000  0.03975900  0.81067000  1
  O  O52  1  0.60049600  0.82514200  0.90181800  1
  O  O53  1  0.10049600  0.17485800  0.09818200  1
  O  O54  1  0.58107900  0.28906800  0.97016400  1
  O  O55  1  0.08107900  0.71093200  0.02983600  1
  O  O56  1  0.85054000  0.23425600  0.65065200  1
  O  O57  1  0.35054000  0.76574400  0.34934800  1
  O  O58  1  0.39918100  0.07931900  0.15334200  1
  O  O59  1  0.89918100  0.92068100  0.84665800  1
  O  O60  1  0.84210100  0.74932700  0.61454200  1
  O  O61  1  0.34210100  0.25067300  0.38545800  1
  O  O62  1  0.94367700  0.97724900  0.56999700  1
  O  O63  1  0.44367700  0.02275100  0.43000300  1
  O  O64  1  0.50783500  0.51018300  0.32106600  1
  O  O65  1  0.00783500  0.48981700  0.67893400  1
