# generated using pymatgen
data_NaB(H4N)2
_symmetry_space_group_name_H-M   'P 1'
_cell_length_a   6.75671700
_cell_length_b   7.66030200
_cell_length_c   9.13419266
_cell_angle_alpha   72.30417809
_cell_angle_beta   90.00000000
_cell_angle_gamma   90.00000000
_symmetry_Int_Tables_number   1
_chemical_formula_structural   NaB(H4N)2
_chemical_formula_sum   'Na4 B4 H32 N8'
_cell_volume   450.40219686
_cell_formula_units_Z   4
loop_
 _symmetry_equiv_pos_site_id
 _symmetry_equiv_pos_as_xyz
  1  'x, y, z'
loop_
 _atom_site_type_symbol
 _atom_site_label
 _atom_site_symmetry_multiplicity
 _atom_site_fract_x
 _atom_site_fract_y
 _atom_site_fract_z
 _atom_site_occupancy
  Na  Na0  1  0.24806200  0.40227400  0.64328300  1
  Na  Na1  1  0.74806200  0.59772600  0.85671700  1
  Na  Na2  1  0.75193800  0.59772600  0.35671700  1
  Na  Na3  1  0.25193800  0.40227400  0.14328300  1
  B  B4  1  0.29013300  0.67765700  0.31051000  1
  B  B5  1  0.79013300  0.32234300  0.18949000  1
  B  B6  1  0.70986700  0.32234300  0.68949000  1
  B  B7  1  0.20986700  0.67765700  0.81051000  1
  H  H8  1  0.19032600  0.53654200  0.34172700  1
  H  H9  1  0.69032600  0.46345800  0.15827300  1
  H  H10  1  0.80967400  0.46345800  0.65827300  1
  H  H11  1  0.30967400  0.53654200  0.84172700  1
  H  H12  1  0.43632600  0.65055400  0.39428500  1
  H  H13  1  0.93632600  0.34944600  0.10571500  1
  H  H14  1  0.56367400  0.34944600  0.60571500  1
  H  H15  1  0.06367400  0.65055400  0.89428500  1
  H  H16  1  0.19154900  0.80004700  0.33542600  1
  H  H17  1  0.69154900  0.19995300  0.16457400  1
  H  H18  1  0.80845100  0.19995300  0.66457400  1
  H  H19  1  0.30845100  0.80004700  0.83542600  1
  H  H20  1  0.33979300  0.72269200  0.17407700  1
  H  H21  1  0.83979300  0.27730800  0.32592300  1
  H  H22  1  0.66020700  0.27730800  0.82592300  1
  H  H23  1  0.16020700  0.72269200  0.67407700  1
  H  H24  1  0.31877900  0.04216500  0.10200200  1
  H  H25  1  0.81877900  0.95783500  0.39799800  1
  H  H26  1  0.68122100  0.95783500  0.89799800  1
  H  H27  1  0.18122100  0.04216500  0.60200200  1
  H  H28  1  0.45479700  0.19132200  0.97305700  1
  H  H29  1  0.95479700  0.80867800  0.52694300  1
  H  H30  1  0.54520300  0.80867800  0.02694300  1
  H  H31  1  0.04520300  0.19132200  0.47305700  1
  H  H32  1  0.19034500  0.02443300  0.88290200  1
  H  H33  1  0.69034500  0.97556700  0.61709800  1
  H  H34  1  0.80965500  0.97556700  0.11709800  1
  H  H35  1  0.30965500  0.02443300  0.38290200  1
  H  H36  1  0.04636100  0.18049700  0.91922100  1
  H  H37  1  0.54636100  0.81950300  0.58077900  1
  H  H38  1  0.95363900  0.81950300  0.08077900  1
  H  H39  1  0.45363900  0.18049700  0.41922100  1
  N  N40  1  0.18798400  0.15473500  0.89270800  1
  N  N41  1  0.68798400  0.84526500  0.60729200  1
  N  N42  1  0.81201600  0.84526500  0.10729200  1
  N  N43  1  0.31201600  0.15473500  0.39270800  1
  N  N44  1  0.31445000  0.16557300  0.01686200  1
  N  N45  1  0.81445000  0.83442700  0.48313800  1
  N  N46  1  0.68555000  0.83442700  0.98313800  1
  N  N47  1  0.18555000  0.16557300  0.51686200  1
