# generated using pymatgen
data_Be3As3H9C5NO13
_symmetry_space_group_name_H-M   'P 1'
_cell_length_a   5.05875600
_cell_length_b   13.49876198
_cell_length_c   22.40787550
_cell_angle_alpha   85.99600494
_cell_angle_beta   83.51869741
_cell_angle_gamma   79.20016319
_symmetry_Int_Tables_number   1
_chemical_formula_structural   Be3As3H9C5NO13
_chemical_formula_sum   'Be12 As12 H36 C20 N4 O52'
_cell_volume   1491.59786199
_cell_formula_units_Z   4
loop_
 _symmetry_equiv_pos_site_id
 _symmetry_equiv_pos_as_xyz
  1  'x, y, z'
loop_
 _atom_site_type_symbol
 _atom_site_label
 _atom_site_symmetry_multiplicity
 _atom_site_fract_x
 _atom_site_fract_y
 _atom_site_fract_z
 _atom_site_occupancy
  Be  Be0  1  0.06321900  0.10142800  0.76157400  1
  Be  Be1  1  0.92622000  0.39857200  0.73842600  1
  Be  Be2  1  0.93678100  0.89857200  0.23842600  1
  Be  Be3  1  0.07378000  0.60142800  0.26157400  1
  Be  Be4  1  0.17783900  0.08300600  0.56474400  1
  Be  Be5  1  0.82559000  0.41699400  0.93525600  1
  Be  Be6  1  0.82216100  0.91699400  0.43525600  1
  Be  Be7  1  0.17441100  0.58300600  0.06474400  1
  Be  Be8  1  0.44122400  0.16754400  0.31472100  1
  Be  Be9  1  0.92348800  0.33245600  0.18527900  1
  Be  Be10  1  0.55877600  0.83245600  0.68527900  1
  Be  Be11  1  0.07651200  0.66754400  0.81472100  1
  As  As12  1  0.99161800  0.88650000  0.75365900  1
  As  As13  1  0.63177600  0.61350000  0.74634100  1
  As  As14  1  0.00838200  0.11350000  0.24634100  1
  As  As15  1  0.36822400  0.38650000  0.25365900  1
  As  As16  1  0.91059900  0.23816300  0.65851100  1
  As  As17  1  0.80727200  0.26183700  0.84148900  1
  As  As18  1  0.08940100  0.76183700  0.34148900  1
  As  As19  1  0.19272800  0.73816300  0.15851100  1
  As  As20  1  0.24322700  0.04749900  0.42872900  1
  As  As21  1  0.71945500  0.45250100  0.07127100  1
  As  As22  1  0.75677300  0.95250100  0.57127100  1
  As  As23  1  0.28054500  0.54749900  0.92872900  1
  H  H24  1  0.44148700  0.30613600  0.65990700  1
  H  H25  1  0.40753000  0.19386400  0.84009300  1
  H  H26  1  0.55851300  0.69386400  0.34009300  1
  H  H27  1  0.59247000  0.80613600  0.15990700  1
  H  H28  1  0.13033400  0.79306000  0.52328900  1
  H  H29  1  0.44668200  0.70694000  0.97671100  1
  H  H30  1  0.86966600  0.20694000  0.47671100  1
  H  H31  1  0.55331800  0.29306000  0.02328900  1
  H  H32  1  0.47119700  0.00845600  0.72777700  1
  H  H33  1  0.20742900  0.49154400  0.77222300  1
  H  H34  1  0.52880300  0.99154400  0.27222300  1
  H  H35  1  0.79257100  0.50845600  0.22777700  1
  H  H36  1  0.51411900  0.12112700  0.72199800  1
  H  H37  1  0.35724400  0.37887300  0.77800200  1
  H  H38  1  0.48588100  0.87887300  0.27800200  1
  H  H39  1  0.64275600  0.62112700  0.22199800  1
  H  H40  1  0.98363100  0.70293800  0.60937100  1
  H  H41  1  0.29594000  0.79706200  0.89062900  1
  H  H42  1  0.01636900  0.29706200  0.39062900  1
  H  H43  1  0.70406000  0.20293800  0.10937100  1
  H  H44  1  0.26969900  0.53807100  0.64223700  1
  H  H45  1  0.45000800  0.96192900  0.85776300  1
  H  H46  1  0.73030100  0.46192900  0.35776300  1
  H  H47  1  0.54999200  0.03807100  0.14223700  1
  H  H48  1  0.71593700  0.48069300  0.58444400  1
  H  H49  1  0.78107400  0.01930700  0.91555600  1
  H  H50  1  0.28406300  0.51930700  0.41555600  1
  H  H51  1  0.21892600  0.98069300  0.08444400  1
  H  H52  1  0.86115700  0.58803400  0.49305100  1
  H  H53  1  0.94224200  0.91196600  0.00694900  1
  H  H54  1  0.13884300  0.41196600  0.50694900  1
  H  H55  1  0.05775800  0.08803400  0.99305100  1
  H  H56  1  0.54843700  0.74760100  0.46491600  1
  H  H57  1  0.76095400  0.75239900  0.03508400  1
  H  H58  1  0.45156300  0.25239900  0.53508400  1
  H  H59  1  0.23904600  0.24760100  0.96491600  1
  C  C60  1  0.17848200  0.67183800  0.58553900  1
  C  C61  1  0.43586000  0.82816200  0.91446100  1
  C  C62  1  0.82151800  0.32816200  0.41446100  1
  C  C63  1  0.56414000  0.17183800  0.08553900  1
  C  C64  1  0.33892300  0.58223300  0.60303100  1
  C  C65  1  0.52418700  0.91776700  0.89696900  1
  C  C66  1  0.66107700  0.41776700  0.39696900  1
  C  C67  1  0.47581300  0.08223300  0.10303100  1
  C  C68  1  0.58840200  0.55062500  0.57001400  1
  C  C69  1  0.70904100  0.94937500  0.92998600  1
  C  C70  1  0.41159800  0.44937500  0.42998600  1
  C  C71  1  0.29095900  0.05062500  0.07001400  1
  C  C72  1  0.66829000  0.60961200  0.51996200  1
  C  C73  1  0.79786400  0.89038800  0.98003800  1
  C  C74  1  0.33171000  0.39038800  0.48003800  1
  C  C75  1  0.20213600  0.10961200  0.01996200  1
  C  C76  1  0.50017300  0.69830900  0.50358700  1
  C  C77  1  0.70206800  0.80169100  0.99641300  1
  C  C78  1  0.49982700  0.30169100  0.49641300  1
  C  C79  1  0.29793200  0.19830900  0.00358700  1
  N  N80  1  0.26128100  0.72646000  0.53660000  1
  N  N81  1  0.52434100  0.77354000  0.96340000  1
  N  N82  1  0.73871900  0.27354000  0.46340000  1
  N  N83  1  0.47565900  0.22646000  0.03660000  1
  O  O84  1  0.66995300  0.89652200  0.73282100  1
  O  O85  1  0.29929700  0.60347800  0.76717900  1
  O  O86  1  0.33004700  0.10347800  0.26717900  1
  O  O87  1  0.70070300  0.39652200  0.23282100  1
  O  O88  1  0.05371600  0.78966700  0.80671000  1
  O  O89  1  0.65009400  0.71033300  0.69329000  1
  O  O90  1  0.94628400  0.21033300  0.19329000  1
  O  O91  1  0.34990600  0.28966700  0.30671000  1
  O  O92  1  0.22696800  0.85934900  0.69243500  1
  O  O93  1  0.77875100  0.64065100  0.80756500  1
  O  O94  1  0.77303200  0.14065100  0.30756500  1
  O  O95  1  0.22124900  0.35934900  0.19243500  1
  O  O96  1  0.99897000  0.99370400  0.78876800  1
  O  O97  1  0.78144200  0.50629600  0.71123200  1
  O  O98  1  0.00103000  0.00629600  0.21123200  1
  O  O99  1  0.21855800  0.49370400  0.28876800  1
  O  O100  1  0.83107800  0.15272100  0.71540900  1
  O  O101  1  0.69920700  0.34727900  0.78459100  1
  O  O102  1  0.16892200  0.84727900  0.28459100  1
  O  O103  1  0.30079300  0.65272100  0.21540900  1
  O  O104  1  0.61013600  0.30627900  0.63219200  1
  O  O105  1  0.54860700  0.19372100  0.86780800  1
  O  O106  1  0.38986400  0.69372100  0.36780800  1
  O  O107  1  0.45139300  0.80627900  0.13219200  1
  O  O108  1  0.07693100  0.32369300  0.68489900  1
  O  O109  1  0.08552300  0.17630700  0.81510100  1
  O  O110  1  0.92306900  0.67630700  0.31510100  1
  O  O111  1  0.91447700  0.82369300  0.18489900  1
  O  O112  1  0.09343800  0.19183900  0.59557500  1
  O  O113  1  0.88085300  0.30816100  0.90442500  1
  O  O114  1  0.90656200  0.80816100  0.40442500  1
  O  O115  1  0.11914700  0.69183900  0.09557500  1
  O  O116  1  0.01839600  0.99697300  0.59723300  1
  O  O117  1  0.61260300  0.50302700  0.90276700  1
  O  O118  1  0.98160400  0.00302700  0.40276700  1
  O  O119  1  0.38739700  0.49697300  0.09723300  1
  O  O120  1  0.50728300  0.05427700  0.56258700  1
  O  O121  1  0.12414800  0.44572300  0.93741300  1
  O  O122  1  0.49271700  0.94572300  0.43741300  1
  O  O123  1  0.87585200  0.55427700  0.06258700  1
  O  O124  1  0.10863700  0.10770800  0.49416500  1
  O  O125  1  0.71051000  0.39229200  0.00583500  1
  O  O126  1  0.89136300  0.89229200  0.50583500  1
  O  O127  1  0.28949000  0.60770800  0.99416500  1
  O  O128  1  0.33267800  0.14421700  0.38336700  1
  O  O129  1  0.86026200  0.35578300  0.11663300  1
  O  O130  1  0.66732200  0.85578300  0.61663300  1
  O  O131  1  0.13973800  0.64421700  0.88336700  1
  O  O132  1  0.36926300  0.07966900  0.72428000  1
  O  O133  1  0.17321200  0.42033100  0.77572000  1
  O  O134  1  0.63073700  0.92033100  0.27572000  1
  O  O135  1  0.82678800  0.57966900  0.22428000  1
