# generated using pymatgen
data_Mo3Cl7O4
_symmetry_space_group_name_H-M   'P 1'
_cell_length_a   10.11606590
_cell_length_b   10.11606590
_cell_length_c   19.95836336
_cell_angle_alpha   83.74728448
_cell_angle_beta   83.74728448
_cell_angle_gamma   58.19903083
_symmetry_Int_Tables_number   1
_chemical_formula_structural   Mo3Cl7O4
_chemical_formula_sum   'Mo12 Cl28 O16'
_cell_volume   1722.29471026
_cell_formula_units_Z   4
loop_
 _symmetry_equiv_pos_site_id
 _symmetry_equiv_pos_as_xyz
  1  'x, y, z'
loop_
 _atom_site_type_symbol
 _atom_site_label
 _atom_site_symmetry_multiplicity
 _atom_site_fract_x
 _atom_site_fract_y
 _atom_site_fract_z
 _atom_site_occupancy
  Mo  Mo0  1  0.10008200  0.40772900  0.40002700  1
  Mo  Mo1  1  0.59227100  0.89991800  0.09997300  1
  Mo  Mo2  1  0.89991800  0.59227100  0.59997300  1
  Mo  Mo3  1  0.40772900  0.10008200  0.90002700  1
  Mo  Mo4  1  0.79563200  0.71492100  0.44888600  1
  Mo  Mo5  1  0.28507900  0.20436800  0.05111400  1
  Mo  Mo6  1  0.20436800  0.28507900  0.55111400  1
  Mo  Mo7  1  0.71492100  0.79563200  0.94888600  1
  Mo  Mo8  1  0.18125800  0.64704400  0.48522600  1
  Mo  Mo9  1  0.35295600  0.81874200  0.01477400  1
  Mo  Mo10  1  0.81874200  0.35295600  0.51477400  1
  Mo  Mo11  1  0.64704400  0.18125800  0.98522600  1
  Cl  Cl12  1  0.34718100  0.35704300  0.45204800  1
  Cl  Cl13  1  0.64295700  0.65281900  0.04795200  1
  Cl  Cl14  1  0.65281900  0.64295700  0.54795200  1
  Cl  Cl15  1  0.35704300  0.34718100  0.95204800  1
  Cl  Cl16  1  0.02668400  0.69173600  0.37403900  1
  Cl  Cl17  1  0.30826400  0.97331600  0.12596100  1
  Cl  Cl18  1  0.97331600  0.30826400  0.62596100  1
  Cl  Cl19  1  0.69173600  0.02668400  0.87403900  1
  Cl  Cl20  1  0.15700200  0.15643300  0.46326000  1
  Cl  Cl21  1  0.84356700  0.84299800  0.03674000  1
  Cl  Cl22  1  0.84299800  0.84356700  0.53674000  1
  Cl  Cl23  1  0.15643300  0.15700200  0.96326000  1
  Cl  Cl24  1  0.82326200  0.51329100  0.37613300  1
  Cl  Cl25  1  0.48670900  0.17673800  0.12386700  1
  Cl  Cl26  1  0.17673800  0.48670900  0.62386700  1
  Cl  Cl27  1  0.51329100  0.82326200  0.87613300  1
  Cl  Cl28  1  0.30642100  0.77609700  0.41191700  1
  Cl  Cl29  1  0.22390300  0.69357900  0.08808300  1
  Cl  Cl30  1  0.69357900  0.22390300  0.58808300  1
  Cl  Cl31  1  0.77609700  0.30642100  0.91191700  1
  Cl  Cl32  1  0.21671400  0.31313800  0.29483000  1
  Cl  Cl33  1  0.68686200  0.78328600  0.20517000  1
  Cl  Cl34  1  0.78328600  0.68686200  0.70517000  1
  Cl  Cl35  1  0.31313800  0.21671400  0.79483000  1
  Cl  Cl36  1  0.58014300  0.92958300  0.39826000  1
  Cl  Cl37  1  0.07041700  0.41985700  0.10174000  1
  Cl  Cl38  1  0.41985700  0.07041700  0.60174000  1
  Cl  Cl39  1  0.92958300  0.58014300  0.89826000  1
  O  O40  1  0.66963400  0.18866900  0.30874600  1
  O  O41  1  0.81133100  0.33036600  0.19125400  1
  O  O42  1  0.33036600  0.81133100  0.69125400  1
  O  O43  1  0.18866900  0.66963400  0.80874600  1
  O  O44  1  0.79821900  0.11920400  0.33290300  1
  O  O45  1  0.88079600  0.20178100  0.16709700  1
  O  O46  1  0.20178100  0.88079600  0.66709700  1
  O  O47  1  0.11920400  0.79821900  0.83290300  1
  O  O48  1  0.32271400  0.77510000  0.33291600  1
  O  O49  1  0.22490000  0.67728600  0.16708400  1
  O  O50  1  0.67728600  0.22490000  0.66708400  1
  O  O51  1  0.77510000  0.32271400  0.83291600  1
  O  O52  1  0.73778300  0.22372000  0.03978900  1
  O  O53  1  0.77628000  0.26221700  0.46021100  1
  O  O54  1  0.26221700  0.77628000  0.96021100  1
  O  O55  1  0.22372000  0.73778300  0.53978900  1
