# generated using pymatgen
data_ZnS
_symmetry_space_group_name_H-M   'P 1'
_cell_length_a   3.87402023
_cell_length_b   3.87402023
_cell_length_c   56.38957162
_cell_angle_alpha   88.03147444
_cell_angle_beta   88.03147444
_cell_angle_gamma   59.99999608
_symmetry_Int_Tables_number   1
_chemical_formula_structural   ZnS
_chemical_formula_sum   'Zn18 S18'
_cell_volume   732.33750638
_cell_formula_units_Z   18
loop_
 _symmetry_equiv_pos_site_id
 _symmetry_equiv_pos_as_xyz
  1  'x, y, z'
loop_
 _atom_site_type_symbol
 _atom_site_label
 _atom_site_symmetry_multiplicity
 _atom_site_fract_x
 _atom_site_fract_y
 _atom_site_fract_z
 _atom_site_occupancy
  Zn  Zn0  1  0.99999600  0.99999600  0.00001200  1
  Zn  Zn1  1  0.94443900  0.94443900  0.16668300  1
  Zn  Zn2  1  0.88888500  0.88888500  0.33334400  1
  Zn  Zn3  1  0.83332800  0.83332800  0.50001600  1
  Zn  Zn4  1  0.75925900  0.75925900  0.72222400  1
  Zn  Zn5  1  0.72221300  0.72221300  0.83336200  1
  Zn  Zn6  1  0.64815200  0.64815200  0.05554400  1
  Zn  Zn7  1  0.59258300  0.59258300  0.22225100  1
  Zn  Zn8  1  0.51851900  0.51851900  0.44444400  1
  Zn  Zn9  1  0.46295700  0.46295700  0.61112800  1
  Zn  Zn10  1  0.40740800  0.40740800  0.77777700  1
  Zn  Zn11  1  0.35185200  0.35185200  0.94444400  1
  Zn  Zn12  1  0.29629900  0.29629900  0.11110200  1
  Zn  Zn13  1  0.24073600  0.24073600  0.27779100  1
  Zn  Zn14  1  0.20369500  0.20369500  0.38891600  1
  Zn  Zn15  1  0.14814500  0.14814500  0.55556500  1
  Zn  Zn16  1  0.11110000  0.11110000  0.66670000  1
  Zn  Zn17  1  0.03703900  0.03703900  0.88888400  1
  S  S18  1  0.98611700  0.98611700  0.04164900  1
  S  S19  1  0.93056500  0.93056500  0.20830500  1
  S  S20  1  0.87499300  0.87499300  0.37502000  1
  S  S21  1  0.81945800  0.81945800  0.54162700  1
  S  S22  1  0.74539900  0.74539900  0.76380400  1
  S  S23  1  0.70834500  0.70834500  0.87496500  1
  S  S24  1  0.63426900  0.63426900  0.09719200  1
  S  S25  1  0.57871600  0.57871600  0.26385100  1
  S  S26  1  0.50464100  0.50464100  0.48607600  1
  S  S27  1  0.44907200  0.44907200  0.65278400  1
  S  S28  1  0.39351800  0.39351800  0.81944600  1
  S  S29  1  0.33795900  0.33795900  0.98612400  1
  S  S30  1  0.28241900  0.28241900  0.15274300  1
  S  S31  1  0.22687800  0.22687800  0.31936500  1
  S  S32  1  0.18981800  0.18981800  0.43054500  1
  S  S33  1  0.13428900  0.13428900  0.59713200  1
  S  S34  1  0.09723200  0.09723200  0.70830300  1
  S  S35  1  0.02317600  0.02317600  0.93047300  1
