# generated using pymatgen
data_BaTiFe2(SiO5)2
_symmetry_space_group_name_H-M   'P 1'
_cell_length_a   6.95390100
_cell_length_b   5.36416800
_cell_length_c   11.39392291
_cell_angle_alpha   85.49697292
_cell_angle_beta   90.00000000
_cell_angle_gamma   90.00000000
_symmetry_Int_Tables_number   1
_chemical_formula_structural   BaTiFe2(SiO5)2
_chemical_formula_sum   'Ba2 Ti2 Fe4 Si4 O20'
_cell_volume   423.70295421
_cell_formula_units_Z   2
loop_
 _symmetry_equiv_pos_site_id
 _symmetry_equiv_pos_as_xyz
  1  'x, y, z'
loop_
 _atom_site_type_symbol
 _atom_site_label
 _atom_site_symmetry_multiplicity
 _atom_site_fract_x
 _atom_site_fract_y
 _atom_site_fract_z
 _atom_site_occupancy
  Ba  Ba0  1  0.75000000  0.22456200  0.56485700  1
  Ba  Ba1  1  0.25000000  0.77543800  0.43514300  1
  Ti  Ti2  1  0.25000000  0.22044200  0.66011100  1
  Ti  Ti3  1  0.75000000  0.77955800  0.33988900  1
  Fe  Fe4  1  0.50000000  0.00000000  0.00000000  1
  Fe  Fe5  1  0.00000000  0.00000000  0.00000000  1
  Fe  Fe6  1  0.25000000  0.53015800  0.98165400  1
  Fe  Fe7  1  0.75000000  0.46984200  0.01834600  1
  Si  Si8  1  0.98032200  0.70594400  0.74997600  1
  Si  Si9  1  0.48032200  0.29405600  0.25002400  1
  Si  Si10  1  0.01967800  0.29405600  0.25002400  1
  Si  Si11  1  0.51967800  0.70594400  0.74997600  1
  O  O12  1  0.02885900  0.69975400  0.89356400  1
  O  O13  1  0.52885900  0.30024600  0.10643600  1
  O  O14  1  0.97114100  0.30024600  0.10643600  1
  O  O15  1  0.47114100  0.69975400  0.89356400  1
  O  O16  1  0.25000000  0.19712200  0.93428600  1
  O  O17  1  0.75000000  0.80287800  0.06571400  1
  O  O18  1  0.05797500  0.95412100  0.67498100  1
  O  O19  1  0.55797500  0.04587900  0.32501900  1
  O  O20  1  0.94202500  0.04587900  0.32501900  1
  O  O21  1  0.44202500  0.95412100  0.67498100  1
  O  O22  1  0.04808900  0.45466900  0.69342900  1
  O  O23  1  0.54808900  0.54533100  0.30657100  1
  O  O24  1  0.95191100  0.54533100  0.30657100  1
  O  O25  1  0.45191100  0.45466900  0.69342900  1
  O  O26  1  0.75000000  0.72612300  0.74104000  1
  O  O27  1  0.25000000  0.27387700  0.25896000  1
  O  O28  1  0.75000000  0.19502400  0.92218000  1
  O  O29  1  0.25000000  0.80497600  0.07782000  1
  O  O30  1  0.25000000  0.26636200  0.50865300  1
  O  O31  1  0.75000000  0.73363800  0.49134700  1
