# generated using pymatgen
data_Ba6Zr(Zn3S7)2
_symmetry_space_group_name_H-M   'P 1'
_cell_length_a   12.72245978
_cell_length_b   12.72245978
_cell_length_c   12.72245978
_cell_angle_alpha   98.75131606
_cell_angle_beta   98.75131606
_cell_angle_gamma   134.08364843
_symmetry_Int_Tables_number   1
_chemical_formula_structural   Ba6Zr(Zn3S7)2
_chemical_formula_sum   'Ba12 Zr2 Zn12 S28'
_cell_volume   1362.05510883
_cell_formula_units_Z   2
loop_
 _symmetry_equiv_pos_site_id
 _symmetry_equiv_pos_as_xyz
  1  'x, y, z'
loop_
 _atom_site_type_symbol
 _atom_site_label
 _atom_site_symmetry_multiplicity
 _atom_site_fract_x
 _atom_site_fract_y
 _atom_site_fract_z
 _atom_site_occupancy
  Ba  Ba0  1  0.27050500  0.22949500  0.50000000  1
  Ba  Ba1  1  0.72949500  0.77050500  0.50000000  1
  Ba  Ba2  1  0.22949500  0.72949500  0.95899100  1
  Ba  Ba3  1  0.77050500  0.27050500  0.04100900  1
  Ba  Ba4  1  0.94656500  0.75000000  0.19656500  1
  Ba  Ba5  1  0.55343500  0.75000000  0.80343500  1
  Ba  Ba6  1  0.05343500  0.25000000  0.80343500  1
  Ba  Ba7  1  0.44656500  0.25000000  0.19656500  1
  Ba  Ba8  1  0.75000000  0.55343500  0.80343500  1
  Ba  Ba9  1  0.75000000  0.94656500  0.19656500  1
  Ba  Ba10  1  0.25000000  0.44656500  0.19656500  1
  Ba  Ba11  1  0.25000000  0.05343500  0.80343500  1
  Zr  Zr12  1  0.00000000  0.00000000  0.00000000  1
  Zr  Zr13  1  0.50000000  0.50000000  0.00000000  1
  Zn  Zn14  1  0.26015800  0.93916800  0.50000000  1
  Zn  Zn15  1  0.43916800  0.76015800  0.50000000  1
  Zn  Zn16  1  0.93916800  0.43916800  0.67901000  1
  Zn  Zn17  1  0.76015800  0.26015800  0.32099000  1
  Zn  Zn18  1  0.73984200  0.06083200  0.50000000  1
  Zn  Zn19  1  0.56083200  0.23984200  0.50000000  1
  Zn  Zn20  1  0.06083200  0.56083200  0.32099000  1
  Zn  Zn21  1  0.23984200  0.73984200  0.67901000  1
  Zn  Zn22  1  0.11726500  0.38273500  0.50000000  1
  Zn  Zn23  1  0.88273500  0.61726500  0.50000000  1
  Zn  Zn24  1  0.38273500  0.88273500  0.26546900  1
  Zn  Zn25  1  0.61726500  0.11726500  0.73453100  1
  S  S26  1  0.32690900  0.01550600  0.34241400  1
  S  S27  1  0.67309100  0.98449400  0.65758600  1
  S  S28  1  0.17309100  0.51550600  0.68859700  1
  S  S29  1  0.82690900  0.48449400  0.31140300  1
  S  S30  1  0.01550600  0.67309100  0.68859700  1
  S  S31  1  0.98449400  0.32690900  0.31140300  1
  S  S32  1  0.51550600  0.82690900  0.34241400  1
  S  S33  1  0.48449400  0.17309100  0.65758600  1
  S  S34  1  0.03959500  0.87722800  0.50000000  1
  S  S35  1  0.37722800  0.53959500  0.50000000  1
  S  S36  1  0.87722800  0.37722800  0.83763300  1
  S  S37  1  0.53959500  0.03959500  0.16236700  1
  S  S38  1  0.96040500  0.12277200  0.50000000  1
  S  S39  1  0.62277200  0.46040500  0.50000000  1
  S  S40  1  0.12277200  0.62277200  0.16236700  1
  S  S41  1  0.46040500  0.96040500  0.83763300  1
  S  S42  1  0.11155100  0.11233000  0.22388100  1
  S  S43  1  0.88844900  0.88767000  0.77611900  1
  S  S44  1  0.38844900  0.61233000  0.00078000  1
  S  S45  1  0.61155100  0.38767000  0.99922000  1
  S  S46  1  0.11233000  0.88844900  0.00078000  1
  S  S47  1  0.88767000  0.11155100  0.99922000  1
  S  S48  1  0.61233000  0.61155100  0.22388100  1
  S  S49  1  0.38767000  0.38844900  0.77611900  1
  S  S50  1  0.75000000  0.75000000  0.00000000  1
  S  S51  1  0.25000000  0.25000000  0.00000000  1
  S  S52  1  0.25000000  0.75000000  0.50000000  1
  S  S53  1  0.75000000  0.25000000  0.50000000  1
