# generated using pymatgen
data_CaAl2(Si2O7)2
_symmetry_space_group_name_H-M   'P 1'
_cell_length_a   10.03816650
_cell_length_b   10.03816650
_cell_length_c   7.56261334
_cell_angle_alpha   74.39554649
_cell_angle_beta   74.39554649
_cell_angle_gamma   82.97998310
_symmetry_Int_Tables_number   1
_chemical_formula_structural   CaAl2(Si2O7)2
_chemical_formula_sum   'Ca2 Al4 Si8 O28'
_cell_volume   705.88318231
_cell_formula_units_Z   2
loop_
 _symmetry_equiv_pos_site_id
 _symmetry_equiv_pos_as_xyz
  1  'x, y, z'
loop_
 _atom_site_type_symbol
 _atom_site_label
 _atom_site_symmetry_multiplicity
 _atom_site_fract_x
 _atom_site_fract_y
 _atom_site_fract_z
 _atom_site_occupancy
  Ca  Ca0  1  0.98752100  0.51821300  0.76321900  1
  Ca  Ca1  1  0.48178700  0.01247900  0.23678100  1
  Al  Al2  1  0.05348900  0.20218100  0.76188000  1
  Al  Al3  1  0.79781900  0.94651100  0.23812000  1
  Al  Al4  1  0.66967500  0.58865400  0.76716100  1
  Al  Al5  1  0.41134600  0.33032500  0.23283900  1
  Si  Si6  1  0.09047800  0.39080000  0.34119100  1
  Si  Si7  1  0.60920000  0.90952200  0.65880900  1
  Si  Si8  1  0.93462000  0.23050300  0.17563000  1
  Si  Si9  1  0.76949700  0.06538000  0.82437000  1
  Si  Si10  1  0.69878600  0.46555800  0.17747500  1
  Si  Si11  1  0.53444200  0.30121400  0.82252500  1
  Si  Si12  1  0.85581100  0.62360500  0.34582600  1
  Si  Si13  1  0.37639500  0.14418900  0.65417400  1
  O  O14  1  0.99656300  0.53168700  0.27002000  1
  O  O15  1  0.46831300  0.00343700  0.72998000  1
  O  O16  1  0.99904800  0.29255400  0.94657800  1
  O  O17  1  0.70744600  0.00095200  0.05342200  1
  O  O18  1  0.76195500  0.53613700  0.95036200  1
  O  O19  1  0.46386300  0.23804500  0.04963800  1
  O  O20  1  0.06245300  0.35741500  0.57274600  1
  O  O21  1  0.64258500  0.93754700  0.42725400  1
  O  O22  1  0.82417500  0.59873500  0.57655700  1
  O  O23  1  0.40126500  0.17582500  0.42344300  1
  O  O24  1  0.25076300  0.41624500  0.23499800  1
  O  O25  1  0.58375500  0.74923700  0.76500200  1
  O  O26  1  0.88147400  0.78412000  0.24182500  1
  O  O27  1  0.21588000  0.11852600  0.75817500  1
  O  O28  1  0.04124300  0.25883200  0.28979200  1
  O  O29  1  0.74116800  0.95875700  0.71020800  1
  O  O30  1  0.72342400  0.57093100  0.29773800  1
  O  O31  1  0.42906900  0.27657600  0.70226200  1
  O  O32  1  0.78861100  0.31997300  0.23587400  1
  O  O33  1  0.68002700  0.21138900  0.76412600  1
  O  O34  1  0.56296900  0.46166200  0.77957000  1
  O  O35  1  0.53833800  0.43703100  0.22043000  1
  O  O36  1  0.93163400  0.09011500  0.77373700  1
  O  O37  1  0.90988500  0.06836600  0.22626300  1
  O  O38  1  0.23604400  0.52582500  0.74957800  1
  O  O39  1  0.47417500  0.76395600  0.25042200  1
  O  O40  1  0.00517500  0.74016600  0.84640000  1
  O  O41  1  0.25983400  0.99482500  0.15360000  1
