# generated using pymatgen
data_ZnBi4(PO6)2
_symmetry_space_group_name_H-M   'P 1'
_cell_length_a   10.96509888
_cell_length_b   17.81047200
_cell_length_c   24.67366644
_cell_angle_alpha   81.18853505
_cell_angle_beta   77.16157169
_cell_angle_gamma   72.07165651
_symmetry_Int_Tables_number   1
_chemical_formula_structural   ZnBi4(PO6)2
_chemical_formula_sum   'Zn16 Bi64 P32 O192'
_cell_volume   4451.30631500
_cell_formula_units_Z   16
loop_
 _symmetry_equiv_pos_site_id
 _symmetry_equiv_pos_as_xyz
  1  'x, y, z'
loop_
 _atom_site_type_symbol
 _atom_site_label
 _atom_site_symmetry_multiplicity
 _atom_site_fract_x
 _atom_site_fract_y
 _atom_site_fract_z
 _atom_site_occupancy
  Zn  Zn0  1  0.34531159  0.25862268  0.49708439  1
  Zn  Zn1  1  0.10101866  0.24137732  0.00291561  1
  Zn  Zn2  1  0.65468841  0.74137732  0.50291561  1
  Zn  Zn3  1  0.89898134  0.75862268  0.99708439  1
  Zn  Zn4  1  0.66406093  0.24798032  0.50345371  1
  Zn  Zn5  1  0.41549496  0.25201968  0.99654629  1
  Zn  Zn6  1  0.33593907  0.75201968  0.49654629  1
  Zn  Zn7  1  0.58450504  0.74798032  0.00345371  1
  Zn  Zn8  1  0.07299538  0.16966383  0.45223181  1
  Zn  Zn9  1  0.69489102  0.33033617  0.04776819  1
  Zn  Zn10  1  0.92700462  0.83033617  0.54776819  1
  Zn  Zn11  1  0.30510898  0.66966383  0.95223181  1
  Zn  Zn12  1  0.76689262  0.19167294  0.95318360  1
  Zn  Zn13  1  0.91174916  0.30832706  0.54681640  1
  Zn  Zn14  1  0.23310738  0.80832706  0.04681640  1
  Zn  Zn15  1  0.08825084  0.69167294  0.45318360  1
  Bi  Bi16  1  0.85984877  0.34677193  0.69944642  1
  Bi  Bi17  1  0.90606713  0.15322807  0.80055358  1
  Bi  Bi18  1  0.14015123  0.65322807  0.30055358  1
  Bi  Bi19  1  0.09393287  0.84677193  0.19944642  1
  Bi  Bi20  1  0.69107796  0.67465385  0.69747401  1
  Bi  Bi21  1  0.06320582  0.82534615  0.80252599  1
  Bi  Bi22  1  0.30892204  0.32534615  0.30252599  1
  Bi  Bi23  1  0.93679418  0.17465385  0.19747401  1
  Bi  Bi24  1  0.56337748  0.32463737  0.80041917  1
  Bi  Bi25  1  0.68843402  0.17536263  0.69958083  1
  Bi  Bi26  1  0.43662252  0.67536263  0.19958083  1
  Bi  Bi27  1  0.31156598  0.82463737  0.30041917  1
  Bi  Bi28  1  0.76239850  0.49958218  0.80701524  1
  Bi  Bi29  1  0.06899591  0.00041782  0.69298476  1
  Bi  Bi30  1  0.23760150  0.50041782  0.19298476  1
  Bi  Bi31  1  0.93100409  0.99958218  0.30701524  1
  Bi  Bi32  1  0.30534049  0.52150364  0.57055924  1
  Bi  Bi33  1  0.39740337  0.97849636  0.92944076  1
  Bi  Bi34  1  0.69465951  0.47849636  0.42944076  1
  Bi  Bi35  1  0.60259663  0.02150364  0.07055924  1
  Bi  Bi36  1  0.39457870  0.47326217  0.92834901  1
  Bi  Bi37  1  0.79618989  0.02673783  0.57165099  1
  Bi  Bi38  1  0.60542130  0.52673783  0.07165099  1
  Bi  Bi39  1  0.20381011  0.97326217  0.42834901  1
  Bi  Bi40  1  0.40412446  0.65171769  0.79917999  1
  Bi  Bi41  1  0.85502214  0.84828231  0.70082001  1
  Bi  Bi42  1  0.59587554  0.34828231  0.20082001  1
  Bi  Bi43  1  0.14497786  0.15171769  0.29917999  1
  Bi  Bi44  1  0.07700220  0.32191754  0.80166860  1
  Bi  Bi45  1  0.20058834  0.17808246  0.69833140  1
  Bi  Bi46  1  0.92299780  0.67808246  0.19833140  1
  Bi  Bi47  1  0.79941166  0.82191754  0.30166860  1
  Bi  Bi48  1  0.91014941  0.65499994  0.79901646  1
  Bi  Bi49  1  0.36416581  0.84500006  0.70098354  1
  Bi  Bi50  1  0.08985059  0.34500006  0.20098354  1
  Bi  Bi51  1  0.63583419  0.15499994  0.29901646  1
  Bi  Bi52  1  0.24669367  0.49753754  0.80042983  1
  Bi  Bi53  1  0.54466104  0.00246246  0.69957017  1
  Bi  Bi54  1  0.75330633  0.50246246  0.19957017  1
  Bi  Bi55  1  0.45533896  0.99753754  0.30042983  1
  Bi  Bi56  1  0.92530317  0.48508363  0.92748029  1
  Bi  Bi57  1  0.33786708  0.01491637  0.57251971  1
  Bi  Bi58  1  0.07469683  0.51491637  0.07251971  1
  Bi  Bi59  1  0.66213292  0.98508363  0.42748029  1
  Bi  Bi60  1  0.57826017  0.81890798  0.80572517  1
  Bi  Bi61  1  0.20289332  0.68109202  0.69427483  1
  Bi  Bi62  1  0.42173983  0.18109202  0.19427483  1
  Bi  Bi63  1  0.79710668  0.31890798  0.30572517  1
  Bi  Bi64  1  0.17234563  0.47587522  0.42418022  1
  Bi  Bi65  1  0.07240107  0.02412478  0.07581978  1
  Bi  Bi66  1  0.82765437  0.52412478  0.57581978  1
  Bi  Bi67  1  0.92759893  0.97587522  0.92418022  1
  Bi  Bi68  1  0.35891251  0.34686446  0.69459750  1
  Bi  Bi69  1  0.40037448  0.15313554  0.80540250  1
  Bi  Bi70  1  0.64108749  0.65313554  0.30540250  1
  Bi  Bi71  1  0.59962552  0.84686446  0.19459750  1
  Bi  Bi72  1  0.05971403  0.50443340  0.68950889  1
  Bi  Bi73  1  0.25365632  0.99556660  0.81049111  1
  Bi  Bi74  1  0.94028597  0.49556660  0.31049111  1
  Bi  Bi75  1  0.74634368  0.00443340  0.18950889  1
  Bi  Bi76  1  0.56114387  0.49783532  0.69340969  1
  Bi  Bi77  1  0.75238888  0.00216468  0.80659031  1
  Bi  Bi78  1  0.43885613  0.50216468  0.30659031  1
  Bi  Bi79  1  0.24761112  0.99783532  0.19340969  1
  P  P80  1  0.49707679  0.14610713  0.59212603  1
  P  P81  1  0.23530995  0.35389287  0.90787397  1
  P  P82  1  0.50292321  0.85389287  0.40787397  1
  P  P83  1  0.76469005  0.64610713  0.09212603  1
  P  P84  1  0.59506402  0.11003756  0.92176962  1
  P  P85  1  0.62687119  0.38996244  0.57823038  1
  P  P86  1  0.40493598  0.88996244  0.07823038  1
  P  P87  1  0.37312881  0.61003756  0.42176962  1
  P  P88  1  0.36637614  0.13605084  0.41557149  1
  P  P89  1  0.91799847  0.36394916  0.08442851  1
  P  P90  1  0.63362386  0.86394916  0.58442851  1
  P  P91  1  0.08200153  0.63605084  0.91557149  1
  P  P92  1  0.11733977  0.38220612  0.58122280  1
  P  P93  1  0.08076869  0.11779388  0.91877720  1
  P  P94  1  0.88266023  0.61779388  0.41877720  1
  P  P95  1  0.91923131  0.88220612  0.08122280  1
  P  P96  1  0.73912194  0.34566011  0.90805615  1
  P  P97  1  0.99283819  0.15433989  0.59194385  1
  P  P98  1  0.26087806  0.65433989  0.09194385  1
  P  P99  1  0.00716181  0.84566011  0.40805615  1
  P  P100  1  0.75392854  0.15891801  0.09178289  1
  P  P101  1  0.00462945  0.34108199  0.40821711  1
  P  P102  1  0.24607146  0.84108199  0.90821711  1
  P  P103  1  0.99537055  0.65891801  0.59178289  1
  P  P104  1  0.86292567  0.12029092  0.41872926  1
  P  P105  1  0.40194586  0.37970908  0.08127074  1
  P  P106  1  0.13707433  0.87970908  0.58127074  1
  P  P107  1  0.59805414  0.62029092  0.91872926  1
  P  P108  1  0.51432801  0.34016840  0.40564451  1
  P  P109  1  0.26014092  0.15983160  0.09435549  1
  P  P110  1  0.48567199  0.65983160  0.59435549  1
  P  P111  1  0.73985908  0.84016840  0.90564451  1
  O  O112  1  0.25989965  0.25000000  0.75000000  1
  O  O113  1  0.74010035  0.75000000  0.25000000  1
  O  O114  1  0.75526403  0.25000000  0.75000000  1
  O  O115  1  0.24473597  0.75000000  0.25000000  1
  O  O116  1  0.01449981  0.25000000  0.75000000  1
  O  O117  1  0.98550019  0.75000000  0.25000000  1
  O  O118  1  0.51052313  0.25000000  0.75000000  1
  O  O119  1  0.48947687  0.75000000  0.25000000  1
  O  O120  1  0.42284375  0.41320164  0.74849701  1
  O  O121  1  0.58454240  0.08679836  0.75150299  1
  O  O122  1  0.57715625  0.58679836  0.25150299  1
  O  O123  1  0.41545760  0.91320164  0.24849701  1
  O  O124  1  0.50849253  0.74585035  0.75461216  1
  O  O125  1  0.00895504  0.75414965  0.74538784  1
  O  O126  1  0.49150747  0.25414965  0.24538784  1
  O  O127  1  0.99104496  0.24585035  0.25461216  1
  O  O128  1  0.17069259  0.40880716  0.74727469  1
  O  O129  1  0.32677444  0.09119284  0.75272531  1
  O  O130  1  0.82930741  0.59119284  0.25272531  1
  O  O131  1  0.67322556  0.90880716  0.24727469  1
  O  O132  1  0.75980517  0.75073975  0.74597997  1
  O  O133  1  0.25652489  0.74926025  0.75402003  1
  O  O134  1  0.24019483  0.24926025  0.25402003  1
  O  O135  1  0.74347511  0.25073975  0.24597997  1
  O  O136  1  0.08697734  0.59135888  0.73938652  1
  O  O137  1  0.41772274  0.90864112  0.76061348  1
  O  O138  1  0.91302266  0.40864112  0.26061348  1
  O  O139  1  0.58227726  0.09135888  0.23938652  1
  O  O140  1  0.66859549  0.40980375  0.75246834  1
  O  O141  1  0.83086758  0.09019625  0.74753166  1
  O  O142  1  0.33140451  0.59019625  0.24753166  1
  O  O143  1  0.16913242  0.90980375  0.25246834  1
  O  O144  1  0.83211900  0.59063507  0.74733054  1
  O  O145  1  0.17008462  0.90936493  0.75266946  1
  O  O146  1  0.16788100  0.40936493  0.25266946  1
  O  O147  1  0.82991538  0.09063507  0.24733054  1
  O  O148  1  0.22146543  0.51565286  0.33944173  1
  O  O149  1  0.07656002  0.98434714  0.16055827  1
  O  O150  1  0.77853457  0.48434714  0.66055827  1
  O  O151  1  0.92343998  0.01565286  0.83944173  1
  O  O152  1  0.93110373  0.51811686  0.84099172  1
  O  O153  1  0.29021231  0.98188314  0.65900828  1
  O  O154  1  0.06889627  0.48188314  0.15900828  1
  O  O155  1  0.70978769  0.01811686  0.34099172  1
  O  O156  1  0.58707177  0.58471472  0.74533184  1
  O  O157  1  0.91711833  0.91528528  0.75466816  1
  O  O158  1  0.41292823  0.41528528  0.25466816  1
  O  O159  1  0.08288167  0.08471472  0.24533184  1
  O  O160  1  0.91981799  0.41090452  0.75644012  1
  O  O161  1  0.08716263  0.08909548  0.74355988  1
  O  O162  1  0.08018201  0.58909548  0.24355988  1
  O  O163  1  0.91283737  0.91090452  0.25644012  1
  O  O164  1  0.33443154  0.58935004  0.74451013  1
  O  O165  1  0.66829170  0.91064996  0.75548987  1
  O  O166  1  0.66556846  0.41064996  0.25548987  1
  O  O167  1  0.33170830  0.08935004  0.24451013  1
  O  O168  1  0.27805899  0.47759327  0.65546863  1
  O  O169  1  0.41112089  0.02240673  0.84453137  1
  O  O170  1  0.72194101  0.52240673  0.34453137  1
  O  O171  1  0.58887911  0.97759327  0.15546863  1
  O  O172  1  0.84623116  0.38911982  0.89005169  1
  O  O173  1  0.12540267  0.11088018  0.60994831  1
  O  O174  1  0.15376884  0.61088018  0.10994831  1
  O  O175  1  0.87459733  0.88911982  0.39005169  1
  O  O176  1  0.64394852  0.11677301  0.11717567  1
  O  O177  1  0.87789720  0.38322699  0.38282433  1
  O  O178  1  0.35605148  0.88322699  0.88282433  1
  O  O179  1  0.12210280  0.61677301  0.61717567  1
  O  O180  1  0.40742369  0.49915303  0.84226633  1
  O  O181  1  0.74884305  0.00084697  0.65773367  1
  O  O182  1  0.59257631  0.50084697  0.15773367  1
  O  O183  1  0.25115695  0.99915303  0.34226633  1
  O  O184  1  0.31248842  0.22135228  0.43317886  1
  O  O185  1  0.96701957  0.27864772  0.06682114  1
  O  O186  1  0.68751158  0.77864772  0.56682114  1
  O  O187  1  0.03298043  0.72135228  0.93317886  1
  O  O188  1  0.37108010  0.38366638  0.39933055  1
  O  O189  1  0.15407703  0.11633362  0.10066945  1
  O  O190  1  0.62891990  0.61633362  0.60066945  1
  O  O191  1  0.84592297  0.88366638  0.89933055  1
  O  O192  1  0.25543591  0.09392707  0.44237806  1
  O  O193  1  0.79174104  0.40607293  0.05762194  1
  O  O194  1  0.74456409  0.90607293  0.55762194  1
  O  O195  1  0.20825896  0.59392707  0.94237806  1
  O  O196  1  0.97097903  0.38478774  0.57997492  1
  O  O197  1  0.93574169  0.11521226  0.92002508  1
  O  O198  1  0.02902097  0.61521226  0.42002508  1
  O  O199  1  0.06425831  0.88478774  0.07997492  1
  O  O200  1  0.49145899  0.09334369  0.44010725  1
  O  O201  1  0.02490993  0.40665631  0.05989275  1
  O  O202  1  0.50854101  0.90665631  0.55989275  1
  O  O203  1  0.97509007  0.59334369  0.94010725  1
  O  O204  1  0.39351479  0.13600332  0.35096919  1
  O  O205  1  0.88048730  0.36399668  0.14903081  1
  O  O206  1  0.60648521  0.86399668  0.64903081  1
  O  O207  1  0.11951270  0.63600332  0.85096919  1
  O  O208  1  0.51130532  0.29282834  0.46528832  1
  O  O209  1  0.26942197  0.20717166  0.03471168  1
  O  O210  1  0.48869468  0.70717166  0.53471168  1
  O  O211  1  0.73057803  0.79282834  0.96528832  1
  O  O212  1  0.70130115  0.24555570  0.10844041  1
  O  O213  1  0.05529727  0.25444430  0.39155959  1
  O  O214  1  0.29869885  0.75444430  0.89155959  1
  O  O215  1  0.94470273  0.74555570  0.60844041  1
  O  O216  1  0.00912154  0.08487542  0.42998470  1
  O  O217  1  0.52398166  0.41512458  0.07001530  1
  O  O218  1  0.99087846  0.91512458  0.57001530  1
  O  O219  1  0.47601834  0.58487542  0.92998470  1
  O  O220  1  0.58186917  0.18145098  0.95657314  1
  O  O221  1  0.71989330  0.31854902  0.54342686  1
  O  O222  1  0.41813083  0.81854902  0.04342686  1
  O  O223  1  0.28010670  0.68145098  0.45657314  1
  O  O224  1  0.59428116  0.40010904  0.40067662  1
  O  O225  1  0.39506682  0.09989096  0.09932338  1
  O  O226  1  0.40571884  0.59989096  0.59932338  1
  O  O227  1  0.60493318  0.90010904  0.90067662  1
  O  O228  1  0.87212932  0.11395882  0.12123856  1
  O  O229  1  0.10732670  0.38604118  0.37876144  1
  O  O230  1  0.12787068  0.88604118  0.87876144  1
  O  O231  1  0.89267330  0.61395882  0.62123856  1
  O  O232  1  0.57686685  0.28665627  0.35743374  1
  O  O233  1  0.22095686  0.21334373  0.14256626  1
  O  O234  1  0.42313315  0.71334373  0.64256626  1
  O  O235  1  0.77904314  0.78665627  0.85743374  1
  O  O236  1  0.38261655  0.18469496  0.56152309  1
  O  O237  1  0.12883461  0.31530504  0.93847691  1
  O  O238  1  0.61738345  0.81530504  0.43847691  1
  O  O239  1  0.87116539  0.68469496  0.06152309  1
  O  O240  1  0.73387902  0.30841811  0.97025895  1
  O  O241  1  0.01255607  0.19158189  0.52974105  1
  O  O242  1  0.26612098  0.69158189  0.02974105  1
  O  O243  1  0.98744393  0.80841811  0.47025895  1
  O  O244  1  0.78783038  0.05853315  0.44571974  1
  O  O245  1  0.29208327  0.44146685  0.05428026  1
  O  O246  1  0.21216962  0.94146685  0.55428026  1
  O  O247  1  0.70791673  0.55853315  0.94571974  1
  O  O248  1  0.63053907  0.13423344  0.85838288  1
  O  O249  1  0.62315540  0.36576656  0.64161712  1
  O  O250  1  0.36946093  0.86576656  0.14161712  1
  O  O251  1  0.37684460  0.63423344  0.35838288  1
  O  O252  1  0.52830284  0.05348879  0.59217209  1
  O  O253  1  0.17396372  0.44651121  0.90782791  1
  O  O254  1  0.47169716  0.94651121  0.40782791  1
  O  O255  1  0.82603628  0.55348879  0.09217209  1
  O  O256  1  0.11259134  0.47199688  0.57653556  1
  O  O257  1  0.16112379  0.02800312  0.92346444  1
  O  O258  1  0.88740866  0.52800312  0.42346444  1
  O  O259  1  0.83887621  0.97199688  0.07653556  1
  O  O260  1  0.62833037  0.16497174  0.56268384  1
  O  O261  1  0.35598595  0.33502826  0.93731616  1
  O  O262  1  0.37166963  0.83502826  0.43731616  1
  O  O263  1  0.64401405  0.66497174  0.06268384  1
  O  O264  1  0.46288902  0.16782257  0.65301489  1
  O  O265  1  0.28372648  0.33217743  0.84698511  1
  O  O266  1  0.53711098  0.83217743  0.34698511  1
  O  O267  1  0.71627352  0.66782257  0.15301489  1
  O  O268  1  0.14912768  0.34091147  0.63825511  1
  O  O269  1  0.12829426  0.15908853  0.86174489  1
  O  O270  1  0.85087232  0.65908853  0.36174489  1
  O  O271  1  0.87170574  0.84091147  0.13825511  1
  O  O272  1  0.86820988  0.13601564  0.35482540  1
  O  O273  1  0.35905092  0.36398436  0.14517460  1
  O  O274  1  0.13179012  0.86398436  0.64517460  1
  O  O275  1  0.64094908  0.63601564  0.85482540  1
  O  O276  1  0.20812479  0.34679985  0.52878146  1
  O  O277  1  0.08370610  0.15320015  0.97121854  1
  O  O278  1  0.79187521  0.65320015  0.47121854  1
  O  O279  1  0.91629390  0.84679985  0.02878146  1
  O  O280  1  0.46380738  0.08956865  0.93677839  1
  O  O281  1  0.49015441  0.41043135  0.56322161  1
  O  O282  1  0.53619262  0.91043135  0.06322161  1
  O  O283  1  0.50984559  0.58956865  0.43677839  1
  O  O284  1  0.70576172  0.04052067  0.94221378  1
  O  O285  1  0.68849617  0.45947933  0.55778622  1
  O  O286  1  0.29423828  0.95947933  0.05778622  1
  O  O287  1  0.31150383  0.54052067  0.44221378  1
  O  O288  1  0.60769424  0.40577244  0.89909426  1
  O  O289  1  0.91256094  0.09422756  0.60090574  1
  O  O290  1  0.39230576  0.59422756  0.10090574  1
  O  O291  1  0.08743906  0.90577244  0.39909426  1
  O  O292  1  0.81009822  0.19773073  0.44772140  1
  O  O293  1  0.45555035  0.30226927  0.05227860  1
  O  O294  1  0.18990178  0.80226927  0.55227860  1
  O  O295  1  0.54444965  0.69773073  0.94772140  1
  O  O296  1  0.79348927  0.15200193  0.02947430  1
  O  O297  1  0.97496550  0.34799807  0.47052570  1
  O  O298  1  0.20651073  0.84799807  0.97052570  1
  O  O299  1  0.02503450  0.65200193  0.52947430  1
  O  O300  1  0.76929304  0.27307525  0.87457470  1
  O  O301  1  0.91694299  0.22692475  0.62542530  1
  O  O302  1  0.23070696  0.72692475  0.12542530  1
  O  O303  1  0.08305701  0.77307525  0.37457470  1
