# generated using pymatgen
data_H2Os3C8(SO4)2
_symmetry_space_group_name_H-M   'P 1'
_cell_length_a   8.84712847
_cell_length_b   8.84712847
_cell_length_c   11.68754164
_cell_angle_alpha   72.87119853
_cell_angle_beta   72.87119853
_cell_angle_gamma   92.06784225
_symmetry_Int_Tables_number   1
_chemical_formula_structural   H2Os3C8(SO4)2
_chemical_formula_sum   'H4 Os6 C16 S4 O16'
_cell_volume   827.86094958
_cell_formula_units_Z   2
loop_
 _symmetry_equiv_pos_site_id
 _symmetry_equiv_pos_as_xyz
  1  'x, y, z'
loop_
 _atom_site_type_symbol
 _atom_site_label
 _atom_site_symmetry_multiplicity
 _atom_site_fract_x
 _atom_site_fract_y
 _atom_site_fract_z
 _atom_site_occupancy
  H  H0  1  0.05502400  0.70457600  0.20585900  1
  H  H1  1  0.29542400  0.94497600  0.29414100  1
  H  H2  1  0.94497600  0.29542400  0.79414100  1
  H  H3  1  0.70457600  0.05502400  0.70585900  1
  Os  Os4  1  0.16674700  0.83325300  0.25000000  1
  Os  Os5  1  0.83325300  0.16674700  0.75000000  1
  Os  Os6  1  0.20743400  0.54128300  0.19856700  1
  Os  Os7  1  0.45871700  0.79256600  0.30143300  1
  Os  Os8  1  0.79256600  0.45871700  0.80143300  1
  Os  Os9  1  0.54128300  0.20743400  0.69856700  1
  C  C10  1  0.98182400  0.85380900  0.37252400  1
  C  C11  1  0.14619100  0.01817600  0.12747600  1
  C  C12  1  0.01817600  0.14619100  0.62747600  1
  C  C13  1  0.85380900  0.98182400  0.87252400  1
  C  C14  1  0.02727500  0.37635100  0.28571100  1
  C  C15  1  0.62364900  0.97272500  0.21428900  1
  C  C16  1  0.97272500  0.62364900  0.71428900  1
  C  C17  1  0.37635100  0.02727500  0.78571100  1
  C  C18  1  0.34988700  0.38834700  0.19242600  1
  C  C19  1  0.61165300  0.65011300  0.30757400  1
  C  C20  1  0.65011300  0.61165300  0.80757400  1
  C  C21  1  0.38834700  0.34988700  0.69242600  1
  C  C22  1  0.18891200  0.55160200  0.03671800  1
  C  C23  1  0.44839800  0.81108800  0.46328200  1
  C  C24  1  0.81108800  0.44839800  0.96328200  1
  C  C25  1  0.55160200  0.18891200  0.53671800  1
  S  S26  1  0.22351100  0.59036000  0.38976000  1
  S  S27  1  0.40964000  0.77648900  0.11024000  1
  S  S28  1  0.77648900  0.40964000  0.61024000  1
  S  S29  1  0.59036000  0.22351100  0.88976000  1
  O  O30  1  0.86533300  0.86613500  0.44699900  1
  O  O31  1  0.13386500  0.13466700  0.05300100  1
  O  O32  1  0.13466700  0.13386500  0.55300100  1
  O  O33  1  0.86613500  0.86533300  0.94699900  1
  O  O34  1  0.92457300  0.27120000  0.33662200  1
  O  O35  1  0.72880000  0.07542700  0.16337800  1
  O  O36  1  0.07542700  0.72880000  0.66337800  1
  O  O37  1  0.27120000  0.92457300  0.83662200  1
  O  O38  1  0.44037700  0.29660100  0.18837400  1
  O  O39  1  0.70339900  0.55962300  0.31162600  1
  O  O40  1  0.55962300  0.70339900  0.81162600  1
  O  O41  1  0.29660100  0.44037700  0.68837400  1
  O  O42  1  0.18115500  0.55644500  0.93844000  1
  O  O43  1  0.44355500  0.81884500  0.56156000  1
  O  O44  1  0.81884500  0.44355500  0.06156000  1
  O  O45  1  0.55644500  0.18115500  0.43844000  1
