# generated using pymatgen
data_HoMnGa
_symmetry_space_group_name_H-M   'P 1'
_cell_length_a   7.42607646
_cell_length_b   7.42607646
_cell_length_c   3.67343300
_cell_angle_alpha   90.00000000
_cell_angle_beta   90.00000000
_cell_angle_gamma   120.00000412
_symmetry_Int_Tables_number   1
_chemical_formula_structural   HoMnGa
_chemical_formula_sum   'Ho3 Mn3 Ga3'
_cell_volume   175.43715260
_cell_formula_units_Z   3
loop_
 _symmetry_equiv_pos_site_id
 _symmetry_equiv_pos_as_xyz
  1  'x, y, z'
loop_
 _atom_site_type_symbol
 _atom_site_label
 _atom_site_symmetry_multiplicity
 _atom_site_fract_x
 _atom_site_fract_y
 _atom_site_fract_z
 _atom_site_occupancy
  Ho  Ho0  1  0.00000000  0.60154400  0.50000000  1
  Ho  Ho1  1  0.60154400  0.00000000  0.50000000  1
  Ho  Ho2  1  0.39845600  0.39845600  0.50000000  1
  Mn  Mn3  1  0.66666700  0.33333300  0.00000000  1
  Mn  Mn4  1  0.33333300  0.66666700  0.00000000  1
  Mn  Mn5  1  0.00000000  0.00000000  0.50000000  1
  Ga  Ga6  1  0.72636800  0.72636800  0.00000000  1
  Ga  Ga7  1  0.27363200  0.00000000  0.00000000  1
  Ga  Ga8  1  0.00000000  0.27363200  0.00000000  1
