# generated using pymatgen
data_LaH2SNO7
_symmetry_space_group_name_H-M   'P 1'
_cell_length_a   7.55783700
_cell_length_b   7.55783700
_cell_length_c   12.44431000
_cell_angle_alpha   90.00000000
_cell_angle_beta   90.00000000
_cell_angle_gamma   90.00000000
_symmetry_Int_Tables_number   1
_chemical_formula_structural   LaH2SNO7
_chemical_formula_sum   'La4 H8 S4 N4 O28'
_cell_volume   710.83018855
_cell_formula_units_Z   4
loop_
 _symmetry_equiv_pos_site_id
 _symmetry_equiv_pos_as_xyz
  1  'x, y, z'
loop_
 _atom_site_type_symbol
 _atom_site_label
 _atom_site_symmetry_multiplicity
 _atom_site_fract_x
 _atom_site_fract_y
 _atom_site_fract_z
 _atom_site_occupancy
  La  La0  1  0.78957200  0.36355100  0.53934200  1
  La  La1  1  0.21042800  0.63644900  0.03934200  1
  La  La2  1  0.36355100  0.21042800  0.28934200  1
  La  La3  1  0.63644900  0.78957200  0.78934200  1
  H  H4  1  0.59724700  0.07584600  0.92685800  1
  H  H5  1  0.40275300  0.92415400  0.42685800  1
  H  H6  1  0.07584600  0.40275300  0.67685800  1
  H  H7  1  0.92415400  0.59724700  0.17685800  1
  H  H8  1  0.53191600  0.57247200  0.96274000  1
  H  H9  1  0.46808400  0.42752800  0.46274000  1
  H  H10  1  0.57247200  0.46808400  0.71274000  1
  H  H11  1  0.42752800  0.53191600  0.21274000  1
  S  S12  1  0.23654000  0.58318400  0.75170300  1
  S  S13  1  0.76346000  0.41681600  0.25170300  1
  S  S14  1  0.58318400  0.76346000  0.50170300  1
  S  S15  1  0.41681600  0.23654000  0.00170300  1
  N  N16  1  0.91070100  0.08389000  0.74520900  1
  N  N17  1  0.08929900  0.91611000  0.24520900  1
  N  N18  1  0.08389000  0.08929900  0.49520900  1
  N  N19  1  0.91611000  0.91070100  0.99520900  1
  O  O20  1  0.09996600  0.52982000  0.65799300  1
  O  O21  1  0.90003400  0.47018000  0.15799300  1
  O  O22  1  0.52982000  0.90003400  0.40799300  1
  O  O23  1  0.47018000  0.09996600  0.90799300  1
  O  O24  1  0.36252300  0.43798600  0.75703800  1
  O  O25  1  0.63747700  0.56201400  0.25703800  1
  O  O26  1  0.43798600  0.63747700  0.50703800  1
  O  O27  1  0.56201400  0.36252300  0.00703800  1
  O  O28  1  0.31487800  0.75316900  0.72096300  1
  O  O29  1  0.68512200  0.24683100  0.22096300  1
  O  O30  1  0.75316900  0.68512200  0.47096300  1
  O  O31  1  0.24683100  0.31487800  0.97096300  1
  O  O32  1  0.12393800  0.60088300  0.84801100  1
  O  O33  1  0.87606200  0.39911700  0.34801100  1
  O  O34  1  0.60088300  0.87606200  0.59801100  1
  O  O35  1  0.39911700  0.12393800  0.09801100  1
  O  O36  1  0.74670600  0.10386000  0.72049300  1
  O  O37  1  0.25329400  0.89614000  0.22049300  1
  O  O38  1  0.10386000  0.25329400  0.47049300  1
  O  O39  1  0.89614000  0.74670600  0.97049300  1
  O  O40  1  0.01232200  0.19703400  0.70444300  1
  O  O41  1  0.98767800  0.80296600  0.20444300  1
  O  O42  1  0.19703400  0.98767800  0.45444300  1
  O  O43  1  0.80296600  0.01232200  0.95444300  1
  O  O44  1  0.52493300  0.31170800  0.44451700  1
  O  O45  1  0.47506700  0.68829200  0.94451700  1
  O  O46  1  0.31170800  0.47506700  0.19451700  1
  O  O47  1  0.68829200  0.52493300  0.69451700  1
