# generated using pymatgen
data_CIN2O7
_symmetry_space_group_name_H-M   'P 1'
_cell_length_a   6.98685200
_cell_length_b   5.04406300
_cell_length_c   21.16897455
_cell_angle_alpha   87.51497540
_cell_angle_beta   90.00000000
_cell_angle_gamma   90.00000000
_symmetry_Int_Tables_number   1
_chemical_formula_structural   CIN2O7
_chemical_formula_sum   'C4 I4 N8 O28'
_cell_volume   745.33799220
_cell_formula_units_Z   4
loop_
 _symmetry_equiv_pos_site_id
 _symmetry_equiv_pos_as_xyz
  1  'x, y, z'
loop_
 _atom_site_type_symbol
 _atom_site_label
 _atom_site_symmetry_multiplicity
 _atom_site_fract_x
 _atom_site_fract_y
 _atom_site_fract_z
 _atom_site_occupancy
  C  C0  1  0.32724400  0.16922200  0.79323800  1
  C  C1  1  0.82724400  0.83077800  0.70676200  1
  C  C2  1  0.67275600  0.83077800  0.20676200  1
  C  C3  1  0.17275600  0.16922200  0.29323800  1
  I  I4  1  0.25624600  0.37219900  0.57538800  1
  I  I5  1  0.75624600  0.62780100  0.92461200  1
  I  I6  1  0.74375400  0.62780100  0.42461200  1
  I  I7  1  0.24375400  0.37219900  0.07538800  1
  N  N8  1  0.26315800  0.23208600  0.85372500  1
  N  N9  1  0.76315800  0.76791400  0.64627500  1
  N  N10  1  0.73684200  0.76791400  0.14627500  1
  N  N11  1  0.23684200  0.23208600  0.35372500  1
  N  N12  1  0.20505600  0.38134900  0.80629700  1
  N  N13  1  0.70505600  0.61865100  0.69370300  1
  N  N14  1  0.79494400  0.61865100  0.19370300  1
  N  N15  1  0.29494400  0.38134900  0.30629700  1
  O  O16  1  0.23861900  0.09434500  0.64011400  1
  O  O17  1  0.73861900  0.90565500  0.85988600  1
  O  O18  1  0.76138100  0.90565500  0.35988600  1
  O  O19  1  0.26138100  0.09434500  0.14011400  1
  O  O20  1  0.27936800  0.15186800  0.50727200  1
  O  O21  1  0.77936800  0.84813200  0.99272800  1
  O  O22  1  0.72063200  0.84813200  0.49272800  1
  O  O23  1  0.22063200  0.15186800  0.00727200  1
  O  O24  1  0.24688800  0.64888900  0.51231700  1
  O  O25  1  0.74688800  0.35111100  0.98768300  1
  O  O26  1  0.75311200  0.35111100  0.48768300  1
  O  O27  1  0.25311200  0.64888900  0.01231700  1
  O  O28  1  0.24425700  0.58060000  0.64867700  1
  O  O29  1  0.74425700  0.41940000  0.85132300  1
  O  O30  1  0.75574300  0.41940000  0.35132300  1
  O  O31  1  0.25574300  0.58060000  0.14867700  1
  O  O32  1  0.52244300  0.40868500  0.58971000  1
  O  O33  1  0.02244300  0.59131500  0.91029000  1
  O  O34  1  0.47755700  0.59131500  0.41029000  1
  O  O35  1  0.97755700  0.40868500  0.08971000  1
  O  O36  1  0.98649500  0.33121800  0.58486400  1
  O  O37  1  0.48649500  0.66878200  0.91513600  1
  O  O38  1  0.01350500  0.66878200  0.41513600  1
  O  O39  1  0.51350500  0.33121800  0.08486400  1
  O  O40  1  0.41422600  0.03805800  0.75794300  1
  O  O41  1  0.91422600  0.96194200  0.74205700  1
  O  O42  1  0.58577400  0.96194200  0.24205700  1
  O  O43  1  0.08577400  0.03805800  0.25794300  1
