# generated using pymatgen
data_CaP2H8(CO3)2
_symmetry_space_group_name_H-M   'P 1'
_cell_length_a   10.70576964
_cell_length_b   10.70576964
_cell_length_c   7.34334641
_cell_angle_alpha   72.25593599
_cell_angle_beta   72.25593599
_cell_angle_gamma   30.74966924
_symmetry_Int_Tables_number   1
_chemical_formula_structural   CaP2H8(CO3)2
_chemical_formula_sum   'Ca2 P4 H16 C4 O12'
_cell_volume   408.26269642
_cell_formula_units_Z   2
loop_
 _symmetry_equiv_pos_site_id
 _symmetry_equiv_pos_as_xyz
  1  'x, y, z'
loop_
 _atom_site_type_symbol
 _atom_site_label
 _atom_site_symmetry_multiplicity
 _atom_site_fract_x
 _atom_site_fract_y
 _atom_site_fract_z
 _atom_site_occupancy
  Ca  Ca0  1  0.13186200  0.86813800  0.25000000  1
  Ca  Ca1  1  0.86813800  0.13186200  0.75000000  1
  P  P2  1  0.77686100  0.42573200  0.05283600  1
  P  P3  1  0.57426800  0.22313900  0.44716400  1
  P  P4  1  0.22313900  0.57426800  0.94716400  1
  P  P5  1  0.42573200  0.77686100  0.55283600  1
  H  H6  1  0.80448400  0.39408000  0.36489300  1
  H  H7  1  0.60592000  0.19551600  0.13510700  1
  H  H8  1  0.19551600  0.60592000  0.63510700  1
  H  H9  1  0.39408000  0.80448400  0.86489300  1
  H  H10  1  0.10183000  0.29227900  0.86900500  1
  H  H11  1  0.70772100  0.89817000  0.63099500  1
  H  H12  1  0.89817000  0.70772100  0.13099500  1
  H  H13  1  0.29227900  0.10183000  0.36900500  1
  H  H14  1  0.85564300  0.49752000  0.72802200  1
  H  H15  1  0.50248000  0.14435700  0.77197800  1
  H  H16  1  0.14435700  0.50248000  0.27197800  1
  H  H17  1  0.49752000  0.85564300  0.22802200  1
  H  H18  1  0.82907900  0.61370400  0.89381900  1
  H  H19  1  0.38629600  0.17092100  0.60618100  1
  H  H20  1  0.17092100  0.38629600  0.10618100  1
  H  H21  1  0.61370400  0.82907900  0.39381900  1
  C  C22  1  0.90177300  0.46209700  0.86842800  1
  C  C23  1  0.53790300  0.09822700  0.63157200  1
  C  C24  1  0.09822700  0.53790300  0.13157200  1
  C  C25  1  0.46209700  0.90177300  0.36842800  1
  O  O26  1  0.90292100  0.32739000  0.23614800  1
  O  O27  1  0.67261000  0.09707900  0.26385200  1
  O  O28  1  0.09707900  0.67261000  0.76385200  1
  O  O29  1  0.32739000  0.90292100  0.73614800  1
  O  O30  1  0.87125800  0.22039800  0.01203300  1
  O  O31  1  0.77960200  0.12874200  0.48796700  1
  O  O32  1  0.12874200  0.77960200  0.98796700  1
  O  O33  1  0.22039800  0.87125800  0.51203300  1
  O  O34  1  0.49640400  0.67315900  0.07744100  1
  O  O35  1  0.32684100  0.50359600  0.42255900  1
  O  O36  1  0.50359600  0.32684100  0.92255900  1
  O  O37  1  0.67315900  0.49640400  0.57744100  1
