# generated using pymatgen
data_Al2(SeO4)3
_symmetry_space_group_name_H-M   'P 1'
_cell_length_a   8.50622205
_cell_length_b   8.50622205
_cell_length_c   8.50622233
_cell_angle_alpha   65.94752531
_cell_angle_beta   65.94752531
_cell_angle_gamma   65.94752109
_symmetry_Int_Tables_number   1
_chemical_formula_structural   Al2(SeO4)3
_chemical_formula_sum   'Al4 Se6 O24'
_cell_volume   491.24789400
_cell_formula_units_Z   2
loop_
 _symmetry_equiv_pos_site_id
 _symmetry_equiv_pos_as_xyz
  1  'x, y, z'
loop_
 _atom_site_type_symbol
 _atom_site_label
 _atom_site_symmetry_multiplicity
 _atom_site_fract_x
 _atom_site_fract_y
 _atom_site_fract_z
 _atom_site_occupancy
  Al  Al0  1  0.29504000  0.29504000  0.29504000  1
  Al  Al1  1  0.79504000  0.79504000  0.79504000  1
  Al  Al2  1  0.06377000  0.06377000  0.06377000  1
  Al  Al3  1  0.56377000  0.56377000  0.56377000  1
  Se  Se4  1  0.57403900  0.49314500  0.96398300  1
  Se  Se5  1  0.46398300  0.99314500  0.07403900  1
  Se  Se6  1  0.96398300  0.57403900  0.49314500  1
  Se  Se7  1  0.07403900  0.46398300  0.99314500  1
  Se  Se8  1  0.49314500  0.96398300  0.57403900  1
  Se  Se9  1  0.99314500  0.07403900  0.46398300  1
  O  O10  1  0.66121700  0.98253300  0.90687200  1
  O  O11  1  0.40687200  0.48253300  0.16121700  1
  O  O12  1  0.90687200  0.66121700  0.98253300  1
  O  O13  1  0.16121700  0.40687200  0.48253300  1
  O  O14  1  0.98253300  0.90687200  0.66121700  1
  O  O15  1  0.48253300  0.16121700  0.40687200  1
  O  O16  1  0.30437800  0.06343800  0.95746000  1
  O  O17  1  0.45746000  0.56343800  0.80437800  1
  O  O18  1  0.95746000  0.30437800  0.06343800  1
  O  O19  1  0.80437800  0.45746000  0.56343800  1
  O  O20  1  0.06343800  0.95746000  0.30437800  1
  O  O21  1  0.56343800  0.80437800  0.45746000  1
  O  O22  1  0.09637400  0.43069500  0.19715000  1
  O  O23  1  0.69715000  0.93069500  0.59637400  1
  O  O24  1  0.19715000  0.09637400  0.43069500  1
  O  O25  1  0.59637400  0.69715000  0.93069500  1
  O  O26  1  0.43069500  0.19715000  0.09637400  1
  O  O27  1  0.93069500  0.59637400  0.69715000  1
  O  O28  1  0.03448700  0.13187800  0.83474200  1
  O  O29  1  0.33474200  0.63187800  0.53448700  1
  O  O30  1  0.83474200  0.03448700  0.13187800  1
  O  O31  1  0.53448700  0.33474200  0.63187800  1
  O  O32  1  0.13187800  0.83474200  0.03448700  1
  O  O33  1  0.63187800  0.53448700  0.33474200  1
