# generated using pymatgen
data_Rb2In3F11
_symmetry_space_group_name_H-M   'P 1'
_cell_length_a   8.41503700
_cell_length_b   6.80808400
_cell_length_c   19.47577406
_cell_angle_alpha   89.35239165
_cell_angle_beta   90.00000000
_cell_angle_gamma   90.00000000
_symmetry_Int_Tables_number   1
_chemical_formula_structural   Rb2In3F11
_chemical_formula_sum   'Rb8 In12 F44'
_cell_volume   1115.70125240
_cell_formula_units_Z   4
loop_
 _symmetry_equiv_pos_site_id
 _symmetry_equiv_pos_as_xyz
  1  'x, y, z'
loop_
 _atom_site_type_symbol
 _atom_site_label
 _atom_site_symmetry_multiplicity
 _atom_site_fract_x
 _atom_site_fract_y
 _atom_site_fract_z
 _atom_site_occupancy
  Rb  Rb0  1  0.25000000  0.26164700  0.85269300  1
  Rb  Rb1  1  0.75000000  0.73835300  0.14730700  1
  Rb  Rb2  1  0.75000000  0.24902800  0.84754500  1
  Rb  Rb3  1  0.25000000  0.75097200  0.15245500  1
  Rb  Rb4  1  0.25000000  0.25064000  0.65405200  1
  Rb  Rb5  1  0.75000000  0.74936000  0.34594800  1
  Rb  Rb6  1  0.75000000  0.23668200  0.64950300  1
  Rb  Rb7  1  0.25000000  0.76331800  0.35049700  1
  In  In8  1  0.49818700  0.75054200  0.96853200  1
  In  In9  1  0.99818700  0.24945800  0.03146800  1
  In  In10  1  0.50181300  0.24945800  0.03146800  1
  In  In11  1  0.00181300  0.75054200  0.96853200  1
  In  In12  1  0.50019300  0.74353200  0.75066000  1
  In  In13  1  0.00019300  0.25646800  0.24934000  1
  In  In14  1  0.49980700  0.25646800  0.24934000  1
  In  In15  1  0.99980700  0.74353200  0.75066000  1
  In  In16  1  0.50070900  0.74889900  0.53148000  1
  In  In17  1  0.00070900  0.25110100  0.46852000  1
  In  In18  1  0.49929100  0.25110100  0.46852000  1
  In  In19  1  0.99929100  0.74889900  0.53148000  1
  F  F20  1  0.25000000  0.74624800  0.97811900  1
  F  F21  1  0.75000000  0.25375200  0.02188100  1
  F  F22  1  0.75000000  0.75414800  0.97135400  1
  F  F23  1  0.25000000  0.24585200  0.02864600  1
  F  F24  1  0.25000000  0.80212600  0.73991300  1
  F  F25  1  0.75000000  0.19787400  0.26008700  1
  F  F26  1  0.75000000  0.67633500  0.76394600  1
  F  F27  1  0.25000000  0.32366500  0.23605400  1
  F  F28  1  0.25000000  0.74754000  0.51956400  1
  F  F29  1  0.75000000  0.25246000  0.48043600  1
  F  F30  1  0.75000000  0.74873800  0.52850000  1
  F  F31  1  0.25000000  0.25126200  0.47150000  1
  F  F32  1  0.47309700  0.74927600  0.85945900  1
  F  F33  1  0.97309700  0.25072400  0.14054100  1
  F  F34  1  0.52690300  0.25072400  0.14054100  1
  F  F35  1  0.02690300  0.74927600  0.85945900  1
  F  F36  1  0.51773900  0.74128300  0.64186200  1
  F  F37  1  0.01773900  0.25871700  0.35813800  1
  F  F38  1  0.48226100  0.25871700  0.35813800  1
  F  F39  1  0.98226100  0.74128300  0.64186200  1
  F  F40  1  0.50199100  0.44018000  0.93936200  1
  F  F41  1  0.00199100  0.55982000  0.06063800  1
  F  F42  1  0.49800900  0.55982000  0.06063800  1
  F  F43  1  0.99800900  0.44018000  0.93936200  1
  F  F44  1  0.50035700  0.06056200  0.93887500  1
  F  F45  1  0.00035700  0.93943800  0.06112500  1
  F  F46  1  0.49964300  0.93943800  0.06112500  1
  F  F47  1  0.99964300  0.06056200  0.93887500  1
  F  F48  1  0.46368000  0.44401500  0.75185500  1
  F  F49  1  0.96368000  0.55598500  0.24814500  1
  F  F50  1  0.53632000  0.55598500  0.24814500  1
  F  F51  1  0.03632000  0.44401500  0.75185500  1
  F  F52  1  0.54195400  0.03980700  0.74992800  1
  F  F53  1  0.04195400  0.96019300  0.25007200  1
  F  F54  1  0.45804600  0.96019300  0.25007200  1
  F  F55  1  0.95804600  0.03980700  0.74992800  1
  F  F56  1  0.49148900  0.43717300  0.56060000  1
  F  F57  1  0.99148900  0.56282700  0.43940000  1
  F  F58  1  0.50851100  0.56282700  0.43940000  1
  F  F59  1  0.00851100  0.43717300  0.56060000  1
  F  F60  1  0.48640800  0.05649400  0.56084100  1
  F  F61  1  0.98640800  0.94350600  0.43915900  1
  F  F62  1  0.51359200  0.94350600  0.43915900  1
  F  F63  1  0.01359200  0.05649400  0.56084100  1
