# generated using pymatgen
data_Ho5B2(O2F3)3
_symmetry_space_group_name_H-M   'P 1'
_cell_length_a   10.68581279
_cell_length_b   10.68581279
_cell_length_c   8.26238315
_cell_angle_alpha   80.32536347
_cell_angle_beta   80.32536347
_cell_angle_gamma   33.14927410
_symmetry_Int_Tables_number   1
_chemical_formula_structural   Ho5B2(O2F3)3
_chemical_formula_sum   'Ho10 B4 O12 F18'
_cell_volume   507.90901972
_cell_formula_units_Z   2
loop_
 _symmetry_equiv_pos_site_id
 _symmetry_equiv_pos_as_xyz
  1  'x, y, z'
loop_
 _atom_site_type_symbol
 _atom_site_label
 _atom_site_symmetry_multiplicity
 _atom_site_fract_x
 _atom_site_fract_y
 _atom_site_fract_z
 _atom_site_occupancy
  Ho  Ho0  1  0.81360600  0.57447400  0.68076300  1
  Ho  Ho1  1  0.42552600  0.18639400  0.81923700  1
  Ho  Ho2  1  0.18639400  0.42552600  0.31923700  1
  Ho  Ho3  1  0.57447400  0.81360600  0.18076300  1
  Ho  Ho4  1  0.99920100  0.22055300  0.09449600  1
  Ho  Ho5  1  0.77944700  0.00079900  0.40550400  1
  Ho  Ho6  1  0.00079900  0.77944700  0.90550400  1
  Ho  Ho7  1  0.22055300  0.99920100  0.59449600  1
  Ho  Ho8  1  0.61042600  0.38957400  0.75000000  1
  Ho  Ho9  1  0.38957400  0.61042600  0.25000000  1
  B  B10  1  0.51642200  0.70699400  0.93779400  1
  B  B11  1  0.29300600  0.48357800  0.56220600  1
  B  B12  1  0.48357800  0.29300600  0.06220600  1
  B  B13  1  0.70699400  0.51642200  0.43779400  1
  O  O14  1  0.35241400  0.83084800  0.06535300  1
  O  O15  1  0.16915200  0.64758600  0.43464700  1
  O  O16  1  0.64758600  0.16915200  0.93464700  1
  O  O17  1  0.83084800  0.35241400  0.56535300  1
  O  O18  1  0.72020600  0.59768900  0.96162800  1
  O  O19  1  0.40231100  0.27979400  0.53837200  1
  O  O20  1  0.27979400  0.40231100  0.03837200  1
  O  O21  1  0.59768900  0.72020600  0.46162800  1
  O  O22  1  0.69606500  0.48978000  0.28452700  1
  O  O23  1  0.51022000  0.30393500  0.21547300  1
  O  O24  1  0.30393500  0.51022000  0.71547300  1
  O  O25  1  0.48978000  0.69606500  0.78452700  1
  F  F26  1  0.13526700  0.28664400  0.52032000  1
  F  F27  1  0.71335600  0.86473300  0.97968000  1
  F  F28  1  0.86473300  0.71335600  0.47968000  1
  F  F29  1  0.28664400  0.13526700  0.02032000  1
  F  F30  1  0.05614700  0.20759700  0.81485300  1
  F  F31  1  0.79240300  0.94385300  0.68514700  1
  F  F32  1  0.94385300  0.79240300  0.18514700  1
  F  F33  1  0.20759700  0.05614700  0.31485300  1
  F  F34  1  0.98380100  0.01619900  0.75000000  1
  F  F35  1  0.01619900  0.98380100  0.25000000  1
  F  F36  1  0.50292100  0.94661600  0.71411200  1
  F  F37  1  0.05338400  0.49707900  0.78588800  1
  F  F38  1  0.49707900  0.05338400  0.28588800  1
  F  F39  1  0.94661600  0.50292100  0.21411200  1
  F  F40  1  0.71469100  0.34813000  0.01510200  1
  F  F41  1  0.65187000  0.28530900  0.48489800  1
  F  F42  1  0.28530900  0.65187000  0.98489800  1
  F  F43  1  0.34813000  0.71469100  0.51510200  1
