# generated using pymatgen
data_NaH3CN2O
_symmetry_space_group_name_H-M   'P 1'
_cell_length_a   17.96169500
_cell_length_b   6.79454200
_cell_length_c   11.15261491
_cell_angle_alpha   90.00000000
_cell_angle_beta   97.26976544
_cell_angle_gamma   90.00000000
_symmetry_Int_Tables_number   1
_chemical_formula_structural   NaH3CN2O
_chemical_formula_sum   'Na16 H48 C16 N32 O16'
_cell_volume   1350.14050016
_cell_formula_units_Z   16
loop_
 _symmetry_equiv_pos_site_id
 _symmetry_equiv_pos_as_xyz
  1  'x, y, z'
loop_
 _atom_site_type_symbol
 _atom_site_label
 _atom_site_symmetry_multiplicity
 _atom_site_fract_x
 _atom_site_fract_y
 _atom_site_fract_z
 _atom_site_occupancy
  Na  Na0  1  0.99752300  0.45899500  0.74023200  1
  Na  Na1  1  0.00247700  0.95899500  0.75976800  1
  Na  Na2  1  0.00247700  0.54100500  0.25976800  1
  Na  Na3  1  0.99752300  0.04100500  0.24023200  1
  Na  Na4  1  0.91930100  0.82758800  0.97673100  1
  Na  Na5  1  0.08069900  0.32758800  0.52326900  1
  Na  Na6  1  0.08069900  0.17241200  0.02326900  1
  Na  Na7  1  0.91930100  0.67241200  0.47673100  1
  Na  Na8  1  0.50249000  0.95093300  0.74422600  1
  Na  Na9  1  0.49751000  0.45093300  0.75577400  1
  Na  Na10  1  0.49751000  0.04906700  0.25577400  1
  Na  Na11  1  0.50249000  0.54906700  0.24422600  1
  Na  Na12  1  0.57680000  0.31200000  0.52001300  1
  Na  Na13  1  0.42320000  0.81200000  0.97998700  1
  Na  Na14  1  0.42320000  0.68800000  0.47998700  1
  Na  Na15  1  0.57680000  0.18800000  0.02001300  1
  H  H16  1  0.38902700  0.32315000  0.35087300  1
  H  H17  1  0.61097300  0.82315000  0.14912700  1
  H  H18  1  0.61097300  0.67685000  0.64912700  1
  H  H19  1  0.38902700  0.17685000  0.85087300  1
  H  H20  1  0.10130700  0.77664500  0.15254200  1
  H  H21  1  0.89869300  0.27664500  0.34745800  1
  H  H22  1  0.89869300  0.22335500  0.84745800  1
  H  H23  1  0.10130700  0.72335500  0.65254200  1
  H  H24  1  0.26554700  0.02753600  0.78229200  1
  H  H25  1  0.73445300  0.52753600  0.71770800  1
  H  H26  1  0.73445300  0.97246400  0.21770800  1
  H  H27  1  0.26554700  0.47246400  0.28229200  1
  H  H28  1  0.26491400  0.23348900  0.69449400  1
  H  H29  1  0.73508600  0.73348900  0.80550600  1
  H  H30  1  0.73508600  0.76651100  0.30550600  1
  H  H31  1  0.26491400  0.26651100  0.19449400  1
  H  H32  1  0.17519200  0.60175700  0.04919800  1
  H  H33  1  0.82480800  0.10175700  0.45080200  1
  H  H34  1  0.82480800  0.39824300  0.95080200  1
  H  H35  1  0.17519200  0.89824300  0.54919800  1
  H  H36  1  0.31480200  0.15033000  0.44222200  1
  H  H37  1  0.68519800  0.65033000  0.05777800  1
  H  H38  1  0.68519800  0.84967000  0.55777800  1
  H  H39  1  0.31480200  0.34967000  0.94222200  1
  H  H40  1  0.34815400  0.04347800  0.57740600  1
  H  H41  1  0.65184600  0.54347800  0.92259400  1
  H  H42  1  0.65184600  0.95652200  0.42259400  1
  H  H43  1  0.34815400  0.45652200  0.07740600  1
  H  H44  1  0.14002900  0.51929300  0.90799900  1
  H  H45  1  0.85997100  0.01929300  0.59200100  1
  H  H46  1  0.85997100  0.48070700  0.09200100  1
  H  H47  1  0.14002900  0.98070700  0.40799900  1
  H  H48  1  0.73335100  0.19248500  0.65473000  1
  H  H49  1  0.26664900  0.69248500  0.84527000  1
  H  H50  1  0.26664900  0.80751500  0.34527000  1
  H  H51  1  0.73335100  0.30751500  0.15473000  1
  H  H52  1  0.16583200  0.95855900  0.86659200  1
  H  H53  1  0.83416800  0.45855900  0.63340800  1
  H  H54  1  0.83416800  0.04144100  0.13340800  1
  H  H55  1  0.16583200  0.54144100  0.36659200  1
  H  H56  1  0.71547900  0.06926400  0.94090100  1
  H  H57  1  0.28452100  0.56926400  0.55909900  1
  H  H58  1  0.28452100  0.93073600  0.05909900  1
  H  H59  1  0.71547900  0.43073600  0.44090100  1
  H  H60  1  0.77234200  0.05804300  0.83032600  1
  H  H61  1  0.22765800  0.55804300  0.66967400  1
  H  H62  1  0.22765800  0.94195700  0.16967400  1
  H  H63  1  0.77234200  0.44195700  0.33032600  1
  C  C64  1  0.06755200  0.68753700  0.99047200  1
  C  C65  1  0.93244800  0.18753700  0.50952800  1
  C  C66  1  0.93244800  0.31246300  0.00952800  1
  C  C67  1  0.06755200  0.81246300  0.49047200  1
  C  C68  1  0.17032400  0.20159900  0.77868600  1
  C  C69  1  0.82967600  0.70159900  0.72131400  1
  C  C70  1  0.82967600  0.79840100  0.22131400  1
  C  C71  1  0.17032400  0.29840100  0.27868600  1
  C  C72  1  0.42144400  0.22901200  0.51134100  1
  C  C73  1  0.57855600  0.72901200  0.98865900  1
  C  C74  1  0.57855600  0.77098800  0.48865900  1
  C  C75  1  0.42144400  0.27098800  0.01134100  1
  C  C76  1  0.66994100  0.19515800  0.78178200  1
  C  C77  1  0.33005900  0.69515800  0.71821800  1
  C  C78  1  0.33005900  0.80484200  0.21821800  1
  C  C79  1  0.66994100  0.30484200  0.28178200  1
  N  N80  1  0.24651900  0.16881600  0.76759000  1
  N  N81  1  0.75348100  0.66881600  0.73241000  1
  N  N82  1  0.75348100  0.83118400  0.23241000  1
  N  N83  1  0.24651900  0.33118400  0.26759000  1
  N  N84  1  0.05728500  0.79685400  0.08568200  1
  N  N85  1  0.94271500  0.29685400  0.41431800  1
  N  N86  1  0.94271500  0.20314600  0.91431800  1
  N  N87  1  0.05728500  0.70314600  0.58568200  1
  N  N88  1  0.12891200  0.55864100  0.99241100  1
  N  N89  1  0.87108800  0.05864100  0.50758900  1
  N  N90  1  0.87108800  0.44135900  0.00758900  1
  N  N91  1  0.12891200  0.94135900  0.49241100  1
  N  N92  1  0.73072100  0.13407800  0.86554600  1
  N  N93  1  0.26927900  0.63407800  0.63445400  1
  N  N94  1  0.26927900  0.86592200  0.13445400  1
  N  N95  1  0.73072100  0.36592200  0.36554600  1
  N  N96  1  0.43680500  0.32157600  0.41177500  1
  N  N97  1  0.56319500  0.82157600  0.08822500  1
  N  N98  1  0.56319500  0.67842400  0.58822500  1
  N  N99  1  0.43680500  0.17842400  0.91177500  1
  N  N100  1  0.67994600  0.23188600  0.66816800  1
  N  N101  1  0.32005400  0.73188600  0.83183200  1
  N  N102  1  0.32005400  0.76811400  0.33183200  1
  N  N103  1  0.67994600  0.26811400  0.16816800  1
  N  N104  1  0.13231600  0.07657500  0.83923300  1
  N  N105  1  0.86768400  0.57657500  0.66076700  1
  N  N106  1  0.86768400  0.92342500  0.16076700  1
  N  N107  1  0.13231600  0.42342500  0.33923300  1
  N  N108  1  0.34909200  0.16260600  0.52220800  1
  N  N109  1  0.65090800  0.66260600  0.97779200  1
  N  N110  1  0.65090800  0.83739400  0.47779200  1
  N  N111  1  0.34909200  0.33739400  0.02220800  1
  O  O112  1  0.02078300  0.68843500  0.89259000  1
  O  O113  1  0.97921700  0.18843500  0.60741000  1
  O  O114  1  0.97921700  0.31156500  0.10741000  1
  O  O115  1  0.02078300  0.81156500  0.39259000  1
  O  O116  1  0.14155000  0.36269400  0.73165000  1
  O  O117  1  0.85845000  0.86269400  0.76835000  1
  O  O118  1  0.85845000  0.63730600  0.26835000  1
  O  O119  1  0.14155000  0.13730600  0.23165000  1
  O  O120  1  0.60637400  0.22256900  0.82283500  1
  O  O121  1  0.39362600  0.72256900  0.67716500  1
  O  O122  1  0.39362600  0.77743100  0.17716500  1
  O  O123  1  0.60637400  0.27743100  0.32283500  1
  O  O124  1  0.47153000  0.20304400  0.60390300  1
  O  O125  1  0.52847000  0.70304400  0.89609700  1
  O  O126  1  0.52847000  0.79695600  0.39609700  1
  O  O127  1  0.47153000  0.29695600  0.10390300  1
