# generated using pymatgen
data_Zr6B(Cl3O4)6
_symmetry_space_group_name_H-M   'P 1'
_cell_length_a   12.11144841
_cell_length_b   12.11144841
_cell_length_c   12.11144841
_cell_angle_alpha   109.47122063
_cell_angle_beta   109.47122063
_cell_angle_gamma   109.47122063
_symmetry_Int_Tables_number   1
_chemical_formula_structural   Zr6B(Cl3O4)6
_chemical_formula_sum   'Zr6 B1 Cl18 O24'
_cell_volume   1367.62288706
_cell_formula_units_Z   1
loop_
 _symmetry_equiv_pos_site_id
 _symmetry_equiv_pos_as_xyz
  1  'x, y, z'
loop_
 _atom_site_type_symbol
 _atom_site_label
 _atom_site_symmetry_multiplicity
 _atom_site_fract_x
 _atom_site_fract_y
 _atom_site_fract_z
 _atom_site_occupancy
  Zr  Zr0  1  0.18020400  0.00000000  0.18020400  1
  Zr  Zr1  1  0.00000000  0.18020400  0.18020400  1
  Zr  Zr2  1  0.81979600  0.81979600  0.00000000  1
  Zr  Zr3  1  0.81979600  0.00000000  0.81979600  1
  Zr  Zr4  1  0.18020400  0.18020400  0.00000000  1
  Zr  Zr5  1  0.00000000  0.81979600  0.81979600  1
  B  B6  1  0.00000000  0.00000000  0.00000000  1
  Cl  Cl7  1  0.00000000  0.81824200  0.18175800  1
  Cl  Cl8  1  0.18175800  0.18175800  0.36351600  1
  Cl  Cl9  1  0.81824200  0.00000000  0.18175800  1
  Cl  Cl10  1  0.00000000  0.18175800  0.81824200  1
  Cl  Cl11  1  0.81824200  0.18175800  0.00000000  1
  Cl  Cl12  1  0.18175800  0.36351600  0.18175800  1
  Cl  Cl13  1  0.36351600  0.18175800  0.18175800  1
  Cl  Cl14  1  0.18175800  0.81824200  0.00000000  1
  Cl  Cl15  1  0.18175800  0.00000000  0.81824200  1
  Cl  Cl16  1  0.63648400  0.81824200  0.81824200  1
  Cl  Cl17  1  0.81824200  0.81824200  0.63648400  1
  Cl  Cl18  1  0.81824200  0.63648400  0.81824200  1
  Cl  Cl19  1  0.35127100  0.00000000  0.35127100  1
  Cl  Cl20  1  0.00000000  0.35127100  0.35127100  1
  Cl  Cl21  1  0.64872900  0.64872900  0.00000000  1
  Cl  Cl22  1  0.64872900  0.00000000  0.64872900  1
  Cl  Cl23  1  0.35127100  0.35127100  0.00000000  1
  Cl  Cl24  1  0.00000000  0.64872900  0.64872900  1
  O  O25  1  0.30334800  0.00000000  0.60847000  1
  O  O26  1  0.00000000  0.30334800  0.60847000  1
  O  O27  1  0.69665200  0.69665200  0.30512200  1
  O  O28  1  0.69665200  0.30512200  0.69665200  1
  O  O29  1  0.00000000  0.60847000  0.30334800  1
  O  O30  1  0.30334800  0.60847000  0.00000000  1
  O  O31  1  0.60847000  0.00000000  0.30334800  1
  O  O32  1  0.30512200  0.69665200  0.69665200  1
  O  O33  1  0.60847000  0.30334800  0.00000000  1
  O  O34  1  0.39153000  0.69487800  0.39153000  1
  O  O35  1  0.69487800  0.39153000  0.39153000  1
  O  O36  1  0.39153000  0.39153000  0.69487800  1
  O  O37  1  0.69665200  0.00000000  0.39153000  1
  O  O38  1  0.00000000  0.69665200  0.39153000  1
  O  O39  1  0.30334800  0.30334800  0.69487800  1
  O  O40  1  0.30334800  0.69487800  0.30334800  1
  O  O41  1  0.00000000  0.39153000  0.69665200  1
  O  O42  1  0.69665200  0.39153000  0.00000000  1
  O  O43  1  0.39153000  0.00000000  0.69665200  1
  O  O44  1  0.69487800  0.30334800  0.30334800  1
  O  O45  1  0.39153000  0.69665200  0.00000000  1
  O  O46  1  0.60847000  0.30512200  0.60847000  1
  O  O47  1  0.30512200  0.60847000  0.60847000  1
  O  O48  1  0.60847000  0.60847000  0.30512200  1
