# generated using pymatgen
data_Cs2Te(H3O5)2
_symmetry_space_group_name_H-M   'P 1'
_cell_length_a   7.36318900
_cell_length_b   12.19462200
_cell_length_c   12.64163182
_cell_angle_alpha   68.43114576
_cell_angle_beta   90.00000000
_cell_angle_gamma   90.00000000
_symmetry_Int_Tables_number   1
_chemical_formula_structural   Cs2Te(H3O5)2
_chemical_formula_sum   'Cs8 Te4 H24 O40'
_cell_volume   1055.62431238
_cell_formula_units_Z   4
loop_
 _symmetry_equiv_pos_site_id
 _symmetry_equiv_pos_as_xyz
  1  'x, y, z'
loop_
 _atom_site_type_symbol
 _atom_site_label
 _atom_site_symmetry_multiplicity
 _atom_site_fract_x
 _atom_site_fract_y
 _atom_site_fract_z
 _atom_site_occupancy
  Cs  Cs0  1  0.03744600  0.38999100  0.86820000  1
  Cs  Cs1  1  0.53744600  0.11000900  0.13180000  1
  Cs  Cs2  1  0.96255400  0.61000900  0.13180000  1
  Cs  Cs3  1  0.46255400  0.88999100  0.86820000  1
  Cs  Cs4  1  0.49032600  0.35843700  0.36412900  1
  Cs  Cs5  1  0.99032600  0.14156300  0.63587100  1
  Cs  Cs6  1  0.50967400  0.64156300  0.63587100  1
  Cs  Cs7  1  0.00967400  0.85843700  0.36412900  1
  Te  Te8  1  0.50000000  0.50000000  0.00000000  1
  Te  Te9  1  0.00000000  0.00000000  0.00000000  1
  Te  Te10  1  0.50000000  0.00000000  0.50000000  1
  Te  Te11  1  0.00000000  0.50000000  0.50000000  1
  H  H12  1  0.51790400  0.37329900  0.87624700  1
  H  H13  1  0.01790400  0.12670100  0.12375300  1
  H  H14  1  0.48209600  0.62670100  0.12375300  1
  H  H15  1  0.98209600  0.87329900  0.87624700  1
  H  H16  1  0.78079300  0.15989800  0.87170700  1
  H  H17  1  0.28079300  0.34010200  0.12829300  1
  H  H18  1  0.21920700  0.84010200  0.12829300  1
  H  H19  1  0.71920700  0.65989800  0.87170700  1
  H  H20  1  0.76774900  0.37111000  0.09907400  1
  H  H21  1  0.26774900  0.12889000  0.90092600  1
  H  H22  1  0.23225100  0.62889000  0.90092600  1
  H  H23  1  0.73225100  0.87111000  0.09907400  1
  H  H24  1  0.46050400  0.11404900  0.63156700  1
  H  H25  1  0.96050400  0.38595100  0.36843300  1
  H  H26  1  0.53949600  0.88595100  0.36843300  1
  H  H27  1  0.03949600  0.61404900  0.63156700  1
  H  H28  1  0.28543500  0.38304900  0.59323900  1
  H  H29  1  0.78543500  0.11695100  0.40676100  1
  H  H30  1  0.71456500  0.61695100  0.40676100  1
  H  H31  1  0.21456500  0.88304900  0.59323900  1
  H  H32  1  0.24969500  0.11480000  0.36271100  1
  H  H33  1  0.74969500  0.38520000  0.63728900  1
  H  H34  1  0.75030500  0.88520000  0.63728900  1
  H  H35  1  0.25030500  0.61480000  0.36271100  1
  O  O36  1  0.83318700  0.27353700  0.22322100  1
  O  O37  1  0.33318700  0.22646300  0.77677900  1
  O  O38  1  0.16681300  0.72646300  0.77677900  1
  O  O39  1  0.66681300  0.77353700  0.22322100  1
  O  O40  1  0.01711400  0.15001400  0.33395100  1
  O  O41  1  0.51711400  0.34998600  0.66604900  1
  O  O42  1  0.98288600  0.84998600  0.66604900  1
  O  O43  1  0.48288600  0.65001400  0.33395100  1
  O  O44  1  0.06672300  0.33226000  0.28074600  1
  O  O45  1  0.56672300  0.16774000  0.71925400  1
  O  O46  1  0.93327700  0.66774000  0.71925400  1
  O  O47  1  0.43327700  0.83226000  0.28074600  1
  O  O48  1  0.08744400  0.24974500  0.15886400  1
  O  O49  1  0.58744400  0.25025500  0.84113600  1
  O  O50  1  0.91255600  0.75025500  0.84113600  1
  O  O51  1  0.41255600  0.74974500  0.15886400  1
  O  O52  1  0.43899700  0.43808100  0.88177000  1
  O  O53  1  0.93899700  0.06191900  0.11823000  1
  O  O54  1  0.56100300  0.56191900  0.11823000  1
  O  O55  1  0.06100300  0.93808100  0.88177000  1
  O  O56  1  0.41539900  0.35685400  0.12109200  1
  O  O57  1  0.91539900  0.14314600  0.87890800  1
  O  O58  1  0.58460100  0.64314600  0.87890800  1
  O  O59  1  0.08460100  0.85685400  0.12109200  1
  O  O60  1  0.74332300  0.43220300  0.02029400  1
  O  O61  1  0.24332300  0.06779700  0.97970600  1
  O  O62  1  0.25667700  0.56779700  0.97970600  1
  O  O63  1  0.75667700  0.93220300  0.02029400  1
  O  O64  1  0.37661200  0.08077400  0.58718400  1
  O  O65  1  0.87661200  0.41922600  0.41281600  1
  O  O66  1  0.62338800  0.91922600  0.41281600  1
  O  O67  1  0.12338800  0.58077400  0.58718400  1
  O  O68  1  0.70316700  0.11081900  0.47174700  1
  O  O69  1  0.20316700  0.38918100  0.52825300  1
  O  O70  1  0.29683300  0.88918100  0.52825300  1
  O  O71  1  0.79683300  0.61081900  0.47174700  1
  O  O72  1  0.38496000  0.10416100  0.35951800  1
  O  O73  1  0.88496000  0.39583900  0.64048200  1
  O  O74  1  0.61504000  0.89583900  0.64048200  1
  O  O75  1  0.11504000  0.60416100  0.35951800  1
