# generated using pymatgen
data_Na4NiH38(W3O20)2
_symmetry_space_group_name_H-M   'P 1'
_cell_length_a   7.90079174
_cell_length_b   10.60970940
_cell_length_c   12.57665849
_cell_angle_alpha   69.35324015
_cell_angle_beta   71.83794694
_cell_angle_gamma   82.41044391
_symmetry_Int_Tables_number   1
_chemical_formula_structural   Na4NiH38(W3O20)2
_chemical_formula_sum   'Na4 Ni1 H38 W6 O40'
_cell_volume   937.08663927
_cell_formula_units_Z   1
loop_
 _symmetry_equiv_pos_site_id
 _symmetry_equiv_pos_as_xyz
  1  'x, y, z'
loop_
 _atom_site_type_symbol
 _atom_site_label
 _atom_site_symmetry_multiplicity
 _atom_site_fract_x
 _atom_site_fract_y
 _atom_site_fract_z
 _atom_site_occupancy
  Na  Na0  1  0.77824400  0.86033300  0.41790400  1
  Na  Na1  1  0.22175600  0.13966700  0.58209600  1
  Na  Na2  1  0.58867900  0.86292800  0.19935000  1
  Na  Na3  1  0.41132100  0.13707200  0.80065000  1
  Ni  Ni4  1  0.00000000  0.50000000  0.00000000  1
  H  H5  1  0.78461600  0.54106600  0.20559100  1
  H  H6  1  0.21538400  0.45893400  0.79440900  1
  H  H7  1  0.07478600  0.23615000  0.04250800  1
  H  H8  1  0.92521400  0.76385000  0.95749200  1
  H  H9  1  0.66565300  0.56188700  0.97279300  1
  H  H10  1  0.33434700  0.43811300  0.02720700  1
  H  H11  1  0.75632200  0.80574100  0.66538900  1
  H  H12  1  0.24367800  0.19425900  0.33461100  1
  H  H13  1  0.55719800  0.79106500  0.67923100  1
  H  H14  1  0.44280200  0.20893500  0.32076900  1
  H  H15  1  0.11108100  0.72852900  0.50379400  1
  H  H16  1  0.88891900  0.27147100  0.49620600  1
  H  H17  1  0.17171800  0.77631200  0.36846500  1
  H  H18  1  0.82828200  0.22368800  0.63153500  1
  H  H19  1  0.90035700  0.93872000  0.15222200  1
  H  H20  1  0.09964300  0.06128000  0.84777800  1
  H  H21  1  0.96933800  0.78759300  0.18516600  1
  H  H22  1  0.03066200  0.21240700  0.81483400  1
  H  H23  1  0.41009800  0.83412600  0.45724700  1
  H  H24  1  0.58990200  0.16587400  0.54275300  1
  H  H25  1  0.41849400  0.98931100  0.38196800  1
  H  H26  1  0.58150600  0.01068900  0.61803200  1
  H  H27  1  0.64984000  0.59080400  0.55509200  1
  H  H28  1  0.35016000  0.40919600  0.44490800  1
  H  H29  1  0.80504300  0.58578600  0.44185400  1
  H  H30  1  0.19495700  0.41421400  0.55814600  1
  H  H31  1  0.64839800  0.78916700  0.98719900  1
  H  H32  1  0.35160200  0.21083300  0.01280100  1
  H  H33  1  0.72241900  0.93544600  0.94470400  1
  H  H34  1  0.27758100  0.06455400  0.05529600  1
  H  H35  1  0.23704100  0.83424300  0.15952000  1
  H  H36  1  0.76295900  0.16575700  0.84048000  1
  H  H37  1  0.17166000  0.93583200  0.22927500  1
  H  H38  1  0.82834000  0.06416800  0.77072500  1
  H  H39  1  0.50727200  0.56455500  0.27433600  1
  H  H40  1  0.49272800  0.43544500  0.72566400  1
  H  H41  1  0.60764600  0.60207800  0.35282000  1
  H  H42  1  0.39235400  0.39792200  0.64718000  1
  W  W43  1  0.85975100  0.26211200  0.26809000  1
  W  W44  1  0.14024900  0.73788800  0.73191000  1
  W  W45  1  0.70665900  0.27074400  0.04417900  1
  W  W46  1  0.29334100  0.72925600  0.95582100  1
  W  W47  1  0.86355600  0.50024400  0.76958700  1
  W  W48  1  0.13644400  0.49975600  0.23041300  1
  O  O49  1  0.89218900  0.48669800  0.17514900  1
  O  O50  1  0.10781100  0.51330200  0.82485100  1
  O  O51  1  0.96724300  0.29260000  0.06936500  1
  O  O52  1  0.03275700  0.70740000  0.93063500  1
  O  O53  1  0.76334800  0.49317500  0.96022400  1
  O  O54  1  0.23665200  0.50682500  0.03977600  1
  O  O55  1  0.65643500  0.28522400  0.20121500  1
  O  O56  1  0.34356500  0.71477600  0.79878500  1
  O  O57  1  0.84527600  0.30672600  0.87360700  1
  O  O58  1  0.15472400  0.69327400  0.12639300  1
  O  O59  1  0.90338900  0.69255800  0.73541000  1
  O  O60  1  0.09661100  0.30744200  0.26459100  1
  O  O61  1  0.72828900  0.28105500  0.40534900  1
  O  O62  1  0.27171100  0.71894500  0.59465100  1
  O  O63  1  0.90254200  0.08585300  0.30264000  1
  O  O64  1  0.09745800  0.91414700  0.69736000  1
  O  O65  1  0.72620800  0.09291100  0.07920600  1
  O  O66  1  0.27379200  0.90708900  0.92079400  1
  O  O67  1  0.48489800  0.30936800  0.02868300  1
  O  O68  1  0.51510200  0.69063200  0.97131700  1
  O  O69  1  0.65375300  0.52266900  0.73882700  1
  O  O70  1  0.34624700  0.47733100  0.26117300  1
  O  O71  1  0.01152500  0.47033300  0.64273400  1
  O  O72  1  0.98847500  0.52966700  0.35726600  1
  O  O73  1  0.66039300  0.84767900  0.62754200  1
  O  O74  1  0.33960700  0.15232100  0.37245800  1
  O  O75  1  0.06517000  0.76985800  0.43490100  1
  O  O76  1  0.93483000  0.23014200  0.56509900  1
  O  O77  1  0.88601100  0.85250900  0.21684800  1
  O  O78  1  0.11398900  0.14749100  0.78315200  1
  O  O79  1  0.48161500  0.90091900  0.38516000  1
  O  O80  1  0.51838500  0.09908100  0.61484000  1
  O  O81  1  0.68577800  0.62734500  0.46848800  1
  O  O82  1  0.31422200  0.37265500  0.53151200  1
  O  O83  1  0.73029500  0.84297400  0.00019900  1
  O  O84  1  0.26970500  0.15702600  0.99980100  1
  O  O85  1  0.27892900  0.90454200  0.17939700  1
  O  O86  1  0.72107100  0.09545800  0.82060300  1
  O  O87  1  0.60390400  0.61857300  0.27065400  1
  O  O88  1  0.39609600  0.38142700  0.72934600  1
