data_image0
_chemical_formula_structural       N5P3
_chemical_formula_sum              "N5 P3"
_cell_length_a       2.61867
_cell_length_b       4.39777
_cell_length_c       6.93005
_cell_angle_alpha    108.5
_cell_angle_beta     100.891
_cell_angle_gamma    90

_space_group_name_H-M_alt    "P 1"
_space_group_IT_number       1

loop_
  _space_group_symop_operation_xyz
  'x, y, z'

loop_
  _atom_site_type_symbol
  _atom_site_label
  _atom_site_symmetry_multiplicity
  _atom_site_fract_x
  _atom_site_fract_y
  _atom_site_fract_z
  _atom_site_occupancy
  N   N1        1.0  0.50000  0.48900  0.00000  1.0000
  N   N2        1.0  0.10400  0.02130  0.20800  1.0000
  N   N3        1.0  0.22300  0.50000  0.44700  1.0000
  N   N4        1.0  0.77700  0.05370  0.55300  1.0000
  N   N5        1.0  0.89600  0.81400  0.79200  1.0000
  P   P1        1.0  0.00000  0.69100  0.00000  1.0000
  P   P2        1.0  0.68200  0.22900  0.36300  1.0000
  P   P3        1.0  0.31800  0.86600  0.63700  1.0000
