# generated using pymatgen
data_U3S3O16
_symmetry_space_group_name_H-M   'P 1'
_cell_length_a   9.11833221
_cell_length_b   9.11833221
_cell_length_c   9.11833221
_cell_angle_alpha   108.55941303
_cell_angle_beta   108.55941303
_cell_angle_gamma   111.31064323
_symmetry_Int_Tables_number   1
_chemical_formula_structural   U3S3O16
_chemical_formula_sum   'U6 S6 O32'
_cell_volume   583.15941756
_cell_formula_units_Z   2
loop_
 _symmetry_equiv_pos_site_id
 _symmetry_equiv_pos_as_xyz
  1  'x, y, z'
loop_
 _atom_site_type_symbol
 _atom_site_label
 _atom_site_symmetry_multiplicity
 _atom_site_fract_x
 _atom_site_fract_y
 _atom_site_fract_z
 _atom_site_occupancy
  U  U0  1  0.25110900  0.25110900  0.00000000  1
  U  U1  1  0.74889100  0.74889100  0.00000000  1
  U  U2  1  0.03515100  0.75694800  0.79209800  1
  U  U3  1  0.96484900  0.24305200  0.20790200  1
  U  U4  1  0.75694800  0.96484900  0.72179700  1
  U  U5  1  0.24305200  0.03515100  0.27820300  1
  S  S6  1  0.75000000  0.25000000  0.50000000  1
  S  S7  1  0.25000000  0.75000000  0.50000000  1
  S  S8  1  0.37513300  0.72041200  0.09554500  1
  S  S9  1  0.62486700  0.27958800  0.90445500  1
  S  S10  1  0.72041200  0.62486700  0.34527900  1
  S  S11  1  0.27958800  0.37513300  0.65472100  1
  O  O12  1  0.26300000  0.02529300  0.03767800  1
  O  O13  1  0.98761600  0.22532200  0.96232200  1
  O  O14  1  0.02529300  0.98761600  0.76229300  1
  O  O15  1  0.22532200  0.26300000  0.23770700  1
  O  O16  1  0.73700000  0.97470700  0.96232200  1
  O  O17  1  0.01238400  0.77467800  0.03767800  1
  O  O18  1  0.97470700  0.01238400  0.23770700  1
  O  O19  1  0.77467800  0.73700000  0.76229300  1
  O  O20  1  0.21915000  0.77381000  0.65462300  1
  O  O21  1  0.11918700  0.56452700  0.34537700  1
  O  O22  1  0.77381000  0.11918700  0.55466100  1
  O  O23  1  0.56452700  0.21915000  0.44533900  1
  O  O24  1  0.78085000  0.22619000  0.34537700  1
  O  O25  1  0.88081300  0.43547300  0.65462300  1
  O  O26  1  0.22619000  0.88081300  0.44533900  1
  O  O27  1  0.43547300  0.78085000  0.55466100  1
  O  O28  1  0.55616200  0.78928200  0.10901100  1
  O  O29  1  0.68027100  0.44715100  0.89098900  1
  O  O30  1  0.78928200  0.68027100  0.23312000  1
  O  O31  1  0.44715100  0.55616200  0.76688000  1
  O  O32  1  0.44383800  0.21071800  0.89098900  1
  O  O33  1  0.31972900  0.55284900  0.10901100  1
  O  O34  1  0.21071800  0.31972900  0.76688000  1
  O  O35  1  0.55284900  0.44383800  0.23312000  1
  O  O36  1  0.24150900  0.68100500  0.92251400  1
  O  O37  1  0.75849100  0.31899500  0.07748600  1
  O  O38  1  0.68100500  0.75849100  0.43949600  1
  O  O39  1  0.31899500  0.24150900  0.56050400  1
  O  O40  1  0.38464100  0.85830700  0.24294800  1
  O  O41  1  0.61535900  0.14169300  0.75705200  1
  O  O42  1  0.85830700  0.61535900  0.47366600  1
  O  O43  1  0.14169300  0.38464100  0.52633400  1
