# generated using pymatgen
data_KZnSi3(H11C4)3
_symmetry_space_group_name_H-M   'P 1'
_cell_length_a   11.73361800
_cell_length_b   19.81537400
_cell_length_c   11.86887430
_cell_angle_alpha   90.00000000
_cell_angle_beta   113.89410449
_cell_angle_gamma   90.00000000
_symmetry_Int_Tables_number   1
_chemical_formula_structural   KZnSi3(H11C4)3
_chemical_formula_sum   'K4 Zn4 Si12 H132 C48'
_cell_volume   2523.07637513
_cell_formula_units_Z   4
loop_
 _symmetry_equiv_pos_site_id
 _symmetry_equiv_pos_as_xyz
  1  'x, y, z'
loop_
 _atom_site_type_symbol
 _atom_site_label
 _atom_site_symmetry_multiplicity
 _atom_site_fract_x
 _atom_site_fract_y
 _atom_site_fract_z
 _atom_site_occupancy
  K  K0  1  0.43471100  0.37410700  0.70446300  1
  K  K1  1  0.56528900  0.87410700  0.79553700  1
  K  K2  1  0.56528900  0.62589300  0.29553700  1
  K  K3  1  0.43471100  0.12589300  0.20446300  1
  Zn  Zn4  1  0.41975200  0.62550600  0.85285100  1
  Zn  Zn5  1  0.58024800  0.12550600  0.64714900  1
  Zn  Zn6  1  0.58024800  0.37449400  0.14714900  1
  Zn  Zn7  1  0.41975200  0.87449400  0.35285100  1
  Si  Si8  1  0.29287500  0.56192700  0.56674000  1
  Si  Si9  1  0.70712500  0.06192700  0.93326000  1
  Si  Si10  1  0.70712500  0.43807300  0.43326000  1
  Si  Si11  1  0.29287500  0.93807300  0.06674000  1
  Si  Si12  1  0.19613300  0.62229800  0.96479000  1
  Si  Si13  1  0.80386700  0.12229800  0.53521000  1
  Si  Si14  1  0.80386700  0.37770200  0.03521000  1
  Si  Si15  1  0.19613300  0.87770200  0.46479000  1
  Si  Si16  1  0.69577100  0.69416300  0.93594400  1
  Si  Si17  1  0.30422900  0.19416300  0.56405600  1
  Si  Si18  1  0.30422900  0.30583700  0.06405600  1
  Si  Si19  1  0.69577100  0.80583700  0.43594400  1
  H  H20  1  0.33747400  0.50791400  0.77015500  1
  H  H21  1  0.66252600  0.00791400  0.72984500  1
  H  H22  1  0.66252600  0.49208600  0.22984500  1
  H  H23  1  0.33747400  0.99208600  0.27015500  1
  H  H24  1  0.47832300  0.52584200  0.74947800  1
  H  H25  1  0.52167700  0.02584200  0.75052200  1
  H  H26  1  0.52167700  0.47415800  0.25052200  1
  H  H27  1  0.47832300  0.97415800  0.24947800  1
  H  H28  1  0.18221500  0.44964300  0.49334300  1
  H  H29  1  0.81778500  0.94964300  0.00665700  1
  H  H30  1  0.81778500  0.55035700  0.50665700  1
  H  H31  1  0.18221500  0.05035700  0.99334300  1
  H  H32  1  0.17439300  0.50150400  0.36973300  1
  H  H33  1  0.82560700  0.00150400  0.13026700  1
  H  H34  1  0.82560700  0.49849600  0.63026700  1
  H  H35  1  0.17439300  0.99849600  0.86973300  1
  H  H36  1  0.31256800  0.45633900  0.45223300  1
  H  H37  1  0.68743200  0.95633900  0.04776700  1
  H  H38  1  0.68743200  0.54366100  0.54776700  1
  H  H39  1  0.31256800  0.04366100  0.95223300  1
  H  H40  1  0.16756500  0.65977000  0.58903500  1
  H  H41  1  0.83243500  0.15977000  0.91096500  1
  H  H42  1  0.83243500  0.34023000  0.41096500  1
  H  H43  1  0.16756500  0.84023000  0.08903500  1
  H  H44  1  0.09623200  0.62339400  0.43988400  1
  H  H45  1  0.90376800  0.12339400  0.06011600  1
  H  H46  1  0.90376800  0.37660600  0.56011600  1
  H  H47  1  0.09623200  0.87660600  0.93988400  1
  H  H48  1  0.08267600  0.58342400  0.56771700  1
  H  H49  1  0.91732400  0.08342400  0.93228300  1
  H  H50  1  0.91732400  0.41657600  0.43228300  1
  H  H51  1  0.08267600  0.91657600  0.06771700  1
  H  H52  1  0.40964500  0.66752600  0.05436800  1
  H  H53  1  0.59035500  0.16752600  0.44563200  1
  H  H54  1  0.59035500  0.33247400  0.94563200  1
  H  H55  1  0.40964500  0.83247400  0.55436800  1
  H  H56  1  0.40881100  0.57631600  0.04945100  1
  H  H57  1  0.59118900  0.07631600  0.45054900  1
  H  H58  1  0.59118900  0.42368400  0.95054900  1
  H  H59  1  0.40881100  0.92368400  0.54945100  1
  H  H60  1  0.11898000  0.69206000  0.77185500  1
  H  H61  1  0.88102000  0.19206000  0.72814500  1
  H  H62  1  0.88102000  0.30794000  0.22814500  1
  H  H63  1  0.11898000  0.80794000  0.27185500  1
  H  H64  1  0.01404300  0.69627600  0.84537200  1
  H  H65  1  0.98595700  0.19627600  0.65462800  1
  H  H66  1  0.98595700  0.30372400  0.15462800  1
  H  H67  1  0.01404300  0.80372400  0.34537200  1
  H  H68  1  0.15415700  0.74382400  0.90393000  1
  H  H69  1  0.84584300  0.24382400  0.59607000  1
  H  H70  1  0.84584300  0.25617600  0.09607000  1
  H  H71  1  0.15415700  0.75617600  0.40393000  1
  H  H72  1  0.20221700  0.67608800  0.16079000  1
  H  H73  1  0.79778300  0.17608800  0.33921000  1
  H  H74  1  0.79778300  0.32391200  0.83921000  1
  H  H75  1  0.20221700  0.82391200  0.66079000  1
  H  H76  1  0.06050600  0.63219400  0.08093800  1
  H  H77  1  0.93949400  0.13219400  0.41906200  1
  H  H78  1  0.93949400  0.36780600  0.91906200  1
  H  H79  1  0.06050600  0.86780600  0.58093800  1
  H  H80  1  0.19709800  0.58640100  0.16930700  1
  H  H81  1  0.80290200  0.08640100  0.33069300  1
  H  H82  1  0.80290200  0.41359900  0.83069300  1
  H  H83  1  0.19709800  0.91359900  0.66930700  1
  H  H84  1  0.16059600  0.49735400  0.94818200  1
  H  H85  1  0.83940400  0.99735400  0.55181800  1
  H  H86  1  0.83940400  0.50264600  0.05181800  1
  H  H87  1  0.16059600  0.00264600  0.44818200  1
  H  H88  1  0.01946300  0.54173200  0.86839800  1
  H  H89  1  0.98053700  0.04173200  0.63160200  1
  H  H90  1  0.98053700  0.45826800  0.13160200  1
  H  H91  1  0.01946300  0.95826800  0.36839800  1
  H  H92  1  0.12896600  0.53259200  0.80083000  1
  H  H93  1  0.87103400  0.03259200  0.69917000  1
  H  H94  1  0.87103400  0.46740800  0.19917000  1
  H  H95  1  0.12896600  0.96740800  0.30083000  1
  H  H96  1  0.48958300  0.74872900  0.89393800  1
  H  H97  1  0.51041700  0.24872900  0.60606200  1
  H  H98  1  0.51041700  0.25127100  0.10606200  1
  H  H99  1  0.48958300  0.75127100  0.39393800  1
  H  H100  1  0.50161300  0.72195900  0.75355200  1
  H  H101  1  0.49838700  0.22196000  0.74644800  1
  H  H102  1  0.49838700  0.27804100  0.24644800  1
  H  H103  1  0.50161300  0.77804100  0.25355200  1
  H  H104  1  0.73783100  0.65376500  0.75674400  1
  H  H105  1  0.26216900  0.15376500  0.74325600  1
  H  H106  1  0.26216900  0.34623500  0.24325600  1
  H  H107  1  0.73783100  0.84623500  0.25674400  1
  H  H108  1  0.84873400  0.61928100  0.89564200  1
  H  H109  1  0.15126600  0.11928100  0.60435800  1
  H  H110  1  0.15126600  0.38071900  0.10435800  1
  H  H111  1  0.84873400  0.88071900  0.39564200  1
  H  H112  1  0.69483300  0.58583200  0.82854200  1
  H  H113  1  0.30516700  0.08583200  0.67145800  1
  H  H114  1  0.30516700  0.41416800  0.17145800  1
  H  H115  1  0.69483300  0.91416800  0.32854200  1
  H  H116  1  0.33760700  0.62283100  0.40426600  1
  H  H117  1  0.66239300  0.12283100  0.09573400  1
  H  H118  1  0.66239300  0.37716900  0.59573400  1
  H  H119  1  0.33760700  0.87716900  0.90426600  1
  H  H120  1  0.42655800  0.65818900  0.55220100  1
  H  H121  1  0.57344200  0.15818900  0.94779900  1
  H  H122  1  0.57344200  0.34181100  0.44779900  1
  H  H123  1  0.42655800  0.84181100  0.05220100  1
  H  H124  1  0.47359200  0.58011400  0.51042400  1
  H  H125  1  0.52640800  0.08011400  0.98957600  1
  H  H126  1  0.52640800  0.41988600  0.48957600  1
  H  H127  1  0.47359200  0.91988600  0.01042400  1
  H  H128  1  0.90104300  0.75146700  0.02305700  1
  H  H129  1  0.09895700  0.25146700  0.47694300  1
  H  H130  1  0.09895700  0.24853300  0.97694300  1
  H  H131  1  0.90104300  0.74853300  0.52305700  1
  H  H132  1  0.80712000  0.79422800  0.88750000  1
  H  H133  1  0.19288000  0.29422800  0.61250000  1
  H  H134  1  0.19288000  0.20577200  0.11250000  1
  H  H135  1  0.80712000  0.70577200  0.38750000  1
  H  H136  1  0.78791400  0.80830300  0.02802000  1
  H  H137  1  0.21208600  0.30830300  0.47198000  1
  H  H138  1  0.21208600  0.19169700  0.97198000  1
  H  H139  1  0.78791400  0.69169700  0.52802000  1
  H  H140  1  0.68172500  0.60974600  0.08748400  1
  H  H141  1  0.31827500  0.10974600  0.41251600  1
  H  H142  1  0.31827500  0.39025400  0.91251600  1
  H  H143  1  0.68172500  0.89025400  0.58748400  1
  H  H144  1  0.69838700  0.69410900  0.14672500  1
  H  H145  1  0.30161300  0.19410900  0.35327500  1
  H  H146  1  0.30161300  0.30589100  0.85327500  1
  H  H147  1  0.69838700  0.80589100  0.64672500  1
  H  H148  1  0.83042600  0.64981600  0.14746600  1
  H  H149  1  0.16957400  0.14981600  0.35253400  1
  H  H150  1  0.16957400  0.35018400  0.85253400  1
  H  H151  1  0.83042600  0.85018400  0.64746600  1
  C  C152  1  0.38416900  0.54450400  0.73298200  1
  C  C153  1  0.61583100  0.04450400  0.76701800  1
  C  C154  1  0.61583100  0.45549600  0.26701800  1
  C  C155  1  0.38416900  0.95549600  0.23298200  1
  C  C156  1  0.39210400  0.61074200  0.50210900  1
  C  C157  1  0.60789600  0.11074200  0.99789100  1
  C  C158  1  0.60789600  0.38925800  0.49789100  1
  C  C159  1  0.39210400  0.88925800  0.00210900  1
  C  C160  1  0.23686800  0.48477300  0.46288400  1
  C  C161  1  0.76313200  0.98477300  0.03711600  1
  C  C162  1  0.76313200  0.51522700  0.53711600  1
  C  C163  1  0.23686800  0.01522700  0.96288400  1
  C  C164  1  0.14663200  0.61175700  0.53841500  1
  C  C165  1  0.85336800  0.11175700  0.96158500  1
  C  C166  1  0.85336800  0.38824300  0.46158500  1
  C  C167  1  0.14663200  0.88824300  0.03841500  1
  C  C168  1  0.36557000  0.62271800  0.99799400  1
  C  C169  1  0.63443000  0.12271800  0.50200600  1
  C  C170  1  0.63443000  0.37728200  0.00200600  1
  C  C171  1  0.36557000  0.87728200  0.49799400  1
  C  C172  1  0.11337600  0.69531900  0.86187300  1
  C  C173  1  0.88662400  0.19531900  0.63812700  1
  C  C174  1  0.88662400  0.30468100  0.13812700  1
  C  C175  1  0.11337600  0.80468100  0.36187300  1
  C  C176  1  0.16196600  0.63008600  0.10765000  1
  C  C177  1  0.83803400  0.13008600  0.39235000  1
  C  C178  1  0.83803400  0.36991400  0.89235000  1
  C  C179  1  0.16196600  0.86991400  0.60765000  1
  C  C180  1  0.11962700  0.54098300  0.88815600  1
  C  C181  1  0.88037300  0.04098300  0.61184400  1
  C  C182  1  0.88037300  0.45901700  0.11184400  1
  C  C183  1  0.11962700  0.95901700  0.38815600  1
  C  C184  1  0.52618100  0.70964700  0.85141900  1
  C  C185  1  0.47381900  0.20964700  0.64858100  1
  C  C186  1  0.47381900  0.29035300  0.14858100  1
  C  C187  1  0.52618100  0.79035300  0.35141900  1
  C  C188  1  0.74967200  0.63263800  0.84630600  1
  C  C189  1  0.25032800  0.13263800  0.65369400  1
  C  C190  1  0.25032800  0.36736200  0.15369400  1
  C  C191  1  0.74967200  0.86736200  0.34630600  1
  C  C192  1  0.80529900  0.76974500  0.97003000  1
  C  C193  1  0.19470100  0.26974500  0.52997000  1
  C  C194  1  0.19470100  0.23025500  0.02997000  1
  C  C195  1  0.80529900  0.73025500  0.47003000  1
  C  C196  1  0.72990500  0.65815400  0.09462200  1
  C  C197  1  0.27009500  0.15815400  0.40537800  1
  C  C198  1  0.27009500  0.34184600  0.90537800  1
  C  C199  1  0.72990500  0.84184600  0.59462200  1
