# generated using pymatgen
data_B5NO12
_symmetry_space_group_name_H-M   'P 1'
_cell_length_a   9.57286500
_cell_length_b   7.47031000
_cell_length_c   9.98981612
_cell_angle_alpha   51.48408604
_cell_angle_beta   90.00000000
_cell_angle_gamma   90.00000000
_symmetry_Int_Tables_number   1
_chemical_formula_structural   B5NO12
_chemical_formula_sum   'B10 N2 O24'
_cell_volume   558.96735630
_cell_formula_units_Z   2
loop_
 _symmetry_equiv_pos_site_id
 _symmetry_equiv_pos_as_xyz
  1  'x, y, z'
loop_
 _atom_site_type_symbol
 _atom_site_label
 _atom_site_symmetry_multiplicity
 _atom_site_fract_x
 _atom_site_fract_y
 _atom_site_fract_z
 _atom_site_occupancy
  B  B0  1  0.25360600  0.81650300  0.57970900  1
  B  B1  1  0.74639400  0.81650300  0.07970900  1
  B  B2  1  0.49464600  0.89287300  0.47854400  1
  B  B3  1  0.50535400  0.89287300  0.97854400  1
  B  B4  1  0.46274800  0.62436500  0.76587300  1
  B  B5  1  0.53725200  0.62436500  0.26587300  1
  B  B6  1  0.03525500  0.98210400  0.57272500  1
  B  B7  1  0.96474500  0.98210400  0.07272500  1
  B  B8  1  0.02754300  0.70418000  0.53398200  1
  B  B9  1  0.97245700  0.70418000  0.03398200  1
  N  N10  1  0.72274600  0.02302500  0.33911800  1
  N  N11  1  0.27725400  0.02302500  0.83911800  1
  O  O12  1  0.36273500  0.94696500  0.43829900  1
  O  O13  1  0.63726500  0.94696500  0.93829900  1
  O  O14  1  0.55795200  0.73507300  0.63094100  1
  O  O15  1  0.44204800  0.73507300  0.13094100  1
  O  O16  1  0.32614500  0.66085900  0.74838300  1
  O  O17  1  0.67385500  0.66085900  0.24838300  1
  O  O18  1  0.17417500  0.98782800  0.57776400  1
  O  O19  1  0.82582500  0.98782800  0.07776400  1
  O  O20  1  0.95442400  0.84811800  0.55672300  1
  O  O21  1  0.04557600  0.84811800  0.05672300  1
  O  O22  1  0.16918000  0.68440600  0.55003000  1
  O  O23  1  0.83082000  0.68440600  0.05003000  1
  O  O24  1  0.59514300  0.04214400  0.32657400  1
  O  O25  1  0.40485700  0.04214400  0.82657400  1
  O  O26  1  0.51425700  0.46378900  0.93899200  1
  O  O27  1  0.48574300  0.46378900  0.43899200  1
  O  O28  1  0.96184900  0.14803500  0.58386100  1
  O  O29  1  0.03815100  0.14803500  0.08386100  1
  O  O30  1  0.95055300  0.59466100  0.49051500  1
  O  O31  1  0.04944700  0.59466100  0.99051500  1
  O  O32  1  0.82707300  0.16860300  0.55559500  1
  O  O33  1  0.17292700  0.16860300  0.05559500  1
  O  O34  1  0.65383100  0.43996900  0.95237200  1
  O  O35  1  0.34616900  0.43996900  0.45237200  1
