# generated using pymatgen
data_Na2TiSi4H2O13
_symmetry_space_group_name_H-M   'P 1'
_cell_length_a   7.44642800
_cell_length_b   8.78701600
_cell_length_c   16.53026400
_cell_angle_alpha   90.00000000
_cell_angle_beta   90.00000000
_cell_angle_gamma   90.00000000
_symmetry_Int_Tables_number   1
_chemical_formula_structural   Na2TiSi4H2O13
_chemical_formula_sum   'Na8 Ti4 Si16 H8 O52'
_cell_volume   1081.60628313
_cell_formula_units_Z   4
loop_
 _symmetry_equiv_pos_site_id
 _symmetry_equiv_pos_as_xyz
  1  'x, y, z'
loop_
 _atom_site_type_symbol
 _atom_site_label
 _atom_site_symmetry_multiplicity
 _atom_site_fract_x
 _atom_site_fract_y
 _atom_site_fract_z
 _atom_site_occupancy
  Na  Na0  1  0.62042700  0.30756000  0.60253500  1
  Na  Na1  1  0.87957300  0.19244000  0.10253500  1
  Na  Na2  1  0.87957300  0.80756000  0.39746500  1
  Na  Na3  1  0.62042700  0.69244000  0.89746500  1
  Na  Na4  1  0.37957300  0.69244000  0.39746500  1
  Na  Na5  1  0.12042700  0.80756000  0.89746500  1
  Na  Na6  1  0.12042700  0.19244000  0.60253500  1
  Na  Na7  1  0.37957300  0.30756000  0.10253500  1
  Ti  Ti8  1  0.00000000  0.50000000  0.50000000  1
  Ti  Ti9  1  0.50000000  0.00000000  0.00000000  1
  Ti  Ti10  1  0.50000000  0.00000000  0.50000000  1
  Ti  Ti11  1  0.00000000  0.50000000  0.00000000  1
  Si  Si12  1  0.12253800  0.84031100  0.58044800  1
  Si  Si13  1  0.37746200  0.65968900  0.08044800  1
  Si  Si14  1  0.37746200  0.34031100  0.41955200  1
  Si  Si15  1  0.12253800  0.15968900  0.91955200  1
  Si  Si16  1  0.87746200  0.15968900  0.41955200  1
  Si  Si17  1  0.62253800  0.34031100  0.91955200  1
  Si  Si18  1  0.62253800  0.65968900  0.58044800  1
  Si  Si19  1  0.87746200  0.84031100  0.08044800  1
  Si  Si20  1  0.25844000  0.55983000  0.65720100  1
  Si  Si21  1  0.24156000  0.94017000  0.15720100  1
  Si  Si22  1  0.24156000  0.05983000  0.34279900  1
  Si  Si23  1  0.25844000  0.44017000  0.84279900  1
  Si  Si24  1  0.74156000  0.44017000  0.34279900  1
  Si  Si25  1  0.75844000  0.05983000  0.84279900  1
  Si  Si26  1  0.75844000  0.94017000  0.65720100  1
  Si  Si27  1  0.74156000  0.55983000  0.15720100  1
  H  H28  1  0.84392800  0.31812100  0.74462700  1
  H  H29  1  0.65607200  0.18187900  0.24462700  1
  H  H30  1  0.65607200  0.81812100  0.25537300  1
  H  H31  1  0.84392800  0.68187900  0.75537300  1
  H  H32  1  0.15607200  0.68187900  0.25537300  1
  H  H33  1  0.34392800  0.81812100  0.75537300  1
  H  H34  1  0.34392800  0.18187900  0.74462700  1
  H  H35  1  0.15607200  0.31812100  0.24462700  1
  O  O36  1  0.20010000  0.74115400  0.65927700  1
  O  O37  1  0.29990000  0.75884600  0.15927700  1
  O  O38  1  0.29990000  0.24115400  0.34072300  1
  O  O39  1  0.20010000  0.25884600  0.84072300  1
  O  O40  1  0.79990000  0.25884600  0.34072300  1
  O  O41  1  0.70010000  0.24115400  0.84072300  1
  O  O42  1  0.70010000  0.75884600  0.65927700  1
  O  O43  1  0.79990000  0.74115400  0.15927700  1
  O  O44  1  0.26952600  0.96411300  0.55119500  1
  O  O45  1  0.23047400  0.53588700  0.05119500  1
  O  O46  1  0.23047400  0.46411300  0.44880500  1
  O  O47  1  0.26952600  0.03588700  0.94880500  1
  O  O48  1  0.73047400  0.03588700  0.44880500  1
  O  O49  1  0.76952600  0.46411300  0.94880500  1
  O  O50  1  0.76952600  0.53588700  0.55119500  1
  O  O51  1  0.73047400  0.96411300  0.05119500  1
  O  O52  1  0.05834100  0.72069900  0.51108500  1
  O  O53  1  0.44165900  0.77930100  0.01108500  1
  O  O54  1  0.44165900  0.22069900  0.48891500  1
  O  O55  1  0.05834100  0.27930100  0.98891500  1
  O  O56  1  0.94165900  0.27930100  0.48891500  1
  O  O57  1  0.55834100  0.22069900  0.98891500  1
  O  O58  1  0.55834100  0.77930100  0.51108500  1
  O  O59  1  0.94165900  0.72069900  0.01108500  1
  O  O60  1  0.95897300  0.94958900  0.61615300  1
  O  O61  1  0.54102700  0.55041100  0.11615300  1
  O  O62  1  0.54102700  0.44958900  0.38384700  1
  O  O63  1  0.95897300  0.05041100  0.88384700  1
  O  O64  1  0.04102700  0.05041100  0.38384700  1
  O  O65  1  0.45897300  0.44958900  0.88384700  1
  O  O66  1  0.45897300  0.55041100  0.61615300  1
  O  O67  1  0.04102700  0.94958900  0.11615300  1
  O  O68  1  0.11502600  0.45890300  0.60652200  1
  O  O69  1  0.38497400  0.04109700  0.10652200  1
  O  O70  1  0.38497400  0.95890300  0.39347800  1
  O  O71  1  0.11502600  0.54109700  0.89347800  1
  O  O72  1  0.88497400  0.54109700  0.39347800  1
  O  O73  1  0.61502600  0.95890300  0.89347800  1
  O  O74  1  0.61502600  0.04109700  0.60652200  1
  O  O75  1  0.88497400  0.45890300  0.10652200  1
  O  O76  1  0.27299500  0.50000000  0.75000000  1
  O  O77  1  0.22700500  0.00000000  0.25000000  1
  O  O78  1  0.72700500  0.50000000  0.25000000  1
  O  O79  1  0.77299500  0.00000000  0.75000000  1
  O  O80  1  0.87494600  0.28773400  0.68869700  1
  O  O81  1  0.62505400  0.21226600  0.18869700  1
  O  O82  1  0.62505400  0.78773400  0.31130300  1
  O  O83  1  0.87494600  0.71226600  0.81130300  1
  O  O84  1  0.12505400  0.71226600  0.31130300  1
  O  O85  1  0.37494600  0.78773400  0.81130300  1
  O  O86  1  0.37494600  0.21226600  0.68869700  1
  O  O87  1  0.12505400  0.28773400  0.18869700  1
