# generated using pymatgen
data_Na2GdMnAs2O9
_symmetry_space_group_name_H-M   'P 1'
_cell_length_a   5.88596984
_cell_length_b   8.99762360
_cell_length_c   15.05219231
_cell_angle_alpha   90.04655646
_cell_angle_beta   89.96373073
_cell_angle_gamma   92.39464181
_symmetry_Int_Tables_number   1
_chemical_formula_structural   Na2GdMnAs2O9
_chemical_formula_sum   'Na8 Gd4 Mn4 As8 O36'
_cell_volume   796.46367477
_cell_formula_units_Z   4
loop_
 _symmetry_equiv_pos_site_id
 _symmetry_equiv_pos_as_xyz
  1  'x, y, z'
loop_
 _atom_site_type_symbol
 _atom_site_label
 _atom_site_symmetry_multiplicity
 _atom_site_fract_x
 _atom_site_fract_y
 _atom_site_fract_z
 _atom_site_occupancy
  Na  Na0  1  0.76364200  0.17714700  0.86342500  1
  Na  Na1  1  0.26354700  0.67725300  0.63674700  1
  Na  Na2  1  0.23627600  0.82292800  0.13643500  1
  Na  Na3  1  0.73656400  0.32284800  0.36341100  1
  Na  Na4  1  0.23483400  0.09934000  0.27231100  1
  Na  Na5  1  0.73544900  0.59949100  0.22771600  1
  Na  Na6  1  0.76501200  0.90054400  0.72764700  1
  Na  Na7  1  0.26457400  0.40065000  0.77231500  1
  Gd  Gd8  1  0.70178500  0.21691400  0.11961800  1
  Gd  Gd9  1  0.20227500  0.71753100  0.38041500  1
  Gd  Gd10  1  0.29818500  0.78308100  0.88039300  1
  Gd  Gd11  1  0.79793500  0.28301100  0.61973500  1
  Mn  Mn12  1  0.50003400  0.49996200  0.99996000  1
  Mn  Mn13  1  0.99983000  0.99965500  0.50003200  1
  Mn  Mn14  1  0.00000300  0.49992500  0.99995300  1
  Mn  Mn15  1  0.50007200  0.99965800  0.50004100  1
  As  As16  1  0.21751900  0.43174700  0.20267000  1
  As  As17  1  0.71750300  0.93215000  0.29707200  1
  As  As18  1  0.78257700  0.56828100  0.79731500  1
  As  As19  1  0.28250300  0.06793800  0.70283700  1
  As  As20  1  0.24033600  0.15473200  0.00284300  1
  As  As21  1  0.74018200  0.65493400  0.49729400  1
  As  As22  1  0.75969700  0.84531700  0.99703200  1
  As  As23  1  0.25973300  0.34508600  0.50284600  1
  O  O24  1  0.74745300  0.47046500  0.07932300  1
  O  O25  1  0.24582500  0.96918000  0.42007200  1
  O  O26  1  0.25260500  0.52947400  0.92055800  1
  O  O27  1  0.75422700  0.03022700  0.57984500  1
  O  O28  1  0.24024600  0.47895500  0.08997700  1
  O  O29  1  0.74027100  0.97921100  0.40987300  1
  O  O30  1  0.75974500  0.52097600  0.90996800  1
  O  O31  1  0.25967700  0.02073300  0.59007600  1
  O  O32  1  0.99713500  0.25976300  0.99685700  1
  O  O33  1  0.49757100  0.76085800  0.50372700  1
  O  O34  1  0.00283000  0.74022000  0.00293300  1
  O  O35  1  0.50263100  0.23928400  0.49689100  1
  O  O36  1  0.00291800  0.30070600  0.22139500  1
  O  O37  1  0.50338400  0.80061600  0.27838600  1
  O  O38  1  0.99728000  0.69922700  0.77854200  1
  O  O39  1  0.49680100  0.19942100  0.72154200  1
  O  O40  1  0.20631200  0.01682000  0.92636100  1
  O  O41  1  0.70559200  0.51677200  0.57339400  1
  O  O42  1  0.79365200  0.98313300  0.07352200  1
  O  O43  1  0.29401100  0.48320700  0.42664000  1
  O  O44  1  0.48600500  0.26313700  0.97777200  1
  O  O45  1  0.98569300  0.76329800  0.52248600  1
  O  O46  1  0.51401100  0.73688300  0.02205500  1
  O  O47  1  0.01422400  0.23656300  0.47785700  1
  O  O48  1  0.47831800  0.37120900  0.23067800  1
  O  O49  1  0.97814400  0.87164700  0.26864300  1
  O  O50  1  0.52187800  0.62884600  0.76923300  1
  O  O51  1  0.02192500  0.12896400  0.73108800  1
  O  O52  1  0.14379700  0.59718100  0.24676400  1
  O  O53  1  0.64325400  0.09758600  0.25359800  1
  O  O54  1  0.85641600  0.40278000  0.75334400  1
  O  O55  1  0.35640400  0.90258100  0.74649300  1
  O  O56  1  0.69073100  0.90281000  0.89195300  1
  O  O57  1  0.19094000  0.40283200  0.60803100  1
  O  O58  1  0.30930200  0.09725600  0.10789500  1
  O  O59  1  0.80872200  0.59706000  0.39216100  1
