# generated using pymatgen
data_NdTc3
_symmetry_space_group_name_H-M   'P 1'
_cell_length_a   6.73563027
_cell_length_b   6.73563027
_cell_length_c   4.17910600
_cell_angle_alpha   90.00000000
_cell_angle_beta   90.00000000
_cell_angle_gamma   120.00000263
_symmetry_Int_Tables_number   1
_chemical_formula_structural   NdTc3
_chemical_formula_sum   'Nd2 Tc6'
_cell_volume   164.19899202
_cell_formula_units_Z   2
loop_
 _symmetry_equiv_pos_site_id
 _symmetry_equiv_pos_as_xyz
  1  'x, y, z'
loop_
 _atom_site_type_symbol
 _atom_site_label
 _atom_site_symmetry_multiplicity
 _atom_site_fract_x
 _atom_site_fract_y
 _atom_site_fract_z
 _atom_site_occupancy
  Nd  Nd0  1  0.66666700  0.33333300  0.25000000  1
  Nd  Nd1  1  0.33333300  0.66666700  0.75000000  1
  Tc  Tc2  1  0.86910100  0.13089900  0.75000000  1
  Tc  Tc3  1  0.26179800  0.13089900  0.75000000  1
  Tc  Tc4  1  0.86910100  0.73820200  0.75000000  1
  Tc  Tc5  1  0.13089900  0.86910100  0.25000000  1
  Tc  Tc6  1  0.73820200  0.86910100  0.25000000  1
  Tc  Tc7  1  0.13089900  0.26179800  0.25000000  1
