# generated using pymatgen
data_Mn2O3
_symmetry_space_group_name_H-M   'P 1'
_cell_length_a   10.55604269
_cell_length_b   10.49784812
_cell_length_c   10.67191837
_cell_angle_alpha   119.49061031
_cell_angle_beta   90.43210803
_cell_angle_gamma   119.81501275
_symmetry_Int_Tables_number   1
_chemical_formula_structural   Mn2O3
_chemical_formula_sum   'Mn32 O48'
_cell_volume   841.82162155
_cell_formula_units_Z   16
loop_
 _symmetry_equiv_pos_site_id
 _symmetry_equiv_pos_as_xyz
  1  'x, y, z'
loop_
 _atom_site_type_symbol
 _atom_site_label
 _atom_site_symmetry_multiplicity
 _atom_site_fract_x
 _atom_site_fract_y
 _atom_site_fract_z
 _atom_site_occupancy
  Mn  Mn0  1  0.25581000  0.00441300  0.75561000  1
  Mn  Mn1  1  0.74419000  0.99558700  0.24439000  1
  Mn  Mn2  1  0.75291500  0.00412400  0.75450000  1
  Mn  Mn3  1  0.24708500  0.99587600  0.24550000  1
  Mn  Mn4  1  0.75010100  0.50274100  0.75385200  1
  Mn  Mn5  1  0.24989900  0.49725900  0.24614800  1
  Mn  Mn6  1  0.00000000  0.00000000  0.50000000  1
  Mn  Mn7  1  0.50000000  0.50000000  0.50000000  1
  Mn  Mn8  1  0.00000000  0.50000000  0.50000000  1
  Mn  Mn9  1  0.50000000  0.00000000  0.00000000  1
  Mn  Mn10  1  0.00000000  0.50000000  0.00000000  1
  Mn  Mn11  1  0.50000000  0.50000000  0.00000000  1
  Mn  Mn12  1  0.23529800  0.47773100  0.71350400  1
  Mn  Mn13  1  0.76470200  0.52226900  0.28649600  1
  Mn  Mn14  1  0.50000000  0.00000000  0.50000000  1
  Mn  Mn15  1  0.00000000  0.00000000  0.00000000  1
  Mn  Mn16  1  0.13490500  0.74300000  0.88155600  1
  Mn  Mn17  1  0.86509500  0.25700000  0.11844400  1
  Mn  Mn18  1  0.13758500  0.27053000  0.88323100  1
  Mn  Mn19  1  0.86241500  0.72947000  0.11676900  1
  Mn  Mn20  1  0.60976400  0.74847000  0.88236100  1
  Mn  Mn21  1  0.39023600  0.25153000  0.11763900  1
  Mn  Mn22  1  0.11482600  0.74821800  0.37888900  1
  Mn  Mn23  1  0.88517400  0.25178200  0.62111100  1
  Mn  Mn24  1  0.63326700  0.74576600  0.37987900  1
  Mn  Mn25  1  0.36673300  0.25423400  0.62012100  1
  Mn  Mn26  1  0.63107300  0.26228100  0.38129000  1
  Mn  Mn27  1  0.36892700  0.73771900  0.61871000  1
  Mn  Mn28  1  0.61325500  0.22739300  0.83788200  1
  Mn  Mn29  1  0.38674500  0.77260700  0.16211800  1
  Mn  Mn30  1  0.11567400  0.23361800  0.34751200  1
  Mn  Mn31  1  0.88432600  0.76638200  0.65248800  1
  O  O32  1  0.26948100  0.20753700  0.93095400  1
  O  O33  1  0.73051900  0.79246300  0.06904600  1
  O  O34  1  0.71790700  0.99109400  0.92951400  1
  O  O35  1  0.28209300  0.00890600  0.07048600  1
  O  O36  1  0.94092800  0.65245800  0.92590000  1
  O  O37  1  0.05907200  0.34754200  0.07410000  1
  O  O38  1  0.52174500  0.33970000  0.31842700  1
  O  O39  1  0.47825500  0.66030000  0.68157300  1
  O  O40  1  0.97666500  0.50187600  0.32007000  1
  O  O41  1  0.02333500  0.49812400  0.67993000  1
  O  O42  1  0.81840600  0.80989100  0.31877500  1
  O  O43  1  0.18159400  0.19010900  0.68122500  1
  O  O44  1  0.23417900  0.79844100  0.57877600  1
  O  O45  1  0.76582100  0.20155900  0.42122400  1
  O  O46  1  0.79102900  0.01860600  0.58175600  1
  O  O47  1  0.20897100  0.98139400  0.41824400  1
  O  O48  1  0.56096600  0.35862800  0.58388400  1
  O  O49  1  0.43903400  0.64137200  0.41611600  1
  O  O50  1  0.95149400  0.63622200  0.17677200  1
  O  O51  1  0.04850600  0.36377800  0.82322800  1
  O  O52  1  0.54459600  0.49276500  0.17588200  1
  O  O53  1  0.45540400  0.50723500  0.82411800  1
  O  O54  1  0.68348900  0.22630300  0.17664900  1
  O  O55  1  0.31651100  0.77369700  0.82335100  1
  O  O56  1  0.19879500  0.71719900  0.05706500  1
  O  O57  1  0.80120500  0.28280100  0.94293500  1
  O  O58  1  0.33452600  0.53104500  0.05214700  1
  O  O59  1  0.66547400  0.46895500  0.94785300  1
  O  O60  1  0.51787000  0.85652800  0.05593500  1
  O  O61  1  0.48213000  0.14347200  0.94406500  1
  O  O62  1  0.57553300  0.85118800  0.29678700  1
  O  O63  1  0.42446700  0.14881200  0.70321300  1
  O  O64  1  0.44313300  0.02076700  0.30553900  1
  O  O65  1  0.55686700  0.97923300  0.69446100  1
  O  O66  1  0.28553400  0.72727800  0.30544400  1
  O  O67  1  0.71446600  0.27272200  0.69455600  1
  O  O68  1  0.30322200  0.30326400  0.47318500  1
  O  O69  1  0.69677800  0.69673600  0.52681500  1
  O  O70  1  0.17575700  0.48157100  0.47653200  1
  O  O71  1  0.82424300  0.51842900  0.52346800  1
  O  O72  1  0.02030700  0.19490600  0.49486500  1
  O  O73  1  0.97969300  0.80509400  0.50513500  1
  O  O74  1  0.92496300  0.15339700  0.21616800  1
  O  O75  1  0.07503700  0.84660300  0.78383200  1
  O  O76  1  0.05880200  0.98717300  0.20445300  1
  O  O77  1  0.94119800  0.01282700  0.79554700  1
  O  O78  1  0.21365600  0.27498900  0.20200900  1
  O  O79  1  0.78634400  0.72501100  0.79799100  1
