# generated using pymatgen
data_Gd4Si2S3O7
_symmetry_space_group_name_H-M   'P 1'
_cell_length_a   10.88508134
_cell_length_b   10.88508134
_cell_length_c   10.88508134
_cell_angle_alpha   114.01304404
_cell_angle_beta   114.01304404
_cell_angle_gamma   100.72589999
_symmetry_Int_Tables_number   1
_chemical_formula_structural   Gd4Si2S3O7
_chemical_formula_sum   'Gd16 Si8 S12 O28'
_cell_volume   975.86094968
_cell_formula_units_Z   4
loop_
 _symmetry_equiv_pos_site_id
 _symmetry_equiv_pos_as_xyz
  1  'x, y, z'
loop_
 _atom_site_type_symbol
 _atom_site_label
 _atom_site_symmetry_multiplicity
 _atom_site_fract_x
 _atom_site_fract_y
 _atom_site_fract_z
 _atom_site_occupancy
  Gd  Gd0  1  0.53399800  0.29828700  0.76428900  1
  Gd  Gd1  1  0.04828700  0.78399800  0.26428900  1
  Gd  Gd2  1  0.51970900  0.78399800  0.73571100  1
  Gd  Gd3  1  0.53399800  0.76970900  0.23571100  1
  Gd  Gd4  1  0.21600200  0.95171300  0.73571100  1
  Gd  Gd5  1  0.70171300  0.46600200  0.23571100  1
  Gd  Gd6  1  0.23029100  0.46600200  0.76428900  1
  Gd  Gd7  1  0.21600200  0.48029100  0.26428900  1
  Gd  Gd8  1  0.17224500  0.17224500  0.34449100  1
  Gd  Gd9  1  0.82775500  0.17224500  0.00000000  1
  Gd  Gd10  1  0.92224500  0.42224500  0.84449100  1
  Gd  Gd11  1  0.57775500  0.42224500  0.50000000  1
  Gd  Gd12  1  0.17224500  0.82775500  0.00000000  1
  Gd  Gd13  1  0.82775500  0.82775500  0.65550900  1
  Gd  Gd14  1  0.92224500  0.07775500  0.50000000  1
  Gd  Gd15  1  0.57775500  0.07775500  0.15550900  1
  Si  Si16  1  0.77996000  0.90398800  0.12402800  1
  Si  Si17  1  0.65398800  0.02996000  0.62402800  1
  Si  Si18  1  0.40593200  0.02996000  0.37597200  1
  Si  Si19  1  0.77996000  0.65593200  0.87597200  1
  Si  Si20  1  0.97004000  0.34601200  0.37597200  1
  Si  Si21  1  0.09601200  0.22004000  0.87597200  1
  Si  Si22  1  0.34406800  0.22004000  0.12402800  1
  Si  Si23  1  0.97004000  0.59406800  0.62402800  1
  S  S24  1  0.22818700  0.62500000  0.10318700  1
  S  S25  1  0.52181300  0.62500000  0.39681300  1
  S  S26  1  0.37500000  0.47818700  0.60318700  1
  S  S27  1  0.87500000  0.47818700  0.10318700  1
  S  S28  1  0.22818700  0.12500000  0.60318700  1
  S  S29  1  0.52181300  0.12500000  0.89681300  1
  S  S30  1  0.37500000  0.77181300  0.89681300  1
  S  S31  1  0.87500000  0.77181300  0.39681300  1
  S  S32  1  0.50000000  0.50000000  0.00000000  1
  S  S33  1  0.25000000  0.75000000  0.50000000  1
  S  S34  1  0.75000000  0.25000000  0.50000000  1
  S  S35  1  0.00000000  0.00000000  0.00000000  1
  O  O36  1  0.95621000  0.69447200  0.98186200  1
  O  O37  1  0.71261000  0.69447200  0.73826200  1
  O  O38  1  0.44447200  0.20621000  0.48186200  1
  O  O39  1  0.72434800  0.20621000  0.76173800  1
  O  O40  1  0.95621000  0.97434800  0.26173800  1
  O  O41  1  0.71261000  0.97434800  0.01813800  1
  O  O42  1  0.44447200  0.96261000  0.23826200  1
  O  O43  1  0.72434800  0.96261000  0.51813800  1
  O  O44  1  0.79379000  0.55552800  0.51813800  1
  O  O45  1  0.03739000  0.55552800  0.76173800  1
  O  O46  1  0.30552800  0.04379000  0.01813800  1
  O  O47  1  0.02565200  0.04379000  0.73826200  1
  O  O48  1  0.79379000  0.27565200  0.23826200  1
  O  O49  1  0.03739000  0.27565200  0.48186200  1
  O  O50  1  0.30552800  0.28739000  0.26173800  1
  O  O51  1  0.02565200  0.28739000  0.98186200  1
  O  O52  1  0.70227200  0.47249400  0.77022200  1
  O  O53  1  0.22249400  0.95227200  0.27022200  1
  O  O54  1  0.68205100  0.95227200  0.72977800  1
  O  O55  1  0.70227200  0.93205100  0.22977800  1
  O  O56  1  0.04772800  0.77750600  0.72977800  1
  O  O57  1  0.52750600  0.29772800  0.22977800  1
  O  O58  1  0.06794900  0.29772800  0.77022200  1
  O  O59  1  0.04772800  0.31794900  0.27022200  1
  O  O60  1  0.27205400  0.27205400  0.00000000  1
  O  O61  1  0.02205400  0.52205400  0.50000000  1
  O  O62  1  0.47794600  0.97794600  0.50000000  1
  O  O63  1  0.72794600  0.72794600  0.00000000  1
