# generated using pymatgen
data_Ce2Se4O17
_symmetry_space_group_name_H-M   'P 1'
_cell_length_a   10.18678988
_cell_length_b   10.18678988
_cell_length_c   9.41200505
_cell_angle_alpha   67.48151555
_cell_angle_beta   67.48151555
_cell_angle_gamma   105.59607594
_symmetry_Int_Tables_number   1
_chemical_formula_structural   Ce2Se4O17
_chemical_formula_sum   'Ce4 Se8 O34'
_cell_volume   727.94540493
_cell_formula_units_Z   2
loop_
 _symmetry_equiv_pos_site_id
 _symmetry_equiv_pos_as_xyz
  1  'x, y, z'
loop_
 _atom_site_type_symbol
 _atom_site_label
 _atom_site_symmetry_multiplicity
 _atom_site_fract_x
 _atom_site_fract_y
 _atom_site_fract_z
 _atom_site_occupancy
  Ce  Ce0  1  0.48622600  0.21162400  0.96741700  1
  Ce  Ce1  1  0.21162400  0.48622600  0.46741700  1
  Ce  Ce2  1  0.88774300  0.80504800  0.96910600  1
  Ce  Ce3  1  0.80504800  0.88774300  0.46910600  1
  Se  Se4  1  0.12254400  0.79606600  0.17176600  1
  Se  Se5  1  0.79606600  0.12254400  0.67176600  1
  Se  Se6  1  0.50366200  0.59881200  0.98759500  1
  Se  Se7  1  0.59881200  0.50366200  0.48759500  1
  Se  Se8  1  0.09491300  0.19203600  0.95182400  1
  Se  Se9  1  0.19203600  0.09491300  0.45182400  1
  Se  Se10  1  0.57483600  0.90062000  0.26403200  1
  Se  Se11  1  0.90062000  0.57483600  0.76403200  1
  O  O12  1  0.09636900  0.62130700  0.31761700  1
  O  O13  1  0.62130700  0.09636900  0.81761700  1
  O  O14  1  0.97961400  0.83691800  0.27871900  1
  O  O15  1  0.83691800  0.97961400  0.77871900  1
  O  O16  1  0.09930900  0.77877300  0.01230700  1
  O  O17  1  0.77877300  0.09930900  0.51230700  1
  O  O18  1  0.30515800  0.95004000  0.07737500  1
  O  O19  1  0.95004000  0.30515800  0.57737500  1
  O  O20  1  0.56964800  0.75566400  0.78382300  1
  O  O21  1  0.75566400  0.56964800  0.28382300  1
  O  O22  1  0.63684300  0.63269800  0.04953300  1
  O  O23  1  0.63269800  0.63684300  0.54953300  1
  O  O24  1  0.47148900  0.43050300  0.98408200  1
  O  O25  1  0.43050300  0.47148900  0.48408200  1
  O  O26  1  0.33345400  0.57186000  0.14777600  1
  O  O27  1  0.57186000  0.33345400  0.64777600  1
  O  O28  1  0.93920000  0.12700500  0.15676900  1
  O  O29  1  0.12700500  0.93920000  0.65676900  1
  O  O30  1  0.11440600  0.35608700  0.78985400  1
  O  O31  1  0.35608700  0.11440600  0.28985400  1
  O  O32  1  0.06207000  0.05207400  0.89900800  1
  O  O33  1  0.05207400  0.06207000  0.39900800  1
  O  O34  1  0.26518900  0.23540200  0.95146400  1
  O  O35  1  0.23540200  0.26518900  0.45146400  1
  O  O36  1  0.60829500  0.07832300  0.11459800  1
  O  O37  1  0.07832300  0.60829500  0.61459800  1
  O  O38  1  0.58840600  0.90870500  0.43179500  1
  O  O39  1  0.90870500  0.58840600  0.93179500  1
  O  O40  1  0.39347300  0.75234600  0.34401400  1
  O  O41  1  0.75234600  0.39347300  0.84401400  1
  O  O42  1  0.71918100  0.85579200  0.16835000  1
  O  O43  1  0.85579200  0.71918100  0.66835000  1
  O  O44  1  0.00329500  0.41403400  0.16508000  1
  O  O45  1  0.41403400  0.00329500  0.66508000  1
