# generated using pymatgen
data_Cs2K2Pd2N8O25
_symmetry_space_group_name_H-M   'P 1'
_cell_length_a   7.88226520
_cell_length_b   7.88226520
_cell_length_c   22.60625287
_cell_angle_alpha   86.87482948
_cell_angle_beta   86.87482948
_cell_angle_gamma   89.85974175
_symmetry_Int_Tables_number   1
_chemical_formula_structural   Cs2K2Pd2N8O25
_chemical_formula_sum   'Cs4 K4 Pd4 N16 O50'
_cell_volume   1400.35418674
_cell_formula_units_Z   2
loop_
 _symmetry_equiv_pos_site_id
 _symmetry_equiv_pos_as_xyz
  1  'x, y, z'
loop_
 _atom_site_type_symbol
 _atom_site_label
 _atom_site_symmetry_multiplicity
 _atom_site_fract_x
 _atom_site_fract_y
 _atom_site_fract_z
 _atom_site_occupancy
  Cs  Cs0  1  0.25083700  0.73812100  0.97566100  1
  Cs  Cs1  1  0.26187900  0.74916300  0.52433900  1
  Cs  Cs2  1  0.74916300  0.26187900  0.02433900  1
  Cs  Cs3  1  0.73812100  0.25083700  0.47566100  1
  K  K4  1  0.14460300  0.24455600  0.25265800  1
  K  K5  1  0.75544400  0.85539700  0.24734200  1
  K  K6  1  0.85539700  0.75544400  0.74734200  1
  K  K7  1  0.24455600  0.14460300  0.75265800  1
  Pd  Pd8  1  0.23276900  0.73084000  0.16621300  1
  Pd  Pd9  1  0.26916000  0.76723100  0.33378700  1
  Pd  Pd10  1  0.76723100  0.26916000  0.83378700  1
  Pd  Pd11  1  0.73084000  0.23276900  0.66621300  1
  N  N12  1  0.40161300  0.41777200  0.13098600  1
  N  N13  1  0.58222800  0.59838700  0.36901400  1
  N  N14  1  0.59838700  0.58222800  0.86901400  1
  N  N15  1  0.41777200  0.40161300  0.63098600  1
  N  N16  1  0.08358500  0.05313800  0.12270400  1
  N  N17  1  0.94686200  0.91641500  0.37729600  1
  N  N18  1  0.91641500  0.94686200  0.87729600  1
  N  N19  1  0.05313800  0.08358500  0.62270400  1
  N  N20  1  0.55013700  0.89353400  0.11977400  1
  N  N21  1  0.10646600  0.44986300  0.38022600  1
  N  N22  1  0.44986300  0.10646600  0.88022600  1
  N  N23  1  0.89353400  0.55013700  0.61977400  1
  N  N24  1  0.08164200  0.42627400  0.86656100  1
  N  N25  1  0.57372600  0.91835800  0.63343900  1
  N  N26  1  0.91835800  0.57372600  0.13343900  1
  N  N27  1  0.42627400  0.08164200  0.36656100  1
  O  O28  1  0.32336800  0.49055300  0.17719600  1
  O  O29  1  0.50944700  0.67663200  0.32280400  1
  O  O30  1  0.67663200  0.50944700  0.82280400  1
  O  O31  1  0.49055300  0.32336800  0.67719600  1
  O  O32  1  0.41905000  0.49979900  0.08250400  1
  O  O33  1  0.50020100  0.58095000  0.41749600  1
  O  O34  1  0.58095000  0.50020100  0.91749600  1
  O  O35  1  0.49979900  0.41905000  0.58250400  1
  O  O36  1  0.45070400  0.27028100  0.14128800  1
  O  O37  1  0.72971900  0.54929600  0.35871200  1
  O  O38  1  0.54929600  0.72971900  0.85871200  1
  O  O39  1  0.27028100  0.45070400  0.64128800  1
  O  O40  1  0.13488800  0.96954700  0.17188900  1
  O  O41  1  0.03045300  0.86511200  0.32811100  1
  O  O42  1  0.86511200  0.03045300  0.82811100  1
  O  O43  1  0.96954700  0.13488800  0.67188900  1
  O  O44  1  0.08319800  0.98018700  0.07573600  1
  O  O45  1  0.01981300  0.91680200  0.42426400  1
  O  O46  1  0.91680200  0.01981300  0.92426400  1
  O  O47  1  0.98018700  0.08319800  0.57573600  1
  O  O48  1  0.03782400  0.20248200  0.12957500  1
  O  O49  1  0.79751800  0.96217600  0.37042500  1
  O  O50  1  0.96217600  0.79751800  0.87042500  1
  O  O51  1  0.20248200  0.03782400  0.62957500  1
  O  O52  1  0.47400000  0.82217900  0.16895500  1
  O  O53  1  0.17782100  0.52600000  0.33104500  1
  O  O54  1  0.52600000  0.17782100  0.83104500  1
  O  O55  1  0.82217900  0.47400000  0.66895500  1
  O  O56  1  0.47172400  0.91171700  0.07391600  1
  O  O57  1  0.08828300  0.52827600  0.42608400  1
  O  O58  1  0.52827600  0.08828300  0.92608400  1
  O  O59  1  0.91171700  0.47172400  0.57391600  1
  O  O60  1  0.70030400  0.93838000  0.12460000  1
  O  O61  1  0.06162000  0.29969600  0.37540000  1
  O  O62  1  0.29969600  0.06162000  0.87540000  1
  O  O63  1  0.93838000  0.70030400  0.62460000  1
  O  O64  1  0.00371200  0.42025300  0.91585400  1
  O  O65  1  0.57974700  0.99628800  0.58414600  1
  O  O66  1  0.99628800  0.57974700  0.08414600  1
  O  O67  1  0.42025300  0.00371200  0.41585400  1
  O  O68  1  0.22563800  0.48476300  0.85529200  1
  O  O69  1  0.51523700  0.77436200  0.64470800  1
  O  O70  1  0.77436200  0.51523700  0.14470800  1
  O  O71  1  0.48476300  0.22563800  0.35529200  1
  O  O72  1  0.00615300  0.36507600  0.82014600  1
  O  O73  1  0.63492400  0.99384700  0.67985400  1
  O  O74  1  0.99384700  0.63492400  0.17985400  1
  O  O75  1  0.36507600  0.00615300  0.32014600  1
  O  O76  1  0.78618600  0.21381400  0.25000000  1
  O  O77  1  0.21381400  0.78618600  0.75000000  1
