# generated using pymatgen
data_ZrMn2H12(O3F4)2
_symmetry_space_group_name_H-M   'P 1'
_cell_length_a   6.98812735
_cell_length_b   6.98812735
_cell_length_c   12.56163067
_cell_angle_alpha   72.65653303
_cell_angle_beta   72.65653303
_cell_angle_gamma   71.98822014
_symmetry_Int_Tables_number   1
_chemical_formula_structural   ZrMn2H12(O3F4)2
_chemical_formula_sum   'Zr2 Mn4 H24 O12 F16'
_cell_volume   542.33112780
_cell_formula_units_Z   2
loop_
 _symmetry_equiv_pos_site_id
 _symmetry_equiv_pos_as_xyz
  1  'x, y, z'
loop_
 _atom_site_type_symbol
 _atom_site_label
 _atom_site_symmetry_multiplicity
 _atom_site_fract_x
 _atom_site_fract_y
 _atom_site_fract_z
 _atom_site_occupancy
  Zr  Zr0  1  0.73303400  0.26696600  0.75000000  1
  Zr  Zr1  1  0.26696600  0.73303400  0.25000000  1
  Mn  Mn2  1  0.57149700  0.79277300  0.79024400  1
  Mn  Mn3  1  0.20722700  0.42850300  0.70975600  1
  Mn  Mn4  1  0.42850300  0.20722700  0.20975600  1
  Mn  Mn5  1  0.79277300  0.57149700  0.29024400  1
  H  H6  1  0.84950400  0.24100200  0.46797100  1
  H  H7  1  0.75899800  0.15049600  0.03202900  1
  H  H8  1  0.15049600  0.75899800  0.53202900  1
  H  H9  1  0.24100200  0.84950400  0.96797100  1
  H  H10  1  0.30262000  0.14452200  0.05343200  1
  H  H11  1  0.85547800  0.69738000  0.44656800  1
  H  H12  1  0.69738000  0.85547800  0.94656800  1
  H  H13  1  0.14452200  0.30262000  0.55343200  1
  H  H14  1  0.96089200  0.15617700  0.35499300  1
  H  H15  1  0.84382300  0.03910800  0.14500700  1
  H  H16  1  0.03910800  0.84382300  0.64500700  1
  H  H17  1  0.15617700  0.96089200  0.85499300  1
  H  H18  1  0.60721400  0.65398000  0.01297100  1
  H  H19  1  0.34602000  0.39278600  0.48702900  1
  H  H20  1  0.39278600  0.34602000  0.98702900  1
  H  H21  1  0.65398000  0.60721400  0.51297100  1
  H  H22  1  0.82950300  0.37704200  0.12485500  1
  H  H23  1  0.62295800  0.17049700  0.37514500  1
  H  H24  1  0.17049700  0.62295800  0.87514500  1
  H  H25  1  0.37704200  0.82950300  0.62485500  1
  H  H26  1  0.04760700  0.41344000  0.11305500  1
  H  H27  1  0.58656000  0.95239300  0.38694500  1
  H  H28  1  0.95239300  0.58656000  0.88694500  1
  H  H29  1  0.41344000  0.04760700  0.61305500  1
  O  O30  1  0.17030000  0.75880400  0.60748100  1
  O  O31  1  0.24119600  0.82970000  0.89251900  1
  O  O32  1  0.82970000  0.24119600  0.39251900  1
  O  O33  1  0.75880400  0.17030000  0.10748100  1
  O  O34  1  0.46919800  0.89714500  0.63958200  1
  O  O35  1  0.10285500  0.53080200  0.86041800  1
  O  O36  1  0.53080200  0.10285500  0.36041800  1
  O  O37  1  0.89714500  0.46919800  0.13958200  1
  O  O38  1  0.68310700  0.72294400  0.93788000  1
  O  O39  1  0.27705600  0.31689300  0.56212000  1
  O  O40  1  0.31689300  0.27705600  0.06212000  1
  O  O41  1  0.72294400  0.68310700  0.43788000  1
  F  F42  1  0.52442700  0.46448800  0.85921800  1
  F  F43  1  0.53551200  0.47557300  0.64078200  1
  F  F44  1  0.47557300  0.53551200  0.14078200  1
  F  F45  1  0.46448800  0.52442700  0.35921800  1
  F  F46  1  0.83703000  0.54337500  0.71287300  1
  F  F47  1  0.45662500  0.16297000  0.78712700  1
  F  F48  1  0.16297000  0.45662500  0.28712700  1
  F  F49  1  0.54337500  0.83703000  0.21287300  1
  F  F50  1  0.81811700  0.95467100  0.72615100  1
  F  F51  1  0.04532900  0.18188300  0.77384900  1
  F  F52  1  0.18188300  0.04532900  0.27384900  1
  F  F53  1  0.95467100  0.81811700  0.22615100  1
  F  F54  1  0.91104000  0.27082800  0.57867800  1
  F  F55  1  0.72917200  0.08896000  0.92132200  1
  F  F56  1  0.08896000  0.72917200  0.42132200  1
  F  F57  1  0.27082800  0.91104000  0.07867800  1
