# generated using pymatgen
data_Ca2SiO6
_symmetry_space_group_name_H-M   'P 1'
_cell_length_a   5.69938900
_cell_length_b   8.43871049
_cell_length_c   10.86750777
_cell_angle_alpha   90.17049889
_cell_angle_beta   91.22220143
_cell_angle_gamma   96.60473433
_symmetry_Int_Tables_number   1
_chemical_formula_structural   Ca2SiO6
_chemical_formula_sum   'Ca8 Si4 O24'
_cell_volume   519.08339570
_cell_formula_units_Z   4
loop_
 _symmetry_equiv_pos_site_id
 _symmetry_equiv_pos_as_xyz
  1  'x, y, z'
loop_
 _atom_site_type_symbol
 _atom_site_label
 _atom_site_symmetry_multiplicity
 _atom_site_fract_x
 _atom_site_fract_y
 _atom_site_fract_z
 _atom_site_occupancy
  Ca  Ca0  1  0.78141200  0.81870500  0.11674700  1
  Ca  Ca1  1  0.21858800  0.18129500  0.88325300  1
  Ca  Ca2  1  0.29605700  0.81490200  0.38674500  1
  Ca  Ca3  1  0.70394300  0.18509800  0.61325500  1
  Ca  Ca4  1  0.25859100  0.47953700  0.12685700  1
  Ca  Ca5  1  0.74140900  0.52046300  0.87314300  1
  Ca  Ca6  1  0.76080200  0.47881700  0.37008700  1
  Ca  Ca7  1  0.23919800  0.52118300  0.62991300  1
  Si  Si8  1  0.20119000  0.24320300  0.42962700  1
  Si  Si9  1  0.79881000  0.75679700  0.57037300  1
  Si  Si10  1  0.72303800  0.24456900  0.06418600  1
  Si  Si11  1  0.27696200  0.75543100  0.93581400  1
  O  O12  1  0.03931500  0.65796300  0.23930100  1
  O  O13  1  0.96068500  0.34203700  0.76069900  1
  O  O14  1  0.53619200  0.65446800  0.25694900  1
  O  O15  1  0.46380800  0.34553200  0.74305100  1
  O  O16  1  0.70306700  0.05388300  0.02097400  1
  O  O17  1  0.29693300  0.94611700  0.97902600  1
  O  O18  1  0.19065000  0.05204400  0.46870900  1
  O  O19  1  0.80935000  0.94795600  0.53129100  1
  O  O20  1  0.19321500  0.28294100  0.28111300  1
  O  O21  1  0.80678500  0.71705900  0.71888700  1
  O  O22  1  0.75766500  0.28609100  0.21190800  1
  O  O23  1  0.24233500  0.71390900  0.78809200  1
  O  O24  1  0.49955500  0.32963400  0.01202200  1
  O  O25  1  0.50044500  0.67036600  0.98797800  1
  O  O26  1  0.96857300  0.32871300  0.00147900  1
  O  O27  1  0.03142700  0.67128700  0.99852100  1
  O  O28  1  0.17112500  0.91942900  0.18843000  1
  O  O29  1  0.82887500  0.08057100  0.81157000  1
  O  O30  1  0.66039000  0.91319400  0.30743400  1
  O  O31  1  0.33961000  0.08680600  0.69256600  1
  O  O32  1  0.00482500  0.67110600  0.50214700  1
  O  O33  1  0.99517500  0.32889400  0.49785300  1
  O  O34  1  0.46363500  0.32436600  0.47554700  1
  O  O35  1  0.53636500  0.67563400  0.52445300  1
