# generated using pymatgen
data_MoCl2O3
_symmetry_space_group_name_H-M   'P 1'
_cell_length_a   7.39447900
_cell_length_b   9.49270300
_cell_length_c   15.64084900
_cell_angle_alpha   90.00000000
_cell_angle_beta   90.00000000
_cell_angle_gamma   90.00000000
_symmetry_Int_Tables_number   1
_chemical_formula_structural   MoCl2O3
_chemical_formula_sum   'Mo8 Cl16 O24'
_cell_volume   1097.88738867
_cell_formula_units_Z   8
loop_
 _symmetry_equiv_pos_site_id
 _symmetry_equiv_pos_as_xyz
  1  'x, y, z'
loop_
 _atom_site_type_symbol
 _atom_site_label
 _atom_site_symmetry_multiplicity
 _atom_site_fract_x
 _atom_site_fract_y
 _atom_site_fract_z
 _atom_site_occupancy
  Mo  Mo0  1  0.20665000  0.25000000  0.29568100  1
  Mo  Mo1  1  0.29335000  0.25000000  0.79568100  1
  Mo  Mo2  1  0.79335000  0.75000000  0.70431900  1
  Mo  Mo3  1  0.70665000  0.75000000  0.20431900  1
  Mo  Mo4  1  0.20053100  0.25000000  0.04472600  1
  Mo  Mo5  1  0.29946900  0.25000000  0.54472600  1
  Mo  Mo6  1  0.79946900  0.75000000  0.95527400  1
  Mo  Mo7  1  0.70053100  0.75000000  0.45527400  1
  Cl  Cl8  1  0.28057200  0.48784700  0.31551700  1
  Cl  Cl9  1  0.21942800  0.01215300  0.81551700  1
  Cl  Cl10  1  0.71942800  0.98784700  0.68448300  1
  Cl  Cl11  1  0.78057200  0.51215300  0.18448300  1
  Cl  Cl12  1  0.71942800  0.51215300  0.68448300  1
  Cl  Cl13  1  0.78057200  0.98784700  0.18448300  1
  Cl  Cl14  1  0.28057200  0.01215300  0.31551700  1
  Cl  Cl15  1  0.21942800  0.48784700  0.81551700  1
  Cl  Cl16  1  0.27415000  0.48750000  0.06666600  1
  Cl  Cl17  1  0.22585000  0.01250000  0.56666600  1
  Cl  Cl18  1  0.72585000  0.98750000  0.93333400  1
  Cl  Cl19  1  0.77415000  0.51250000  0.43333400  1
  Cl  Cl20  1  0.72585000  0.51250000  0.93333400  1
  Cl  Cl21  1  0.77415000  0.98750000  0.43333400  1
  Cl  Cl22  1  0.27415000  0.01250000  0.06666600  1
  Cl  Cl23  1  0.22585000  0.48750000  0.56666600  1
  O  O24  1  0.50547300  0.25000000  0.30699000  1
  O  O25  1  0.99452700  0.25000000  0.80699000  1
  O  O26  1  0.49452700  0.75000000  0.69301000  1
  O  O27  1  0.00547300  0.75000000  0.19301000  1
  O  O28  1  0.49882600  0.25000000  0.06463300  1
  O  O29  1  0.00117400  0.25000000  0.56463300  1
  O  O30  1  0.50117400  0.75000000  0.93536700  1
  O  O31  1  0.99882600  0.75000000  0.43536700  1
  O  O32  1  0.97715300  0.25000000  0.31086100  1
  O  O33  1  0.52284700  0.25000000  0.81086100  1
  O  O34  1  0.02284700  0.75000000  0.68913900  1
  O  O35  1  0.47715300  0.75000000  0.18913900  1
  O  O36  1  0.96972200  0.25000000  0.05430300  1
  O  O37  1  0.53027800  0.25000000  0.55430300  1
  O  O38  1  0.03027800  0.75000000  0.94569700  1
  O  O39  1  0.46972200  0.75000000  0.44569700  1
  O  O40  1  0.23769700  0.25000000  0.18152700  1
  O  O41  1  0.26230300  0.25000000  0.68152700  1
  O  O42  1  0.76230300  0.75000000  0.81847300  1
  O  O43  1  0.73769700  0.75000000  0.31847300  1
  O  O44  1  0.24083300  0.25000000  0.93143000  1
  O  O45  1  0.25916700  0.25000000  0.43143000  1
  O  O46  1  0.75916700  0.75000000  0.06857000  1
  O  O47  1  0.74083300  0.75000000  0.56857000  1
