# generated using pymatgen
data_KV2(PO5)3
_symmetry_space_group_name_H-M   'P 1'
_cell_length_a   10.22070200
_cell_length_b   6.35994300
_cell_length_c   18.59756945
_cell_angle_alpha   75.85656040
_cell_angle_beta   90.00000000
_cell_angle_gamma   90.00000000
_symmetry_Int_Tables_number   1
_chemical_formula_structural   KV2(PO5)3
_chemical_formula_sum   'K4 V8 P12 O60'
_cell_volume   1172.25401276
_cell_formula_units_Z   4
loop_
 _symmetry_equiv_pos_site_id
 _symmetry_equiv_pos_as_xyz
  1  'x, y, z'
loop_
 _atom_site_type_symbol
 _atom_site_label
 _atom_site_symmetry_multiplicity
 _atom_site_fract_x
 _atom_site_fract_y
 _atom_site_fract_z
 _atom_site_occupancy
  K  K0  1  0.59068300  0.74523300  0.34080700  1
  K  K1  1  0.90931700  0.74523300  0.84080700  1
  K  K2  1  0.40931700  0.25476700  0.65919300  1
  K  K3  1  0.09068300  0.25476700  0.15919300  1
  V  V4  1  0.64083500  0.61588400  0.15060500  1
  V  V5  1  0.85916500  0.61588400  0.65060500  1
  V  V6  1  0.35916500  0.38411600  0.84939500  1
  V  V7  1  0.14083500  0.38411600  0.34939500  1
  V  V8  1  0.78350700  0.16151100  0.97737900  1
  V  V9  1  0.71649300  0.16151100  0.47737900  1
  V  V10  1  0.21649300  0.83848900  0.02262100  1
  V  V11  1  0.28350700  0.83848900  0.52262100  1
  P  P12  1  0.83212300  0.35846000  0.31302000  1
  P  P13  1  0.66787700  0.35846000  0.81302000  1
  P  P14  1  0.16787700  0.64154000  0.68698000  1
  P  P15  1  0.33212300  0.64154000  0.18698000  1
  P  P16  1  0.59719700  0.12991300  0.12597900  1
  P  P17  1  0.90280300  0.12991300  0.62597900  1
  P  P18  1  0.40280300  0.87008700  0.87402100  1
  P  P19  1  0.09719700  0.87008700  0.37402100  1
  P  P20  1  0.93433300  0.82929000  0.11380400  1
  P  P21  1  0.56566700  0.82929000  0.61380400  1
  P  P22  1  0.06566700  0.17071000  0.88619600  1
  P  P23  1  0.43433300  0.17071000  0.38619600  1
  O  O24  1  0.97828400  0.42336500  0.29583300  1
  O  O25  1  0.52171600  0.42336500  0.79583300  1
  O  O26  1  0.02171600  0.57663500  0.70416700  1
  O  O27  1  0.47828400  0.57663500  0.20416700  1
  O  O28  1  0.80800900  0.13411000  0.29696900  1
  O  O29  1  0.69199100  0.13411000  0.79696900  1
  O  O30  1  0.19199100  0.86589000  0.70303100  1
  O  O31  1  0.30800900  0.86589000  0.20303100  1
  O  O32  1  0.80688000  0.34835200  0.39758800  1
  O  O33  1  0.69312000  0.34835200  0.89758800  1
  O  O34  1  0.19312000  0.65164800  0.60241200  1
  O  O35  1  0.30688000  0.65164800  0.10241200  1
  O  O36  1  0.73871900  0.52144900  0.26591700  1
  O  O37  1  0.76128100  0.52144900  0.76591700  1
  O  O38  1  0.26128100  0.47855100  0.73408300  1
  O  O39  1  0.23871900  0.47855100  0.23408300  1
  O  O40  1  0.58101100  0.68165400  0.06858700  1
  O  O41  1  0.91898900  0.68165400  0.56858700  1
  O  O42  1  0.41898900  0.31834600  0.93141300  1
  O  O43  1  0.08101100  0.31834600  0.43141300  1
  O  O44  1  0.64520400  0.90534500  0.17176900  1
  O  O45  1  0.85479600  0.90534500  0.67176900  1
  O  O46  1  0.35479600  0.09465500  0.82823100  1
  O  O47  1  0.14520400  0.09465500  0.32823100  1
  O  O48  1  0.44735400  0.15140400  0.12651300  1
  O  O49  1  0.05264600  0.15140400  0.62651300  1
  O  O50  1  0.55264600  0.84859600  0.87348700  1
  O  O51  1  0.94735400  0.84859600  0.37348700  1
  O  O52  1  0.65800000  0.30816900  0.15986900  1
  O  O53  1  0.84200000  0.30816900  0.65986900  1
  O  O54  1  0.34200000  0.69183100  0.84013100  1
  O  O55  1  0.15800000  0.69183100  0.34013100  1
  O  O56  1  0.64581400  0.16387600  0.04433800  1
  O  O57  1  0.85418600  0.16387600  0.54433800  1
  O  O58  1  0.35418600  0.83612400  0.95566200  1
  O  O59  1  0.14581400  0.83612400  0.45566200  1
  O  O60  1  0.85245800  0.47833100  0.99016500  1
  O  O61  1  0.64754200  0.47833100  0.49016500  1
  O  O62  1  0.14754200  0.52166900  0.00983500  1
  O  O63  1  0.35245800  0.52166900  0.50983500  1
  O  O64  1  0.77359000  0.93535200  0.95308200  1
  O  O65  1  0.72641000  0.93535200  0.45308200  1
  O  O66  1  0.22641000  0.06464800  0.04691800  1
  O  O67  1  0.27359000  0.06464800  0.54691800  1
  O  O68  1  0.89769500  0.05607000  0.06320400  1
  O  O69  1  0.60230500  0.05607000  0.56320400  1
  O  O70  1  0.10230500  0.94393000  0.93679600  1
  O  O71  1  0.39769500  0.94393000  0.43679600  1
  O  O72  1  0.05309400  0.73505200  0.07775900  1
  O  O73  1  0.44690600  0.73505200  0.57775900  1
  O  O74  1  0.94690600  0.26494800  0.92224100  1
  O  O75  1  0.55309400  0.26494800  0.42224100  1
  O  O76  1  0.98186200  0.86282000  0.18749600  1
  O  O77  1  0.51813800  0.86282000  0.68749600  1
  O  O78  1  0.01813800  0.13718000  0.81250400  1
  O  O79  1  0.48186200  0.13718000  0.31250400  1
  O  O80  1  0.82364300  0.66161100  0.11925000  1
  O  O81  1  0.67635700  0.66161100  0.61925000  1
  O  O82  1  0.17635700  0.33838900  0.88075000  1
  O  O83  1  0.32364300  0.33838900  0.38075000  1
