# generated using pymatgen
data_KNa3Al12Si12(HO6)8
_symmetry_space_group_name_H-M   'P 1'
_cell_length_a   9.00300953
_cell_length_b   10.38825231
_cell_length_c   19.62421862
_cell_angle_alpha   94.28169515
_cell_angle_beta   90.00000457
_cell_angle_gamma   90.00001909
_symmetry_Int_Tables_number   1
_chemical_formula_structural   KNa3Al12Si12(HO6)8
_chemical_formula_sum   'K2 Na6 Al24 Si24 H16 O96'
_cell_volume   1830.24309889
_cell_formula_units_Z   2
loop_
 _symmetry_equiv_pos_site_id
 _symmetry_equiv_pos_as_xyz
  1  'x, y, z'
loop_
 _atom_site_type_symbol
 _atom_site_label
 _atom_site_symmetry_multiplicity
 _atom_site_fract_x
 _atom_site_fract_y
 _atom_site_fract_z
 _atom_site_occupancy
  K  K0  1  0.60349117  0.75000771  0.24999064  1
  K  K1  1  0.39650329  0.25000664  0.74998873  1
  Na  Na2  1  0.87863003  0.00150488  0.74935875  1
  Na  Na3  1  0.12137132  0.99851806  0.25063059  1
  Na  Na4  1  0.42337001  0.74999938  0.74998906  1
  Na  Na5  1  0.87862232  0.49851558  0.75063068  1
  Na  Na6  1  0.12137209  0.50150299  0.24936065  1
  Na  Na7  1  0.57662588  0.25000055  0.24999048  1
  Al  Al8  1  0.41566086  0.62714088  0.00096722  1
  Al  Al9  1  0.41568497  0.87285777  0.49901559  1
  Al  Al10  1  0.58488537  0.87393790  0.99922191  1
  Al  Al11  1  0.58490981  0.62606858  0.50076164  1
  Al  Al12  1  0.74130938  0.77394690  0.85919633  1
  Al  Al13  1  0.91433414  0.87580054  0.99826501  1
  Al  Al14  1  0.74132960  0.72606191  0.64078336  1
  Al  Al15  1  0.91435924  0.62422392  0.50170921  1
  Al  Al16  1  0.25944677  0.72747637  0.14051956  1
  Al  Al17  1  0.08569750  0.62491670  0.00097683  1
  Al  Al18  1  0.25946827  0.77253063  0.35945901  1
  Al  Al19  1  0.08573658  0.87510596  0.49899819  1
  Al  Al20  1  0.41508089  0.12607011  0.00076243  1
  Al  Al21  1  0.41510684  0.37393619  0.49922283  1
  Al  Al22  1  0.58430852  0.37285786  0.99901512  1
  Al  Al23  1  0.58433488  0.12714148  0.50096862  1
  Al  Al24  1  0.74052839  0.27252891  0.85945831  1
  Al  Al25  1  0.91425444  0.37510931  0.99899634  1
  Al  Al26  1  0.74054702  0.22747366  0.64052067  1
  Al  Al27  1  0.91429148  0.12491412  0.50097563  1
  Al  Al28  1  0.25866377  0.22606230  0.14078260  1
  Al  Al29  1  0.08563195  0.12422592  0.00170830  1
  Al  Al30  1  0.25868684  0.27394657  0.35919790  1
  Al  Al31  1  0.08565661  0.37579977  0.49826791  1
  Si  Si32  1  0.24360820  0.53332552  0.86078875  1
  Si  Si33  1  0.57115343  0.51599924  0.85960927  1
  Si  Si34  1  0.24362738  0.96668931  0.63918731  1
  Si  Si35  1  0.57117307  0.98400198  0.64037693  1
  Si  Si36  1  0.75703185  0.96991067  0.13860595  1
  Si  Si37  1  0.42935206  0.98676370  0.14053423  1
  Si  Si38  1  0.75705131  0.53010268  0.36137382  1
  Si  Si39  1  0.42937461  0.51324301  0.35944931  1
  Si  Si40  1  0.06982092  0.77670125  0.85895290  1
  Si  Si41  1  0.06983710  0.72331480  0.64102273  1
  Si  Si42  1  0.92950744  0.72317502  0.13956571  1
  Si  Si43  1  0.92952666  0.77683499  0.36040722  1
  Si  Si44  1  0.24294477  0.03010479  0.86137640  1
  Si  Si45  1  0.57062188  0.01324119  0.85944882  1
  Si  Si46  1  0.24295886  0.46991112  0.63860543  1
  Si  Si47  1  0.57063974  0.48676143  0.64053493  1
  Si  Si48  1  0.75636408  0.46668928  0.13918643  1
  Si  Si49  1  0.42882007  0.48400573  0.14037534  1
  Si  Si50  1  0.75638695  0.03332425  0.36078956  1
  Si  Si51  1  0.42884235  0.01600066  0.35961069  1
  Si  Si52  1  0.07046917  0.27683795  0.86040720  1
  Si  Si53  1  0.07048304  0.22317526  0.63956714  1
  Si  Si54  1  0.93015298  0.22331397  0.14102132  1
  Si  Si55  1  0.93017557  0.27669936  0.35895412  1
  H  H56  1  0.85461621  0.56388591  0.92916815  1
  H  H57  1  0.85468062  0.93615828  0.57082304  1
  H  H58  1  0.14829814  0.93226530  0.06729254  1
  H  H59  1  0.14831775  0.56775918  0.43266875  1
  H  H60  1  0.34227531  0.82197595  0.94397371  1
  H  H61  1  0.34230044  0.67802237  0.55600440  1
  H  H62  1  0.65936135  0.67814931  0.05525473  1
  H  H63  1  0.65939829  0.82185864  0.44474460  1
  H  H64  1  0.85167695  0.06775473  0.93266054  1
  H  H65  1  0.85169770  0.43226688  0.56730136  1
  H  H66  1  0.14531061  0.43616215  0.07082307  1
  H  H67  1  0.14537585  0.06388314  0.42916435  1
  H  H68  1  0.34059107  0.32186048  0.94474609  1
  H  H69  1  0.34062734  0.17814173  0.55524651  1
  H  H70  1  0.65768997  0.17802148  0.05600018  1
  H  H71  1  0.65771266  0.32197705  0.44397459  1
  O  O72  1  0.60380680  0.86889005  0.82432342  1
  O  O73  1  0.70404958  0.61052176  0.83714120  1
  O  O74  1  0.40806162  0.56064838  0.82779509  1
  O  O75  1  0.94073893  0.52460199  0.94912696  1
  O  O76  1  0.24892955  0.55802407  0.94362710  1
  O  O77  1  0.55230291  0.52018334  0.94367311  1
  O  O78  1  0.60383790  0.63110949  0.67566200  1
  O  O79  1  0.70406739  0.88948483  0.66285003  1
  O  O80  1  0.40807325  0.93936483  0.67218557  1
  O  O81  1  0.94079785  0.97543429  0.55084793  1
  O  O82  1  0.24896548  0.94198681  0.55634698  1
  O  O83  1  0.55232871  0.97981721  0.55631288  1
  O  O84  1  0.39267074  0.62769806  0.17442294  1
  O  O85  1  0.29841683  0.89083090  0.16351651  1
  O  O86  1  0.59290511  0.94503350  0.17096541  1
  O  O87  1  0.05997922  0.97365342  0.05075034  1
  O  O88  1  0.75223400  0.94548198  0.05577184  1
  O  O89  1  0.44672348  0.98059748  0.05636576  1
  O  O90  1  0.39269426  0.87231221  0.32556019  1
  O  O91  1  0.29843801  0.60917292  0.33646827  1
  O  O92  1  0.59291898  0.55497903  0.32901729  1
  O  O93  1  0.06000292  0.52637246  0.44922565  1
  O  O94  1  0.75226098  0.55453544  0.44420882  1
  O  O95  1  0.44675114  0.51941031  0.44361904  1
  O  O96  1  0.12717373  0.63239970  0.82680277  1
  O  O97  1  0.19798560  0.88036291  0.83690807  1
  O  O98  1  0.91481753  0.81276081  0.82369927  1
  O  O99  1  0.43445821  0.77578944  0.94976578  1
  O  O100  1  0.74960794  0.81239527  0.94788648  1
  O  O101  1  0.05582921  0.77158127  0.94250273  1
  O  O102  1  0.12718345  0.86761865  0.67316995  1
  O  O103  1  0.19800392  0.61965803  0.66307165  1
  O  O104  1  0.91484062  0.68724816  0.67627867  1
  O  O105  1  0.43447609  0.72421193  0.55021908  1
  O  O106  1  0.74963178  0.68761796  0.55209351  1
  O  O107  1  0.05584750  0.72843947  0.55747217  1
  O  O108  1  0.86964425  0.86674755  0.17218231  1
  O  O109  1  0.80374853  0.61688211  0.16136491  1
  O  O110  1  0.08470159  0.69011862  0.17545121  1
  O  O111  1  0.56720170  0.72490989  0.05058333  1
  O  O112  1  0.25025876  0.68961220  0.05170020  1
  O  O113  1  0.94288958  0.72878776  0.05615146  1
  O  O114  1  0.86965943  0.63326313  0.32779535  1
  O  O115  1  0.80377815  0.88313471  0.33860306  1
  O  O116  1  0.08472538  0.80987726  0.32452278  1
  O  O117  1  0.56723376  0.77509647  0.44940810  1
  O  O118  1  0.25028648  0.81039295  0.44827911  1
  O  O119  1  0.94291531  0.77123975  0.44382322  1
  O  O120  1  0.60730271  0.37231168  0.82555942  1
  O  O121  1  0.70155972  0.10916968  0.83647003  1
  O  O122  1  0.40707565  0.05498119  0.82901777  1
  O  O123  1  0.93999074  0.02636976  0.94922557  1
  O  O124  1  0.24773386  0.05453708  0.94420691  1
  O  O125  1  0.55324223  0.01940895  0.94361791  1
  O  O126  1  0.60732748  0.12769644  0.67442491  1
  O  O127  1  0.70157328  0.39082918  0.66351550  1
  O  O128  1  0.40708823  0.44503162  0.67096636  1
  O  O129  1  0.94001356  0.47365277  0.55075210  1
  O  O130  1  0.24775763  0.44548334  0.55577310  1
  O  O131  1  0.55326938  0.48059406  0.55636514  1
  O  O132  1  0.39615799  0.13111120  0.17566072  1
  O  O133  1  0.29592706  0.38948439  0.16284935  1
  O  O134  1  0.59191811  0.43936289  0.17218303  1
  O  O135  1  0.05918988  0.47543904  0.05084663  1
  O  O136  1  0.75102706  0.44198639  0.05634681  1
  O  O137  1  0.44766548  0.47981613  0.05631106  1
  O  O138  1  0.39618553  0.36889151  0.32432470  1
  O  O139  1  0.29594237  0.11052107  0.33714275  1
  O  O140  1  0.59193326  0.06064907  0.32779685  1
  O  O141  1  0.05924774  0.02459793  0.44912924  1
  O  O142  1  0.75106303  0.05802302  0.44362755  1
  O  O143  1  0.44769805  0.02018374  0.44367435  1
  O  O144  1  0.13033478  0.13326661  0.82779571  1
  O  O145  1  0.19621681  0.38313343  0.83860121  1
  O  O146  1  0.91526941  0.30987533  0.82452110  1
  O  O147  1  0.43275318  0.27509817  0.94940662  1
  O  O148  1  0.74970737  0.31039545  0.94827703  1
  O  O149  1  0.05707878  0.27123950  0.94382264  1
  O  O150  1  0.13034669  0.36674955  0.67218301  1
  O  O151  1  0.19624397  0.11688241  0.66136566  1
  O  O152  1  0.91529303  0.19011747  0.67545280  1
  O  O153  1  0.43278629  0.22490789  0.55058134  1
  O  O154  1  0.74973308  0.18960959  0.55170034  1
  O  O155  1  0.05709980  0.22878694  0.55615232  1
  O  O156  1  0.87280776  0.36761767  0.17316915  1
  O  O157  1  0.80198950  0.11965725  0.16307224  1
  O  O158  1  0.08515423  0.18724755  0.17627782  1
  O  O159  1  0.56551880  0.22421098  0.05021797  1
  O  O160  1  0.25035904  0.18762099  0.05209373  1
  O  O161  1  0.94414324  0.22844106  0.05747238  1
  O  O162  1  0.87282354  0.13239759  0.32680463  1
  O  O163  1  0.80201221  0.38036205  0.33690808  1
  O  O164  1  0.08517852  0.31276037  0.32370101  1
  O  O165  1  0.56553921  0.27579353  0.44976529  1
  O  O166  1  0.25038181  0.31239402  0.44788818  1
  O  O167  1  0.94416078  0.27158192  0.44250429  1
