# generated using pymatgen
data_Mg5(Si4O15)2
_symmetry_space_group_name_H-M   'P 1'
_cell_length_a   5.28147500
_cell_length_b   13.42337500
_cell_length_c   18.47089000
_cell_angle_alpha   90.00000000
_cell_angle_beta   90.00000000
_cell_angle_gamma   90.00000000
_symmetry_Int_Tables_number   1
_chemical_formula_structural   Mg5(Si4O15)2
_chemical_formula_sum   'Mg10 Si16 O60'
_cell_volume   1309.49780051
_cell_formula_units_Z   2
loop_
 _symmetry_equiv_pos_site_id
 _symmetry_equiv_pos_as_xyz
  1  'x, y, z'
loop_
 _atom_site_type_symbol
 _atom_site_label
 _atom_site_symmetry_multiplicity
 _atom_site_fract_x
 _atom_site_fract_y
 _atom_site_fract_z
 _atom_site_occupancy
  Mg  Mg0  1  0.00000000  0.50000000  0.50000000  1
  Mg  Mg1  1  0.00000000  0.00000000  0.00000000  1
  Mg  Mg2  1  0.50000000  0.50000000  0.60160200  1
  Mg  Mg3  1  0.50000000  0.00000000  0.89839800  1
  Mg  Mg4  1  0.50000000  0.50000000  0.39839800  1
  Mg  Mg5  1  0.50000000  0.00000000  0.10160200  1
  Mg  Mg6  1  0.00000000  0.50000000  0.66660100  1
  Mg  Mg7  1  0.00000000  0.00000000  0.83339900  1
  Mg  Mg8  1  0.00000000  0.50000000  0.33339900  1
  Mg  Mg9  1  0.00000000  0.00000000  0.16660100  1
  Si  Si10  1  0.82541100  0.29066300  0.58441600  1
  Si  Si11  1  0.17458900  0.70933700  0.58441600  1
  Si  Si12  1  0.82541100  0.20933700  0.91558400  1
  Si  Si13  1  0.17458900  0.79066300  0.91558400  1
  Si  Si14  1  0.17458900  0.70933700  0.41558400  1
  Si  Si15  1  0.82541100  0.29066300  0.41558400  1
  Si  Si16  1  0.17458900  0.79066300  0.08441600  1
  Si  Si17  1  0.82541100  0.20933700  0.08441600  1
  Si  Si18  1  0.31662300  0.28926900  0.66710600  1
  Si  Si19  1  0.68337700  0.71073100  0.66710600  1
  Si  Si20  1  0.31662300  0.21073100  0.83289400  1
  Si  Si21  1  0.68337700  0.78926900  0.83289400  1
  Si  Si22  1  0.68337700  0.71073100  0.33289400  1
  Si  Si23  1  0.31662300  0.28926900  0.33289400  1
  Si  Si24  1  0.68337700  0.78926900  0.16710600  1
  Si  Si25  1  0.31662300  0.21073100  0.16710600  1
  O  O26  1  0.40928400  0.45466700  0.50000000  1
  O  O27  1  0.59071600  0.54533300  0.50000000  1
  O  O28  1  0.40928400  0.04533300  0.00000000  1
  O  O29  1  0.59071600  0.95466700  0.00000000  1
  O  O30  1  0.84015400  0.41328500  0.58879900  1
  O  O31  1  0.15984600  0.58671500  0.58879900  1
  O  O32  1  0.84015400  0.08671500  0.91120100  1
  O  O33  1  0.15984600  0.91328500  0.91120100  1
  O  O34  1  0.15984600  0.58671500  0.41120100  1
  O  O35  1  0.84015400  0.41328500  0.41120100  1
  O  O36  1  0.15984600  0.91328500  0.08879900  1
  O  O37  1  0.84015400  0.08671500  0.08879900  1
  O  O38  1  0.29863700  0.41033900  0.66590400  1
  O  O39  1  0.70136300  0.58966100  0.66590400  1
  O  O40  1  0.29863700  0.08966100  0.83409600  1
  O  O41  1  0.70136300  0.91033900  0.83409600  1
  O  O42  1  0.70136300  0.58966100  0.33409600  1
  O  O43  1  0.29863700  0.41033900  0.33409600  1
  O  O44  1  0.70136300  0.91033900  0.16590400  1
  O  O45  1  0.29863700  0.08966100  0.16590400  1
  O  O46  1  0.68563200  0.46059700  0.77848700  1
  O  O47  1  0.31436800  0.53940300  0.77848700  1
  O  O48  1  0.68563200  0.03940300  0.72151300  1
  O  O49  1  0.31436800  0.96059700  0.72151300  1
  O  O50  1  0.31436800  0.53940300  0.22151300  1
  O  O51  1  0.68563200  0.46059700  0.22151300  1
  O  O52  1  0.31436800  0.96059700  0.27848700  1
  O  O53  1  0.68563200  0.03940300  0.27848700  1
  O  O54  1  0.83092200  0.25470200  0.50000000  1
  O  O55  1  0.16907800  0.74529800  0.50000000  1
  O  O56  1  0.83092200  0.24529800  0.00000000  1
  O  O57  1  0.16907800  0.75470200  0.00000000  1
  O  O58  1  0.32658000  0.25000000  0.75000000  1
  O  O59  1  0.67342000  0.75000000  0.75000000  1
  O  O60  1  0.67342000  0.75000000  0.25000000  1
  O  O61  1  0.32658000  0.25000000  0.25000000  1
  O  O62  1  0.56903900  0.25087800  0.62417600  1
  O  O63  1  0.43096100  0.74912200  0.62417600  1
  O  O64  1  0.56903900  0.24912200  0.87582400  1
  O  O65  1  0.43096100  0.75087800  0.87582400  1
  O  O66  1  0.43096100  0.74912200  0.37582400  1
  O  O67  1  0.56903900  0.25087800  0.37582400  1
  O  O68  1  0.43096100  0.75087800  0.12417600  1
  O  O69  1  0.56903900  0.24912200  0.12417600  1
  O  O70  1  0.06757600  0.24170800  0.62678700  1
  O  O71  1  0.93242400  0.75829200  0.62678700  1
  O  O72  1  0.06757600  0.25829200  0.87321300  1
  O  O73  1  0.93242400  0.74170800  0.87321300  1
  O  O74  1  0.93242400  0.75829200  0.37321300  1
  O  O75  1  0.06757600  0.24170800  0.37321300  1
  O  O76  1  0.93242400  0.74170800  0.12678700  1
  O  O77  1  0.06757600  0.25829200  0.12678700  1
  O  O78  1  0.50000000  0.50000000  0.81443100  1
  O  O79  1  0.50000000  0.00000000  0.68556900  1
  O  O80  1  0.50000000  0.50000000  0.18556900  1
  O  O81  1  0.50000000  0.00000000  0.31443100  1
  O  O82  1  0.00000000  0.50000000  0.90202100  1
  O  O83  1  0.00000000  0.00000000  0.59797900  1
  O  O84  1  0.00000000  0.50000000  0.09797900  1
  O  O85  1  0.00000000  0.00000000  0.40202100  1
