# generated using pymatgen
data_NaB6S4(I3O4)2
_symmetry_space_group_name_H-M   'P 1'
_cell_length_a   11.79657519
_cell_length_b   20.44207904
_cell_length_c   20.74378771
_cell_angle_alpha   90.00000000
_cell_angle_beta   90.00000000
_cell_angle_gamma   90.00000000
_symmetry_Int_Tables_number   1
_chemical_formula_structural   NaB6S4(I3O4)2
_chemical_formula_sum   'Na8 B48 S32 I48 O64'
_cell_volume   5002.29226840
_cell_formula_units_Z   8
loop_
 _symmetry_equiv_pos_site_id
 _symmetry_equiv_pos_as_xyz
  1  'x, y, z'
loop_
 _atom_site_type_symbol
 _atom_site_label
 _atom_site_symmetry_multiplicity
 _atom_site_fract_x
 _atom_site_fract_y
 _atom_site_fract_z
 _atom_site_occupancy
  Na  Na0  1  0.68955555  0.02132812  0.10893475  1
  Na  Na1  1  0.81044445  0.52132812  0.39106525  1
  Na  Na2  1  0.31044445  0.97867188  0.60893475  1
  Na  Na3  1  0.18955555  0.47867188  0.89106525  1
  Na  Na4  1  0.31044445  0.97867188  0.89106525  1
  Na  Na5  1  0.18955555  0.47867188  0.60893475  1
  Na  Na6  1  0.68955555  0.02132812  0.39106525  1
  Na  Na7  1  0.81044445  0.52132812  0.10893475  1
  B  B8  1  0.10688157  0.71330867  0.17962671  1
  B  B9  1  0.39311843  0.21330867  0.32037329  1
  B  B10  1  0.89311843  0.28669133  0.67962671  1
  B  B11  1  0.60688157  0.78669133  0.82037329  1
  B  B12  1  0.89311843  0.28669133  0.82037329  1
  B  B13  1  0.60688157  0.78669133  0.67962671  1
  B  B14  1  0.10688157  0.71330867  0.32037329  1
  B  B15  1  0.39311843  0.21330867  0.17962671  1
  B  B16  1  0.09696133  0.66229612  0.25000000  1
  B  B17  1  0.40303867  0.16229612  0.25000000  1
  B  B18  1  0.90303867  0.33770388  0.75000000  1
  B  B19  1  0.59696133  0.83770388  0.75000000  1
  B  B20  1  0.22820096  0.66803424  0.20665187  1
  B  B21  1  0.27179904  0.16803424  0.29334813  1
  B  B22  1  0.77179904  0.33196576  0.70665187  1
  B  B23  1  0.72820096  0.83196576  0.79334813  1
  B  B24  1  0.77179904  0.33196576  0.79334813  1
  B  B25  1  0.72820096  0.83196576  0.70665187  1
  B  B26  1  0.22820096  0.66803424  0.29334813  1
  B  B27  1  0.27179904  0.16803424  0.20665187  1
  B  B28  1  0.24420834  0.75102591  0.18003949  1
  B  B29  1  0.25579166  0.25102591  0.31996051  1
  B  B30  1  0.75579166  0.24897409  0.68003949  1
  B  B31  1  0.74420834  0.74897409  0.81996051  1
  B  B32  1  0.75579166  0.24897409  0.81996051  1
  B  B33  1  0.74420834  0.74897409  0.68003949  1
  B  B34  1  0.24420834  0.75102591  0.31996051  1
  B  B35  1  0.25579166  0.25102591  0.18003949  1
  B  B36  1  0.12232715  0.79608635  0.20667967  1
  B  B37  1  0.37767285  0.29608635  0.29332033  1
  B  B38  1  0.87767285  0.20391365  0.70667967  1
  B  B39  1  0.62232715  0.70391365  0.79332033  1
  B  B40  1  0.87767285  0.20391365  0.79332033  1
  B  B41  1  0.62232715  0.70391365  0.70667967  1
  B  B42  1  0.12232715  0.79608635  0.29332033  1
  B  B43  1  0.37767285  0.29608635  0.20667967  1
  B  B44  1  0.03152059  0.74128807  0.25000000  1
  B  B45  1  0.46847941  0.24128807  0.25000000  1
  B  B46  1  0.96847941  0.25871193  0.75000000  1
  B  B47  1  0.53152059  0.75871193  0.75000000  1
  B  B48  1  0.31923359  0.72291155  0.25000000  1
  B  B49  1  0.18076641  0.22291155  0.25000000  1
  B  B50  1  0.68076641  0.27708845  0.75000000  1
  B  B51  1  0.81923359  0.77708845  0.75000000  1
  B  B52  1  0.25367657  0.80204929  0.25000000  1
  B  B53  1  0.24632343  0.30204929  0.25000000  1
  B  B54  1  0.74632343  0.19795071  0.75000000  1
  B  B55  1  0.75367657  0.69795071  0.75000000  1
  S  S56  1  0.88247356  0.15830759  0.06045381  1
  S  S57  1  0.61752644  0.65830759  0.43954619  1
  S  S58  1  0.11752644  0.84169241  0.56045381  1
  S  S59  1  0.38247356  0.34169241  0.93954619  1
  S  S60  1  0.11752644  0.84169241  0.93954619  1
  S  S61  1  0.38247356  0.34169241  0.56045381  1
  S  S62  1  0.88247356  0.15830759  0.43954619  1
  S  S63  1  0.61752644  0.65830759  0.06045381  1
  S  S64  1  0.70931991  0.35741410  0.04727989  1
  S  S65  1  0.79068009  0.85741410  0.45272011  1
  S  S66  1  0.29068009  0.64258590  0.54727989  1
  S  S67  1  0.20931991  0.14258590  0.95272011  1
  S  S68  1  0.29068009  0.64258590  0.95272011  1
  S  S69  1  0.20931991  0.14258590  0.54727989  1
  S  S70  1  0.70931991  0.35741410  0.45272011  1
  S  S71  1  0.79068009  0.85741410  0.04727989  1
  S  S72  1  0.37646785  0.95587496  0.07534159  1
  S  S73  1  0.12353215  0.45587496  0.42465841  1
  S  S74  1  0.62353215  0.04412504  0.57534159  1
  S  S75  1  0.87646785  0.54412504  0.92465841  1
  S  S76  1  0.62353215  0.04412504  0.92465841  1
  S  S77  1  0.87646785  0.54412504  0.57534159  1
  S  S78  1  0.37646785  0.95587496  0.42465841  1
  S  S79  1  0.12353215  0.45587496  0.07534159  1
  S  S80  1  0.92175175  0.03061460  0.25000000  1
  S  S81  1  0.57824825  0.53061460  0.25000000  1
  S  S82  1  0.07824825  0.96938540  0.75000000  1
  S  S83  1  0.42175175  0.46938540  0.75000000  1
  S  S84  1  0.84895091  0.39012648  0.25000000  1
  S  S85  1  0.65104909  0.89012648  0.25000000  1
  S  S86  1  0.15104909  0.60987352  0.75000000  1
  S  S87  1  0.34895091  0.10987352  0.75000000  1
  I  I88  1  0.02174774  0.68893824  0.08975083  1
  I  I89  1  0.47825226  0.18893824  0.41024917  1
  I  I90  1  0.97825226  0.31106176  0.58975083  1
  I  I91  1  0.52174774  0.81106176  0.91024917  1
  I  I92  1  0.97825226  0.31106176  0.91024917  1
  I  I93  1  0.52174774  0.81106176  0.58975083  1
  I  I94  1  0.02174774  0.68893824  0.41024917  1
  I  I95  1  0.47825226  0.18893824  0.08975083  1
  I  I96  1  0.99427641  0.57379241  0.25000000  1
  I  I97  1  0.50572359  0.07379241  0.25000000  1
  I  I98  1  0.00572359  0.42620759  0.75000000  1
  I  I99  1  0.49427641  0.92620759  0.75000000  1
  I  I100  1  0.29772093  0.58661253  0.15142307  1
  I  I101  1  0.20227907  0.08661253  0.34857693  1
  I  I102  1  0.70227907  0.41338747  0.65142307  1
  I  I103  1  0.79772093  0.91338747  0.84857693  1
  I  I104  1  0.70227907  0.41338747  0.84857693  1
  I  I105  1  0.79772093  0.91338747  0.65142307  1
  I  I106  1  0.29772093  0.58661253  0.34857693  1
  I  I107  1  0.20227907  0.08661253  0.15142307  1
  I  I108  1  0.33377074  0.77538339  0.09104360  1
  I  I109  1  0.16622926  0.27538339  0.40895640  1
  I  I110  1  0.66622926  0.22461661  0.59104360  1
  I  I111  1  0.83377074  0.72461661  0.90895640  1
  I  I112  1  0.66622926  0.22461661  0.90895640  1
  I  I113  1  0.83377074  0.72461661  0.59104360  1
  I  I114  1  0.33377074  0.77538339  0.40895640  1
  I  I115  1  0.16622926  0.27538339  0.09104360  1
  I  I116  1  0.05563960  0.87814982  0.15153782  1
  I  I117  1  0.44436040  0.37814982  0.34846218  1
  I  I118  1  0.94436040  0.12185018  0.65153782  1
  I  I119  1  0.55563960  0.62185018  0.84846218  1
  I  I120  1  0.94436040  0.12185018  0.84846218  1
  I  I121  1  0.55563960  0.62185018  0.65153782  1
  I  I122  1  0.05563960  0.87814982  0.34846218  1
  I  I123  1  0.44436040  0.37814982  0.15153782  1
  I  I124  1  0.84769592  0.75133746  0.25000000  1
  I  I125  1  0.65230408  0.25133746  0.25000000  1
  I  I126  1  0.15230408  0.24866254  0.75000000  1
  I  I127  1  0.34769592  0.74866254  0.75000000  1
  I  I128  1  0.50327202  0.71076347  0.25000000  1
  I  I129  1  0.99672798  0.21076347  0.25000000  1
  I  I130  1  0.49672798  0.28923653  0.75000000  1
  I  I131  1  0.00327202  0.78923653  0.75000000  1
  I  I132  1  0.34864317  0.89352993  0.25000000  1
  I  I133  1  0.15135683  0.39352993  0.25000000  1
  I  I134  1  0.65135683  0.10647007  0.75000000  1
  I  I135  1  0.84864317  0.60647007  0.75000000  1
  O  O136  1  0.95839236  0.11197159  0.03014674  1
  O  O137  1  0.54160764  0.61197159  0.46985326  1
  O  O138  1  0.04160764  0.88802841  0.53014674  1
  O  O139  1  0.45839236  0.38802841  0.96985326  1
  O  O140  1  0.04160764  0.88802841  0.96985326  1
  O  O141  1  0.45839236  0.38802841  0.53014674  1
  O  O142  1  0.95839236  0.11197159  0.46985326  1
  O  O143  1  0.54160764  0.61197159  0.03014674  1
  O  O144  1  0.78314719  0.13179790  0.09323305  1
  O  O145  1  0.71685281  0.63179790  0.40676695  1
  O  O146  1  0.21685281  0.86820210  0.59323305  1
  O  O147  1  0.28314719  0.36820210  0.90676695  1
  O  O148  1  0.21685281  0.86820210  0.90676695  1
  O  O149  1  0.28314719  0.36820210  0.59323305  1
  O  O150  1  0.78314719  0.13179790  0.40676695  1
  O  O151  1  0.71685281  0.63179790  0.09323305  1
  O  O152  1  0.79481784  0.31638424  0.07710757  1
  O  O153  1  0.70518216  0.81638424  0.42289243  1
  O  O154  1  0.20518216  0.68361576  0.57710757  1
  O  O155  1  0.29481784  0.18361576  0.92289243  1
  O  O156  1  0.20518216  0.68361576  0.92289243  1
  O  O157  1  0.29481784  0.18361576  0.57710757  1
  O  O158  1  0.79481784  0.31638424  0.42289243  1
  O  O159  1  0.70518216  0.81638424  0.07710757  1
  O  O160  1  0.72294556  0.42792856  0.05366883  1
  O  O161  1  0.77705444  0.92792856  0.44633117  1
  O  O162  1  0.27705444  0.57207144  0.55366883  1
  O  O163  1  0.22294556  0.07207144  0.94633117  1
  O  O164  1  0.27705444  0.57207144  0.94633117  1
  O  O165  1  0.22294556  0.07207144  0.55366883  1
  O  O166  1  0.72294556  0.42792856  0.44633117  1
  O  O167  1  0.77705444  0.92792856  0.05366883  1
  O  O168  1  0.49466096  0.97353353  0.08540583  1
  O  O169  1  0.00533904  0.47353353  0.41459417  1
  O  O170  1  0.50533904  0.02646647  0.58540583  1
  O  O171  1  0.99466096  0.52646647  0.91459417  1
  O  O172  1  0.50533904  0.02646647  0.91459417  1
  O  O173  1  0.99466096  0.52646647  0.58540583  1
  O  O174  1  0.49466096  0.97353353  0.41459417  1
  O  O175  1  0.00533904  0.47353353  0.08540583  1
  O  O176  1  0.33809130  0.95269095  0.00873664  1
  O  O177  1  0.16190870  0.45269095  0.49126336  1
  O  O178  1  0.66190870  0.04730905  0.50873664  1
  O  O179  1  0.83809130  0.54730905  0.99126336  1
  O  O180  1  0.66190870  0.04730905  0.99126336  1
  O  O181  1  0.83809130  0.54730905  0.50873664  1
  O  O182  1  0.33809130  0.95269095  0.49126336  1
  O  O183  1  0.16190870  0.45269095  0.00873664  1
  O  O184  1  0.85693848  0.03091066  0.19030118  1
  O  O185  1  0.64306152  0.53091066  0.30969882  1
  O  O186  1  0.14306152  0.96908934  0.69030118  1
  O  O187  1  0.35693848  0.46908934  0.80969882  1
  O  O188  1  0.14306152  0.96908934  0.80969882  1
  O  O189  1  0.35693848  0.46908934  0.69030118  1
  O  O190  1  0.85693848  0.03091066  0.30969882  1
  O  O191  1  0.64306152  0.53091066  0.19030118  1
  O  O192  1  0.83266379  0.42663801  0.19042300  1
  O  O193  1  0.66733621  0.92663801  0.30957700  1
  O  O194  1  0.16733621  0.57336199  0.69042300  1
  O  O195  1  0.33266379  0.07336199  0.80957700  1
  O  O196  1  0.16733621  0.57336199  0.80957700  1
  O  O197  1  0.33266379  0.07336199  0.69042300  1
  O  O198  1  0.83266379  0.42663801  0.30957700  1
  O  O199  1  0.66733621  0.92663801  0.19042300  1
