# generated using pymatgen
data_NiH15IO12
_symmetry_space_group_name_H-M   'P 1'
_cell_length_a   9.82884100
_cell_length_b   5.18677600
_cell_length_c   10.65667302
_cell_angle_alpha   63.91982665
_cell_angle_beta   90.00000000
_cell_angle_gamma   90.00000000
_symmetry_Int_Tables_number   1
_chemical_formula_structural   NiH15IO12
_chemical_formula_sum   'Ni2 H30 I2 O24'
_cell_volume   487.96054336
_cell_formula_units_Z   2
loop_
 _symmetry_equiv_pos_site_id
 _symmetry_equiv_pos_as_xyz
  1  'x, y, z'
loop_
 _atom_site_type_symbol
 _atom_site_label
 _atom_site_symmetry_multiplicity
 _atom_site_fract_x
 _atom_site_fract_y
 _atom_site_fract_z
 _atom_site_occupancy
  Ni  Ni0  1  0.28650100  0.03934000  0.25205200  1
  Ni  Ni1  1  0.71349900  0.03934000  0.75205200  1
  H  H2  1  0.12988900  0.99771900  0.53156700  1
  H  H3  1  0.87011100  0.99771900  0.03156700  1
  H  H4  1  0.31251300  0.50304300  0.66714700  1
  H  H5  1  0.68748700  0.50304300  0.16714700  1
  H  H6  1  0.11724600  0.51643600  0.82239100  1
  H  H7  1  0.88275400  0.51643600  0.32239100  1
  H  H8  1  0.07110000  0.71797100  0.39238100  1
  H  H9  1  0.92890000  0.71797100  0.89238100  1
  H  H10  1  0.20276600  0.57414000  0.48180900  1
  H  H11  1  0.79723400  0.57414000  0.98180900  1
  H  H12  1  0.05539600  0.29226500  0.25834400  1
  H  H13  1  0.94460400  0.29226500  0.75834400  1
  H  H14  1  0.16441100  0.54982100  0.18677400  1
  H  H15  1  0.83558900  0.54982100  0.68677400  1
  H  H16  1  0.49441300  0.34957500  0.09837000  1
  H  H17  1  0.50558700  0.34957500  0.59837000  1
  H  H18  1  0.36263100  0.52944400  0.02069300  1
  H  H19  1  0.63736900  0.52944400  0.52069300  1
  H  H20  1  0.51349600  0.75930600  0.23482400  1
  H  H21  1  0.48650400  0.75930600  0.73482400  1
  H  H22  1  0.40490300  0.51537900  0.32163800  1
  H  H23  1  0.59509700  0.51537900  0.82163800  1
  H  H24  1  0.50695900  0.05160600  0.39842700  1
  H  H25  1  0.49304100  0.05160600  0.89842700  1
  H  H26  1  0.37659400  0.02056300  0.49375800  1
  H  H27  1  0.62340600  0.02056300  0.99375800  1
  H  H28  1  0.07861400  0.03237700  0.09111500  1
  H  H29  1  0.92138600  0.03237700  0.59111500  1
  H  H30  1  0.22111800  0.98399200  0.02663400  1
  H  H31  1  0.77888200  0.98399200  0.52663400  1
  I  I32  1  0.21801200  0.00541700  0.75009000  1
  I  I33  1  0.78198800  0.00541700  0.25009000  1
  O  O34  1  0.09801600  0.10871700  0.58145300  1
  O  O35  1  0.90198400  0.10871700  0.08145300  1
  O  O36  1  0.10187100  0.22746700  0.79630600  1
  O  O37  1  0.89812900  0.22746700  0.29630600  1
  O  O38  1  0.32738000  0.91073500  0.90534500  1
  O  O39  1  0.67262000  0.91073500  0.40534500  1
  O  O40  1  0.32625800  0.81458100  0.67284800  1
  O  O41  1  0.67374200  0.81458100  0.17284800  1
  O  O42  1  0.32687600  0.35214800  0.63226000  1
  O  O43  1  0.67312400  0.35214800  0.13226000  1
  O  O44  1  0.09951800  0.67566300  0.85096100  1
  O  O45  1  0.90048200  0.67566300  0.35096100  1
  O  O46  1  0.16167900  0.76136900  0.42067900  1
  O  O47  1  0.83832100  0.76136900  0.92067900  1
  O  O48  1  0.15515100  0.34326600  0.24864600  1
  O  O49  1  0.84484900  0.34326600  0.74864600  1
  O  O50  1  0.39643700  0.33272900  0.08105700  1
  O  O51  1  0.60356300  0.33272900  0.58105700  1
  O  O52  1  0.41513500  0.72288600  0.25958400  1
  O  O53  1  0.58486500  0.72288600  0.75958400  1
  O  O54  1  0.41055100  0.11698400  0.39574000  1
  O  O55  1  0.58944900  0.11698400  0.89574000  1
  O  O56  1  0.17044200  0.94256100  0.11440900  1
  O  O57  1  0.82955800  0.94256100  0.61440900  1
