# generated using pymatgen
data_Ba18In8(S7F6)3
_symmetry_space_group_name_H-M   'P 1'
_cell_length_a   12.88886668
_cell_length_b   22.46104942
_cell_length_c   22.46104942
_cell_angle_alpha   90.00000000
_cell_angle_beta   90.00000000
_cell_angle_gamma   90.00000000
_symmetry_Int_Tables_number   1
_chemical_formula_structural   Ba18In8(S7F6)3
_chemical_formula_sum   'Ba72 In32 S84 F72'
_cell_volume   6502.41701359
_cell_formula_units_Z   4
loop_
 _symmetry_equiv_pos_site_id
 _symmetry_equiv_pos_as_xyz
  1  'x, y, z'
loop_
 _atom_site_type_symbol
 _atom_site_label
 _atom_site_symmetry_multiplicity
 _atom_site_fract_x
 _atom_site_fract_y
 _atom_site_fract_z
 _atom_site_occupancy
  Ba  Ba0  1  0.86770252  0.05570573  0.65617210  1
  Ba  Ba1  1  0.36770252  0.05570573  0.84382790  1
  Ba  Ba2  1  0.36770252  0.44429427  0.65617210  1
  Ba  Ba3  1  0.86770252  0.44429427  0.84382790  1
  Ba  Ba4  1  0.86770252  0.65617210  0.05570573  1
  Ba  Ba5  1  0.36770252  0.84382790  0.05570573  1
  Ba  Ba6  1  0.36770252  0.65617210  0.44429427  1
  Ba  Ba7  1  0.86770252  0.84382790  0.44429427  1
  Ba  Ba8  1  0.13229748  0.94429427  0.34382790  1
  Ba  Ba9  1  0.63229748  0.94429427  0.15617210  1
  Ba  Ba10  1  0.63229748  0.55570573  0.34382790  1
  Ba  Ba11  1  0.13229748  0.55570573  0.15617210  1
  Ba  Ba12  1  0.13229748  0.34382790  0.94429427  1
  Ba  Ba13  1  0.63229748  0.15617210  0.94429427  1
  Ba  Ba14  1  0.63229748  0.34382790  0.55570573  1
  Ba  Ba15  1  0.13229748  0.15617210  0.55570573  1
  Ba  Ba16  1  0.87604356  0.05389685  0.85265387  1
  Ba  Ba17  1  0.37604356  0.05389685  0.64734613  1
  Ba  Ba18  1  0.37604356  0.44610315  0.85265387  1
  Ba  Ba19  1  0.87604356  0.44610315  0.64734613  1
  Ba  Ba20  1  0.87604356  0.85265387  0.05389685  1
  Ba  Ba21  1  0.37604356  0.64734613  0.05389685  1
  Ba  Ba22  1  0.37604356  0.85265387  0.44610315  1
  Ba  Ba23  1  0.87604356  0.64734613  0.44610315  1
  Ba  Ba24  1  0.12395644  0.94610315  0.14734613  1
  Ba  Ba25  1  0.62395644  0.94610315  0.35265387  1
  Ba  Ba26  1  0.62395644  0.55389685  0.14734613  1
  Ba  Ba27  1  0.12395644  0.55389685  0.35265387  1
  Ba  Ba28  1  0.12395644  0.14734613  0.94610315  1
  Ba  Ba29  1  0.62395644  0.35265387  0.94610315  1
  Ba  Ba30  1  0.62395644  0.14734613  0.55389685  1
  Ba  Ba31  1  0.12395644  0.35265387  0.55389685  1
  Ba  Ba32  1  0.62407236  0.75018868  0.15051920  1
  Ba  Ba33  1  0.12407236  0.75018868  0.34948080  1
  Ba  Ba34  1  0.12407236  0.74981132  0.15051920  1
  Ba  Ba35  1  0.62407236  0.74981132  0.34948080  1
  Ba  Ba36  1  0.62407236  0.15051920  0.75018868  1
  Ba  Ba37  1  0.12407236  0.34948080  0.75018868  1
  Ba  Ba38  1  0.12407236  0.15051920  0.74981132  1
  Ba  Ba39  1  0.62407236  0.34948080  0.74981132  1
  Ba  Ba40  1  0.37592764  0.24981132  0.84948080  1
  Ba  Ba41  1  0.87592764  0.24981132  0.65051920  1
  Ba  Ba42  1  0.87592764  0.25018868  0.84948080  1
  Ba  Ba43  1  0.37592764  0.25018868  0.65051920  1
  Ba  Ba44  1  0.37592764  0.84948080  0.24981132  1
  Ba  Ba45  1  0.87592764  0.65051920  0.24981132  1
  Ba  Ba46  1  0.87592764  0.84948080  0.25018868  1
  Ba  Ba47  1  0.37592764  0.65051920  0.25018868  1
  Ba  Ba48  1  0.62023285  0.54043559  0.75034492  1
  Ba  Ba49  1  0.12023285  0.54043559  0.74965508  1
  Ba  Ba50  1  0.12023285  0.95956441  0.75034492  1
  Ba  Ba51  1  0.62023285  0.95956441  0.74965508  1
  Ba  Ba52  1  0.62023285  0.75034492  0.54043559  1
  Ba  Ba53  1  0.12023285  0.74965508  0.54043559  1
  Ba  Ba54  1  0.12023285  0.75034492  0.95956441  1
  Ba  Ba55  1  0.62023285  0.74965508  0.95956441  1
  Ba  Ba56  1  0.37976715  0.45956441  0.24965508  1
  Ba  Ba57  1  0.87976715  0.45956441  0.25034492  1
  Ba  Ba58  1  0.87976715  0.04043559  0.24965508  1
  Ba  Ba59  1  0.37976715  0.04043559  0.25034492  1
  Ba  Ba60  1  0.37976715  0.24965508  0.45956441  1
  Ba  Ba61  1  0.87976715  0.25034492  0.45956441  1
  Ba  Ba62  1  0.87976715  0.24965508  0.04043559  1
  Ba  Ba63  1  0.37976715  0.25034492  0.04043559  1
  Ba  Ba64  1  0.50000000  0.50000000  0.50000000  1
  Ba  Ba65  1  0.00000000  0.50000000  0.00000000  1
  Ba  Ba66  1  0.00000000  -0.00000000  0.50000000  1
  Ba  Ba67  1  0.50000000  -0.00000000  0.00000000  1
  Ba  Ba68  1  0.70134050  0.75000000  0.75000000  1
  Ba  Ba69  1  0.20134050  0.75000000  0.75000000  1
  Ba  Ba70  1  0.29865950  0.25000000  0.25000000  1
  Ba  Ba71  1  0.79865950  0.25000000  0.25000000  1
  In  In72  1  0.92659137  0.66235368  0.66235368  1
  In  In73  1  0.42659137  0.66235368  0.83764632  1
  In  In74  1  0.42659137  0.83764632  0.66235368  1
  In  In75  1  0.92659137  0.83764632  0.83764632  1
  In  In76  1  0.07340863  0.33764632  0.33764632  1
  In  In77  1  0.57340863  0.33764632  0.16235368  1
  In  In78  1  0.57340863  0.16235368  0.33764632  1
  In  In79  1  0.07340863  0.16235368  0.16235368  1
  In  In80  1  0.16578410  0.57500473  0.57500473  1
  In  In81  1  0.66578410  0.57500473  0.92499527  1
  In  In82  1  0.66578410  0.92499527  0.57500473  1
  In  In83  1  0.16578410  0.92499527  0.92499527  1
  In  In84  1  0.83421590  0.42499527  0.42499527  1
  In  In85  1  0.33421590  0.42499527  0.07500473  1
  In  In86  1  0.33421590  0.07500473  0.42499527  1
  In  In87  1  0.83421590  0.07500473  0.07500473  1
  In  In88  1  0.68845519  0.58150708  0.58150708  1
  In  In89  1  0.18845519  0.58150708  0.91849292  1
  In  In90  1  0.18845519  0.91849292  0.58150708  1
  In  In91  1  0.68845519  0.91849292  0.91849292  1
  In  In92  1  0.31154481  0.41849292  0.41849292  1
  In  In93  1  0.81154481  0.41849292  0.08150708  1
  In  In94  1  0.81154481  0.08150708  0.41849292  1
  In  In95  1  0.31154481  0.08150708  0.08150708  1
  In  In96  1  0.92044124  0.65939312  0.84060688  1
  In  In97  1  0.42044124  0.65939312  0.65939312  1
  In  In98  1  0.42044124  0.84060688  0.84060688  1
  In  In99  1  0.92044124  0.84060688  0.65939312  1
  In  In100  1  0.07955876  0.34060688  0.15939312  1
  In  In101  1  0.57955876  0.34060688  0.34060688  1
  In  In102  1  0.57955876  0.15939312  0.15939312  1
  In  In103  1  0.07955876  0.15939312  0.34060688  1
  S  S104  1  0.87887270  0.58305746  0.58305746  1
  S  S105  1  0.37887270  0.58305746  0.91694254  1
  S  S106  1  0.37887270  0.91694254  0.58305746  1
  S  S107  1  0.87887270  0.91694254  0.91694254  1
  S  S108  1  0.12112730  0.41694254  0.41694254  1
  S  S109  1  0.62112730  0.41694254  0.08305746  1
  S  S110  1  0.62112730  0.08305746  0.41694254  1
  S  S111  1  0.12112730  0.08305746  0.08305746  1
  S  S112  1  0.36407189  0.58090545  0.58090545  1
  S  S113  1  0.86407189  0.58090545  0.91909455  1
  S  S114  1  0.86407189  0.91909455  0.58090545  1
  S  S115  1  0.36407189  0.91909455  0.91909455  1
  S  S116  1  0.63592811  0.41909455  0.41909455  1
  S  S117  1  0.13592811  0.41909455  0.08090545  1
  S  S118  1  0.13592811  0.08090545  0.41909455  1
  S  S119  1  0.63592811  0.08090545  0.08090545  1
  S  S120  1  0.12082314  0.65420449  0.65420449  1
  S  S121  1  0.62082314  0.65420449  0.84579551  1
  S  S122  1  0.62082314  0.84579551  0.65420449  1
  S  S123  1  0.12082314  0.84579551  0.84579551  1
  S  S124  1  0.87917686  0.34579551  0.34579551  1
  S  S125  1  0.37917686  0.34579551  0.15420449  1
  S  S126  1  0.37917686  0.15420449  0.34579551  1
  S  S127  1  0.87917686  0.15420449  0.15420449  1
  S  S128  1  0.61702969  0.65545202  0.65545202  1
  S  S129  1  0.11702969  0.65545202  0.84454798  1
  S  S130  1  0.11702969  0.84454798  0.65545202  1
  S  S131  1  0.61702969  0.84454798  0.84454798  1
  S  S132  1  0.38297031  0.34454798  0.34454798  1
  S  S133  1  0.88297031  0.34454798  0.15545202  1
  S  S134  1  0.88297031  0.15545202  0.34454798  1
  S  S135  1  0.38297031  0.15545202  0.15545202  1
  S  S136  1  0.86410519  0.59916001  0.75068526  1
  S  S137  1  0.36410519  0.59916001  0.74931474  1
  S  S138  1  0.36410519  0.90083999  0.75068526  1
  S  S139  1  0.86410519  0.90083999  0.74931474  1
  S  S140  1  0.86410519  0.75068526  0.59916001  1
  S  S141  1  0.36410519  0.74931474  0.59916001  1
  S  S142  1  0.36410519  0.75068526  0.90083999  1
  S  S143  1  0.86410519  0.74931474  0.90083999  1
  S  S144  1  0.13589481  0.40083999  0.24931474  1
  S  S145  1  0.63589481  0.40083999  0.25068526  1
  S  S146  1  0.63589481  0.09916001  0.24931474  1
  S  S147  1  0.13589481  0.09916001  0.25068526  1
  S  S148  1  0.13589481  0.24931474  0.40083999  1
  S  S149  1  0.63589481  0.25068526  0.40083999  1
  S  S150  1  0.63589481  0.24931474  0.09916001  1
  S  S151  1  0.13589481  0.25068526  0.09916001  1
  S  S152  1  0.95068552  0.75000000  0.75000000  1
  S  S153  1  0.45068552  0.75000000  0.75000000  1
  S  S154  1  0.04931448  0.25000000  0.25000000  1
  S  S155  1  0.54931448  0.25000000  0.25000000  1
  S  S156  1  0.62663811  0.61595140  0.48243365  1
  S  S157  1  0.12663811  0.61595140  0.01756635  1
  S  S158  1  0.12663811  0.88404860  0.48243365  1
  S  S159  1  0.62663811  0.88404860  0.01756635  1
  S  S160  1  0.62663811  0.48243365  0.61595140  1
  S  S161  1  0.12663811  0.01756635  0.61595140  1
  S  S162  1  0.12663811  0.48243365  0.88404860  1
  S  S163  1  0.62663811  0.01756635  0.88404860  1
  S  S164  1  0.37336189  0.38404860  0.51756635  1
  S  S165  1  0.87336189  0.38404860  0.98243365  1
  S  S166  1  0.87336189  0.11595140  0.51756635  1
  S  S167  1  0.37336189  0.11595140  0.98243365  1
  S  S168  1  0.37336189  0.51756635  0.38404860  1
  S  S169  1  0.87336189  0.98243365  0.38404860  1
  S  S170  1  0.87336189  0.51756635  0.11595140  1
  S  S171  1  0.37336189  0.98243365  0.11595140  1
  S  S172  1  0.12481546  0.62033102  0.47998205  1
  S  S173  1  0.62481546  0.62033102  0.02001795  1
  S  S174  1  0.62481546  0.87966898  0.47998205  1
  S  S175  1  0.12481546  0.87966898  0.02001795  1
  S  S176  1  0.12481546  0.47998205  0.62033102  1
  S  S177  1  0.62481546  0.02001795  0.62033102  1
  S  S178  1  0.62481546  0.47998205  0.87966898  1
  S  S179  1  0.12481546  0.02001795  0.87966898  1
  S  S180  1  0.87518454  0.37966898  0.52001795  1
  S  S181  1  0.37518454  0.37966898  0.97998205  1
  S  S182  1  0.37518454  0.12033102  0.52001795  1
  S  S183  1  0.87518454  0.12033102  0.97998205  1
  S  S184  1  0.87518454  0.52001795  0.37966898  1
  S  S185  1  0.37518454  0.97998205  0.37966898  1
  S  S186  1  0.37518454  0.52001795  0.12033102  1
  S  S187  1  0.87518454  0.97998205  0.12033102  1
  F  F188  1  0.75000000  0.25000000  0.75000000  1
  F  F189  1  0.25000000  0.25000000  0.75000000  1
  F  F190  1  0.75000000  0.75000000  0.25000000  1
  F  F191  1  0.25000000  0.75000000  0.25000000  1
  F  F192  1  0.50000000  0.65221565  0.15221565  1
  F  F193  1  0.00000000  0.65221565  0.34778435  1
  F  F194  1  0.00000000  0.84778435  0.15221565  1
  F  F195  1  0.50000000  0.84778435  0.34778435  1
  F  F196  1  0.50000000  0.15221565  0.65221565  1
  F  F197  1  0.00000000  0.34778435  0.65221565  1
  F  F198  1  0.00000000  0.15221565  0.84778435  1
  F  F199  1  0.50000000  0.34778435  0.84778435  1
  F  F200  1  0.75362167  0.05146840  0.75355765  1
  F  F201  1  0.25362167  0.05146840  0.74644235  1
  F  F202  1  0.25362167  0.44853160  0.75355765  1
  F  F203  1  0.75362167  0.44853160  0.74644235  1
  F  F204  1  0.75362167  0.75355765  0.05146840  1
  F  F205  1  0.25362167  0.74644235  0.05146840  1
  F  F206  1  0.25362167  0.75355765  0.44853160  1
  F  F207  1  0.75362167  0.74644235  0.44853160  1
  F  F208  1  0.24637833  0.94853160  0.24644235  1
  F  F209  1  0.74637833  0.94853160  0.25355765  1
  F  F210  1  0.74637833  0.55146840  0.24644235  1
  F  F211  1  0.24637833  0.55146840  0.25355765  1
  F  F212  1  0.24637833  0.24644235  0.94853160  1
  F  F213  1  0.74637833  0.25355765  0.94853160  1
  F  F214  1  0.74637833  0.24644235  0.55146840  1
  F  F215  1  0.24637833  0.25355765  0.55146840  1
  F  F216  1  0.99116494  0.05213423  0.75052511  1
  F  F217  1  0.49116494  0.05213423  0.74947489  1
  F  F218  1  0.49116494  0.44786577  0.75052511  1
  F  F219  1  0.99116494  0.44786577  0.74947489  1
  F  F220  1  0.99116494  0.75052511  0.05213423  1
  F  F221  1  0.49116494  0.74947489  0.05213423  1
  F  F222  1  0.49116494  0.75052511  0.44786577  1
  F  F223  1  0.99116494  0.74947489  0.44786577  1
  F  F224  1  0.00883506  0.94786577  0.24947489  1
  F  F225  1  0.50883506  0.94786577  0.25052511  1
  F  F226  1  0.50883506  0.55213423  0.24947489  1
  F  F227  1  0.00883506  0.55213423  0.25052511  1
  F  F228  1  0.00883506  0.24947489  0.94786577  1
  F  F229  1  0.50883506  0.25052511  0.94786577  1
  F  F230  1  0.50883506  0.24947489  0.55213423  1
  F  F231  1  0.00883506  0.25052511  0.55213423  1
  F  F232  1  0.00000000  0.15157173  0.65157173  1
  F  F233  1  0.50000000  0.15157173  0.84842827  1
  F  F234  1  0.50000000  0.34842827  0.65157173  1
  F  F235  1  0.00000000  0.34842827  0.84842827  1
  F  F236  1  0.00000000  0.65157173  0.15157173  1
  F  F237  1  0.50000000  0.84842827  0.15157173  1
  F  F238  1  0.50000000  0.65157173  0.34842827  1
  F  F239  1  0.00000000  0.84842827  0.34842827  1
  F  F240  1  0.74999327  0.65383082  0.15258556  1
  F  F241  1  0.24999327  0.65383082  0.34741444  1
  F  F242  1  0.24999327  0.84616918  0.15258556  1
  F  F243  1  0.74999327  0.84616918  0.34741444  1
  F  F244  1  0.74999327  0.15258556  0.65383082  1
  F  F245  1  0.24999327  0.34741444  0.65383082  1
  F  F246  1  0.24999327  0.15258556  0.84616918  1
  F  F247  1  0.74999327  0.34741444  0.84616918  1
  F  F248  1  0.25000673  0.34616918  0.84741444  1
  F  F249  1  0.75000673  0.34616918  0.65258556  1
  F  F250  1  0.75000673  0.15383082  0.84741444  1
  F  F251  1  0.25000673  0.15383082  0.65258556  1
  F  F252  1  0.25000673  0.84741444  0.34616918  1
  F  F253  1  0.75000673  0.65258556  0.34616918  1
  F  F254  1  0.75000673  0.84741444  0.15383082  1
  F  F255  1  0.25000673  0.65258556  0.15383082  1
  F  F256  1  0.00000000  0.25000000  0.75000000  1
  F  F257  1  0.50000000  0.25000000  0.75000000  1
  F  F258  1  0.00000000  0.75000000  0.25000000  1
  F  F259  1  0.50000000  0.75000000  0.25000000  1
