# generated using pymatgen
data_Ca3Ge4
_symmetry_space_group_name_H-M   'P 1'
_cell_length_a   8.78910954
_cell_length_b   8.78910954
_cell_length_c   15.28419700
_cell_angle_alpha   90.00000000
_cell_angle_beta   90.00000000
_cell_angle_gamma   119.99999650
_symmetry_Int_Tables_number   1
_chemical_formula_structural   Ca3Ge4
_chemical_formula_sum   'Ca18 Ge24'
_cell_volume   1022.49931947
_cell_formula_units_Z   6
loop_
 _symmetry_equiv_pos_site_id
 _symmetry_equiv_pos_as_xyz
  1  'x, y, z'
loop_
 _atom_site_type_symbol
 _atom_site_label
 _atom_site_symmetry_multiplicity
 _atom_site_fract_x
 _atom_site_fract_y
 _atom_site_fract_z
 _atom_site_occupancy
  Ca  Ca0  1  0.09087100  0.66517400  0.60001100  1
  Ca  Ca1  1  0.33482600  0.42569700  0.60001100  1
  Ca  Ca2  1  0.57430300  0.90912900  0.60001100  1
  Ca  Ca3  1  0.90912900  0.33482600  0.10001100  1
  Ca  Ca4  1  0.66517400  0.57430300  0.10001100  1
  Ca  Ca5  1  0.42569700  0.09087100  0.10001100  1
  Ca  Ca6  1  0.90912900  0.33482600  0.39998900  1
  Ca  Ca7  1  0.66517400  0.57430300  0.39998900  1
  Ca  Ca8  1  0.42569700  0.09087100  0.39998900  1
  Ca  Ca9  1  0.09087100  0.66517400  0.89998900  1
  Ca  Ca10  1  0.33482600  0.42569700  0.89998900  1
  Ca  Ca11  1  0.57430300  0.90912900  0.89998900  1
  Ca  Ca12  1  0.66666700  0.33333300  0.75000000  1
  Ca  Ca13  1  0.33333300  0.66666700  0.25000000  1
  Ca  Ca14  1  0.00000000  0.00000000  0.50000000  1
  Ca  Ca15  1  0.00000000  0.00000000  0.00000000  1
  Ca  Ca16  1  0.00000000  0.00000000  0.75000000  1
  Ca  Ca17  1  0.00000000  0.00000000  0.25000000  1
  Ge  Ge18  1  0.74429000  0.65546000  0.60373300  1
  Ge  Ge19  1  0.34454000  0.08883000  0.60373300  1
  Ge  Ge20  1  0.91117000  0.25571000  0.60373300  1
  Ge  Ge21  1  0.25571000  0.34454000  0.10373300  1
  Ge  Ge22  1  0.65546000  0.91117000  0.10373300  1
  Ge  Ge23  1  0.08883000  0.74429000  0.10373300  1
  Ge  Ge24  1  0.25571000  0.34454000  0.39626700  1
  Ge  Ge25  1  0.65546000  0.91117000  0.39626700  1
  Ge  Ge26  1  0.08883000  0.74429000  0.39626700  1
  Ge  Ge27  1  0.74429000  0.65546000  0.89626700  1
  Ge  Ge28  1  0.34454000  0.08883000  0.89626700  1
  Ge  Ge29  1  0.91117000  0.25571000  0.89626700  1
  Ge  Ge30  1  0.31222800  0.94373300  0.75000000  1
  Ge  Ge31  1  0.05626700  0.36849500  0.75000000  1
  Ge  Ge32  1  0.63150500  0.68777200  0.75000000  1
  Ge  Ge33  1  0.68777200  0.05626700  0.25000000  1
  Ge  Ge34  1  0.94373300  0.63150500  0.25000000  1
  Ge  Ge35  1  0.36849500  0.31222800  0.25000000  1
  Ge  Ge36  1  0.66666700  0.33333300  0.55100500  1
  Ge  Ge37  1  0.33333300  0.66666700  0.05100500  1
  Ge  Ge38  1  0.33333300  0.66666700  0.44899500  1
  Ge  Ge39  1  0.66666700  0.33333300  0.94899500  1
  Ge  Ge40  1  0.33333300  0.66666700  0.75000000  1
  Ge  Ge41  1  0.66666700  0.33333300  0.25000000  1
