# generated using pymatgen
data_Co3P2(H2O3)4
_symmetry_space_group_name_H-M   'P 1'
_cell_length_a   5.05606800
_cell_length_b   10.71745000
_cell_length_c   18.64453600
_cell_angle_alpha   90.00000000
_cell_angle_beta   90.00000000
_cell_angle_gamma   90.00000000
_symmetry_Int_Tables_number   1
_chemical_formula_structural   Co3P2(H2O3)4
_chemical_formula_sum   'Co12 P8 H32 O48'
_cell_volume   1010.31302507
_cell_formula_units_Z   4
loop_
 _symmetry_equiv_pos_site_id
 _symmetry_equiv_pos_as_xyz
  1  'x, y, z'
loop_
 _atom_site_type_symbol
 _atom_site_label
 _atom_site_symmetry_multiplicity
 _atom_site_fract_x
 _atom_site_fract_y
 _atom_site_fract_z
 _atom_site_occupancy
  Co  Co0  1  0.29119600  0.64185500  0.50024600  1
  Co  Co1  1  0.20880400  0.14185500  0.99975400  1
  Co  Co2  1  0.70880400  0.35814500  0.00024600  1
  Co  Co3  1  0.79119600  0.85814500  0.49975400  1
  Co  Co4  1  0.70880400  0.35814500  0.49975400  1
  Co  Co5  1  0.79119600  0.85814500  0.00024600  1
  Co  Co6  1  0.29119600  0.64185500  0.99975400  1
  Co  Co7  1  0.20880400  0.14185500  0.50024600  1
  Co  Co8  1  0.94162500  0.73817800  0.75000000  1
  Co  Co9  1  0.55837500  0.23817800  0.75000000  1
  Co  Co10  1  0.05837500  0.26182200  0.25000000  1
  Co  Co11  1  0.44162500  0.76182200  0.25000000  1
  P  P12  1  0.77115600  0.60286400  0.59499600  1
  P  P13  1  0.72884400  0.10286400  0.90500400  1
  P  P14  1  0.22884400  0.39713600  0.09499600  1
  P  P15  1  0.27115600  0.89713600  0.40500400  1
  P  P16  1  0.22884400  0.39713600  0.40500400  1
  P  P17  1  0.27115600  0.89713600  0.09499600  1
  P  P18  1  0.77115600  0.60286400  0.90500400  1
  P  P19  1  0.72884400  0.10286400  0.59499600  1
  H  H20  1  0.03963600  0.90065700  0.63678800  1
  H  H21  1  0.46036400  0.40065700  0.86321200  1
  H  H22  1  0.96036400  0.09934300  0.13678800  1
  H  H23  1  0.53963600  0.59934300  0.36321200  1
  H  H24  1  0.96036400  0.09934300  0.36321200  1
  H  H25  1  0.53963600  0.59934300  0.13678800  1
  H  H26  1  0.03963600  0.90065700  0.86321200  1
  H  H27  1  0.46036400  0.40065700  0.63678800  1
  H  H28  1  0.71042200  0.97617100  0.75000000  1
  H  H29  1  0.78957800  0.47617100  0.75000000  1
  H  H30  1  0.28957800  0.02382900  0.25000000  1
  H  H31  1  0.21042200  0.52382900  0.25000000  1
  H  H32  1  0.32181600  0.83807100  0.65078700  1
  H  H33  1  0.17818400  0.33807100  0.84921300  1
  H  H34  1  0.67818400  0.16192900  0.15078700  1
  H  H35  1  0.82181600  0.66192900  0.34921300  1
  H  H36  1  0.67818400  0.16192900  0.34921300  1
  H  H37  1  0.82181600  0.66192900  0.15078700  1
  H  H38  1  0.32181600  0.83807100  0.84921300  1
  H  H39  1  0.17818400  0.33807100  0.65078700  1
  H  H40  1  0.46068400  0.89175200  0.75000000  1
  H  H41  1  0.03931600  0.39175200  0.75000000  1
  H  H42  1  0.53931600  0.10824800  0.25000000  1
  H  H43  1  0.96068400  0.60824800  0.25000000  1
  H  H44  1  0.37296700  0.61051300  0.70886800  1
  H  H45  1  0.12703300  0.11051300  0.79113200  1
  H  H46  1  0.62703300  0.38948700  0.20886800  1
  H  H47  1  0.87296700  0.88948700  0.29113200  1
  H  H48  1  0.62703300  0.38948700  0.29113200  1
  H  H49  1  0.87296700  0.88948700  0.20886800  1
  H  H50  1  0.37296700  0.61051300  0.79113200  1
  H  H51  1  0.12703300  0.11051300  0.70886800  1
  O  O52  1  0.06841300  0.59389600  0.57997900  1
  O  O53  1  0.43158700  0.09389600  0.92002100  1
  O  O54  1  0.93158700  0.40610400  0.07997900  1
  O  O55  1  0.56841300  0.90610400  0.42002100  1
  O  O56  1  0.93158700  0.40610400  0.42002100  1
  O  O57  1  0.56841300  0.90610400  0.07997900  1
  O  O58  1  0.06841300  0.59389600  0.92002100  1
  O  O59  1  0.43158700  0.09389600  0.57997900  1
  O  O60  1  0.63738300  0.70023600  0.54137500  1
  O  O61  1  0.86261700  0.20023600  0.95862500  1
  O  O62  1  0.36261700  0.29976400  0.04137500  1
  O  O63  1  0.13738300  0.79976400  0.45862500  1
  O  O64  1  0.36261700  0.29976400  0.45862500  1
  O  O65  1  0.13738300  0.79976400  0.04137500  1
  O  O66  1  0.63738300  0.70023600  0.95862500  1
  O  O67  1  0.86261700  0.20023600  0.54137500  1
  O  O68  1  0.71228600  0.64066100  0.67297600  1
  O  O69  1  0.78771400  0.14066100  0.82702400  1
  O  O70  1  0.28771400  0.35933900  0.17297600  1
  O  O71  1  0.21228600  0.85933900  0.32702400  1
  O  O72  1  0.28771400  0.35933900  0.32702400  1
  O  O73  1  0.21228600  0.85933900  0.17297600  1
  O  O74  1  0.71228600  0.64066100  0.82702400  1
  O  O75  1  0.78771400  0.14066100  0.67297600  1
  O  O76  1  0.63295400  0.47562200  0.57828000  1
  O  O77  1  0.86704600  0.97562200  0.92172000  1
  O  O78  1  0.36704600  0.52437800  0.07828000  1
  O  O79  1  0.13295400  0.02437800  0.42172000  1
  O  O80  1  0.36704600  0.52437800  0.42172000  1
  O  O81  1  0.13295400  0.02437800  0.07828000  1
  O  O82  1  0.63295400  0.47562200  0.92172000  1
  O  O83  1  0.86704600  0.97562200  0.57828000  1
  O  O84  1  0.14469700  0.84635900  0.67060700  1
  O  O85  1  0.35530300  0.34635900  0.82939300  1
  O  O86  1  0.85530300  0.15364100  0.17060700  1
  O  O87  1  0.64469700  0.65364100  0.32939300  1
  O  O88  1  0.85530300  0.15364100  0.32939300  1
  O  O89  1  0.64469700  0.65364100  0.17060700  1
  O  O90  1  0.14469700  0.84635900  0.82939300  1
  O  O91  1  0.35530300  0.34635900  0.67060700  1
  O  O92  1  0.24904600  0.60822800  0.75000000  1
  O  O93  1  0.25095400  0.10822800  0.75000000  1
  O  O94  1  0.75095400  0.39177200  0.25000000  1
  O  O95  1  0.74904600  0.89177200  0.25000000  1
  O  O96  1  0.65390900  0.88856300  0.75000000  1
  O  O97  1  0.84609100  0.38856300  0.75000000  1
  O  O98  1  0.34609100  0.11143700  0.25000000  1
  O  O99  1  0.15390900  0.61143700  0.25000000  1
