# generated using pymatgen
data_K4XeO15
_symmetry_space_group_name_H-M   'P 1'
_cell_length_a   8.79100500
_cell_length_b   11.75429500
_cell_length_c   15.90843400
_cell_angle_alpha   90.00000000
_cell_angle_beta   90.00000000
_cell_angle_gamma   90.00000000
_symmetry_Int_Tables_number   1
_chemical_formula_structural   K4XeO15
_chemical_formula_sum   'K16 Xe4 O60'
_cell_volume   1643.85135390
_cell_formula_units_Z   4
loop_
 _symmetry_equiv_pos_site_id
 _symmetry_equiv_pos_as_xyz
  1  'x, y, z'
loop_
 _atom_site_type_symbol
 _atom_site_label
 _atom_site_symmetry_multiplicity
 _atom_site_fract_x
 _atom_site_fract_y
 _atom_site_fract_z
 _atom_site_occupancy
  K  K0  1  0.37286600  0.51055300  0.65248500  1
  K  K1  1  0.62713400  0.48944700  0.15248500  1
  K  K2  1  0.37286600  0.98944700  0.15248500  1
  K  K3  1  0.62713400  0.01055300  0.65248500  1
  K  K4  1  0.14032000  0.71266200  0.04024600  1
  K  K5  1  0.85968000  0.28733800  0.54024600  1
  K  K6  1  0.14032000  0.78733800  0.54024600  1
  K  K7  1  0.85968000  0.21266200  0.04024600  1
  K  K8  1  0.63447100  0.71703200  0.96281800  1
  K  K9  1  0.36552900  0.28296800  0.46281800  1
  K  K10  1  0.63447100  0.78296800  0.46281800  1
  K  K11  1  0.36552900  0.21703200  0.96281800  1
  K  K12  1  0.10002000  0.45701500  0.84434100  1
  K  K13  1  0.89998000  0.54298500  0.34434100  1
  K  K14  1  0.10002000  0.04298500  0.34434100  1
  K  K15  1  0.89998000  0.95701500  0.84434100  1
  Xe  Xe16  1  0.75000600  0.52533500  0.72956000  1
  Xe  Xe17  1  0.24999400  0.47466500  0.22956000  1
  Xe  Xe18  1  0.75000600  0.97466500  0.22956000  1
  Xe  Xe19  1  0.24999400  0.02533500  0.72956000  1
  O  O20  1  0.53831300  0.74184300  0.79044600  1
  O  O21  1  0.46168700  0.25815700  0.29044600  1
  O  O22  1  0.53831300  0.75815700  0.29044600  1
  O  O23  1  0.46168700  0.24184300  0.79044600  1
  O  O24  1  0.92228500  0.26328600  0.75233700  1
  O  O25  1  0.07771500  0.73671400  0.25233700  1
  O  O26  1  0.92228500  0.23671400  0.25233700  1
  O  O27  1  0.07771500  0.76328600  0.75233700  1
  O  O28  1  0.98178100  0.59951700  0.57248800  1
  O  O29  1  0.01821900  0.40048300  0.07248800  1
  O  O30  1  0.98178100  0.90048300  0.07248800  1
  O  O31  1  0.01821900  0.09951700  0.57248800  1
  O  O32  1  0.91642400  0.63384000  0.90709100  1
  O  O33  1  0.08357600  0.36616000  0.40709100  1
  O  O34  1  0.91642400  0.86616000  0.40709100  1
  O  O35  1  0.08357600  0.13384000  0.90709100  1
  O  O36  1  0.56427000  0.32774800  0.60809900  1
  O  O37  1  0.43573000  0.67225200  0.10809900  1
  O  O38  1  0.56427000  0.17225200  0.10809900  1
  O  O39  1  0.43573000  0.82774800  0.60809900  1
  O  O40  1  0.63239200  0.36924700  0.91236300  1
  O  O41  1  0.36760800  0.63075300  0.41236300  1
  O  O42  1  0.63239200  0.13075300  0.41236300  1
  O  O43  1  0.36760800  0.86924700  0.91236300  1
  O  O44  1  0.38183100  0.33244600  0.78931200  1
  O  O45  1  0.61816900  0.66755400  0.28931200  1
  O  O46  1  0.38183100  0.16755400  0.28931200  1
  O  O47  1  0.61816900  0.83244600  0.78931200  1
  O  O48  1  0.14381200  0.66811500  0.74460100  1
  O  O49  1  0.85618800  0.33188500  0.24460100  1
  O  O50  1  0.14381200  0.83188500  0.24460100  1
  O  O51  1  0.85618800  0.16811500  0.74460100  1
  O  O52  1  0.09482800  0.43184100  0.61891400  1
  O  O53  1  0.90517200  0.56815900  0.11891400  1
  O  O54  1  0.09482800  0.06815900  0.11891400  1
  O  O55  1  0.90517200  0.93184100  0.61891400  1
  O  O56  1  0.31299800  0.57611700  0.47429900  1
  O  O57  1  0.68700200  0.42388300  0.97429900  1
  O  O58  1  0.31299800  0.92388300  0.97429900  1
  O  O59  1  0.68700200  0.07611700  0.47429900  1
  O  O60  1  0.92367500  0.74529200  0.90116200  1
  O  O61  1  0.07632500  0.25470800  0.40116200  1
  O  O62  1  0.92367500  0.75470800  0.40116200  1
  O  O63  1  0.07632500  0.24529200  0.90116200  1
  O  O64  1  0.98271400  0.50973900  0.05585000  1
  O  O65  1  0.01728600  0.49026100  0.55585000  1
  O  O66  1  0.98271400  0.99026100  0.55585000  1
  O  O67  1  0.01728600  0.00973900  0.05585000  1
  O  O68  1  0.61837200  0.03714300  0.96853200  1
  O  O69  1  0.38162800  0.96285700  0.46853200  1
  O  O70  1  0.61837200  0.46285700  0.46853200  1
  O  O71  1  0.38162800  0.53714300  0.96853200  1
  O  O72  1  0.45795800  0.78267900  0.10011800  1
  O  O73  1  0.54204200  0.21732100  0.60011800  1
  O  O74  1  0.45795800  0.71732100  0.60011800  1
  O  O75  1  0.54204200  0.28267900  0.10011800  1
  O  O76  1  0.37295000  0.58736000  0.89593900  1
  O  O77  1  0.62705000  0.41264000  0.39593900  1
  O  O78  1  0.37295000  0.91264000  0.39593900  1
  O  O79  1  0.62705000  0.08736000  0.89593900  1
