# generated using pymatgen
data_Sr3Al2
_symmetry_space_group_name_H-M   'P 1'
_cell_length_a   13.01385200
_cell_length_b   13.01385200
_cell_length_c   13.01385200
_cell_angle_alpha   90.00000000
_cell_angle_beta   90.00000000
_cell_angle_gamma   90.00000000
_symmetry_Int_Tables_number   1
_chemical_formula_structural   Sr3Al2
_chemical_formula_sum   'Sr36 Al24'
_cell_volume   2204.03044990
_cell_formula_units_Z   12
loop_
 _symmetry_equiv_pos_site_id
 _symmetry_equiv_pos_as_xyz
  1  'x, y, z'
loop_
 _atom_site_type_symbol
 _atom_site_label
 _atom_site_symmetry_multiplicity
 _atom_site_fract_x
 _atom_site_fract_y
 _atom_site_fract_z
 _atom_site_occupancy
  Sr  Sr0  1  0.06017500  0.56017500  0.93982500  1
  Sr  Sr1  1  0.56017500  0.93982500  0.06017500  1
  Sr  Sr2  1  0.93982500  0.06017500  0.56017500  1
  Sr  Sr3  1  0.43982500  0.43982500  0.43982500  1
  Sr  Sr4  1  0.67976300  0.17976300  0.32023700  1
  Sr  Sr5  1  0.17976300  0.32023700  0.67976300  1
  Sr  Sr6  1  0.32023700  0.67976300  0.17976300  1
  Sr  Sr7  1  0.82023700  0.82023700  0.82023700  1
  Sr  Sr8  1  0.32531600  0.82531600  0.67468400  1
  Sr  Sr9  1  0.82531600  0.67468400  0.32531600  1
  Sr  Sr10  1  0.67468400  0.32531600  0.82531600  1
  Sr  Sr11  1  0.17468400  0.17468400  0.17468400  1
  Sr  Sr12  1  0.48213000  0.22512600  0.06042300  1
  Sr  Sr13  1  0.93957700  0.98213000  0.27487400  1
  Sr  Sr14  1  0.72512600  0.43957700  0.51787000  1
  Sr  Sr15  1  0.98213000  0.27487400  0.93957700  1
  Sr  Sr16  1  0.43957700  0.51787000  0.72512600  1
  Sr  Sr17  1  0.22512600  0.06042300  0.48213000  1
  Sr  Sr18  1  0.51787000  0.72512600  0.43957700  1
  Sr  Sr19  1  0.06042300  0.48213000  0.22512600  1
  Sr  Sr20  1  0.27487400  0.93957700  0.98213000  1
  Sr  Sr21  1  0.01787000  0.77487400  0.56042300  1
  Sr  Sr22  1  0.56042300  0.01787000  0.77487400  1
  Sr  Sr23  1  0.77487400  0.56042300  0.01787000  1
  Sr  Sr24  1  0.56651600  0.47445100  0.19772800  1
  Sr  Sr25  1  0.80227200  0.06651600  0.02554900  1
  Sr  Sr26  1  0.97445100  0.30227200  0.43348400  1
  Sr  Sr27  1  0.06651600  0.02554900  0.80227200  1
  Sr  Sr28  1  0.30227200  0.43348400  0.97445100  1
  Sr  Sr29  1  0.47445100  0.19772800  0.56651600  1
  Sr  Sr30  1  0.43348400  0.97445100  0.30227200  1
  Sr  Sr31  1  0.19772800  0.56651600  0.47445100  1
  Sr  Sr32  1  0.02554900  0.80227200  0.06651600  1
  Sr  Sr33  1  0.93348400  0.52554900  0.69772800  1
  Sr  Sr34  1  0.69772800  0.93348400  0.52554900  1
  Sr  Sr35  1  0.52554900  0.69772800  0.93348400  1
  Al  Al36  1  0.90762100  0.26585100  0.69154100  1
  Al  Al37  1  0.30845900  0.40762100  0.23414900  1
  Al  Al38  1  0.76585100  0.80845900  0.09237900  1
  Al  Al39  1  0.40762100  0.23414900  0.30845900  1
  Al  Al40  1  0.80845900  0.09237900  0.76585100  1
  Al  Al41  1  0.26585100  0.69154100  0.90762100  1
  Al  Al42  1  0.09237900  0.76585100  0.80845900  1
  Al  Al43  1  0.69154100  0.90762100  0.26585100  1
  Al  Al44  1  0.23414900  0.30845900  0.40762100  1
  Al  Al45  1  0.59237900  0.73414900  0.19154100  1
  Al  Al46  1  0.19154100  0.59237900  0.73414900  1
  Al  Al47  1  0.73414900  0.19154100  0.59237900  1
  Al  Al48  1  0.91266000  0.24500900  0.19009300  1
  Al  Al49  1  0.80990700  0.41266000  0.25499100  1
  Al  Al50  1  0.74500900  0.30990700  0.08734000  1
  Al  Al51  1  0.41266000  0.25499100  0.80990700  1
  Al  Al52  1  0.30990700  0.08734000  0.74500900  1
  Al  Al53  1  0.24500900  0.19009300  0.91266000  1
  Al  Al54  1  0.08734000  0.74500900  0.30990700  1
  Al  Al55  1  0.19009300  0.91266000  0.24500900  1
  Al  Al56  1  0.25499100  0.80990700  0.41266000  1
  Al  Al57  1  0.58734000  0.75499100  0.69009300  1
  Al  Al58  1  0.69009300  0.58734000  0.75499100  1
  Al  Al59  1  0.75499100  0.69009300  0.58734000  1
