# generated using pymatgen
data_K3H3PtS2Br2O7
_symmetry_space_group_name_H-M   'P 1'
_cell_length_a   7.13983300
_cell_length_b   8.86606200
_cell_length_c   21.99215908
_cell_angle_alpha   80.38787383
_cell_angle_beta   90.00000000
_cell_angle_gamma   90.00000000
_symmetry_Int_Tables_number   1
_chemical_formula_structural   K3H3PtS2Br2O7
_chemical_formula_sum   'K12 H12 Pt4 S8 Br8 O28'
_cell_volume   1372.60728439
_cell_formula_units_Z   4
loop_
 _symmetry_equiv_pos_site_id
 _symmetry_equiv_pos_as_xyz
  1  'x, y, z'
loop_
 _atom_site_type_symbol
 _atom_site_label
 _atom_site_symmetry_multiplicity
 _atom_site_fract_x
 _atom_site_fract_y
 _atom_site_fract_z
 _atom_site_occupancy
  K  K0  1  0.59453400  0.64535900  0.23846700  1
  K  K1  1  0.09453400  0.35464100  0.26153300  1
  K  K2  1  0.40546600  0.35464100  0.76153300  1
  K  K3  1  0.90546600  0.64535900  0.73846700  1
  K  K4  1  0.63139000  0.72878700  0.01005900  1
  K  K5  1  0.13139000  0.27121300  0.48994100  1
  K  K6  1  0.36861000  0.27121300  0.98994100  1
  K  K7  1  0.86861000  0.72878700  0.51005900  1
  K  K8  1  0.10349000  0.88616700  0.12995800  1
  K  K9  1  0.60349000  0.11383300  0.37004200  1
  K  K10  1  0.89651000  0.11383300  0.87004200  1
  K  K11  1  0.39651000  0.88616700  0.62995800  1
  H  H12  1  0.53356400  0.96523800  0.78130200  1
  H  H13  1  0.03356400  0.03476200  0.71869800  1
  H  H14  1  0.46643600  0.03476200  0.21869800  1
  H  H15  1  0.96643600  0.96523800  0.28130200  1
  H  H16  1  0.24980300  0.55680400  0.06431400  1
  H  H17  1  0.74980300  0.44319600  0.43568600  1
  H  H18  1  0.75019700  0.44319600  0.93568600  1
  H  H19  1  0.25019700  0.55680400  0.56431400  1
  H  H20  1  0.39341500  0.46510000  0.10970700  1
  H  H21  1  0.89341500  0.53490000  0.39029300  1
  H  H22  1  0.60658500  0.53490000  0.89029300  1
  H  H23  1  0.10658500  0.46510000  0.60970700  1
  Pt  Pt24  1  0.27324600  0.78266700  0.87226800  1
  Pt  Pt25  1  0.77324600  0.21733300  0.62773200  1
  Pt  Pt26  1  0.72675400  0.21733300  0.12773200  1
  Pt  Pt27  1  0.22675400  0.78266700  0.37226800  1
  S  S28  1  0.42670100  0.72533900  0.78899400  1
  S  S29  1  0.92670100  0.27466100  0.71100600  1
  S  S30  1  0.57329900  0.27466100  0.21100600  1
  S  S31  1  0.07329900  0.72533900  0.28899400  1
  S  S32  1  0.41692000  0.01143900  0.87538000  1
  S  S33  1  0.91692000  0.98856100  0.62462000  1
  S  S34  1  0.58308000  0.98856100  0.12462000  1
  S  S35  1  0.08308000  0.01143900  0.37538000  1
  Br  Br36  1  0.11342600  0.52466200  0.87862600  1
  Br  Br37  1  0.61342600  0.47533800  0.62137400  1
  Br  Br38  1  0.88657400  0.47533800  0.12137400  1
  Br  Br39  1  0.38657400  0.52466200  0.37862600  1
  Br  Br40  1  0.09974800  0.81844500  0.96850600  1
  Br  Br41  1  0.59974800  0.18155500  0.53149400  1
  Br  Br42  1  0.90025200  0.18155500  0.03149400  1
  Br  Br43  1  0.40025200  0.81844500  0.46850600  1
  O  O44  1  0.28144200  0.13580200  0.88079000  1
  O  O45  1  0.78144200  0.86419800  0.61921000  1
  O  O46  1  0.71855800  0.86419800  0.11921000  1
  O  O47  1  0.21855800  0.13580200  0.38079000  1
  O  O48  1  0.52983700  0.86811000  0.75238400  1
  O  O49  1  0.02983700  0.13189000  0.74761600  1
  O  O50  1  0.47016300  0.13189000  0.24761600  1
  O  O51  1  0.97016300  0.86811000  0.25238400  1
  O  O52  1  0.30371000  0.67146100  0.74281700  1
  O  O53  1  0.80371000  0.32853900  0.75718300  1
  O  O54  1  0.69629000  0.32853900  0.25718300  1
  O  O55  1  0.19629000  0.67146100  0.24281700  1
  O  O56  1  0.57500900  0.60954900  0.80976300  1
  O  O57  1  0.07500900  0.39045100  0.69023700  1
  O  O58  1  0.42499100  0.39045100  0.19023700  1
  O  O59  1  0.92499100  0.60954900  0.30976300  1
  O  O60  1  0.52809500  0.06574100  0.81494900  1
  O  O61  1  0.02809500  0.93425900  0.68505100  1
  O  O62  1  0.47190500  0.93425900  0.18505100  1
  O  O63  1  0.97190500  0.06574100  0.31494900  1
  O  O64  1  0.55608500  0.99414600  0.92613500  1
  O  O65  1  0.05608500  0.00585400  0.57386500  1
  O  O66  1  0.44391500  0.00585400  0.07386500  1
  O  O67  1  0.94391500  0.99414600  0.42613500  1
  O  O68  1  0.37663700  0.51591400  0.06629100  1
  O  O69  1  0.87663700  0.48408600  0.43370900  1
  O  O70  1  0.62336300  0.48408600  0.93370900  1
  O  O71  1  0.12336300  0.51591400  0.56629100  1
