# generated using pymatgen
data_Zn3As2H7O12
_symmetry_space_group_name_H-M   'P 1'
_cell_length_a   5.13984500
_cell_length_b   11.00926500
_cell_length_c   19.52730400
_cell_angle_alpha   90.00000000
_cell_angle_beta   90.00000000
_cell_angle_gamma   90.00000000
_symmetry_Int_Tables_number   1
_chemical_formula_structural   Zn3As2H7O12
_chemical_formula_sum   'Zn12 As8 H28 O48'
_cell_volume   1104.97037729
_cell_formula_units_Z   4
loop_
 _symmetry_equiv_pos_site_id
 _symmetry_equiv_pos_as_xyz
  1  'x, y, z'
loop_
 _atom_site_type_symbol
 _atom_site_label
 _atom_site_symmetry_multiplicity
 _atom_site_fract_x
 _atom_site_fract_y
 _atom_site_fract_z
 _atom_site_occupancy
  Zn  Zn0  1  0.93057400  0.74144900  0.25000000  1
  Zn  Zn1  1  0.56942600  0.24144900  0.25000000  1
  Zn  Zn2  1  0.06942600  0.25855100  0.75000000  1
  Zn  Zn3  1  0.43057400  0.75855100  0.75000000  1
  Zn  Zn4  1  0.28973000  0.64507800  0.99798600  1
  Zn  Zn5  1  0.21027000  0.14507800  0.50201400  1
  Zn  Zn6  1  0.71027000  0.35492200  0.49798600  1
  Zn  Zn7  1  0.78973000  0.85492200  0.00201400  1
  Zn  Zn8  1  0.71027000  0.35492200  0.00201400  1
  Zn  Zn9  1  0.78973000  0.85492200  0.49798600  1
  Zn  Zn10  1  0.28973000  0.64507800  0.50201400  1
  Zn  Zn11  1  0.21027000  0.14507800  0.99798600  1
  As  As12  1  0.77709100  0.60017000  0.09641100  1
  As  As13  1  0.72290900  0.10017000  0.40358900  1
  As  As14  1  0.22290900  0.39983000  0.59641100  1
  As  As15  1  0.27709100  0.89983000  0.90358900  1
  As  As16  1  0.22290900  0.39983000  0.90358900  1
  As  As17  1  0.27709100  0.89983000  0.59641100  1
  As  As18  1  0.77709100  0.60017000  0.40358900  1
  As  As19  1  0.72290900  0.10017000  0.09641100  1
  H  H20  1  0.34819200  0.61571500  0.28913600  1
  H  H21  1  0.15180800  0.11571500  0.21086400  1
  H  H22  1  0.65180800  0.38428500  0.78913600  1
  H  H23  1  0.84819200  0.88428500  0.71086400  1
  H  H24  1  0.65180800  0.38428500  0.71086400  1
  H  H25  1  0.84819200  0.88428500  0.78913600  1
  H  H26  1  0.34819200  0.61571500  0.21086400  1
  H  H27  1  0.15180800  0.11571500  0.28913600  1
  H  H28  1  0.71355300  0.95982500  0.25000000  1
  H  H29  1  0.78644700  0.45982500  0.25000000  1
  H  H30  1  0.28644700  0.04017500  0.75000000  1
  H  H31  1  0.21355300  0.54017500  0.75000000  1
  H  H32  1  0.05407000  0.88920800  0.13923700  1
  H  H33  1  0.44593000  0.38920800  0.36076300  1
  H  H34  1  0.94593000  0.11079200  0.63923700  1
  H  H35  1  0.55407000  0.61079200  0.86076300  1
  H  H36  1  0.94593000  0.11079200  0.86076300  1
  H  H37  1  0.55407000  0.61079200  0.63923700  1
  H  H38  1  0.05407000  0.88920800  0.36076300  1
  H  H39  1  0.44593000  0.38920800  0.13923700  1
  H  H40  1  0.23782000  0.77490200  0.14120400  1
  H  H41  1  0.26218000  0.27490200  0.35879600  1
  H  H42  1  0.76218000  0.22509800  0.64120400  1
  H  H43  1  0.73782000  0.72509800  0.85879600  1
  H  H44  1  0.76218000  0.22509800  0.85879600  1
  H  H45  1  0.73782000  0.72509800  0.64120400  1
  H  H46  1  0.23782000  0.77490200  0.35879600  1
  H  H47  1  0.26218000  0.27490200  0.14120400  1
  O  O48  1  0.69630400  0.63879000  0.17825900  1
  O  O49  1  0.80369600  0.13879000  0.32174100  1
  O  O50  1  0.30369600  0.36121000  0.67825900  1
  O  O51  1  0.19630400  0.86121000  0.82174100  1
  O  O52  1  0.30369600  0.36121000  0.82174100  1
  O  O53  1  0.19630400  0.86121000  0.67825900  1
  O  O54  1  0.69630400  0.63879000  0.32174100  1
  O  O55  1  0.80369600  0.13879000  0.17825900  1
  O  O56  1  0.10592400  0.60646100  0.08240300  1
  O  O57  1  0.39407600  0.10646100  0.41759700  1
  O  O58  1  0.89407600  0.39353900  0.58240300  1
  O  O59  1  0.60592400  0.89353900  0.91759700  1
  O  O60  1  0.89407600  0.39353900  0.91759700  1
  O  O61  1  0.60592400  0.89353900  0.58240300  1
  O  O62  1  0.10592400  0.60646100  0.41759700  1
  O  O63  1  0.39407600  0.10646100  0.08240300  1
  O  O64  1  0.85911400  0.96026100  0.07967000  1
  O  O65  1  0.64088600  0.46026100  0.42033000  1
  O  O66  1  0.14088600  0.03973900  0.57967000  1
  O  O67  1  0.35911400  0.53973900  0.92033000  1
  O  O68  1  0.14088600  0.03973900  0.92033000  1
  O  O69  1  0.35911400  0.53973900  0.57967000  1
  O  O70  1  0.85911400  0.96026100  0.42033000  1
  O  O71  1  0.64088600  0.46026100  0.07967000  1
  O  O72  1  0.63454700  0.69861400  0.03583400  1
  O  O73  1  0.86545300  0.19861400  0.46416600  1
  O  O74  1  0.36545300  0.30138600  0.53583400  1
  O  O75  1  0.13454700  0.80138600  0.96416600  1
  O  O76  1  0.36545300  0.30138600  0.96416600  1
  O  O77  1  0.13454700  0.80138600  0.53583400  1
  O  O78  1  0.63454700  0.69861400  0.46416600  1
  O  O79  1  0.86545300  0.19861400  0.03583400  1
  O  O80  1  0.22586400  0.61121800  0.25000000  1
  O  O81  1  0.27413600  0.11121800  0.25000000  1
  O  O82  1  0.77413600  0.38878200  0.75000000  1
  O  O83  1  0.72586400  0.88878200  0.75000000  1
  O  O84  1  0.65677600  0.87365500  0.25000000  1
  O  O85  1  0.84322400  0.37365500  0.25000000  1
  O  O86  1  0.34322400  0.12634500  0.75000000  1
  O  O87  1  0.15677600  0.62634500  0.75000000  1
  O  O88  1  0.15159400  0.83426800  0.17093300  1
  O  O89  1  0.34840600  0.33426800  0.32906700  1
  O  O90  1  0.84840600  0.16573200  0.67093300  1
  O  O91  1  0.65159400  0.66573200  0.82906700  1
  O  O92  1  0.84840600  0.16573200  0.82906700  1
  O  O93  1  0.65159400  0.66573200  0.67093300  1
  O  O94  1  0.15159400  0.83426800  0.32906700  1
  O  O95  1  0.34840600  0.33426800  0.17093300  1
