# generated using pymatgen
data_Cu3P8(Se2I)3
_symmetry_space_group_name_H-M   'P 1'
_cell_length_a   7.96365900
_cell_length_b   10.07041800
_cell_length_c   27.51103800
_cell_angle_alpha   90.00000000
_cell_angle_beta   90.00000000
_cell_angle_gamma   90.00000000
_symmetry_Int_Tables_number   1
_chemical_formula_structural   Cu3P8(Se2I)3
_chemical_formula_sum   'Cu12 P32 Se24 I12'
_cell_volume   2206.31302946
_cell_formula_units_Z   4
loop_
 _symmetry_equiv_pos_site_id
 _symmetry_equiv_pos_as_xyz
  1  'x, y, z'
loop_
 _atom_site_type_symbol
 _atom_site_label
 _atom_site_symmetry_multiplicity
 _atom_site_fract_x
 _atom_site_fract_y
 _atom_site_fract_z
 _atom_site_occupancy
  Cu  Cu0  1  0.29599400  0.99920600  0.49806100  1
  Cu  Cu1  1  0.79599400  0.50079400  0.00193900  1
  Cu  Cu2  1  0.70400600  0.00079400  0.99806100  1
  Cu  Cu3  1  0.20400600  0.49920600  0.50193900  1
  Cu  Cu4  1  0.70400600  0.00079400  0.50193900  1
  Cu  Cu5  1  0.20400600  0.49920600  0.99806100  1
  Cu  Cu6  1  0.29599400  0.99920600  0.00193900  1
  Cu  Cu7  1  0.79599400  0.50079400  0.49806100  1
  Cu  Cu8  1  0.06535000  0.88079100  0.75000000  1
  Cu  Cu9  1  0.56535000  0.61920900  0.75000000  1
  Cu  Cu10  1  0.93465000  0.11920900  0.25000000  1
  Cu  Cu11  1  0.43465000  0.38079100  0.25000000  1
  P  P12  1  0.02182700  0.99527700  0.68058600  1
  P  P13  1  0.52182700  0.50472300  0.81941400  1
  P  P14  1  0.97817300  0.00472300  0.18058600  1
  P  P15  1  0.47817300  0.49527700  0.31941400  1
  P  P16  1  0.97817300  0.00472300  0.31941400  1
  P  P17  1  0.47817300  0.49527700  0.18058600  1
  P  P18  1  0.02182700  0.99527700  0.81941400  1
  P  P19  1  0.52182700  0.50472300  0.68058600  1
  P  P20  1  0.14032500  0.05561700  0.56425200  1
  P  P21  1  0.64032500  0.44438300  0.93574800  1
  P  P22  1  0.85967500  0.94438300  0.06425200  1
  P  P23  1  0.35967500  0.55561700  0.43574800  1
  P  P24  1  0.85967500  0.94438300  0.43574800  1
  P  P25  1  0.35967500  0.55561700  0.06425200  1
  P  P26  1  0.14032500  0.05561700  0.93574800  1
  P  P27  1  0.64032500  0.44438300  0.56425200  1
  P  P28  1  0.85949600  0.05527100  0.56815500  1
  P  P29  1  0.35949600  0.44472900  0.93184500  1
  P  P30  1  0.14050400  0.94472900  0.06815500  1
  P  P31  1  0.64050400  0.55527100  0.43184500  1
  P  P32  1  0.14050400  0.94472900  0.43184500  1
  P  P33  1  0.64050400  0.55527100  0.06815500  1
  P  P34  1  0.85949600  0.05527100  0.93184500  1
  P  P35  1  0.35949600  0.44472900  0.56815500  1
  P  P36  1  0.00454400  0.23923200  0.59241800  1
  P  P37  1  0.50454400  0.26076800  0.90758200  1
  P  P38  1  0.99545600  0.76076800  0.09241800  1
  P  P39  1  0.49545600  0.73923200  0.40758200  1
  P  P40  1  0.99545600  0.76076800  0.40758200  1
  P  P41  1  0.49545600  0.73923200  0.09241800  1
  P  P42  1  0.00454400  0.23923200  0.90758200  1
  P  P43  1  0.50454400  0.26076800  0.59241800  1
  Se  Se44  1  0.79266000  0.93952500  0.63563100  1
  Se  Se45  1  0.29266000  0.56047500  0.86436900  1
  Se  Se46  1  0.20734000  0.06047500  0.13563100  1
  Se  Se47  1  0.70734000  0.43952500  0.36436900  1
  Se  Se48  1  0.20734000  0.06047500  0.36436900  1
  Se  Se49  1  0.70734000  0.43952500  0.13563100  1
  Se  Se50  1  0.79266000  0.93952500  0.86436900  1
  Se  Se51  1  0.29266000  0.56047500  0.63563100  1
  Se  Se52  1  0.01692800  0.22103600  0.67440600  1
  Se  Se53  1  0.51692800  0.27896400  0.82559400  1
  Se  Se54  1  0.98307200  0.77896400  0.17440600  1
  Se  Se55  1  0.48307200  0.72103600  0.32559400  1
  Se  Se56  1  0.98307200  0.77896400  0.32559400  1
  Se  Se57  1  0.48307200  0.72103600  0.17440600  1
  Se  Se58  1  0.01692800  0.22103600  0.82559400  1
  Se  Se59  1  0.51692800  0.27896400  0.67440600  1
  Se  Se60  1  0.23441600  0.94255300  0.62934300  1
  Se  Se61  1  0.73441600  0.55744700  0.87065700  1
  Se  Se62  1  0.76558400  0.05744700  0.12934300  1
  Se  Se63  1  0.26558400  0.44255300  0.37065700  1
  Se  Se64  1  0.76558400  0.05744700  0.37065700  1
  Se  Se65  1  0.26558400  0.44255300  0.12934300  1
  Se  Se66  1  0.23441600  0.94255300  0.87065700  1
  Se  Se67  1  0.73441600  0.55744700  0.62934300  1
  I  I68  1  0.50087600  0.18866600  0.46920700  1
  I  I69  1  0.00087600  0.31133400  0.03079300  1
  I  I70  1  0.49912400  0.81133400  0.96920700  1
  I  I71  1  0.99912400  0.68866600  0.53079300  1
  I  I72  1  0.49912400  0.81133400  0.53079300  1
  I  I73  1  0.99912400  0.68866600  0.96920700  1
  I  I74  1  0.50087600  0.18866600  0.03079300  1
  I  I75  1  0.00087600  0.31133400  0.46920700  1
  I  I76  1  0.90715500  0.65083500  0.75000000  1
  I  I77  1  0.40715500  0.84916500  0.75000000  1
  I  I78  1  0.09284500  0.34916500  0.25000000  1
  I  I79  1  0.59284500  0.15083500  0.25000000  1
