# generated using pymatgen
data_Na2Ca2Al6Si9(H8O19)2
_symmetry_space_group_name_H-M   'P 1'
_cell_length_a   6.64435343
_cell_length_b   9.93854105
_cell_length_c   28.80315871
_cell_angle_alpha   87.79040273
_cell_angle_beta   83.37672207
_cell_angle_gamma   70.47171783
_symmetry_Int_Tables_number   1
_chemical_formula_structural   Na2Ca2Al6Si9(H8O19)2
_chemical_formula_sum   'Na4 Ca4 Al12 Si18 H32 O76'
_cell_volume   1780.64708971
_cell_formula_units_Z   2
loop_
 _symmetry_equiv_pos_site_id
 _symmetry_equiv_pos_as_xyz
  1  'x, y, z'
loop_
 _atom_site_type_symbol
 _atom_site_label
 _atom_site_symmetry_multiplicity
 _atom_site_fract_x
 _atom_site_fract_y
 _atom_site_fract_z
 _atom_site_occupancy
  Na  Na0  1  0.17429322  0.43681086  0.97718523  1
  Na  Na1  1  0.58828930  0.56318914  0.02281477  1
  Na  Na2  1  0.36110408  0.06318914  0.47718523  1
  Na  Na3  1  0.90147844  0.93681086  0.52281477  1
  Ca  Ca4  1  0.23297382  0.95658808  0.84612068  1
  Ca  Ca5  1  0.03568258  0.04341192  0.15387932  1
  Ca  Ca6  1  0.93956190  0.54341192  0.34612068  1
  Ca  Ca7  1  0.82909450  0.45658808  0.65387932  1
  Al  Al8  1  0.36102744  0.07597513  0.93908151  1
  Al  Al9  1  0.37608407  0.92402487  0.06091849  1
  Al  Al10  1  0.18700257  0.42402487  0.43908151  1
  Al  Al11  1  0.05010894  0.57597513  0.56091849  1
  Al  Al12  1  0.55424803  0.40886540  0.77448243  1
  Al  Al13  1  0.73759586  0.59113460  0.22551757  1
  Al  Al14  1  0.71311343  0.09113460  0.27448243  1
  Al  Al15  1  0.07873047  0.90886540  0.72551757  1
  Al  Al16  1  0.40971620  0.57813008  0.89544036  1
  Al  Al17  1  0.88328664  0.42186992  0.10455964  1
  Al  Al18  1  0.73784629  0.92186992  0.39544036  1
  Al  Al19  1  0.05515656  0.07813008  0.60455964  1
  Si  Si20  1  0.75631348  0.00000000  0.00000000  1
  Si  Si21  1  0.50631348  0.50000000  0.50000000  1
  Si  Si22  1  0.85694563  0.50834982  0.83726224  1
  Si  Si23  1  0.20255769  0.49165018  0.16273776  1
  Si  Si24  1  0.11529545  0.99165018  0.33726224  1
  Si  Si25  1  0.44420787  0.00834982  0.66273776  1
  Si  Si26  1  0.23820108  0.81084331  0.97129565  1
  Si  Si27  1  0.02034005  0.18915669  0.02870435  1
  Si  Si28  1  0.79904439  0.68915669  0.47129565  1
  Si  Si29  1  0.95949673  0.31084331  0.52870435  1
  Si  Si30  1  0.16207478  0.68402160  0.80594539  1
  Si  Si31  1  0.65204177  0.31597840  0.19405461  1
  Si  Si32  1  0.59609638  0.81597840  0.30594539  1
  Si  Si33  1  0.71802017  0.18402160  0.69405461  1
  Si  Si34  1  0.32034967  0.30675201  0.86066395  1
  Si  Si35  1  0.48776562  0.69324799  0.13933605  1
  Si  Si36  1  0.37710168  0.19324799  0.36066395  1
  Si  Si37  1  0.93101361  0.80675201  0.63933605  1
  H  H38  1  0.79116331  0.06171600  0.90892745  1
  H  H39  1  0.76180676  0.93828400  0.09107255  1
  H  H40  1  0.60287932  0.43828400  0.40892745  1
  H  H41  1  0.45009076  0.56171600  0.59107255  1
  H  H42  1  0.80388363  0.15434566  0.86356280  1
  H  H43  1  0.82179209  0.84565434  0.13643720  1
  H  H44  1  0.70822929  0.34565434  0.36356280  1
  H  H45  1  0.41744643  0.65434566  0.63643720  1
  H  H46  1  0.70526920  0.79231139  0.80681444  1
  H  H47  1  0.30439502  0.20768861  0.19318556  1
  H  H48  1  0.24758059  0.70768861  0.30681444  1
  H  H49  1  0.26208363  0.29231139  0.69318556  1
  H  H50  1  0.61443533  0.93432456  0.77810856  1
  H  H51  1  0.32686846  0.06567544  0.22189144  1
  H  H52  1  0.29875989  0.56567544  0.27810856  1
  H  H53  1  0.14254389  0.43432456  0.72189144  1
  H  H54  1  0.78558370  0.60930950  0.93379462  1
  H  H55  1  0.32868782  0.39069050  0.06620538  1
  H  H56  1  0.14489321  0.89069050  0.43379462  1
  H  H57  1  0.46937832  0.10930950  0.56620538  1
  H  H58  1  0.86709367  0.70308525  0.96626298  1
  H  H59  1  0.53644190  0.29691475  0.03373702  1
  H  H60  1  0.32017892  0.79691475  0.46626298  1
  H  H61  1  0.58335665  0.20308525  0.53373702  1
  H  H62  1  0.05529339  0.24346026  0.80377160  1
  H  H63  1  0.10252526  0.75653974  0.19622840  1
  H  H64  1  0.04875365  0.25653974  0.30377160  1
  H  H65  1  0.60906500  0.74346026  0.69622840  1
  H  H66  1  0.00247333  0.14372811  0.76903388  1
  H  H67  1  0.91523531  0.85627189  0.23096612  1
  H  H68  1  0.89620143  0.35627189  0.26903388  1
  H  H69  1  0.52150721  0.64372811  0.73096612  1
  O  O70  1  0.68311297  0.56527360  0.88317206  1
  O  O71  1  0.13155863  0.43472640  0.11682794  1
  O  O72  1  0.99838657  0.93472640  0.38317206  1
  O  O73  1  0.31628503  0.06527360  0.61682794  1
  O  O74  1  0.76015089  0.45002081  0.79675086  1
  O  O75  1  0.00692256  0.54997919  0.20324914  1
  O  O76  1  0.96017170  0.04997919  0.29675086  1
  O  O77  1  0.30690175  0.95002081  0.70324914  1
  O  O78  1  0.62120316  0.04327388  0.95508501  1
  O  O79  1  0.61956204  0.95672612  0.04491499  1
  O  O80  1  0.41447703  0.45672612  0.45508501  1
  O  O81  1  0.32628816  0.54327388  0.54491499  1
  O  O82  1  0.34764965  0.14807563  0.88262833  1
  O  O83  1  0.37835361  0.85192437  0.11737167  1
  O  O84  1  0.24572528  0.35192437  0.38262833  1
  O  O85  1  0.98027798  0.64807563  0.61737167  1
  O  O86  1  0.10030906  0.84389063  0.78348202  1
  O  O87  1  0.72768171  0.15610937  0.21651798  1
  O  O88  1  0.69419969  0.65610937  0.28348202  1
  O  O89  1  0.63379108  0.34389063  0.71651798  1
  O  O90  1  0.31736209  0.64685745  0.95259519  1
  O  O91  1  0.91681473  0.35314255  0.04740481  1
  O  O92  1  0.71421954  0.85314255  0.45259519  1
  O  O93  1  0.01995728  0.14685745  0.54740481  1
  O  O94  1  0.25761197  0.69903305  0.85502194  1
  O  O95  1  0.81166696  0.30096695  0.14497806  1
  O  O96  1  0.70664502  0.80096695  0.35502194  1
  O  O97  1  0.86263391  0.19903305  0.64497806  1
  O  O98  1  0.47340913  0.28997688  0.81187994  1
  O  O99  1  0.57526594  0.71002312  0.18812006  1
  O  O100  1  0.51338600  0.21002312  0.31187994  1
  O  O101  1  0.03528907  0.78997688  0.68812006  1
  O  O102  1  0.17784365  0.18875291  0.98106812  1
  O  O103  1  0.34766468  0.81124709  0.01893188  1
  O  O104  1  0.11659656  0.31124709  0.48106812  1
  O  O105  1  0.90891177  0.68875291  0.51893188  1
  O  O106  1  0.30160513  0.91697289  0.93132944  1
  O  O107  1  0.14990745  0.08302711  0.06867056  1
  O  O108  1  0.96857801  0.58302711  0.43132944  1
  O  O109  1  0.98293456  0.41697289  0.56867056  1
  O  O110  1  0.33515505  0.56809169  0.77033064  1
  O  O111  1  0.67357738  0.43190831  0.22966936  1
  O  O112  1  0.65324674  0.93190831  0.27033064  1
  O  O113  1  0.85548569  0.06809169  0.72966936  1
  O  O114  1  0.36580565  0.41213336  0.89751287  1
  O  O115  1  0.67545188  0.58786664  0.10248713  1
  O  O116  1  0.52793901  0.08786664  0.39751287  1
  O  O117  1  0.01331852  0.91213336  0.60248713  1
  O  O118  1  0.06470129  0.37582689  0.85133824  1
  O  O119  1  0.29186642  0.62417311  0.14866176  1
  O  O120  1  0.19052818  0.12417311  0.35133824  1
  O  O121  1  0.66603953  0.87582689  0.64866176  1
  O  O122  1  0.93820166  0.64342683  0.81776262  1
  O  O123  1  0.39939111  0.35657317  0.18223738  1
  O  O124  1  0.33162849  0.85657317  0.31776262  1
  O  O125  1  0.50596427  0.14342683  0.68223738  1
  O  O126  1  0.97256079  0.86323833  0.98354979  1
  O  O127  1  0.81934890  0.13676167  0.01645021  1
  O  O128  1  0.58579911  0.63676167  0.48354979  1
  O  O129  1  0.70611057  0.36323833  0.51645021  1
  O  O130  1  0.89078615  0.07887609  0.88249046  1
  O  O131  1  0.85215269  0.92112391  0.11750954  1
  O  O132  1  0.71966223  0.42112391  0.38249046  1
  O  O133  1  0.52327660  0.57887609  0.61750954  1
  O  O134  1  0.57267432  0.87233100  0.80141407  1
  O  O135  1  0.24641939  0.12766900  0.19858593  1
  O  O136  1  0.19500532  0.62766900  0.30141407  1
  O  O137  1  0.12408839  0.37233100  0.69858593  1
  O  O138  1  0.83929141  0.61227687  0.96449626  1
  O  O139  1  0.41606455  0.38772313  0.03550374  1
  O  O140  1  0.20156828  0.88772313  0.46449626  1
  O  O141  1  0.55378768  0.11227687  0.53550374  1
  O  O142  1  0.09770013  0.14466254  0.79269745  1
  O  O143  1  0.03506012  0.85533746  0.20730255  1
  O  O144  1  0.99236267  0.35533746  0.29269745  1
  O  O145  1  0.64039758  0.64466254  0.70730255  1
