# generated using pymatgen
data_Sr4V2(Se2O7)3
_symmetry_space_group_name_H-M   'P 1'
_cell_length_a   14.43822714
_cell_length_b   14.27682785
_cell_length_c   9.01079125
_cell_angle_alpha   72.68883178
_cell_angle_beta   70.73984419
_cell_angle_gamma   36.57132403
_symmetry_Int_Tables_number   1
_chemical_formula_structural   Sr4V2(Se2O7)3
_chemical_formula_sum   'Sr8 V4 Se12 O42'
_cell_volume   1042.98744325
_cell_formula_units_Z   2
loop_
 _symmetry_equiv_pos_site_id
 _symmetry_equiv_pos_as_xyz
  1  'x, y, z'
loop_
 _atom_site_type_symbol
 _atom_site_label
 _atom_site_symmetry_multiplicity
 _atom_site_fract_x
 _atom_site_fract_y
 _atom_site_fract_z
 _atom_site_occupancy
  Sr  Sr0  1  0.40818400  0.84941300  0.40464700  1
  Sr  Sr1  1  0.40464700  0.33775600  0.40818400  1
  Sr  Sr2  1  0.40058700  0.84181600  0.91224400  1
  Sr  Sr3  1  0.91224400  0.84535300  0.40058700  1
  Sr  Sr4  1  0.57446300  0.99922300  0.78787500  1
  Sr  Sr5  1  0.78787500  0.63843900  0.57446300  1
  Sr  Sr6  1  0.25077700  0.67553700  0.61156100  1
  Sr  Sr7  1  0.61156100  0.46212500  0.25077700  1
  V  V8  1  0.96154500  0.29996800  0.91065100  1
  V  V9  1  0.91065100  0.82783600  0.96154500  1
  V  V10  1  0.95003200  0.28845500  0.42216400  1
  V  V11  1  0.42216400  0.33934900  0.95003200  1
  Se  Se12  1  0.21142900  0.18748500  0.09461100  1
  Se  Se13  1  0.09461100  0.50647500  0.21142900  1
  Se  Se14  1  0.06251500  0.03857100  0.74352500  1
  Se  Se15  1  0.74352500  0.15538900  0.06251500  1
  Se  Se16  1  0.72816500  0.64792700  0.04634100  1
  Se  Se17  1  0.04634100  0.57756600  0.72816500  1
  Se  Se18  1  0.60207300  0.52183500  0.67243400  1
  Se  Se19  1  0.67243400  0.20365900  0.60207300  1
  Se  Se20  1  0.29125400  0.15855900  0.58440200  1
  Se  Se21  1  0.58440200  0.96578500  0.29125400  1
  Se  Se22  1  0.09144100  0.95874600  0.28421500  1
  Se  Se23  1  0.28421500  0.66559800  0.09144100  1
  O  O24  1  0.95054000  0.38167300  0.72940800  1
  O  O25  1  0.72940800  0.93837900  0.95054000  1
  O  O26  1  0.86832700  0.29946000  0.31162100  1
  O  O27  1  0.31162100  0.52059200  0.86832700  1
  O  O28  1  0.79865300  0.35870600  0.98119400  1
  O  O29  1  0.98119400  0.86144700  0.79865300  1
  O  O30  1  0.89129400  0.45134700  0.38855300  1
  O  O31  1  0.38855300  0.26880600  0.89129400  1
  O  O32  1  0.90318300  0.44592600  0.01708200  1
  O  O33  1  0.01708200  0.63380900  0.90318300  1
  O  O34  1  0.80407400  0.34681700  0.61619100  1
  O  O35  1  0.61619100  0.23291800  0.80407400  1
  O  O36  1  0.16390100  0.14439700  0.99260100  1
  O  O37  1  0.99260100  0.69910200  0.16390100  1
  O  O38  1  0.10560300  0.08609900  0.55089800  1
  O  O39  1  0.55089800  0.25739900  0.10560300  1
  O  O40  1  0.16840300  0.14337000  0.28811000  1
  O  O41  1  0.28811000  0.40011700  0.16840300  1
  O  O42  1  0.10663000  0.08159700  0.84988300  1
  O  O43  1  0.84988300  0.96189000  0.10663000  1
  O  O44  1  0.40905600  0.01806800  0.06031000  1
  O  O45  1  0.06031000  0.51256600  0.40905600  1
  O  O46  1  0.23193200  0.84094400  0.73743400  1
  O  O47  1  0.73743400  0.18969000  0.23193200  1
  O  O48  1  0.34179100  0.22078300  0.62612400  1
  O  O49  1  0.62612400  0.81130100  0.34179100  1
  O  O50  1  0.02921700  0.90820900  0.43869900  1
  O  O51  1  0.43869900  0.62387600  0.02921700  1
  O  O52  1  0.42437200  0.96975700  0.66354000  1
  O  O53  1  0.66354000  0.94233100  0.42437200  1
  O  O54  1  0.28024300  0.82562800  0.30766900  1
  O  O55  1  0.30766900  0.58646000  0.28024300  1
  O  O56  1  0.37051400  0.12948600  0.37051400  1
  O  O57  1  0.12051400  0.87948600  0.12051400  1
  O  O58  1  0.66428500  0.73071200  0.86567800  1
  O  O59  1  0.86567800  0.73932600  0.66428500  1
  O  O60  1  0.51928800  0.58571500  0.51067400  1
  O  O61  1  0.51067400  0.38432200  0.51928800  1
  O  O62  1  0.58736600  0.67093100  0.15140200  1
  O  O63  1  0.15140200  0.59030100  0.58736600  1
  O  O64  1  0.57906900  0.66263400  0.65969900  1
  O  O65  1  0.65969900  0.09859800  0.57906900  1
