# generated using pymatgen
data_La13Hg58
_symmetry_space_group_name_H-M   'P 1'
_cell_length_a   15.83303944
_cell_length_b   16.36759821
_cell_length_c   16.36759821
_cell_angle_alpha   119.99939633
_cell_angle_beta   90.00000000
_cell_angle_gamma   90.00000000
_symmetry_Int_Tables_number   1
_chemical_formula_structural   La13Hg58
_chemical_formula_sum   'La26 Hg116'
_cell_volume   3673.39371220
_cell_formula_units_Z   2
loop_
 _symmetry_equiv_pos_site_id
 _symmetry_equiv_pos_as_xyz
  1  'x, y, z'
loop_
 _atom_site_type_symbol
 _atom_site_label
 _atom_site_symmetry_multiplicity
 _atom_site_fract_x
 _atom_site_fract_y
 _atom_site_fract_z
 _atom_site_occupancy
  La  La0  1  0.50000000  0.00000000  -0.00000000  1
  La  La1  1  -0.00000000  0.00000000  -0.00000000  1
  La  La2  1  0.75000000  0.45606032  0.91211974  1
  La  La3  1  0.75000000  0.45606396  0.54393604  1
  La  La4  1  0.75000000  0.08788026  0.54393968  1
  La  La5  1  0.25000000  0.54393968  0.08788026  1
  La  La6  1  0.25000000  0.54393604  0.45606396  1
  La  La7  1  0.25000000  0.91211974  0.45606032  1
  La  La8  1  0.75000000  0.12573225  0.25146002  1
  La  La9  1  0.75000000  0.12572116  0.87427884  1
  La  La10  1  0.75000000  0.74853998  0.87426775  1
  La  La11  1  0.25000000  0.87426775  0.74853998  1
  La  La12  1  0.25000000  0.87427884  0.12572116  1
  La  La13  1  0.25000000  0.25146002  0.12573225  1
  La  La14  1  0.55418156  0.79420252  0.58841193  1
  La  La15  1  0.55420137  0.79420444  0.20579556  1
  La  La16  1  0.55418156  0.41158807  0.20579748  1
  La  La17  1  0.44581844  0.20579748  0.41158807  1
  La  La18  1  0.44579863  0.20579556  0.79420444  1
  La  La19  1  0.44581844  0.58841193  0.79420252  1
  La  La20  1  0.05418156  0.20579748  0.41158807  1
  La  La21  1  0.05420137  0.20579556  0.79420444  1
  La  La22  1  0.05418156  0.58841193  0.79420252  1
  La  La23  1  0.94581844  0.79420252  0.58841193  1
  La  La24  1  0.94579863  0.79420444  0.20579556  1
  La  La25  1  0.94581844  0.41158807  0.20579748  1
  Hg  Hg26  1  0.75000000  0.99999825  0.00000175  1
  Hg  Hg27  1  0.25000000  0.00000175  0.99999825  1
  Hg  Hg28  1  0.25000000  0.66667322  0.33332678  1
  Hg  Hg29  1  0.75000000  0.33332678  0.66667322  1
  Hg  Hg30  1  0.59225620  0.66667932  0.33332068  1
  Hg  Hg31  1  0.40774380  0.33332068  0.66667932  1
  Hg  Hg32  1  0.09225620  0.33332068  0.66667932  1
  Hg  Hg33  1  0.90774380  0.66667932  0.33332068  1
  Hg  Hg34  1  0.50000000  0.50000000  -0.00000000  1
  Hg  Hg35  1  0.50000000  0.50000000  0.50000000  1
  Hg  Hg36  1  0.50000000  0.00000000  0.50000000  1
  Hg  Hg37  1  -0.00000000  0.50000000  -0.00000000  1
  Hg  Hg38  1  -0.00000000  0.50000000  0.50000000  1
  Hg  Hg39  1  -0.00000000  0.00000000  0.50000000  1
  Hg  Hg40  1  0.75000000  0.73295824  0.46591935  1
  Hg  Hg41  1  0.75000000  0.73296652  0.26703348  1
  Hg  Hg42  1  0.75000000  0.53408065  0.26704176  1
  Hg  Hg43  1  0.25000000  0.26704176  0.53408065  1
  Hg  Hg44  1  0.25000000  0.26703348  0.73296652  1
  Hg  Hg45  1  0.25000000  0.46591935  0.73295824  1
  Hg  Hg46  1  0.49999897  0.80152083  0.00000133  1
  Hg  Hg47  1  0.50000000  0.19848145  0.19848145  1
  Hg  Hg48  1  0.50000103  0.00000133  0.80152083  1
  Hg  Hg49  1  0.50000103  0.19847917  0.99999867  1
  Hg  Hg50  1  0.49999897  0.99999867  0.19847917  1
  Hg  Hg51  1  0.50000000  0.80151855  0.80151855  1
  Hg  Hg52  1  0.99999897  0.19847917  0.99999867  1
  Hg  Hg53  1  -0.00000000  0.80151855  0.80151855  1
  Hg  Hg54  1  0.00000103  0.99999867  0.19847917  1
  Hg  Hg55  1  0.00000103  0.80152083  0.00000133  1
  Hg  Hg56  1  0.99999897  0.00000133  0.80152083  1
  Hg  Hg57  1  -0.00000000  0.19848145  0.19848145  1
  Hg  Hg58  1  0.75000000  0.92114900  0.64567553  1
  Hg  Hg59  1  0.75000000  0.72452833  0.07884294  1
  Hg  Hg60  1  0.75000000  0.35432143  0.27547286  1
  Hg  Hg61  1  0.75000000  0.72452714  0.64567857  1
  Hg  Hg62  1  0.75000000  0.35432447  0.07885100  1
  Hg  Hg63  1  0.75000000  0.92115706  0.27547167  1
  Hg  Hg64  1  0.25000000  0.07885100  0.35432447  1
  Hg  Hg65  1  0.25000000  0.27547167  0.92115706  1
  Hg  Hg66  1  0.25000000  0.64567857  0.72452714  1
  Hg  Hg67  1  0.25000000  0.27547286  0.35432143  1
  Hg  Hg68  1  0.25000000  0.64567553  0.92114900  1
  Hg  Hg69  1  0.25000000  0.07884294  0.72452833  1
  Hg  Hg70  1  0.65671627  0.90660492  0.81320850  1
  Hg  Hg71  1  0.65671804  0.90660437  0.09339563  1
  Hg  Hg72  1  0.65671627  0.18679150  0.09339508  1
  Hg  Hg73  1  0.34328373  0.09339508  0.18679150  1
  Hg  Hg74  1  0.34328196  0.09339563  0.90660437  1
  Hg  Hg75  1  0.34328373  0.81320850  0.90660492  1
  Hg  Hg76  1  0.15671627  0.09339508  0.18679150  1
  Hg  Hg77  1  0.15671804  0.09339563  0.90660437  1
  Hg  Hg78  1  0.15671627  0.81320850  0.90660492  1
  Hg  Hg79  1  0.84328373  0.90660492  0.81320850  1
  Hg  Hg80  1  0.84328196  0.90660437  0.09339563  1
  Hg  Hg81  1  0.84328373  0.18679150  0.09339508  1
  Hg  Hg82  1  0.14812161  0.44005952  0.88012158  1
  Hg  Hg83  1  0.14811490  0.44005816  0.55994184  1
  Hg  Hg84  1  0.14812161  0.11987842  0.55994048  1
  Hg  Hg85  1  0.85187839  0.55994048  0.11987842  1
  Hg  Hg86  1  0.85188510  0.55994184  0.44005816  1
  Hg  Hg87  1  0.85187839  0.88012158  0.44005952  1
  Hg  Hg88  1  0.64812161  0.55994048  0.11987842  1
  Hg  Hg89  1  0.64811490  0.55994184  0.44005816  1
  Hg  Hg90  1  0.64812161  0.88012158  0.44005952  1
  Hg  Hg91  1  0.35187839  0.44005952  0.88012158  1
  Hg  Hg92  1  0.35188510  0.44005816  0.55994184  1
  Hg  Hg93  1  0.35187839  0.11987842  0.55994048  1
  Hg  Hg94  1  0.55725430  0.39913742  0.79827929  1
  Hg  Hg95  1  0.55724204  0.39913336  0.60086664  1
  Hg  Hg96  1  0.55725430  0.20172071  0.60086258  1
  Hg  Hg97  1  0.44274570  0.60086258  0.20172071  1
  Hg  Hg98  1  0.44275796  0.60086664  0.39913336  1
  Hg  Hg99  1  0.44274570  0.79827929  0.39913742  1
  Hg  Hg100  1  0.05725430  0.60086258  0.20172071  1
  Hg  Hg101  1  0.05724204  0.60086664  0.39913336  1
  Hg  Hg102  1  0.05725430  0.79827929  0.39913742  1
  Hg  Hg103  1  0.94274570  0.39913742  0.79827929  1
  Hg  Hg104  1  0.94275796  0.39913336  0.60086664  1
  Hg  Hg105  1  0.94274570  0.20172071  0.60086258  1
  Hg  Hg106  1  0.15839229  0.76791589  0.53583609  1
  Hg  Hg107  1  0.15839082  0.76792337  0.23207663  1
  Hg  Hg108  1  0.15839229  0.46416391  0.23208411  1
  Hg  Hg109  1  0.84160771  0.23208411  0.46416391  1
  Hg  Hg110  1  0.84160918  0.23207663  0.76792337  1
  Hg  Hg111  1  0.84160771  0.53583609  0.76791589  1
  Hg  Hg112  1  0.65839229  0.23208411  0.46416391  1
  Hg  Hg113  1  0.65839082  0.23207663  0.76792337  1
  Hg  Hg114  1  0.65839229  0.53583609  0.76791589  1
  Hg  Hg115  1  0.34160771  0.76791589  0.53583609  1
  Hg  Hg116  1  0.34160918  0.76792337  0.23207663  1
  Hg  Hg117  1  0.34160771  0.46416391  0.23208411  1
  Hg  Hg118  1  0.60300135  0.63680592  0.96293618  1
  Hg  Hg119  1  0.60299952  0.32613791  0.36319787  1
  Hg  Hg120  1  0.60299959  0.03705793  0.67386204  1
  Hg  Hg121  1  0.60299959  0.32613796  0.96294207  1
  Hg  Hg122  1  0.60300135  0.03706382  0.36319408  1
  Hg  Hg123  1  0.60299952  0.63680213  0.67386209  1
  Hg  Hg124  1  0.39699865  0.36319408  0.03706382  1
  Hg  Hg125  1  0.39700048  0.67386209  0.63680213  1
  Hg  Hg126  1  0.39700041  0.96294207  0.32613796  1
  Hg  Hg127  1  0.39700041  0.67386204  0.03705793  1
  Hg  Hg128  1  0.39699865  0.96293618  0.63680592  1
  Hg  Hg129  1  0.39700048  0.36319787  0.32613791  1
  Hg  Hg130  1  0.10300135  0.36319408  0.03706382  1
  Hg  Hg131  1  0.10299952  0.67386209  0.63680213  1
  Hg  Hg132  1  0.10299959  0.96294207  0.32613796  1
  Hg  Hg133  1  0.10299959  0.67386204  0.03705793  1
  Hg  Hg134  1  0.10300135  0.96293618  0.63680592  1
  Hg  Hg135  1  0.10299952  0.36319787  0.32613791  1
  Hg  Hg136  1  0.89699865  0.63680592  0.96293618  1
  Hg  Hg137  1  0.89700048  0.32613791  0.36319787  1
  Hg  Hg138  1  0.89700041  0.03705793  0.67386204  1
  Hg  Hg139  1  0.89700041  0.32613796  0.96294207  1
  Hg  Hg140  1  0.89699865  0.03706382  0.36319408  1
  Hg  Hg141  1  0.89700048  0.63680213  0.67386209  1
