# generated using pymatgen
data_Mo2H37C12N3Cl8
_symmetry_space_group_name_H-M   'P 1'
_cell_length_a   25.22916600
_cell_length_b   9.90485400
_cell_length_c   12.05250600
_cell_angle_alpha   90.00000000
_cell_angle_beta   90.00000000
_cell_angle_gamma   90.00000000
_symmetry_Int_Tables_number   1
_chemical_formula_structural   Mo2H37C12N3Cl8
_chemical_formula_sum   'Mo8 H148 C48 N12 Cl32'
_cell_volume   3011.81525691
_cell_formula_units_Z   4
loop_
 _symmetry_equiv_pos_site_id
 _symmetry_equiv_pos_as_xyz
  1  'x, y, z'
loop_
 _atom_site_type_symbol
 _atom_site_label
 _atom_site_symmetry_multiplicity
 _atom_site_fract_x
 _atom_site_fract_y
 _atom_site_fract_z
 _atom_site_occupancy
  Mo  Mo0  1  0.60168400  0.25000000  0.27396600  1
  Mo  Mo1  1  0.10168400  0.25000000  0.22603400  1
  Mo  Mo2  1  0.39831600  0.75000000  0.72603400  1
  Mo  Mo3  1  0.89831600  0.75000000  0.77396600  1
  Mo  Mo4  1  0.68947300  0.25000000  0.19424500  1
  Mo  Mo5  1  0.18947300  0.25000000  0.30575500  1
  Mo  Mo6  1  0.31052700  0.75000000  0.80575500  1
  Mo  Mo7  1  0.81052700  0.75000000  0.69424500  1
  H  H8  1  0.62395200  0.25000000  0.13078800  1
  H  H9  1  0.12395200  0.25000000  0.36921200  1
  H  H10  1  0.37604800  0.75000000  0.86921200  1
  H  H11  1  0.87604800  0.75000000  0.63078800  1
  H  H12  1  0.99935300  0.25000000  0.47957300  1
  H  H13  1  0.49935300  0.25000000  0.02042700  1
  H  H14  1  0.00064700  0.75000000  0.52042700  1
  H  H15  1  0.50064700  0.75000000  0.97957300  1
  H  H16  1  0.97672600  0.34126700  0.60053400  1
  H  H17  1  0.47672600  0.15873300  0.89946600  1
  H  H18  1  0.02327400  0.84126700  0.39946600  1
  H  H19  1  0.52327400  0.65873300  0.10053400  1
  H  H20  1  0.02327400  0.65873300  0.39946600  1
  H  H21  1  0.52327400  0.84126700  0.10053400  1
  H  H22  1  0.97672600  0.15873300  0.60053400  1
  H  H23  1  0.47672600  0.34126700  0.89946600  1
  H  H24  1  0.83748100  0.25000000  0.56187900  1
  H  H25  1  0.33748100  0.25000000  0.93812100  1
  H  H26  1  0.16251900  0.75000000  0.43812100  1
  H  H27  1  0.66251900  0.75000000  0.06187900  1
  H  H28  1  0.88338100  0.34170600  0.64741300  1
  H  H29  1  0.38338100  0.15829400  0.85258700  1
  H  H30  1  0.11661900  0.84170600  0.35258700  1
  H  H31  1  0.61661900  0.65829400  0.14741300  1
  H  H32  1  0.11661900  0.65829400  0.35258700  1
  H  H33  1  0.61661900  0.84170600  0.14741300  1
  H  H34  1  0.88338100  0.15829400  0.64741300  1
  H  H35  1  0.38338100  0.34170600  0.85258700  1
  H  H36  1  0.93853200  0.37449500  0.37016000  1
  H  H37  1  0.43853200  0.12550500  0.12984000  1
  H  H38  1  0.06146800  0.87449500  0.62984000  1
  H  H39  1  0.56146800  0.62550500  0.87016000  1
  H  H40  1  0.06146800  0.62550500  0.62984000  1
  H  H41  1  0.56146800  0.87449500  0.87016000  1
  H  H42  1  0.93853200  0.12550500  0.37016000  1
  H  H43  1  0.43853200  0.37449500  0.12984000  1
  H  H44  1  0.86803700  0.36941600  0.40060700  1
  H  H45  1  0.36803700  0.13058400  0.09939300  1
  H  H46  1  0.13196300  0.86941600  0.59939300  1
  H  H47  1  0.63196300  0.63058400  0.90060700  1
  H  H48  1  0.13196300  0.63058400  0.59939300  1
  H  H49  1  0.63196300  0.86941600  0.90060700  1
  H  H50  1  0.86803700  0.13058400  0.40060700  1
  H  H51  1  0.36803700  0.36941600  0.09939300  1
  H  H52  1  0.91246300  0.46199600  0.48942100  1
  H  H53  1  0.41246300  0.03800400  0.01057900  1
  H  H54  1  0.08753700  0.96199600  0.51057900  1
  H  H55  1  0.58753700  0.53800400  0.98942100  1
  H  H56  1  0.08753700  0.53800400  0.51057900  1
  H  H57  1  0.58753700  0.96199600  0.98942100  1
  H  H58  1  0.91246300  0.03800400  0.48942100  1
  H  H59  1  0.41246300  0.46199600  0.01057900  1
  H  H60  1  0.83183100  0.25000000  0.09139600  1
  H  H61  1  0.33183100  0.25000000  0.40860400  1
  H  H62  1  0.16816900  0.75000000  0.90860400  1
  H  H63  1  0.66816900  0.75000000  0.59139600  1
  H  H64  1  0.83529200  0.34112900  0.96265600  1
  H  H65  1  0.33529200  0.15887100  0.53734400  1
  H  H66  1  0.16470800  0.84112900  0.03734400  1
  H  H67  1  0.66470800  0.65887100  0.46265600  1
  H  H68  1  0.16470800  0.65887100  0.03734400  1
  H  H69  1  0.66470800  0.84112900  0.46265600  1
  H  H70  1  0.83529200  0.15887100  0.96265600  1
  H  H71  1  0.33529200  0.34112900  0.53734400  1
  H  H72  1  0.97356400  0.25000000  0.90563400  1
  H  H73  1  0.47356400  0.25000000  0.59436600  1
  H  H74  1  0.02643600  0.75000000  0.09436600  1
  H  H75  1  0.52643600  0.75000000  0.40563400  1
  H  H76  1  0.91686800  0.15853700  0.85509100  1
  H  H77  1  0.41686800  0.34146300  0.64490900  1
  H  H78  1  0.08313200  0.65853700  0.14490900  1
  H  H79  1  0.58313200  0.84146300  0.35509100  1
  H  H80  1  0.08313200  0.84146300  0.14490900  1
  H  H81  1  0.58313200  0.65853700  0.35509100  1
  H  H82  1  0.91686800  0.34146300  0.85509100  1
  H  H83  1  0.41686800  0.15853700  0.64490900  1
  H  H84  1  0.90758800  0.37259100  0.15552100  1
  H  H85  1  0.40758800  0.12740900  0.34447900  1
  H  H86  1  0.09241200  0.87259100  0.84447900  1
  H  H87  1  0.59241200  0.62740900  0.65552100  1
  H  H88  1  0.09241200  0.62740900  0.84447900  1
  H  H89  1  0.59241200  0.87259100  0.65552100  1
  H  H90  1  0.90758800  0.12740900  0.15552100  1
  H  H91  1  0.40758800  0.37259100  0.34447900  1
  H  H92  1  0.96917300  0.36892900  0.08027900  1
  H  H93  1  0.46917300  0.13107100  0.41972100  1
  H  H94  1  0.03082700  0.86892900  0.91972100  1
  H  H95  1  0.53082700  0.63107100  0.58027900  1
  H  H96  1  0.03082700  0.63107100  0.91972100  1
  H  H97  1  0.53082700  0.86892900  0.58027900  1
  H  H98  1  0.96917300  0.13107100  0.08027900  1
  H  H99  1  0.46917300  0.36892900  0.41972100  1
  H  H100  1  0.91359700  0.46299800  0.02632900  1
  H  H101  1  0.41359700  0.03700200  0.47367100  1
  H  H102  1  0.08640300  0.96299800  0.97367100  1
  H  H103  1  0.58640300  0.53700200  0.52632900  1
  H  H104  1  0.08640300  0.53700200  0.97367100  1
  H  H105  1  0.58640300  0.96299800  0.52632900  1
  H  H106  1  0.91359700  0.03700200  0.02632900  1
  H  H107  1  0.41359700  0.46299800  0.47367100  1
  H  H108  1  0.74429400  0.25000000  0.85813200  1
  H  H109  1  0.24429400  0.25000000  0.64186800  1
  H  H110  1  0.25570600  0.75000000  0.14186800  1
  H  H111  1  0.75570600  0.75000000  0.35813200  1
  H  H112  1  0.77448400  0.34147200  0.74540700  1
  H  H113  1  0.27448400  0.15852800  0.75459300  1
  H  H114  1  0.22551600  0.84147200  0.25459300  1
  H  H115  1  0.72551600  0.65852800  0.24540700  1
  H  H116  1  0.22551600  0.65852800  0.25459300  1
  H  H117  1  0.72551600  0.84147200  0.24540700  1
  H  H118  1  0.77448400  0.15852800  0.74540700  1
  H  H119  1  0.27448400  0.34147200  0.75459300  1
  H  H120  1  0.67199600  0.25000000  0.54268400  1
  H  H121  1  0.17199600  0.25000000  0.95731600  1
  H  H122  1  0.32800400  0.75000000  0.45731600  1
  H  H123  1  0.82800400  0.75000000  0.04268400  1
  H  H124  1  0.73281100  0.34125300  0.56353700  1
  H  H125  1  0.23281100  0.15874700  0.93646300  1
  H  H126  1  0.26718900  0.84125300  0.43646300  1
  H  H127  1  0.76718900  0.65874700  0.06353700  1
  H  H128  1  0.26718900  0.65874700  0.43646300  1
  H  H129  1  0.76718900  0.84125300  0.06353700  1
  H  H130  1  0.73281100  0.15874700  0.56353700  1
  H  H131  1  0.23281100  0.34125300  0.93646300  1
  H  H132  1  0.66457400  0.37237200  0.82981100  1
  H  H133  1  0.16457400  0.12762800  0.67018900  1
  H  H134  1  0.33542600  0.87237200  0.17018900  1
  H  H135  1  0.83542600  0.62762800  0.32981100  1
  H  H136  1  0.33542600  0.62762800  0.17018900  1
  H  H137  1  0.83542600  0.87237200  0.32981100  1
  H  H138  1  0.66457400  0.12762800  0.82981100  1
  H  H139  1  0.16457400  0.37237200  0.67018900  1
  H  H140  1  0.69340100  0.46276600  0.71573700  1
  H  H141  1  0.19340100  0.03723400  0.78426300  1
  H  H142  1  0.30659900  0.96276600  0.28426300  1
  H  H143  1  0.80659900  0.53723400  0.21573700  1
  H  H144  1  0.30659900  0.53723400  0.28426300  1
  H  H145  1  0.80659900  0.96276600  0.21573700  1
  H  H146  1  0.69340100  0.03723400  0.71573700  1
  H  H147  1  0.19340100  0.46276600  0.78426300  1
  H  H148  1  0.63244600  0.37063800  0.69521500  1
  H  H149  1  0.13244600  0.12936200  0.80478500  1
  H  H150  1  0.36755400  0.87063800  0.30478500  1
  H  H151  1  0.86755400  0.62936200  0.19521500  1
  H  H152  1  0.36755400  0.62936200  0.30478500  1
  H  H153  1  0.86755400  0.87063800  0.19521500  1
  H  H154  1  0.63244600  0.12936200  0.69521500  1
  H  H155  1  0.13244600  0.37063800  0.80478500  1
  C  C156  1  0.97185000  0.25000000  0.54988100  1
  C  C157  1  0.47185000  0.25000000  0.95011900  1
  C  C158  1  0.02815000  0.75000000  0.45011900  1
  C  C159  1  0.52815000  0.75000000  0.04988100  1
  C  C160  1  0.87719800  0.25000000  0.59814500  1
  C  C161  1  0.37719800  0.25000000  0.90185500  1
  C  C162  1  0.12280200  0.75000000  0.40185500  1
  C  C163  1  0.62280200  0.75000000  0.09814500  1
  C  C164  1  0.90820300  0.37380500  0.43538800  1
  C  C165  1  0.40820300  0.12619500  0.06461200  1
  C  C166  1  0.09179700  0.87380500  0.56461200  1
  C  C167  1  0.59179700  0.62619500  0.93538800  1
  C  C168  1  0.09179700  0.62619500  0.56461200  1
  C  C169  1  0.59179700  0.87380500  0.93538800  1
  C  C170  1  0.90820300  0.12619500  0.43538800  1
  C  C171  1  0.40820300  0.37380500  0.06461200  1
  C  C172  1  0.84795200  0.25000000  0.00690900  1
  C  C173  1  0.34795200  0.25000000  0.49309100  1
  C  C174  1  0.15204800  0.75000000  0.99309100  1
  C  C175  1  0.65204800  0.75000000  0.50690900  1
  C  C176  1  0.93032100  0.25000000  0.89783700  1
  C  C177  1  0.43032100  0.25000000  0.60216300  1
  C  C178  1  0.06967900  0.75000000  0.10216300  1
  C  C179  1  0.56967900  0.75000000  0.39783700  1
  C  C180  1  0.92586100  0.37342600  0.07311700  1
  C  C181  1  0.42586100  0.12657400  0.42688300  1
  C  C182  1  0.07413900  0.87342600  0.92688300  1
  C  C183  1  0.57413900  0.62657400  0.57311700  1
  C  C184  1  0.07413900  0.62657400  0.92688300  1
  C  C185  1  0.57413900  0.87342600  0.57311700  1
  C  C186  1  0.92586100  0.12657400  0.07311700  1
  C  C187  1  0.42586100  0.37342600  0.42688300  1
  C  C188  1  0.75278000  0.25000000  0.76878300  1
  C  C189  1  0.25278000  0.25000000  0.73121700  1
  C  C190  1  0.24722000  0.75000000  0.23121700  1
  C  C191  1  0.74722000  0.75000000  0.26878300  1
  C  C192  1  0.71051900  0.25000000  0.58487600  1
  C  C193  1  0.21051900  0.25000000  0.91512400  1
  C  C194  1  0.28948100  0.75000000  0.41512400  1
  C  C195  1  0.78948100  0.75000000  0.08487600  1
  C  C196  1  0.67035700  0.37356600  0.73950600  1
  C  C197  1  0.17035700  0.12643400  0.76049400  1
  C  C198  1  0.32964300  0.87356600  0.26049400  1
  C  C199  1  0.82964300  0.62643400  0.23950600  1
  C  C200  1  0.32964300  0.62643400  0.26049400  1
  C  C201  1  0.82964300  0.87356600  0.23950600  1
  C  C202  1  0.67035700  0.12643400  0.73950600  1
  C  C203  1  0.17035700  0.37356600  0.76049400  1
  N  N204  1  0.91645700  0.25000000  0.50481900  1
  N  N205  1  0.41645700  0.25000000  0.99518100  1
  N  N206  1  0.08354300  0.75000000  0.49518100  1
  N  N207  1  0.58354300  0.75000000  0.00481900  1
  N  N208  1  0.90730700  0.25000000  0.01259800  1
  N  N209  1  0.40730700  0.25000000  0.48740200  1
  N  N210  1  0.09269300  0.75000000  0.98740200  1
  N  N211  1  0.59269300  0.75000000  0.51259800  1
  N  N212  1  0.70100500  0.25000000  0.70799700  1
  N  N213  1  0.20100500  0.25000000  0.79200300  1
  N  N214  1  0.29899500  0.75000000  0.29200300  1
  N  N215  1  0.79899500  0.75000000  0.20799700  1
  Cl  Cl216  1  0.66593700  0.42453100  0.33601400  1
  Cl  Cl217  1  0.16593700  0.07546900  0.16398600  1
  Cl  Cl218  1  0.33406300  0.92453100  0.66398600  1
  Cl  Cl219  1  0.83406300  0.57546900  0.83601400  1
  Cl  Cl220  1  0.33406300  0.57546900  0.66398600  1
  Cl  Cl221  1  0.83406300  0.92453100  0.83601400  1
  Cl  Cl222  1  0.66593700  0.07546900  0.33601400  1
  Cl  Cl223  1  0.16593700  0.42453100  0.16398600  1
  Cl  Cl224  1  0.54036200  0.42516200  0.21352700  1
  Cl  Cl225  1  0.04036200  0.07483800  0.28647300  1
  Cl  Cl226  1  0.45963800  0.92516200  0.78647300  1
  Cl  Cl227  1  0.95963800  0.57483800  0.71352700  1
  Cl  Cl228  1  0.45963800  0.57483800  0.78647300  1
  Cl  Cl229  1  0.95963800  0.92516200  0.71352700  1
  Cl  Cl230  1  0.54036200  0.07483800  0.21352700  1
  Cl  Cl231  1  0.04036200  0.42516200  0.28647300  1
  Cl  Cl232  1  0.56748300  0.25000000  0.47247300  1
  Cl  Cl233  1  0.06748300  0.25000000  0.02752700  1
  Cl  Cl234  1  0.43251700  0.75000000  0.52752700  1
  Cl  Cl235  1  0.93251700  0.75000000  0.97247300  1
  Cl  Cl236  1  0.70942800  0.42283900  0.05965600  1
  Cl  Cl237  1  0.20942800  0.07716100  0.44034400  1
  Cl  Cl238  1  0.29057200  0.92283900  0.94034400  1
  Cl  Cl239  1  0.79057200  0.57716100  0.55965600  1
  Cl  Cl240  1  0.29057200  0.57716100  0.94034400  1
  Cl  Cl241  1  0.79057200  0.92283900  0.55965600  1
  Cl  Cl242  1  0.70942800  0.07716100  0.05965600  1
  Cl  Cl243  1  0.20942800  0.42283900  0.44034400  1
  Cl  Cl244  1  0.78154300  0.25000000  0.27706600  1
  Cl  Cl245  1  0.28154300  0.25000000  0.22293400  1
  Cl  Cl246  1  0.21845700  0.75000000  0.72293400  1
  Cl  Cl247  1  0.71845700  0.75000000  0.77706600  1
