# generated using pymatgen
data_P6H17S6(NO)7
_symmetry_space_group_name_H-M   'P 1'
_cell_length_a   11.62142400
_cell_length_b   11.65537863
_cell_length_c   11.72415441
_cell_angle_alpha   60.84443698
_cell_angle_beta   61.89622179
_cell_angle_gamma   72.83599396
_symmetry_Int_Tables_number   1
_chemical_formula_structural   P6H17S6(NO)7
_chemical_formula_sum   'P12 H34 S12 N14 O14'
_cell_volume   1218.89302323
_cell_formula_units_Z   2
loop_
 _symmetry_equiv_pos_site_id
 _symmetry_equiv_pos_as_xyz
  1  'x, y, z'
loop_
 _atom_site_type_symbol
 _atom_site_label
 _atom_site_symmetry_multiplicity
 _atom_site_fract_x
 _atom_site_fract_y
 _atom_site_fract_z
 _atom_site_occupancy
  P  P0  1  0.12066400  0.78470900  0.16840400  1
  P  P1  1  0.87933600  0.21529100  0.83159600  1
  P  P2  1  0.85898800  0.77376500  0.18824300  1
  P  P3  1  0.14101200  0.22623500  0.81175700  1
  P  P4  1  0.09784600  0.77972200  0.92936700  1
  P  P5  1  0.90215400  0.22027800  0.07063300  1
  P  P6  1  0.11111300  0.05490600  0.70715800  1
  P  P7  1  0.88888700  0.94509400  0.29284200  1
  P  P8  1  0.85104000  0.94114900  0.90198600  1
  P  P9  1  0.14896000  0.05885100  0.09801400  1
  P  P10  1  0.27866700  0.95641300  0.87210500  1
  P  P11  1  0.72133300  0.04358700  0.12789500  1
  H  H12  1  0.34947900  0.76723000  0.04522100  1
  H  H13  1  0.65052100  0.23277000  0.95477900  1
  H  H14  1  0.95876000  0.75585100  0.84870400  1
  H  H15  1  0.04124000  0.24414900  0.15129600  1
  H  H16  1  0.23413600  0.24329400  0.57513100  1
  H  H17  1  0.76586400  0.75670600  0.42486900  1
  H  H18  1  0.33645300  0.31743000  0.35177000  1
  H  H19  1  0.66354700  0.68257000  0.64823000  1
  H  H20  1  0.36085200  0.39461200  0.41725500  1
  H  H21  1  0.63914800  0.60538800  0.58274500  1
  H  H22  1  0.28204100  0.44678600  0.16438500  1
  H  H23  1  0.71795900  0.55321400  0.83561500  1
  H  H24  1  0.31289400  0.30518100  0.17277900  1
  H  H25  1  0.68710600  0.69481900  0.82722100  1
  H  H26  1  0.46657200  0.62326100  0.16629000  1
  H  H27  1  0.53342800  0.37673900  0.83371000  1
  H  H28  1  0.51246800  0.63131500  0.01043700  1
  H  H29  1  0.48753200  0.36868500  0.98956300  1
  H  H30  1  0.44032400  0.58163000  0.38834700  1
  H  H31  1  0.55967600  0.41837000  0.61165300  1
  H  H32  1  0.53313900  0.46026300  0.36549000  1
  H  H33  1  0.46686100  0.53973700  0.63451000  1
  H  H34  1  0.02079700  0.69494600  0.68614200  1
  H  H35  1  0.97920300  0.30505400  0.31385800  1
  H  H36  1  0.96908600  0.57646400  0.83582600  1
  H  H37  1  0.03091400  0.42353600  0.16417400  1
  H  H38  1  0.46201700  0.74767000  0.42961300  1
  H  H39  1  0.53798300  0.25233000  0.57038700  1
  H  H40  1  0.31571100  0.71264400  0.49967500  1
  H  H41  1  0.68428900  0.28735600  0.50032500  1
  H  H42  1  0.14169500  0.73336700  0.45089800  1
  H  H43  1  0.85830500  0.26663300  0.54910200  1
  H  H44  1  0.13326100  0.85274800  0.48264400  1
  H  H45  1  0.86673900  0.14725200  0.51735600  1
  S  S46  1  0.78611900  0.61668200  0.24957800  1
  S  S47  1  0.21388100  0.38331800  0.75042200  1
  S  S48  1  0.13574600  0.62963200  0.33083700  1
  S  S49  1  0.86425400  0.37036800  0.66916300  1
  S  S50  1  0.20665900  0.62630700  0.90741100  1
  S  S51  1  0.79334100  0.37369300  0.09258900  1
  S  S52  1  0.15535100  0.04154600  0.53436800  1
  S  S53  1  0.84464900  0.95845400  0.46563200  1
  S  S54  1  0.71502800  0.95751000  0.84620200  1
  S  S55  1  0.28497200  0.04249000  0.15379800  1
  S  S56  1  0.45229500  0.98169300  0.73032200  1
  S  S57  1  0.54770500  0.01830700  0.26967800  1
  N  N58  1  0.16771900  0.92712700  0.83084500  1
  N  N59  1  0.83228100  0.07287300  0.16915500  1
  N  N60  1  0.26087600  0.82875700  0.02874500  1
  N  N61  1  0.73912400  0.17124300  0.97125500  1
  N  N62  1  0.02669600  0.77466400  0.09735000  1
  N  N63  1  0.97330400  0.22533600  0.90265000  1
  N  N64  1  0.96731100  0.81737400  0.88963100  1
  N  N65  1  0.03268900  0.18262600  0.11036900  1
  N  N66  1  0.16416800  0.18443700  0.68539200  1
  N  N67  1  0.83583200  0.81556300  0.31460800  1
  N  N68  1  0.19420300  0.08245000  0.92581000  1
  N  N69  1  0.80579700  0.91755000  0.07419000  1
  N  N70  1  0.05400400  0.92730700  0.19249600  1
  N  N71  1  0.94599600  0.07269300  0.80750400  1
  O  O72  1  0.33318700  0.31003800  0.44112400  1
  O  O73  1  0.66681300  0.68996200  0.55887600  1
  O  O74  1  0.34737000  0.37075700  0.17470600  1
  O  O75  1  0.65263000  0.62924300  0.82529400  1
  O  O76  1  0.46610300  0.68082200  0.06993400  1
  O  O77  1  0.53389700  0.31917800  0.93006600  1
  O  O78  1  0.46227300  0.52331100  0.33928600  1
  O  O79  1  0.53772700  0.47668900  0.66071400  1
  O  O80  1  0.94962600  0.67023700  0.78316000  1
  O  O81  1  0.05037400  0.32976300  0.21684000  1
  O  O82  1  0.40781100  0.67399300  0.48119200  1
  O  O83  1  0.59218900  0.32600700  0.51880800  1
  O  O84  1  0.14800400  0.75667000  0.51853100  1
  O  O85  1  0.85199600  0.24333000  0.48146900  1
