# generated using pymatgen
data_Ba9In4(SF)10
_symmetry_space_group_name_H-M   'P 1'
_cell_length_a   12.67724781
_cell_length_b   12.68417931
_cell_length_c   19.56612436
_cell_angle_alpha   90.00000000
_cell_angle_beta   90.00000000
_cell_angle_gamma   90.00000000
_symmetry_Int_Tables_number   1
_chemical_formula_structural   Ba9In4(SF)10
_chemical_formula_sum   'Ba36 In16 S40 F40'
_cell_volume   3146.24227451
_cell_formula_units_Z   4
loop_
 _symmetry_equiv_pos_site_id
 _symmetry_equiv_pos_as_xyz
  1  'x, y, z'
loop_
 _atom_site_type_symbol
 _atom_site_label
 _atom_site_symmetry_multiplicity
 _atom_site_fract_x
 _atom_site_fract_y
 _atom_site_fract_z
 _atom_site_occupancy
  Ba  Ba0  1  0.13078187  0.75657333  0.42423892  1
  Ba  Ba1  1  0.63078187  0.74342667  0.07576108  1
  Ba  Ba2  1  0.86921813  0.24342667  0.92423892  1
  Ba  Ba3  1  0.36921813  0.25657333  0.57576108  1
  Ba  Ba4  1  0.86921813  0.24342667  0.57576108  1
  Ba  Ba5  1  0.36921813  0.25657333  0.92423892  1
  Ba  Ba6  1  0.13078187  0.75657333  0.07576108  1
  Ba  Ba7  1  0.63078187  0.74342667  0.42423892  1
  Ba  Ba8  1  0.37841665  0.50295782  0.42293367  1
  Ba  Ba9  1  0.87841665  0.99704218  0.07706633  1
  Ba  Ba10  1  0.62158335  0.49704218  0.92293367  1
  Ba  Ba11  1  0.12158335  0.00295782  0.57706633  1
  Ba  Ba12  1  0.62158335  0.49704218  0.57706633  1
  Ba  Ba13  1  0.12158335  0.00295782  0.92293367  1
  Ba  Ba14  1  0.37841665  0.50295782  0.07706633  1
  Ba  Ba15  1  0.87841665  0.99704218  0.42293367  1
  Ba  Ba16  1  0.38105499  0.74981361  0.57572199  1
  Ba  Ba17  1  0.88105499  0.75018639  0.92427801  1
  Ba  Ba18  1  0.61894501  0.25018639  0.07572199  1
  Ba  Ba19  1  0.11894501  0.24981361  0.42427801  1
  Ba  Ba20  1  0.61894501  0.25018639  0.42427801  1
  Ba  Ba21  1  0.11894501  0.24981361  0.07572199  1
  Ba  Ba22  1  0.38105499  0.74981361  0.92427801  1
  Ba  Ba23  1  0.88105499  0.75018639  0.57572199  1
  Ba  Ba24  1  0.87145790  0.49375068  0.42415062  1
  Ba  Ba25  1  0.37145790  0.00624932  0.07584938  1
  Ba  Ba26  1  0.12854210  0.50624932  0.92415062  1
  Ba  Ba27  1  0.62854210  0.99375068  0.57584938  1
  Ba  Ba28  1  0.12854210  0.50624932  0.57584938  1
  Ba  Ba29  1  0.62854210  0.99375068  0.92415062  1
  Ba  Ba30  1  0.87145790  0.49375068  0.07584938  1
  Ba  Ba31  1  0.37145790  0.00624932  0.42415062  1
  Ba  Ba32  1  0.62394874  0.49729498  0.25000000  1
  Ba  Ba33  1  0.12394874  0.00270502  0.25000000  1
  Ba  Ba34  1  0.37605126  0.50270502  0.75000000  1
  Ba  Ba35  1  0.87605126  0.99729498  0.75000000  1
  In  In36  1  0.32523363  0.69800813  0.25000000  1
  In  In37  1  0.82523363  0.80199187  0.25000000  1
  In  In38  1  0.67476637  0.30199187  0.75000000  1
  In  In39  1  0.17476637  0.19800813  0.75000000  1
  In  In40  1  0.41915848  0.20573696  0.25000000  1
  In  In41  1  0.91915848  0.29426304  0.25000000  1
  In  In42  1  0.58084152  0.79426304  0.75000000  1
  In  In43  1  0.08084152  0.70573696  0.75000000  1
  In  In44  1  0.20418428  0.41805154  0.25000000  1
  In  In45  1  0.70418428  0.08194846  0.25000000  1
  In  In46  1  0.79581572  0.58194846  0.75000000  1
  In  In47  1  0.29581572  0.91805154  0.75000000  1
  In  In48  1  0.02030768  0.60390850  0.25000000  1
  In  In49  1  0.52030768  0.89609150  0.25000000  1
  In  In50  1  0.97969232  0.39609150  0.75000000  1
  In  In51  1  0.47969232  0.10390850  0.75000000  1
  S  S52  1  0.13819737  0.75986161  0.25000000  1
  S  S53  1  0.63819737  0.74013839  0.25000000  1
  S  S54  1  0.86180263  0.24013839  0.75000000  1
  S  S55  1  0.36180263  0.25986161  0.75000000  1
  S  S56  1  0.39395351  0.76681128  0.35759064  1
  S  S57  1  0.89395351  0.73318872  0.14240936  1
  S  S58  1  0.60604649  0.23318872  0.85759064  1
  S  S59  1  0.10604649  0.26681128  0.64240936  1
  S  S60  1  0.60604649  0.23318872  0.64240936  1
  S  S61  1  0.10604649  0.26681128  0.85759064  1
  S  S62  1  0.39395351  0.76681128  0.14240936  1
  S  S63  1  0.89395351  0.73318872  0.35759064  1
  S  S64  1  0.11969569  0.50695220  0.35244377  1
  S  S65  1  0.61969569  0.99304780  0.14755623  1
  S  S66  1  0.88030431  0.49304780  0.85244377  1
  S  S67  1  0.38030431  0.00695220  0.64755623  1
  S  S68  1  0.88030431  0.49304780  0.64755623  1
  S  S69  1  0.38030431  0.00695220  0.85244377  1
  S  S70  1  0.11969569  0.50695220  0.14755623  1
  S  S71  1  0.61969569  0.99304780  0.35244377  1
  S  S72  1  0.36275245  0.26131221  0.36316192  1
  S  S73  1  0.86275245  0.23868779  0.13683808  1
  S  S74  1  0.63724755  0.73868779  0.86316192  1
  S  S75  1  0.13724755  0.76131221  0.63683808  1
  S  S76  1  0.63724755  0.73868779  0.63683808  1
  S  S77  1  0.13724755  0.76131221  0.86316192  1
  S  S78  1  0.36275245  0.26131221  0.13683808  1
  S  S79  1  0.86275245  0.23868779  0.36316192  1
  S  S80  1  0.36512935  0.01384098  0.25000000  1
  S  S81  1  0.86512935  0.48615902  0.25000000  1
  S  S82  1  0.63487065  0.98615902  0.75000000  1
  S  S83  1  0.13487065  0.51384098  0.75000000  1
  S  S84  1  0.37796130  0.50671350  0.25000000  1
  S  S85  1  0.87796130  0.99328650  0.25000000  1
  S  S86  1  0.62203870  0.49328650  0.75000000  1
  S  S87  1  0.12203870  0.00671350  0.75000000  1
  S  S88  1  0.11426982  0.24634227  0.25000000  1
  S  S89  1  0.61426982  0.25365773  0.25000000  1
  S  S90  1  0.88573018  0.75365773  0.75000000  1
  S  S91  1  0.38573018  0.74634227  0.75000000  1
  F  F92  1  0.62354838  0.49971723  0.38068544  1
  F  F93  1  0.12354838  0.00028277  0.11931456  1
  F  F94  1  0.37645162  0.50028277  0.88068544  1
  F  F95  1  0.87645162  0.99971723  0.61931456  1
  F  F96  1  0.37645162  0.50028277  0.61931456  1
  F  F97  1  0.87645162  0.99971723  0.88068544  1
  F  F98  1  0.62354838  0.49971723  0.11931456  1
  F  F99  1  0.12354838  0.00028277  0.38068544  1
  F  F100  1  0.99714695  0.37573076  0.50161508  1
  F  F101  1  0.49714695  0.12426924  0.99838492  1
  F  F102  1  0.00285305  0.62426924  0.00161508  1
  F  F103  1  0.50285305  0.87573076  0.49838492  1
  F  F104  1  0.00285305  0.62426924  0.49838492  1
  F  F105  1  0.50285305  0.87573076  0.00161508  1
  F  F106  1  0.99714695  0.37573076  0.99838492  1
  F  F107  1  0.49714695  0.12426924  0.50161508  1
  F  F108  1  0.00301023  0.87651965  0.49952985  1
  F  F109  1  0.50301023  0.62348035  0.00047015  1
  F  F110  1  0.99698977  0.12348035  0.99952985  1
  F  F111  1  0.49698977  0.37651965  0.50047015  1
  F  F112  1  0.99698977  0.12348035  0.50047015  1
  F  F113  1  0.49698977  0.37651965  0.99952985  1
  F  F114  1  0.00301023  0.87651965  0.00047015  1
  F  F115  1  0.50301023  0.62348035  0.49952985  1
  F  F116  1  0.75347246  0.61947730  0.50200062  1
  F  F117  1  0.25347246  0.88052270  0.99799938  1
  F  F118  1  0.24652754  0.38052270  0.00200062  1
  F  F119  1  0.74652754  0.11947730  0.49799938  1
  F  F120  1  0.24652754  0.38052270  0.49799938  1
  F  F121  1  0.74652754  0.11947730  0.00200062  1
  F  F122  1  0.75347246  0.61947730  0.99799938  1
  F  F123  1  0.25347246  0.88052270  0.50200062  1
  F  F124  1  0.25455378  0.62868324  0.49748164  1
  F  F125  1  0.75455378  0.87131676  0.00251836  1
  F  F126  1  0.74544622  0.37131676  0.99748164  1
  F  F127  1  0.24544622  0.12868324  0.50251836  1
  F  F128  1  0.74544622  0.37131676  0.50251836  1
  F  F129  1  0.24544622  0.12868324  0.99748164  1
  F  F130  1  0.25455378  0.62868324  0.00251836  1
  F  F131  1  0.75455378  0.87131676  0.49748164  1
