# generated using pymatgen
data_H22Pt2C6SO6
_symmetry_space_group_name_H-M   'P 1'
_cell_length_a   7.39620400
_cell_length_b   9.42834860
_cell_length_c   10.91275350
_cell_angle_alpha   101.77939898
_cell_angle_beta   90.00000000
_cell_angle_gamma   90.00000000
_symmetry_Int_Tables_number   1
_chemical_formula_structural   H22Pt2C6SO6
_chemical_formula_sum   'H44 Pt4 C12 S2 O12'
_cell_volume   744.96404248
_cell_formula_units_Z   2
loop_
 _symmetry_equiv_pos_site_id
 _symmetry_equiv_pos_as_xyz
  1  'x, y, z'
loop_
 _atom_site_type_symbol
 _atom_site_label
 _atom_site_symmetry_multiplicity
 _atom_site_fract_x
 _atom_site_fract_y
 _atom_site_fract_z
 _atom_site_occupancy
  H  H0  1  0.24250400  0.83105500  0.19861700  1
  H  H1  1  0.74250400  0.16894500  0.80138300  1
  H  H2  1  0.26458500  0.91902900  0.35942900  1
  H  H3  1  0.76458500  0.08097100  0.64057100  1
  H  H4  1  0.42177300  0.77882300  0.29284300  1
  H  H5  1  0.92177300  0.22117700  0.70715700  1
  H  H6  1  0.26785100  0.20012500  0.33333300  1
  H  H7  1  0.76785100  0.79987500  0.66666700  1
  H  H8  1  0.49426800  0.26496800  0.36829200  1
  H  H9  1  0.99426800  0.73503200  0.63170800  1
  H  H10  1  0.40154300  0.13194500  0.44607100  1
  H  H11  1  0.90154300  0.86805500  0.55392900  1
  H  H12  1  0.79624600  0.06283000  0.34278900  1
  H  H13  1  0.29624600  0.93717000  0.65721100  1
  H  H14  1  0.76424100  0.87294300  0.27976400  1
  H  H15  1  0.26424100  0.12705700  0.72023600  1
  H  H16  1  0.64689300  0.95823100  0.41954400  1
  H  H17  1  0.14689300  0.04176900  0.58045600  1
  H  H18  1  0.52627900  0.36950600  0.80702300  1
  H  H19  1  0.02627900  0.63049400  0.19297700  1
  H  H20  1  0.67385100  0.48595500  0.73917600  1
  H  H21  1  0.17385100  0.51404500  0.26082400  1
  H  H22  1  0.50673200  0.37538300  0.64507900  1
  H  H23  1  0.00673200  0.62461700  0.35492100  1
  H  H24  1  0.02919200  0.52911900  0.74968900  1
  H  H25  1  0.52919200  0.47088100  0.25031100  1
  H  H26  1  0.15326200  0.38827700  0.80043400  1
  H  H27  1  0.65326200  0.61172300  0.19956600  1
  H  H28  1  0.16905200  0.40856900  0.64095200  1
  H  H29  1  0.66905200  0.59143100  0.35904800  1
  H  H30  1  0.50987600  0.68903100  0.60071400  1
  H  H31  1  0.00987600  0.31096900  0.39928600  1
  H  H32  1  0.26862000  0.70933500  0.59637400  1
  H  H33  1  0.76862100  0.29066500  0.40362600  1
  H  H34  1  0.36862800  0.53530700  0.54336300  1
  H  H35  1  0.86862800  0.46469300  0.45663700  1
  H  H36  1  0.55316600  0.23044100  0.09414500  1
  H  H37  1  0.05316600  0.76955900  0.90585500  1
  H  H38  1  0.72284700  0.12063800  0.05784600  1
  H  H39  1  0.22284700  0.87936200  0.94215400  1
  H  H40  1  0.33390400  0.46031100  0.00088500  1
  H  H41  1  0.83390400  0.53968900  0.99911500  1
  H  H42  1  0.26737200  0.62106600  0.04461600  1
  H  H43  1  0.76737200  0.37893400  0.95538400  1
  Pt  Pt44  1  0.49856300  0.01513700  0.21468100  1
  Pt  Pt45  1  0.99856300  0.98486300  0.78531900  1
  Pt  Pt46  1  0.36343300  0.60656000  0.79031600  1
  Pt  Pt47  1  0.86343300  0.39344000  0.20968400  1
  C  C48  1  0.33899000  0.86881300  0.27481300  1
  C  C49  1  0.83899000  0.13118700  0.72518700  1
  C  C50  1  0.40455800  0.17046800  0.35773700  1
  C  C51  1  0.90455800  0.82953200  0.64226300  1
  C  C52  1  0.69910700  0.97307600  0.32899000  1
  C  C53  1  0.19910700  0.02692400  0.67101000  1
  C  C54  1  0.53763500  0.43946100  0.73828800  1
  C  C55  1  0.03763500  0.56053900  0.26171200  1
  C  C56  1  0.15557100  0.46641500  0.73847600  1
  C  C57  1  0.65557100  0.53358500  0.26152400  1
  C  C58  1  0.37936800  0.63781800  0.61190900  1
  C  C59  1  0.87936800  0.36218200  0.38809100  1
  S  S60  1  0.70514700  0.81849100  0.94792500  1
  S  S61  1  0.20514700  0.18150900  0.05207500  1
  O  O62  1  0.66531100  0.19025900  0.12844500  1
  O  O63  1  0.16531100  0.80974100  0.87155500  1
  O  O64  1  0.60214300  0.83288100  0.06618600  1
  O  O65  1  0.10214300  0.16711900  0.93381400  1
  O  O66  1  0.78725000  0.96285400  0.93844000  1
  O  O67  1  0.28725000  0.03714600  0.06156000  1
  O  O68  1  0.85545300  0.71120400  0.94735300  1
  O  O69  1  0.35545300  0.28879600  0.05264700  1
  O  O70  1  0.58479100  0.77180300  0.83781100  1
  O  O71  1  0.08479100  0.22819700  0.16218900  1
  O  O72  1  0.35189400  0.56120500  0.98858300  1
  O  O73  1  0.85189400  0.43879500  0.01141700  1
