# generated using pymatgen
data_ZrH8Pb(C3O8)2
_symmetry_space_group_name_H-M   'P 1'
_cell_length_a   14.87875400
_cell_length_b   9.75665100
_cell_length_c   10.22928151
_cell_angle_alpha   74.66949791
_cell_angle_beta   90.00000000
_cell_angle_gamma   90.00000000
_symmetry_Int_Tables_number   1
_chemical_formula_structural   ZrH8Pb(C3O8)2
_chemical_formula_sum   'Zr4 H32 Pb4 C24 O64'
_cell_volume   1432.11282511
_cell_formula_units_Z   4
loop_
 _symmetry_equiv_pos_site_id
 _symmetry_equiv_pos_as_xyz
  1  'x, y, z'
loop_
 _atom_site_type_symbol
 _atom_site_label
 _atom_site_symmetry_multiplicity
 _atom_site_fract_x
 _atom_site_fract_y
 _atom_site_fract_z
 _atom_site_occupancy
  Zr  Zr0  1  0.88911200  0.68400700  0.12170800  1
  Zr  Zr1  1  0.38911200  0.81599300  0.87829200  1
  Zr  Zr2  1  0.11088800  0.31599300  0.87829200  1
  Zr  Zr3  1  0.61088800  0.18400700  0.12170800  1
  H  H4  1  0.91482500  0.32374200  0.86066600  1
  H  H5  1  0.41482500  0.17625800  0.13933400  1
  H  H6  1  0.08517500  0.67625800  0.13933400  1
  H  H7  1  0.58517500  0.82374200  0.86066600  1
  H  H8  1  0.94759400  0.38596200  0.98727100  1
  H  H9  1  0.44759400  0.11403800  0.01272900  1
  H  H10  1  0.05240600  0.61403800  0.01272900  1
  H  H11  1  0.55240600  0.88596200  0.98727100  1
  H  H12  1  0.63144400  0.07136400  0.50460800  1
  H  H13  1  0.13144400  0.42863600  0.49539200  1
  H  H14  1  0.36855600  0.92863600  0.49539200  1
  H  H15  1  0.86855600  0.57136400  0.50460800  1
  H  H16  1  0.65120300  0.14613000  0.62211700  1
  H  H17  1  0.15120300  0.35387000  0.37788300  1
  H  H18  1  0.34879700  0.85387000  0.37788300  1
  H  H19  1  0.84879700  0.64613000  0.62211700  1
  H  H20  1  0.69283100  0.66411400  0.13346900  1
  H  H21  1  0.19283100  0.83588600  0.86653100  1
  H  H22  1  0.30716900  0.33588600  0.86653100  1
  H  H23  1  0.80716900  0.16411400  0.13346900  1
  H  H24  1  0.72093800  0.55460900  0.04689100  1
  H  H25  1  0.22093800  0.94539100  0.95310900  1
  H  H26  1  0.27906200  0.44539100  0.95310900  1
  H  H27  1  0.77906200  0.05460900  0.04689100  1
  H  H28  1  0.82956700  0.22389200  0.77406400  1
  H  H29  1  0.32956700  0.27610800  0.22593600  1
  H  H30  1  0.17043300  0.77610800  0.22593600  1
  H  H31  1  0.67043300  0.72389200  0.77406400  1
  H  H32  1  0.83364900  0.39455400  0.70122400  1
  H  H33  1  0.33364900  0.10544600  0.29877600  1
  H  H34  1  0.16635100  0.60544600  0.29877600  1
  H  H35  1  0.66635100  0.89455400  0.70122400  1
  Pb  Pb36  1  0.86186500  0.06570800  0.51774900  1
  Pb  Pb37  1  0.36186500  0.43429200  0.48225100  1
  Pb  Pb38  1  0.13813500  0.93429200  0.48225100  1
  Pb  Pb39  1  0.63813500  0.56570800  0.51774900  1
  C  C40  1  0.06813200  0.12591400  0.68861000  1
  C  C41  1  0.56813200  0.37408600  0.31139000  1
  C  C42  1  0.93186800  0.87408600  0.31139000  1
  C  C43  1  0.43186800  0.62591400  0.68861000  1
  C  C44  1  0.17067000  0.15131800  0.67574000  1
  C  C45  1  0.67067000  0.34868200  0.32426000  1
  C  C46  1  0.82933000  0.84868200  0.32426000  1
  C  C47  1  0.32933000  0.65131800  0.67574000  1
  C  C48  1  0.87278000  0.79621500  0.81012800  1
  C  C49  1  0.37278000  0.70378500  0.18987200  1
  C  C50  1  0.12722000  0.20378500  0.18987200  1
  C  C51  1  0.62722000  0.29621500  0.81012800  1
  C  C52  1  0.85095700  0.92806800  0.86140300  1
  C  C53  1  0.35095700  0.57193200  0.13859700  1
  C  C54  1  0.14904300  0.07193200  0.13859700  1
  C  C55  1  0.64904300  0.42806800  0.86140300  1
  C  C56  1  0.89940300  0.35414200  0.22812300  1
  C  C57  1  0.39940300  0.14585800  0.77187700  1
  C  C58  1  0.10059700  0.64585800  0.77187700  1
  C  C59  1  0.60059700  0.85414200  0.22812300  1
  C  C60  1  0.91498300  0.40915800  0.35490400  1
  C  C61  1  0.41498300  0.09084200  0.64509600  1
  C  C62  1  0.08501700  0.59084200  0.64509600  1
  C  C63  1  0.58501700  0.90915800  0.35490400  1
  O  O64  1  0.03021200  0.06016800  0.61315100  1
  O  O65  1  0.53021200  0.43983200  0.38684900  1
  O  O66  1  0.96978800  0.93983200  0.38684900  1
  O  O67  1  0.46978800  0.56016800  0.61315100  1
  O  O68  1  0.03055100  0.17610700  0.77790900  1
  O  O69  1  0.53055100  0.32389300  0.22209100  1
  O  O70  1  0.96944900  0.82389300  0.22209100  1
  O  O71  1  0.46944900  0.67610700  0.77790900  1
  O  O72  1  0.79944800  0.77043600  0.25091100  1
  O  O73  1  0.29944800  0.72956400  0.74908900  1
  O  O74  1  0.20055200  0.22956400  0.74908900  1
  O  O75  1  0.70055200  0.27043600  0.25091100  1
  O  O76  1  0.78245900  0.90096000  0.39991500  1
  O  O77  1  0.28245900  0.59904000  0.60008500  1
  O  O78  1  0.21754100  0.09904000  0.60008500  1
  O  O79  1  0.71754100  0.40096000  0.39991500  1
  O  O80  1  0.88815600  0.68265100  0.90430500  1
  O  O81  1  0.38815600  0.81734900  0.09569500  1
  O  O82  1  0.11184400  0.31734900  0.09569500  1
  O  O83  1  0.61184400  0.18265100  0.90430500  1
  O  O84  1  0.87360100  0.80608100  0.68543000  1
  O  O85  1  0.37360100  0.69391900  0.31457000  1
  O  O86  1  0.12639900  0.19391900  0.31457000  1
  O  O87  1  0.62639900  0.30608100  0.68543000  1
  O  O88  1  0.85204000  0.90487600  0.99160700  1
  O  O89  1  0.35204000  0.59512400  0.00839300  1
  O  O90  1  0.14796000  0.09512400  0.00839300  1
  O  O91  1  0.64796000  0.40487600  0.99160700  1
  O  O92  1  0.83344500  0.04367500  0.77836200  1
  O  O93  1  0.33344500  0.45632500  0.22163800  1
  O  O94  1  0.16655500  0.95632500  0.22163800  1
  O  O95  1  0.66655500  0.54367500  0.77836200  1
  O  O96  1  0.89505500  0.45394900  0.11594900  1
  O  O97  1  0.39505500  0.04605100  0.88405100  1
  O  O98  1  0.10494500  0.54605100  0.88405100  1
  O  O99  1  0.60494500  0.95394900  0.11594900  1
  O  O100  1  0.89117200  0.22453300  0.23852800  1
  O  O101  1  0.39117200  0.27546700  0.76147200  1
  O  O102  1  0.10882800  0.77546700  0.76147200  1
  O  O103  1  0.60882800  0.72453300  0.23852800  1
  O  O104  1  0.92807300  0.32650000  0.46810300  1
  O  O105  1  0.42807300  0.17350000  0.53189700  1
  O  O106  1  0.07192700  0.67350000  0.53189700  1
  O  O107  1  0.57192700  0.82650000  0.46810300  1
  O  O108  1  0.91152900  0.54653400  0.32959300  1
  O  O109  1  0.41152900  0.95346600  0.67040700  1
  O  O110  1  0.08847100  0.45346600  0.67040700  1
  O  O111  1  0.58847100  0.04653400  0.32959300  1
  O  O112  1  0.97042600  0.33442000  0.92236700  1
  O  O113  1  0.47042600  0.16558000  0.07763300  1
  O  O114  1  0.02957400  0.66558000  0.07763300  1
  O  O115  1  0.52957400  0.83442000  0.92236700  1
  O  O116  1  0.67143100  0.06943300  0.58184000  1
  O  O117  1  0.17143100  0.43056700  0.41816000  1
  O  O118  1  0.32856900  0.93056700  0.41816000  1
  O  O119  1  0.82856900  0.56943300  0.58184000  1
  O  O120  1  0.74415100  0.62364200  0.09363000  1
  O  O121  1  0.24415100  0.87635800  0.90637000  1
  O  O122  1  0.25584900  0.37635800  0.90637000  1
  O  O123  1  0.75584900  0.12364200  0.09363000  1
  O  O124  1  0.83228300  0.32002700  0.78877900  1
  O  O125  1  0.33228300  0.17997300  0.21122100  1
  O  O126  1  0.16771700  0.67997300  0.21122100  1
  O  O127  1  0.66771700  0.82002700  0.78877900  1
