# generated using pymatgen
data_ZnH9C4(NO2)3
_symmetry_space_group_name_H-M   'P 1'
_cell_length_a   8.56656900
_cell_length_b   11.92000200
_cell_length_c   8.98045000
_cell_angle_alpha   90.00000000
_cell_angle_beta   90.00000000
_cell_angle_gamma   90.00000000
_symmetry_Int_Tables_number   1
_chemical_formula_structural   ZnH9C4(NO2)3
_chemical_formula_sum   'Zn4 H36 C16 N12 O24'
_cell_volume   917.02535721
_cell_formula_units_Z   4
loop_
 _symmetry_equiv_pos_site_id
 _symmetry_equiv_pos_as_xyz
  1  'x, y, z'
loop_
 _atom_site_type_symbol
 _atom_site_label
 _atom_site_symmetry_multiplicity
 _atom_site_fract_x
 _atom_site_fract_y
 _atom_site_fract_z
 _atom_site_occupancy
  Zn  Zn0  1  0.25372200  0.75000000  0.25000000  1
  Zn  Zn1  1  0.24627800  0.25000000  0.25000000  1
  Zn  Zn2  1  0.74627800  0.25000000  0.75000000  1
  Zn  Zn3  1  0.75372200  0.75000000  0.75000000  1
  H  H4  1  0.25000000  0.50000000  0.17633600  1
  H  H5  1  0.25000000  0.00000000  0.32366400  1
  H  H6  1  0.75000000  0.50000000  0.82366400  1
  H  H7  1  0.75000000  0.00000000  0.67633600  1
  H  H8  1  0.59007700  0.71415300  0.42835700  1
  H  H9  1  0.90992300  0.28584700  0.42835700  1
  H  H10  1  0.59007700  0.78584700  0.07164300  1
  H  H11  1  0.90992300  0.21415300  0.07164300  1
  H  H12  1  0.40992300  0.28584700  0.57164300  1
  H  H13  1  0.09007700  0.71415300  0.57164300  1
  H  H14  1  0.40992300  0.21415300  0.92835700  1
  H  H15  1  0.09007700  0.78584700  0.92835700  1
  H  H16  1  0.33151600  0.57722100  0.56858400  1
  H  H17  1  0.16848400  0.42277900  0.56858400  1
  H  H18  1  0.33151600  0.92277900  0.93141600  1
  H  H19  1  0.16848400  0.07722100  0.93141600  1
  H  H20  1  0.66848400  0.42277900  0.43141600  1
  H  H21  1  0.83151600  0.57722100  0.43141600  1
  H  H22  1  0.66848400  0.07722100  0.06858400  1
  H  H23  1  0.83151600  0.92277900  0.06858400  1
  H  H24  1  0.41403500  0.62414900  0.74037600  1
  H  H25  1  0.08596500  0.37585100  0.74037600  1
  H  H26  1  0.41403500  0.87585100  0.75962400  1
  H  H27  1  0.08596500  0.12414900  0.75962400  1
  H  H28  1  0.58596500  0.37585100  0.25962400  1
  H  H29  1  0.91403500  0.62414900  0.25962400  1
  H  H30  1  0.58596500  0.12414900  0.24037600  1
  H  H31  1  0.91403500  0.87585100  0.24037600  1
  H  H32  1  0.31379500  0.55876700  0.96248700  1
  H  H33  1  0.18620500  0.44123300  0.96248700  1
  H  H34  1  0.31379500  0.94123300  0.53751300  1
  H  H35  1  0.18620500  0.05876700  0.53751300  1
  H  H36  1  0.68620500  0.44123300  0.03751300  1
  H  H37  1  0.81379500  0.55876700  0.03751300  1
  H  H38  1  0.68620500  0.05876700  0.46248700  1
  H  H39  1  0.81379500  0.94123300  0.46248700  1
  C  C40  1  0.25000000  0.50000000  0.29884000  1
  C  C41  1  0.25000000  0.00000000  0.20116000  1
  C  C42  1  0.75000000  0.50000000  0.70116000  1
  C  C43  1  0.75000000  0.00000000  0.79884000  1
  C  C44  1  0.51821400  0.77771600  0.48705200  1
  C  C45  1  0.98178600  0.22228400  0.48705200  1
  C  C46  1  0.51821400  0.72228400  0.01294800  1
  C  C47  1  0.98178600  0.27771600  0.01294800  1
  C  C48  1  0.48178600  0.22228400  0.51294800  1
  C  C49  1  0.01821400  0.77771600  0.51294800  1
  C  C50  1  0.48178600  0.27771600  0.98705200  1
  C  C51  1  0.01821400  0.72228400  0.98705200  1
  C  C52  1  0.25000000  0.50000000  0.75680700  1
  C  C53  1  0.25000000  0.00000000  0.74319300  1
  C  C54  1  0.75000000  0.50000000  0.24319300  1
  C  C55  1  0.75000000  0.00000000  0.25680700  1
  N  N56  1  0.33969800  0.57303500  0.68215300  1
  N  N57  1  0.16030200  0.42696500  0.68215300  1
  N  N58  1  0.33969800  0.92696500  0.81784700  1
  N  N59  1  0.16030200  0.07303500  0.81784700  1
  N  N60  1  0.66030200  0.42696500  0.31784700  1
  N  N61  1  0.83969800  0.57303500  0.31784700  1
  N  N62  1  0.66030200  0.07303500  0.18215300  1
  N  N63  1  0.83969800  0.92696500  0.18215300  1
  N  N64  1  0.25000000  0.50000000  0.90518400  1
  N  N65  1  0.25000000  0.00000000  0.59481600  1
  N  N66  1  0.75000000  0.50000000  0.09481600  1
  N  N67  1  0.75000000  0.00000000  0.40518400  1
  O  O68  1  0.25860700  0.59383200  0.36555500  1
  O  O69  1  0.24139300  0.40616800  0.36555500  1
  O  O70  1  0.25860700  0.90616800  0.13444500  1
  O  O71  1  0.24139300  0.09383200  0.13444500  1
  O  O72  1  0.74139300  0.40616800  0.63444500  1
  O  O73  1  0.75860700  0.59383200  0.63444500  1
  O  O74  1  0.74139300  0.09383200  0.86555500  1
  O  O75  1  0.75860700  0.90616800  0.86555500  1
  O  O76  1  0.39763900  0.81605100  0.42194200  1
  O  O77  1  0.10236100  0.18394900  0.42194200  1
  O  O78  1  0.39763900  0.68394900  0.07805800  1
  O  O79  1  0.10236100  0.31605100  0.07805800  1
  O  O80  1  0.60236100  0.18394900  0.57805800  1
  O  O81  1  0.89763900  0.81605100  0.57805800  1
  O  O82  1  0.60236100  0.31605100  0.92194200  1
  O  O83  1  0.89763900  0.68394900  0.92194200  1
  O  O84  1  0.56017100  0.80837400  0.61631400  1
  O  O85  1  0.93982900  0.19162600  0.61631400  1
  O  O86  1  0.56017100  0.69162600  0.88368600  1
  O  O87  1  0.93982900  0.30837400  0.88368600  1
  O  O88  1  0.43982900  0.19162600  0.38368600  1
  O  O89  1  0.06017100  0.80837400  0.38368600  1
  O  O90  1  0.43982900  0.30837400  0.11631400  1
  O  O91  1  0.06017100  0.69162600  0.11631400  1
