# generated using pymatgen
data_Na3GeMo3O19
_symmetry_space_group_name_H-M   'P 1'
_cell_length_a   8.73385700
_cell_length_b   9.46426077
_cell_length_c   10.72427946
_cell_angle_alpha   72.64867667
_cell_angle_beta   76.60437874
_cell_angle_gamma   82.03731158
_symmetry_Int_Tables_number   1
_chemical_formula_structural   Na3GeMo3O19
_chemical_formula_sum   'Na6 Ge2 Mo6 O38'
_cell_volume   820.79948261
_cell_formula_units_Z   2
loop_
 _symmetry_equiv_pos_site_id
 _symmetry_equiv_pos_as_xyz
  1  'x, y, z'
loop_
 _atom_site_type_symbol
 _atom_site_label
 _atom_site_symmetry_multiplicity
 _atom_site_fract_x
 _atom_site_fract_y
 _atom_site_fract_z
 _atom_site_occupancy
  Na  Na0  1  0.32536300  0.84481600  0.96558400  1
  Na  Na1  1  0.67463700  0.15518400  0.03441600  1
  Na  Na2  1  0.40063000  0.31939100  0.18044400  1
  Na  Na3  1  0.59937000  0.68060900  0.81955600  1
  Na  Na4  1  0.01636200  0.13061200  0.58029500  1
  Na  Na5  1  0.98363800  0.86938800  0.41970500  1
  Ge  Ge6  1  0.31659000  0.44268400  0.50158700  1
  Ge  Ge7  1  0.68341000  0.55731600  0.49841300  1
  Mo  Mo8  1  0.71370000  0.23387300  0.38303100  1
  Mo  Mo9  1  0.28630000  0.76612700  0.61696900  1
  Mo  Mo10  1  0.57253400  0.17823800  0.70643800  1
  Mo  Mo11  1  0.42746600  0.82176200  0.29356200  1
  Mo  Mo12  1  0.33993500  0.42610000  0.83457300  1
  Mo  Mo13  1  0.66006500  0.57390000  0.16542700  1
  O  O14  1  0.89146900  0.12646300  0.40810300  1
  O  O15  1  0.10853100  0.87353700  0.59189700  1
  O  O16  1  0.78894900  0.42085500  0.26664400  1
  O  O17  1  0.21105100  0.57914500  0.73335600  1
  O  O18  1  0.65764800  0.17691800  0.25995000  1
  O  O19  1  0.34235200  0.82308200  0.74005000  1
  O  O20  1  0.57320900  0.13277300  0.54198000  1
  O  O21  1  0.42679100  0.86722700  0.45802000  1
  O  O22  1  0.45306600  0.39223700  0.36520900  1
  O  O23  1  0.54693400  0.60776300  0.63479100  1
  O  O24  1  0.76126100  0.09856200  0.73404200  1
  O  O25  1  0.23873900  0.90143800  0.26595800  1
  O  O26  1  0.44109800  0.04732300  0.81156200  1
  O  O27  1  0.55890200  0.95267700  0.18843800  1
  O  O28  1  0.54230000  0.30389300  0.83009100  1
  O  O29  1  0.45770000  0.69610700  0.16990900  1
  O  O30  1  0.38089000  0.35205800  0.65541400  1
  O  O31  1  0.61911000  0.64794200  0.34458600  1
  O  O32  1  0.20401600  0.30706000  0.94406400  1
  O  O33  1  0.79598400  0.69294000  0.05593600  1
  O  O34  1  0.38227700  0.53307000  0.93018100  1
  O  O35  1  0.61772300  0.46693000  0.06981900  1
  O  O36  1  0.29822600  0.63887900  0.46865700  1
  O  O37  1  0.70177400  0.36112100  0.53134300  1
  O  O38  1  0.13305900  0.36330000  0.52019100  1
  O  O39  1  0.86694100  0.63670000  0.47980900  1
  O  O40  1  0.97363800  0.29264700  0.78464200  1
  O  O41  1  0.02636200  0.70735300  0.21535800  1
  O  O42  1  0.28560300  0.21003100  0.42199600  1
  O  O43  1  0.71439700  0.78996900  0.57800400  1
  O  O44  1  0.93705000  0.98899300  0.98886900  1
  O  O45  1  0.06295000  0.01100700  0.01113100  1
  O  O46  1  0.12607000  0.67903800  0.12288000  1
  O  O47  1  0.87393000  0.32096200  0.87712000  1
  O  O48  1  0.37672700  0.12263700  0.08471000  1
  O  O49  1  0.62327300  0.87736300  0.91529000  1
  O  O50  1  0.17296200  0.39828100  0.31547000  1
  O  O51  1  0.82703800  0.60171900  0.68453000  1
