# generated using pymatgen
data_Na3Hg
_symmetry_space_group_name_H-M   'P 1'
_cell_length_a   6.09245057
_cell_length_b   6.09245057
_cell_length_c   6.09245057
_cell_angle_alpha   133.39275902
_cell_angle_beta   133.39275902
_cell_angle_gamma   68.03801336
_symmetry_Int_Tables_number   1
_chemical_formula_structural   Na3Hg
_chemical_formula_sum   'Na3 Hg1'
_cell_volume   117.33656535
_cell_formula_units_Z   1
loop_
 _symmetry_equiv_pos_site_id
 _symmetry_equiv_pos_as_xyz
  1  'x, y, z'
loop_
 _atom_site_type_symbol
 _atom_site_label
 _atom_site_symmetry_multiplicity
 _atom_site_fract_x
 _atom_site_fract_y
 _atom_site_fract_z
 _atom_site_occupancy
  Na  Na0  1  0.75000000  0.25000000  0.50000000  1
  Na  Na1  1  0.25000000  0.75000000  0.50000000  1
  Na  Na2  1  0.50000000  0.50000000  0.00000000  1
  Hg  Hg3  1  0.00000000  0.00000000  0.00000000  1
