# generated using pymatgen
data_CoP2W
_symmetry_space_group_name_H-M   'P 1'
_cell_length_a   3.28334100
_cell_length_b   3.28334100
_cell_length_c   11.38483600
_cell_angle_alpha   90.00000000
_cell_angle_beta   90.00000000
_cell_angle_gamma   120.00002008
_symmetry_Int_Tables_number   1
_chemical_formula_structural   CoP2W
_chemical_formula_sum   'Co2 P4 W2'
_cell_volume   106.28923996
_cell_formula_units_Z   2
loop_
 _symmetry_equiv_pos_site_id
 _symmetry_equiv_pos_as_xyz
  1  'x, y, z'
loop_
 _atom_site_type_symbol
 _atom_site_label
 _atom_site_symmetry_multiplicity
 _atom_site_fract_x
 _atom_site_fract_y
 _atom_site_fract_z
 _atom_site_occupancy
  Co  Co0  1  0.00000000  0.00000000  0.75000000  1
  Co  Co1  1  0.00000000  0.00000000  0.25000000  1
  P  P2  1  0.66666700  0.33333300  0.85917800  1
  P  P3  1  0.33333300  0.66666700  0.14082200  1
  P  P4  1  0.33333300  0.66666700  0.35917800  1
  P  P5  1  0.66666700  0.33333300  0.64082200  1
  W  W6  1  0.00000000  0.00000000  0.00000000  1
  W  W7  1  0.00000000  0.00000000  0.50000000  1
