# generated using pymatgen
data_K2NaPdF6
_symmetry_space_group_name_H-M   'P 1'
_cell_length_a   6.14982278
_cell_length_b   6.14982278
_cell_length_c   6.14982278
_cell_angle_alpha   121.69369664
_cell_angle_beta   121.69369664
_cell_angle_gamma   87.09064001
_symmetry_Int_Tables_number   1
_chemical_formula_structural   K2NaPdF6
_chemical_formula_sum   'K2 Na1 Pd1 F6'
_cell_volume   160.03006505
_cell_formula_units_Z   1
loop_
 _symmetry_equiv_pos_site_id
 _symmetry_equiv_pos_as_xyz
  1  'x, y, z'
loop_
 _atom_site_type_symbol
 _atom_site_label
 _atom_site_symmetry_multiplicity
 _atom_site_fract_x
 _atom_site_fract_y
 _atom_site_fract_z
 _atom_site_occupancy
  K  K0  1  0.75000000  0.25000000  0.50000000  1
  K  K1  1  0.25000000  0.75000000  0.50000000  1
  Na  Na2  1  0.50000000  0.50000000  0.00000000  1
  Pd  Pd3  1  0.00000000  0.00000000  0.00000000  1
  F  F4  1  0.23470400  0.23470400  0.46940900  1
  F  F5  1  0.76529600  0.76529600  0.53059100  1
  F  F6  1  0.23470400  0.76529600  0.00000000  1
  F  F7  1  0.76529600  0.23470400  0.00000000  1
  F  F8  1  0.24687900  0.24687900  0.00000000  1
  F  F9  1  0.75312100  0.75312100  0.00000000  1
