# generated using pymatgen
data_Dy2Ge6Pt
_symmetry_space_group_name_H-M   'P 1'
_cell_length_a   4.10240900
_cell_length_b   4.10959400
_cell_length_c   11.11531937
_cell_angle_alpha   90.00000000
_cell_angle_beta   100.63422523
_cell_angle_gamma   90.00000000
_symmetry_Int_Tables_number   1
_chemical_formula_structural   Dy2Ge6Pt
_chemical_formula_sum   'Dy2 Ge6 Pt1'
_cell_volume   184.17731794
_cell_formula_units_Z   1
loop_
 _symmetry_equiv_pos_site_id
 _symmetry_equiv_pos_as_xyz
  1  'x, y, z'
loop_
 _atom_site_type_symbol
 _atom_site_label
 _atom_site_symmetry_multiplicity
 _atom_site_fract_x
 _atom_site_fract_y
 _atom_site_fract_z
 _atom_site_occupancy
  Dy  Dy0  1  0.77865100  0.50000000  0.55730100  1
  Dy  Dy1  1  0.11567000  0.50000000  0.23134000  1
  Ge  Ge2  1  0.49333900  0.50000000  0.98667900  1
  Ge  Ge3  1  0.37905300  0.50000000  0.75810700  1
  Ge  Ge4  1  0.99297700  0.00000000  0.98595300  1
  Ge  Ge5  1  0.87837800  0.00000000  0.75675700  1
  Ge  Ge6  1  0.67000800  0.00000000  0.34001600  1
  Ge  Ge7  1  0.23952700  0.00000000  0.47905300  1
  Pt  Pt8  1  0.55939700  0.00000000  0.11879400  1
