# generated using pymatgen
data_NaLiTi3O7
_symmetry_space_group_name_H-M   'P 1'
_cell_length_a   5.77037200
_cell_length_b   10.06715256
_cell_length_c   10.06715256
_cell_angle_alpha   111.47461962
_cell_angle_beta   90.00000000
_cell_angle_gamma   90.00000000
_symmetry_Int_Tables_number   1
_chemical_formula_structural   NaLiTi3O7
_chemical_formula_sum   'Na4 Li4 Ti12 O28'
_cell_volume   544.21529721
_cell_formula_units_Z   4
loop_
 _symmetry_equiv_pos_site_id
 _symmetry_equiv_pos_as_xyz
  1  'x, y, z'
loop_
 _atom_site_type_symbol
 _atom_site_label
 _atom_site_symmetry_multiplicity
 _atom_site_fract_x
 _atom_site_fract_y
 _atom_site_fract_z
 _atom_site_occupancy
  Na  Na0  1  0.25532300  0.11932700  0.11932700  1
  Na  Na1  1  0.74467700  0.88067300  0.88067300  1
  Na  Na2  1  0.25532300  0.38067300  0.38067300  1
  Na  Na3  1  0.74467700  0.61932700  0.61932700  1
  Li  Li4  1  0.25953600  0.06653000  0.43347000  1
  Li  Li5  1  0.74046400  0.56653000  0.93347000  1
  Li  Li6  1  0.74046400  0.93347000  0.56653000  1
  Li  Li7  1  0.25953600  0.43347000  0.06653000  1
  Ti  Ti8  1  0.50000000  0.25000000  0.75000000  1
  Ti  Ti9  1  0.50000000  0.75000000  0.25000000  1
  Ti  Ti10  1  0.00000000  0.25000000  0.75000000  1
  Ti  Ti11  1  0.00000000  0.75000000  0.25000000  1
  Ti  Ti12  1  0.75212800  0.26819000  0.48590900  1
  Ti  Ti13  1  0.24787200  0.51409100  0.73181000  1
  Ti  Ti14  1  0.75212800  0.01409100  0.23181000  1
  Ti  Ti15  1  0.24787200  0.76819000  0.98590900  1
  Ti  Ti16  1  0.24787200  0.73181000  0.51409100  1
  Ti  Ti17  1  0.75212800  0.48590900  0.26819000  1
  Ti  Ti18  1  0.24787200  0.98590900  0.76819000  1
  Ti  Ti19  1  0.75212800  0.23181000  0.01409100  1
  O  O20  1  0.25037400  0.85214000  0.38004800  1
  O  O21  1  0.74962600  0.61995200  0.14786000  1
  O  O22  1  0.25037400  0.11995200  0.64786000  1
  O  O23  1  0.74962600  0.35214000  0.88004800  1
  O  O24  1  0.74962600  0.14786000  0.61995200  1
  O  O25  1  0.25037400  0.38004800  0.85214000  1
  O  O26  1  0.74962600  0.88004800  0.35214000  1
  O  O27  1  0.25037400  0.64786000  0.11995200  1
  O  O28  1  0.50000000  0.36849100  0.63150900  1
  O  O29  1  0.50000000  0.86849100  0.13150900  1
  O  O30  1  0.50000000  0.63150900  0.36849100  1
  O  O31  1  0.50000000  0.13150900  0.86849100  1
  O  O32  1  0.00000000  0.13183100  0.86816900  1
  O  O33  1  0.00000000  0.63183100  0.36816900  1
  O  O34  1  0.00000000  0.86816900  0.13183100  1
  O  O35  1  0.00000000  0.36816900  0.63183100  1
  O  O36  1  0.52834800  0.14505800  0.35494200  1
  O  O37  1  0.47165200  0.64505800  0.85494200  1
  O  O38  1  0.47165200  0.85494200  0.64505800  1
  O  O39  1  0.52834800  0.35494200  0.14505800  1
  O  O40  1  0.75302400  0.41583300  0.41583300  1
  O  O41  1  0.24697600  0.58416700  0.58416700  1
  O  O42  1  0.75302400  0.08416700  0.08416700  1
  O  O43  1  0.24697600  0.91583300  0.91583300  1
  O  O44  1  0.02404000  0.85687500  0.64312500  1
  O  O45  1  0.97596000  0.35687500  0.14312500  1
  O  O46  1  0.97596000  0.14312500  0.35687500  1
  O  O47  1  0.02404000  0.64312500  0.85687500  1
