# generated using pymatgen
data_Pb(NF3)2
_symmetry_space_group_name_H-M   'P 1'
_cell_length_a   5.22283000
_cell_length_b   5.50738584
_cell_length_c   5.50738584
_cell_angle_alpha   119.99999808
_cell_angle_beta   90.00000000
_cell_angle_gamma   90.00000000
_symmetry_Int_Tables_number   1
_chemical_formula_structural   Pb(NF3)2
_chemical_formula_sum   'Pb1 N2 F6'
_cell_volume   137.19160516
_cell_formula_units_Z   1
loop_
 _symmetry_equiv_pos_site_id
 _symmetry_equiv_pos_as_xyz
  1  'x, y, z'
loop_
 _atom_site_type_symbol
 _atom_site_label
 _atom_site_symmetry_multiplicity
 _atom_site_fract_x
 _atom_site_fract_y
 _atom_site_fract_z
 _atom_site_occupancy
  Pb  Pb0  1  0.00000000  0.00000000  0.00000000  1
  N  N1  1  0.66852700  0.66666700  0.33333300  1
  N  N2  1  0.33147300  0.33333300  0.66666700  1
  F  F3  1  0.75559700  0.17496200  0.34992400  1
  F  F4  1  0.24440300  0.82503800  0.65007600  1
  F  F5  1  0.75559700  0.17496200  0.82503800  1
  F  F6  1  0.24440300  0.82503800  0.17496200  1
  F  F7  1  0.75559700  0.65007600  0.82503800  1
  F  F8  1  0.24440300  0.34992400  0.17496200  1
