# generated using pymatgen
data_Sm2(SiIr)3
_symmetry_space_group_name_H-M   'P 1'
_cell_length_a   2.80644400
_cell_length_b   2.80644400
_cell_length_c   20.50758400
_cell_angle_alpha   90.00000000
_cell_angle_beta   90.00000000
_cell_angle_gamma   90.00000000
_symmetry_Int_Tables_number   1
_chemical_formula_structural   Sm2(SiIr)3
_chemical_formula_sum   'Sm2 Si3 Ir3'
_cell_volume   161.52035502
_cell_formula_units_Z   1
loop_
 _symmetry_equiv_pos_site_id
 _symmetry_equiv_pos_as_xyz
  1  'x, y, z'
loop_
 _atom_site_type_symbol
 _atom_site_label
 _atom_site_symmetry_multiplicity
 _atom_site_fract_x
 _atom_site_fract_y
 _atom_site_fract_z
 _atom_site_occupancy
  Sm  Sm0  1  0.50000000  0.50000000  0.75854800  1
  Sm  Sm1  1  0.50000000  0.50000000  0.24145200  1
  Si  Si2  1  0.50000000  0.50000000  0.38793000  1
  Si  Si3  1  0.50000000  0.50000000  0.61207000  1
  Si  Si4  1  0.50000000  0.50000000  0.00000000  1
  Ir  Ir5  1  0.50000000  0.50000000  0.10981300  1
  Ir  Ir6  1  0.50000000  0.50000000  0.89018700  1
  Ir  Ir7  1  0.50000000  0.50000000  0.50000000  1
