# generated using pymatgen
data_CeZn2AsO2
_symmetry_space_group_name_H-M   'P 1'
_cell_length_a   3.23580100
_cell_length_b   3.23580100
_cell_length_c   12.79938700
_cell_angle_alpha   90.00000000
_cell_angle_beta   90.00000000
_cell_angle_gamma   90.00000000
_symmetry_Int_Tables_number   1
_chemical_formula_structural   CeZn2AsO2
_chemical_formula_sum   'Ce1 Zn2 As1 O2'
_cell_volume   134.01480547
_cell_formula_units_Z   1
loop_
 _symmetry_equiv_pos_site_id
 _symmetry_equiv_pos_as_xyz
  1  'x, y, z'
loop_
 _atom_site_type_symbol
 _atom_site_label
 _atom_site_symmetry_multiplicity
 _atom_site_fract_x
 _atom_site_fract_y
 _atom_site_fract_z
 _atom_site_occupancy
  Ce  Ce0  1  0.50000000  0.50000000  0.50000000  1
  Zn  Zn1  1  0.50000000  0.50000000  0.19713600  1
  Zn  Zn2  1  0.50000000  0.50000000  0.80286400  1
  As  As3  1  0.50000000  0.50000000  0.00000000  1
  O  O4  1  0.50000000  0.50000000  0.65613600  1
  O  O5  1  0.50000000  0.50000000  0.34386400  1
