# generated using pymatgen
data_ZnCuAsO5
_symmetry_space_group_name_H-M   'P 1'
_cell_length_a   5.81389600
_cell_length_b   8.70002100
_cell_length_c   8.89854000
_cell_angle_alpha   90.00000000
_cell_angle_beta   90.00000000
_cell_angle_gamma   90.00000000
_symmetry_Int_Tables_number   1
_chemical_formula_structural   ZnCuAsO5
_chemical_formula_sum   'Zn4 Cu4 As4 O20'
_cell_volume   450.09720561
_cell_formula_units_Z   4
loop_
 _symmetry_equiv_pos_site_id
 _symmetry_equiv_pos_as_xyz
  1  'x, y, z'
loop_
 _atom_site_type_symbol
 _atom_site_label
 _atom_site_symmetry_multiplicity
 _atom_site_fract_x
 _atom_site_fract_y
 _atom_site_fract_z
 _atom_site_occupancy
  Zn  Zn0  1  0.00000000  0.85079700  0.39114700  1
  Zn  Zn1  1  0.00000000  0.14920300  0.60885300  1
  Zn  Zn2  1  0.50000000  0.35079700  0.10885300  1
  Zn  Zn3  1  0.50000000  0.64920300  0.89114700  1
  Cu  Cu4  1  0.74602200  0.00000000  0.00000000  1
  Cu  Cu5  1  0.25397800  0.00000000  0.00000000  1
  Cu  Cu6  1  0.75397800  0.50000000  0.50000000  1
  Cu  Cu7  1  0.24602200  0.50000000  0.50000000  1
  As  As8  1  0.00000000  0.77295100  0.75460600  1
  As  As9  1  0.00000000  0.22704900  0.24539400  1
  As  As10  1  0.50000000  0.27295100  0.74539400  1
  As  As11  1  0.50000000  0.72704900  0.25460600  1
  O  O12  1  0.00000000  0.90575800  0.61053600  1
  O  O13  1  0.00000000  0.09424200  0.38946400  1
  O  O14  1  0.50000000  0.40575800  0.88946400  1
  O  O15  1  0.50000000  0.59424200  0.11053600  1
  O  O16  1  0.00000000  0.87584000  0.92916600  1
  O  O17  1  0.00000000  0.12416000  0.07083400  1
  O  O18  1  0.50000000  0.37584000  0.57083400  1
  O  O19  1  0.50000000  0.62416000  0.42916600  1
  O  O20  1  0.76054700  0.66118400  0.74977900  1
  O  O21  1  0.23945300  0.33881600  0.25022100  1
  O  O22  1  0.76054700  0.33881600  0.25022100  1
  O  O23  1  0.73945300  0.16118400  0.75022100  1
  O  O24  1  0.23945300  0.66118400  0.74977900  1
  O  O25  1  0.26054700  0.83881600  0.24977900  1
  O  O26  1  0.73945300  0.83881600  0.24977900  1
  O  O27  1  0.26054700  0.16118400  0.75022100  1
  O  O28  1  0.00000000  0.61556200  0.43439300  1
  O  O29  1  0.00000000  0.38443800  0.56560700  1
  O  O30  1  0.50000000  0.11556200  0.06560700  1
  O  O31  1  0.50000000  0.88443800  0.93439300  1
