# generated using pymatgen
data_YbSI
_symmetry_space_group_name_H-M   'P 1'
_cell_length_a   9.36278418
_cell_length_b   9.36278418
_cell_length_c   4.89634300
_cell_angle_alpha   90.00000000
_cell_angle_beta   90.00000000
_cell_angle_gamma   120.00000126
_symmetry_Int_Tables_number   1
_chemical_formula_structural   YbSI
_chemical_formula_sum   'Yb4 S4 I4'
_cell_volume   371.71705255
_cell_formula_units_Z   4
loop_
 _symmetry_equiv_pos_site_id
 _symmetry_equiv_pos_as_xyz
  1  'x, y, z'
loop_
 _atom_site_type_symbol
 _atom_site_label
 _atom_site_symmetry_multiplicity
 _atom_site_fract_x
 _atom_site_fract_y
 _atom_site_fract_z
 _atom_site_occupancy
  Yb  Yb0  1  0.66526600  0.83308000  0.00000000  1
  Yb  Yb1  1  0.16781400  0.33473400  0.00000000  1
  Yb  Yb2  1  0.16692000  0.83218600  0.00000000  1
  Yb  Yb3  1  0.66666700  0.33333300  0.00000000  1
  S  S4  1  0.99817000  0.49798300  0.00000000  1
  S  S5  1  0.49981300  0.00183000  0.00000000  1
  S  S6  1  0.50201700  0.50018700  0.00000000  1
  S  S7  1  0.00000000  0.00000000  0.00000000  1
  I  I8  1  0.84729700  0.16574600  0.50000000  1
  I  I9  1  0.31844900  0.15270300  0.50000000  1
  I  I10  1  0.83425400  0.68155100  0.50000000  1
  I  I11  1  0.33333300  0.66666700  0.50000000  1
