# generated using pymatgen
data_Y2CuAs3
_symmetry_space_group_name_H-M   'P 1'
_cell_length_a   9.86839700
_cell_length_b   9.86839700
_cell_length_c   39.20603100
_cell_angle_alpha   90.00000000
_cell_angle_beta   90.00000000
_cell_angle_gamma   90.00000000
_symmetry_Int_Tables_number   1
_chemical_formula_structural   Y2CuAs3
_chemical_formula_sum   'Y2 Cu1 As3'
_cell_volume   3818.08949700
_cell_formula_units_Z   1
loop_
 _symmetry_equiv_pos_site_id
 _symmetry_equiv_pos_as_xyz
  1  'x, y, z'
loop_
 _atom_site_type_symbol
 _atom_site_label
 _atom_site_symmetry_multiplicity
 _atom_site_fract_x
 _atom_site_fract_y
 _atom_site_fract_z
 _atom_site_occupancy
  Y  Y0  1  0.50000000  0.50000000  0.24519200  1
  Y  Y1  1  0.50000000  0.50000000  0.75480800  1
  Cu  Cu2  1  0.50000000  0.50000000  0.50000000  1
  As  As3  1  0.50000000  0.50000000  0.69287800  1
  As  As4  1  0.50000000  0.50000000  0.30712200  1
  As  As5  1  0.50000000  0.50000000  0.00000000  1
