# generated using pymatgen
data_Yb5(ReO6)2
_symmetry_space_group_name_H-M   'P 1'
_cell_length_a   6.83575446
_cell_length_b   6.83575446
_cell_length_c   7.69495621
_cell_angle_alpha   73.44084476
_cell_angle_beta   73.44084476
_cell_angle_gamma   49.01191615
_symmetry_Int_Tables_number   1
_chemical_formula_structural   Yb5(ReO6)2
_chemical_formula_sum   'Yb5 Re2 O12'
_cell_volume   257.75962641
_cell_formula_units_Z   1
loop_
 _symmetry_equiv_pos_site_id
 _symmetry_equiv_pos_as_xyz
  1  'x, y, z'
loop_
 _atom_site_type_symbol
 _atom_site_label
 _atom_site_symmetry_multiplicity
 _atom_site_fract_x
 _atom_site_fract_y
 _atom_site_fract_z
 _atom_site_occupancy
  Yb  Yb0  1  0.69501500  0.69501500  0.63515200  1
  Yb  Yb1  1  0.30498500  0.30498500  0.36484800  1
  Yb  Yb2  1  0.68550200  0.68550200  0.17876000  1
  Yb  Yb3  1  0.31449800  0.31449800  0.82124000  1
  Yb  Yb4  1  0.00000000  0.00000000  0.50000000  1
  Re  Re5  1  0.77340200  0.22659800  0.00000000  1
  Re  Re6  1  0.22659800  0.77340200  0.00000000  1
  O  O7  1  0.99989000  0.99989000  0.19513600  1
  O  O8  1  0.00011000  0.00011000  0.80486400  1
  O  O9  1  0.59226100  0.09771700  0.07693600  1
  O  O10  1  0.40773900  0.90228300  0.92306400  1
  O  O11  1  0.90228300  0.40773900  0.92306400  1
  O  O12  1  0.09771700  0.59226100  0.07693600  1
  O  O13  1  0.49917200  0.49917200  0.17129400  1
  O  O14  1  0.50082800  0.50082800  0.82870600  1
  O  O15  1  0.41083300  0.89508800  0.42470200  1
  O  O16  1  0.58916700  0.10491200  0.57529800  1
  O  O17  1  0.10491200  0.58916700  0.57529800  1
  O  O18  1  0.89508800  0.41083300  0.42470200  1
