# generated using pymatgen
data_CeGeBi2
_symmetry_space_group_name_H-M   'P 1'
_cell_length_a   10.55803500
_cell_length_b   10.55803500
_cell_length_c   10.55803500
_cell_angle_alpha   154.65159743
_cell_angle_beta   154.65159743
_cell_angle_gamma   36.15320526
_symmetry_Int_Tables_number   1
_chemical_formula_structural   CeGeBi2
_chemical_formula_sum   'Ce2 Ge2 Bi4'
_cell_volume   215.44041795
_cell_formula_units_Z   2
loop_
 _symmetry_equiv_pos_site_id
 _symmetry_equiv_pos_as_xyz
  1  'x, y, z'
loop_
 _atom_site_type_symbol
 _atom_site_label
 _atom_site_symmetry_multiplicity
 _atom_site_fract_x
 _atom_site_fract_y
 _atom_site_fract_z
 _atom_site_occupancy
  Ce  Ce0  1  0.11887100  0.11887100  0.00000000  1
  Ce  Ce1  1  0.88112900  0.88112900  0.00000000  1
  Ge  Ge2  1  0.38053300  0.38053300  0.00000000  1
  Ge  Ge3  1  0.61946700  0.61946700  0.00000000  1
  Bi  Bi4  1  0.75000000  0.25000000  0.50000000  1
  Bi  Bi5  1  0.25000000  0.75000000  0.50000000  1
  Bi  Bi6  1  0.50000000  0.00000000  0.50000000  1
  Bi  Bi7  1  0.00000000  0.50000000  0.50000000  1
