# generated using pymatgen
data_PrI6
_symmetry_space_group_name_H-M   'P 1'
_cell_length_a   14.59346061
_cell_length_b   11.81246258
_cell_length_c   67.11782006
_cell_angle_alpha   90.00000000
_cell_angle_beta   90.00000000
_cell_angle_gamma   128.14943305
_symmetry_Int_Tables_number   1
_chemical_formula_structural   PrI6
_chemical_formula_sum   'Pr1 I6'
_cell_volume   9098.74286166
_cell_formula_units_Z   1
loop_
 _symmetry_equiv_pos_site_id
 _symmetry_equiv_pos_as_xyz
  1  'x, y, z'
loop_
 _atom_site_type_symbol
 _atom_site_label
 _atom_site_symmetry_multiplicity
 _atom_site_fract_x
 _atom_site_fract_y
 _atom_site_fract_z
 _atom_site_occupancy
  Pr  Pr0  1  0.00000000  0.00000000  0.00000000  1
  I  I1  1  0.00000000  0.00000000  0.75000950  1
  I  I2  1  0.00000000  0.00000000  0.24999050  1
  I  I3  1  0.74083728  0.75924773  -0.00000000  1
  I  I4  1  0.25916272  0.24075227  0.00000000  1
  I  I5  1  0.98158956  0.24075227  0.00000000  1
  I  I6  1  0.01841044  0.75924773  -0.00000000  1
