# generated using pymatgen
data_Sc2Ga8Co
_symmetry_space_group_name_H-M   'P 1'
_cell_length_a   4.14322300
_cell_length_b   4.14322300
_cell_length_c   10.71823300
_cell_angle_alpha   90.00000000
_cell_angle_beta   90.00000000
_cell_angle_gamma   90.00000000
_symmetry_Int_Tables_number   1
_chemical_formula_structural   Sc2Ga8Co
_chemical_formula_sum   'Sc2 Ga8 Co1'
_cell_volume   183.99236915
_cell_formula_units_Z   1
loop_
 _symmetry_equiv_pos_site_id
 _symmetry_equiv_pos_as_xyz
  1  'x, y, z'
loop_
 _atom_site_type_symbol
 _atom_site_label
 _atom_site_symmetry_multiplicity
 _atom_site_fract_x
 _atom_site_fract_y
 _atom_site_fract_z
 _atom_site_occupancy
  Sc  Sc0  1  0.00000000  0.00000000  0.30794500  1
  Sc  Sc1  1  0.00000000  0.00000000  0.69205500  1
  Ga  Ga2  1  0.00000000  0.50000000  0.12140600  1
  Ga  Ga3  1  0.00000000  0.50000000  0.87859400  1
  Ga  Ga4  1  0.50000000  0.00000000  0.12140600  1
  Ga  Ga5  1  0.50000000  0.00000000  0.87859400  1
  Ga  Ga6  1  0.50000000  0.50000000  0.30537200  1
  Ga  Ga7  1  0.50000000  0.50000000  0.69462800  1
  Ga  Ga8  1  0.00000000  0.50000000  0.50000000  1
  Ga  Ga9  1  0.50000000  0.00000000  0.50000000  1
  Co  Co10  1  0.00000000  0.00000000  0.00000000  1
