# generated using pymatgen
data_Pu2(SiPt)3
_symmetry_space_group_name_H-M   'P 1'
_cell_length_a   4.93786300
_cell_length_b   4.93786300
_cell_length_c   19.80820100
_cell_angle_alpha   90.00000000
_cell_angle_beta   90.00000000
_cell_angle_gamma   90.00000000
_symmetry_Int_Tables_number   1
_chemical_formula_structural   Pu2(SiPt)3
_chemical_formula_sum   'Pu2 Si3 Pt3'
_cell_volume   482.97328274
_cell_formula_units_Z   1
loop_
 _symmetry_equiv_pos_site_id
 _symmetry_equiv_pos_as_xyz
  1  'x, y, z'
loop_
 _atom_site_type_symbol
 _atom_site_label
 _atom_site_symmetry_multiplicity
 _atom_site_fract_x
 _atom_site_fract_y
 _atom_site_fract_z
 _atom_site_occupancy
  Pu  Pu0  1  0.50000000  0.50000000  0.75736000  1
  Pu  Pu1  1  0.50000000  0.50000000  0.24264000  1
  Si  Si2  1  0.50000000  0.50000000  0.38563800  1
  Si  Si3  1  0.50000000  0.50000000  0.61436200  1
  Si  Si4  1  0.50000000  0.50000000  0.00000000  1
  Pt  Pt5  1  0.50000000  0.50000000  0.11524300  1
  Pt  Pt6  1  0.50000000  0.50000000  0.88475700  1
  Pt  Pt7  1  0.50000000  0.50000000  0.50000000  1
