# generated using pymatgen
data_Sr2(BiPd)3
_symmetry_space_group_name_H-M   'P 1'
_cell_length_a   6.69395600
_cell_length_b   6.69395600
_cell_length_c   21.88949500
_cell_angle_alpha   90.00000000
_cell_angle_beta   90.00000000
_cell_angle_gamma   90.00000000
_symmetry_Int_Tables_number   1
_chemical_formula_structural   Sr2(BiPd)3
_chemical_formula_sum   'Sr2 Bi3 Pd3'
_cell_volume   980.84740873
_cell_formula_units_Z   1
loop_
 _symmetry_equiv_pos_site_id
 _symmetry_equiv_pos_as_xyz
  1  'x, y, z'
loop_
 _atom_site_type_symbol
 _atom_site_label
 _atom_site_symmetry_multiplicity
 _atom_site_fract_x
 _atom_site_fract_y
 _atom_site_fract_z
 _atom_site_occupancy
  Sr  Sr0  1  0.50000000  0.50000000  0.76275400  1
  Sr  Sr1  1  0.50000000  0.50000000  0.23724600  1
  Bi  Bi2  1  0.50000000  0.50000000  0.38556600  1
  Bi  Bi3  1  0.50000000  0.50000000  0.61443400  1
  Bi  Bi4  1  0.50000000  0.50000000  0.00000000  1
  Pd  Pd5  1  0.50000000  0.50000000  0.12080900  1
  Pd  Pd6  1  0.50000000  0.50000000  0.87919100  1
  Pd  Pd7  1  0.50000000  0.50000000  0.50000000  1
