# generated using pymatgen
data_MoWS4
_symmetry_space_group_name_H-M   'P 1'
_cell_length_a   3.19100218
_cell_length_b   3.19100218
_cell_length_c   35.84344900
_cell_angle_alpha   90.00000000
_cell_angle_beta   90.00000000
_cell_angle_gamma   120.00000367
_symmetry_Int_Tables_number   1
_chemical_formula_structural   MoWS4
_chemical_formula_sum   'Mo2 W2 S8'
_cell_volume   316.07824782
_cell_formula_units_Z   2
loop_
 _symmetry_equiv_pos_site_id
 _symmetry_equiv_pos_as_xyz
  1  'x, y, z'
loop_
 _atom_site_type_symbol
 _atom_site_label
 _atom_site_symmetry_multiplicity
 _atom_site_fract_x
 _atom_site_fract_y
 _atom_site_fract_z
 _atom_site_occupancy
  Mo  Mo0  1  0.33333300  0.66666700  0.71816800  1
  Mo  Mo1  1  0.66666700  0.33333300  0.28183200  1
  W  W2  1  0.33333300  0.66666700  0.09393100  1
  W  W3  1  0.66666700  0.33333300  0.90606900  1
  S  S4  1  0.33333300  0.66666700  0.94991500  1
  S  S5  1  0.33333300  0.66666700  0.32548000  1
  S  S6  1  0.66666700  0.33333300  0.67452000  1
  S  S7  1  0.66666700  0.33333300  0.05008500  1
  S  S8  1  0.66666700  0.33333300  0.76184900  1
  S  S9  1  0.66666700  0.33333300  0.13779700  1
  S  S10  1  0.33333300  0.66666700  0.86220300  1
  S  S11  1  0.33333300  0.66666700  0.23815100  1
