# generated using pymatgen
data_Zn7H10(CO8)2
_symmetry_space_group_name_H-M   'P 1'
_cell_length_a   8.09241164
_cell_length_b   8.09241164
_cell_length_c   16.20255029
_cell_angle_alpha   84.56214293
_cell_angle_beta   84.56214293
_cell_angle_gamma   39.95097196
_symmetry_Int_Tables_number   1
_chemical_formula_structural   Zn7H10(CO8)2
_chemical_formula_sum   'Zn14 H20 C4 O32'
_cell_volume   677.86696163
_cell_formula_units_Z   2
loop_
 _symmetry_equiv_pos_site_id
 _symmetry_equiv_pos_as_xyz
  1  'x, y, z'
loop_
 _atom_site_type_symbol
 _atom_site_label
 _atom_site_symmetry_multiplicity
 _atom_site_fract_x
 _atom_site_fract_y
 _atom_site_fract_z
 _atom_site_occupancy
  Zn  Zn0  1  0.57483700  0.02713900  0.68577800  1
  Zn  Zn1  1  0.42516300  0.97286100  0.31422200  1
  Zn  Zn2  1  0.97286100  0.42516300  0.81422200  1
  Zn  Zn3  1  0.02713900  0.57483700  0.18577800  1
  Zn  Zn4  1  0.47463100  0.96106700  0.90971100  1
  Zn  Zn5  1  0.52536900  0.03893300  0.09028900  1
  Zn  Zn6  1  0.03893300  0.52536900  0.59028900  1
  Zn  Zn7  1  0.96106700  0.47463100  0.40971100  1
  Zn  Zn8  1  0.38503500  0.89591100  0.53796100  1
  Zn  Zn9  1  0.61496500  0.10408900  0.46203900  1
  Zn  Zn10  1  0.10408900  0.61496500  0.96203900  1
  Zn  Zn11  1  0.89591100  0.38503500  0.03796100  1
  Zn  Zn12  1  0.78066100  0.21933900  0.75000000  1
  Zn  Zn13  1  0.21933900  0.78066100  0.25000000  1
  H  H14  1  0.91053700  0.92513800  0.57167800  1
  H  H15  1  0.08946300  0.07486200  0.42832200  1
  H  H16  1  0.07486200  0.08946300  0.92832200  1
  H  H17  1  0.92513800  0.91053700  0.07167800  1
  H  H18  1  0.54317900  0.20968200  0.94543600  1
  H  H19  1  0.45682100  0.79031800  0.05456400  1
  H  H20  1  0.79031800  0.45682100  0.55456400  1
  H  H21  1  0.20968200  0.54317900  0.44543600  1
  H  H22  1  0.38328400  0.28740000  0.81287000  1
  H  H23  1  0.61671600  0.71260000  0.18713000  1
  H  H24  1  0.71260000  0.61671600  0.68713000  1
  H  H25  1  0.28740000  0.38328400  0.31287000  1
  H  H26  1  0.20209100  0.12906700  0.66863700  1
  H  H27  1  0.79790900  0.87093300  0.33136300  1
  H  H28  1  0.87093300  0.79790900  0.83136300  1
  H  H29  1  0.12906700  0.20209100  0.16863700  1
  H  H30  1  0.21840700  0.97549200  0.78535900  1
  H  H31  1  0.78159300  0.02450800  0.21464100  1
  H  H32  1  0.02450800  0.78159300  0.71464100  1
  H  H33  1  0.97549200  0.21840700  0.28535900  1
  C  C34  1  0.39170600  0.56259100  0.62469500  1
  C  C35  1  0.60829400  0.43740900  0.37530500  1
  C  C36  1  0.43740900  0.60829400  0.87530500  1
  C  C37  1  0.56259100  0.39170600  0.12469500  1
  O  O38  1  0.53793700  0.39772800  0.84838500  1
  O  O39  1  0.46206300  0.60227200  0.15161500  1
  O  O40  1  0.60227200  0.46206300  0.65161500  1
  O  O41  1  0.39772800  0.53793700  0.34838500  1
  O  O42  1  0.86290900  0.92495400  0.74501600  1
  O  O43  1  0.13709100  0.07504600  0.25498400  1
  O  O44  1  0.07504600  0.13709100  0.75498400  1
  O  O45  1  0.92495400  0.86290900  0.24501600  1
  O  O46  1  0.78912900  0.92556400  0.56843000  1
  O  O47  1  0.21087100  0.07443600  0.43157000  1
  O  O48  1  0.07443600  0.21087100  0.93157000  1
  O  O49  1  0.92556400  0.78912900  0.06843000  1
  O  O50  1  0.36387900  0.18795800  0.79903400  1
  O  O51  1  0.63612100  0.81204200  0.20096600  1
  O  O52  1  0.81204200  0.63612100  0.70096600  1
  O  O53  1  0.18795800  0.36387900  0.29903400  1
  O  O54  1  0.29151300  0.12880100  0.62031600  1
  O  O55  1  0.70848700  0.87119900  0.37968400  1
  O  O56  1  0.87119900  0.70848700  0.87968400  1
  O  O57  1  0.12880100  0.29151300  0.12031600  1
  O  O58  1  0.58444900  0.76849800  0.02579100  1
  O  O59  1  0.41555100  0.23150200  0.97420900  1
  O  O60  1  0.23150200  0.41555100  0.47420900  1
  O  O61  1  0.76849800  0.58444900  0.52579100  1
  O  O62  1  0.53145500  0.68167000  0.85051400  1
  O  O63  1  0.46854500  0.31833000  0.14948600  1
  O  O64  1  0.31833000  0.46854500  0.64948600  1
  O  O65  1  0.68167000  0.53145500  0.35051400  1
  O  O66  1  0.25304100  0.76290400  0.57428400  1
  O  O67  1  0.74695900  0.23709600  0.42571600  1
  O  O68  1  0.23709600  0.74695900  0.92571600  1
  O  O69  1  0.76290400  0.25304100  0.07428400  1
