# generated using pymatgen
data_Ta2SiAs2
_symmetry_space_group_name_H-M   'P 1'
_cell_length_a   2.72349300
_cell_length_b   2.72349300
_cell_length_c   13.42139300
_cell_angle_alpha   90.00000000
_cell_angle_beta   90.00000000
_cell_angle_gamma   90.00000000
_symmetry_Int_Tables_number   1
_chemical_formula_structural   Ta2SiAs2
_chemical_formula_sum   'Ta2 Si1 As2'
_cell_volume   99.55202996
_cell_formula_units_Z   1
loop_
 _symmetry_equiv_pos_site_id
 _symmetry_equiv_pos_as_xyz
  1  'x, y, z'
loop_
 _atom_site_type_symbol
 _atom_site_label
 _atom_site_symmetry_multiplicity
 _atom_site_fract_x
 _atom_site_fract_y
 _atom_site_fract_z
 _atom_site_occupancy
  Ta  Ta0  1  0.50000000  0.50000000  0.18933300  1
  Ta  Ta1  1  0.50000000  0.50000000  0.81066700  1
  Si  Si2  1  0.50000000  0.50000000  0.00000000  1
  As  As3  1  0.50000000  0.50000000  0.60591500  1
  As  As4  1  0.50000000  0.50000000  0.39408500  1
