# generated using pymatgen
data_YCrGeO5
_symmetry_space_group_name_H-M   'P 1'
_cell_length_a   5.80855100
_cell_length_b   7.44321800
_cell_length_c   8.48639500
_cell_angle_alpha   90.00000000
_cell_angle_beta   90.00000000
_cell_angle_gamma   90.00000000
_symmetry_Int_Tables_number   1
_chemical_formula_structural   YCrGeO5
_chemical_formula_sum   'Y4 Cr4 Ge4 O20'
_cell_volume   366.90344373
_cell_formula_units_Z   4
loop_
 _symmetry_equiv_pos_site_id
 _symmetry_equiv_pos_as_xyz
  1  'x, y, z'
loop_
 _atom_site_type_symbol
 _atom_site_label
 _atom_site_symmetry_multiplicity
 _atom_site_fract_x
 _atom_site_fract_y
 _atom_site_fract_z
 _atom_site_occupancy
  Y  Y0  1  0.50000000  0.35662100  0.32645500  1
  Y  Y1  1  0.50000000  0.64337900  0.67354500  1
  Y  Y2  1  0.50000000  0.14337900  0.82645500  1
  Y  Y3  1  0.50000000  0.85662100  0.17354500  1
  Cr  Cr4  1  0.24946900  0.00000000  0.50000000  1
  Cr  Cr5  1  0.75053100  0.00000000  0.50000000  1
  Cr  Cr6  1  0.75053100  0.50000000  0.00000000  1
  Cr  Cr7  1  0.24946900  0.50000000  0.00000000  1
  Ge  Ge8  1  0.00000000  0.11735000  0.14436900  1
  Ge  Ge9  1  0.00000000  0.88265000  0.85563100  1
  Ge  Ge10  1  0.00000000  0.38265000  0.64436900  1
  Ge  Ge11  1  0.00000000  0.61735000  0.35563100  1
  O  O12  1  0.24944000  0.11080400  0.28213300  1
  O  O13  1  0.75056000  0.88919600  0.71786700  1
  O  O14  1  0.24944000  0.88919600  0.71786700  1
  O  O15  1  0.75056000  0.38919600  0.78213300  1
  O  O16  1  0.75056000  0.11080400  0.28213300  1
  O  O17  1  0.24944000  0.61080400  0.21786700  1
  O  O18  1  0.75056000  0.61080400  0.21786700  1
  O  O19  1  0.24944000  0.38919600  0.78213300  1
  O  O20  1  0.00000000  0.34264800  0.08150800  1
  O  O21  1  0.00000000  0.65735200  0.91849200  1
  O  O22  1  0.00000000  0.15735200  0.58150800  1
  O  O23  1  0.00000000  0.84264800  0.41849200  1
  O  O24  1  0.50000000  0.33162600  0.05727000  1
  O  O25  1  0.50000000  0.66837400  0.94273000  1
  O  O26  1  0.50000000  0.16837400  0.55727000  1
  O  O27  1  0.50000000  0.83162600  0.44273000  1
  O  O28  1  0.21140300  0.00000000  0.00000000  1
  O  O29  1  0.78859700  0.00000000  0.00000000  1
  O  O30  1  0.78859700  0.50000000  0.50000000  1
  O  O31  1  0.21140300  0.50000000  0.50000000  1
