# generated using pymatgen
data_Y4Rh
_symmetry_space_group_name_H-M   'P 1'
_cell_length_a   7.68174503
_cell_length_b   7.68174503
_cell_length_c   7.68174503
_cell_angle_alpha   60.00000000
_cell_angle_beta   60.00000000
_cell_angle_gamma   60.00000000
_symmetry_Int_Tables_number   1
_chemical_formula_structural   Y4Rh
_chemical_formula_sum   'Y8 Rh2'
_cell_volume   320.52703487
_cell_formula_units_Z   2
loop_
 _symmetry_equiv_pos_site_id
 _symmetry_equiv_pos_as_xyz
  1  'x, y, z'
loop_
 _atom_site_type_symbol
 _atom_site_label
 _atom_site_symmetry_multiplicity
 _atom_site_fract_x
 _atom_site_fract_y
 _atom_site_fract_z
 _atom_site_occupancy
  Y  Y0  1  0.61166600  0.61166600  0.61166600  1
  Y  Y1  1  0.16500300  0.61166600  0.61166600  1
  Y  Y2  1  0.61166600  0.16500300  0.61166600  1
  Y  Y3  1  0.58499700  0.13833400  0.13833400  1
  Y  Y4  1  0.13833400  0.13833400  0.13833400  1
  Y  Y5  1  0.61166600  0.61166600  0.16500300  1
  Y  Y6  1  0.13833400  0.58499700  0.13833400  1
  Y  Y7  1  0.13833400  0.13833400  0.58499700  1
  Rh  Rh8  1  0.00000000  0.00000000  0.00000000  1
  Rh  Rh9  1  0.75000000  0.75000000  0.75000000  1
