# generated using pymatgen
data_YbFeC6(N3O2)2
_symmetry_space_group_name_H-M   'P 1'
_cell_length_a   7.70325856
_cell_length_b   7.70325856
_cell_length_c   13.19938500
_cell_angle_alpha   90.00000000
_cell_angle_beta   90.00000000
_cell_angle_gamma   120.47443496
_symmetry_Int_Tables_number   1
_chemical_formula_structural   YbFeC6(N3O2)2
_chemical_formula_sum   'Yb2 Fe2 C12 N12 O8'
_cell_volume   675.05183554
_cell_formula_units_Z   2
loop_
 _symmetry_equiv_pos_site_id
 _symmetry_equiv_pos_as_xyz
  1  'x, y, z'
loop_
 _atom_site_type_symbol
 _atom_site_label
 _atom_site_symmetry_multiplicity
 _atom_site_fract_x
 _atom_site_fract_y
 _atom_site_fract_z
 _atom_site_occupancy
  Yb  Yb0  1  0.66600300  0.33399700  0.25000000  1
  Yb  Yb1  1  0.33399700  0.66600300  0.75000000  1
  Fe  Fe2  1  0.00000000  0.00000000  0.00000000  1
  Fe  Fe3  1  0.00000000  0.00000000  0.50000000  1
  C  C4  1  0.86957300  0.13042700  0.06838600  1
  C  C5  1  0.13042700  0.86957300  0.93161500  1
  C  C6  1  0.13042700  0.86957300  0.56838600  1
  C  C7  1  0.86957300  0.13042700  0.43161500  1
  C  C8  1  0.86709600  0.76875800  0.09054200  1
  C  C9  1  0.13290400  0.23124200  0.90945800  1
  C  C10  1  0.13290400  0.23124200  0.59054200  1
  C  C11  1  0.23124200  0.13290400  0.40945800  1
  C  C12  1  0.86709600  0.76875800  0.40945800  1
  C  C13  1  0.76875800  0.86709600  0.59054200  1
  C  C14  1  0.76875800  0.86709600  0.90945800  1
  C  C15  1  0.23124200  0.13290400  0.09054200  1
  N  N16  1  0.78960600  0.62464100  0.14089400  1
  N  N17  1  0.21039400  0.37535900  0.85910600  1
  N  N18  1  0.21039400  0.37535900  0.64089400  1
  N  N19  1  0.37535900  0.21039400  0.35910600  1
  N  N20  1  0.78960600  0.62464100  0.35910600  1
  N  N21  1  0.62464100  0.78960600  0.64089400  1
  N  N22  1  0.62464100  0.78960600  0.85910600  1
  N  N23  1  0.37535900  0.21039400  0.14089400  1
  N  N24  1  0.79352300  0.20647700  0.11206600  1
  N  N25  1  0.20647700  0.79352300  0.88793400  1
  N  N26  1  0.20647700  0.79352300  0.61206600  1
  N  N27  1  0.79352300  0.20647700  0.38793400  1
  O  O28  1  0.16411500  0.56972200  0.25000000  1
  O  O29  1  0.83588500  0.43027800  0.75000000  1
  O  O30  1  0.43027800  0.83588500  0.25000000  1
  O  O31  1  0.56972200  0.16411500  0.75000000  1
  O  O32  1  0.32436700  0.67563300  0.17276700  1
  O  O33  1  0.67563300  0.32436700  0.82723300  1
  O  O34  1  0.67563300  0.32436700  0.67276700  1
  O  O35  1  0.32436700  0.67563300  0.32723300  1
