# generated using pymatgen
data_TmWClO4
_symmetry_space_group_name_H-M   'P 1'
_cell_length_a   6.29084082
_cell_length_b   6.29084082
_cell_length_c   6.89967114
_cell_angle_alpha   75.84551884
_cell_angle_beta   75.84551884
_cell_angle_gamma   70.58300857
_symmetry_Int_Tables_number   1
_chemical_formula_structural   TmWClO4
_chemical_formula_sum   'Tm2 W2 Cl2 O8'
_cell_volume   245.69320188
_cell_formula_units_Z   2
loop_
 _symmetry_equiv_pos_site_id
 _symmetry_equiv_pos_as_xyz
  1  'x, y, z'
loop_
 _atom_site_type_symbol
 _atom_site_label
 _atom_site_symmetry_multiplicity
 _atom_site_fract_x
 _atom_site_fract_y
 _atom_site_fract_z
 _atom_site_occupancy
  Tm  Tm0  1  0.27752500  0.27752500  0.61662300  1
  Tm  Tm1  1  0.72247500  0.72247500  0.38337700  1
  W  W2  1  0.13738300  0.13738300  0.23245500  1
  W  W3  1  0.86261700  0.86261700  0.76754500  1
  Cl  Cl4  1  0.51095700  0.51095700  0.73017000  1
  Cl  Cl5  1  0.48904300  0.48904300  0.26983000  1
  O  O6  1  0.04646100  0.04646100  0.70043100  1
  O  O7  1  0.95353900  0.95353900  0.29956900  1
  O  O8  1  0.60666600  0.99270400  0.65073900  1
  O  O9  1  0.39333400  0.00729600  0.34926100  1
  O  O10  1  0.00729600  0.39333400  0.34926100  1
  O  O11  1  0.99270400  0.60666600  0.65073900  1
  O  O12  1  0.20741200  0.20741200  0.96052300  1
  O  O13  1  0.79258800  0.79258800  0.03947700  1
