# generated using pymatgen
data_Ti2P2O10F
_symmetry_space_group_name_H-M   'P 1'
_cell_length_a   14.72248600
_cell_length_b   5.18988600
_cell_length_c   12.33670734
_cell_angle_alpha   66.63526877
_cell_angle_beta   90.00000000
_cell_angle_gamma   90.00000000
_symmetry_Int_Tables_number   1
_chemical_formula_structural   Ti2P2O10F
_chemical_formula_sum   'Ti8 P8 O40 F4'
_cell_volume   865.32728981
_cell_formula_units_Z   4
loop_
 _symmetry_equiv_pos_site_id
 _symmetry_equiv_pos_as_xyz
  1  'x, y, z'
loop_
 _atom_site_type_symbol
 _atom_site_label
 _atom_site_symmetry_multiplicity
 _atom_site_fract_x
 _atom_site_fract_y
 _atom_site_fract_z
 _atom_site_occupancy
  Ti  Ti0  1  0.83020000  0.56881800  0.45421800  1
  Ti  Ti1  1  0.16980000  0.43118200  0.54578200  1
  Ti  Ti2  1  0.33020000  0.43118200  0.04578200  1
  Ti  Ti3  1  0.66980000  0.56881800  0.95421800  1
  Ti  Ti4  1  0.46215200  0.93934700  0.31880600  1
  Ti  Ti5  1  0.53784800  0.06065300  0.68119400  1
  Ti  Ti6  1  0.96215200  0.06065300  0.18119400  1
  Ti  Ti7  1  0.03784800  0.93934700  0.81880600  1
  P  P8  1  0.51960300  0.59993900  0.15425500  1
  P  P9  1  0.48039700  0.40006100  0.84574500  1
  P  P10  1  0.01960300  0.40006100  0.34574500  1
  P  P11  1  0.98039700  0.59993900  0.65425500  1
  P  P12  1  0.87800900  0.70351300  0.03632500  1
  P  P13  1  0.12199100  0.29648700  0.96367500  1
  P  P14  1  0.37800900  0.29648700  0.46367500  1
  P  P15  1  0.62199100  0.70351300  0.53632500  1
  O  O16  1  0.60196900  0.64221400  0.07190400  1
  O  O17  1  0.39803100  0.35778600  0.92809600  1
  O  O18  1  0.10196900  0.35778600  0.42809600  1
  O  O19  1  0.89803100  0.64221400  0.57190400  1
  O  O20  1  0.89307100  0.40613200  0.13038000  1
  O  O21  1  0.10692900  0.59386800  0.86962000  1
  O  O22  1  0.39307100  0.59386800  0.36962000  1
  O  O23  1  0.60692900  0.40613200  0.63038000  1
  O  O24  1  0.52131300  0.30125100  0.25348700  1
  O  O25  1  0.47868700  0.69874900  0.74651300  1
  O  O26  1  0.02131300  0.69874900  0.24651300  1
  O  O27  1  0.97868700  0.30125100  0.75348700  1
  O  O28  1  0.76893800  0.36658700  0.37047300  1
  O  O29  1  0.23106200  0.63341300  0.62952700  1
  O  O30  1  0.26893800  0.63341300  0.12952700  1
  O  O31  1  0.73106200  0.36658700  0.87047300  1
  O  O32  1  0.71483200  0.70551900  0.47623300  1
  O  O33  1  0.28516800  0.29448100  0.52376700  1
  O  O34  1  0.21483200  0.29448100  0.02376700  1
  O  O35  1  0.78516800  0.70551900  0.97623300  1
  O  O36  1  0.87856000  0.92278600  0.09076000  1
  O  O37  1  0.12144000  0.07721400  0.90924000  1
  O  O38  1  0.37856000  0.07721400  0.40924000  1
  O  O39  1  0.62144000  0.92278600  0.59076000  1
  O  O40  1  0.52394800  0.82436200  0.20619500  1
  O  O41  1  0.47605200  0.17563800  0.79380500  1
  O  O42  1  0.02394800  0.17563800  0.29380500  1
  O  O43  1  0.97605200  0.82436200  0.70619500  1
  O  O44  1  0.54680400  0.78177200  0.44027500  1
  O  O45  1  0.45319600  0.21822800  0.55972500  1
  O  O46  1  0.04680400  0.21822800  0.05972500  1
  O  O47  1  0.95319600  0.78177200  0.94027500  1
  O  O48  1  0.70503700  0.18648000  0.05813600  1
  O  O49  1  0.29496300  0.81352000  0.94186400  1
  O  O50  1  0.20503700  0.81352000  0.44186400  1
  O  O51  1  0.79496300  0.18648000  0.55813600  1
  O  O52  1  0.43250300  0.63340000  0.07847000  1
  O  O53  1  0.56749700  0.36660000  0.92153000  1
  O  O54  1  0.93250300  0.36660000  0.42153000  1
  O  O55  1  0.06749700  0.63340000  0.57847000  1
  F  F56  1  0.86685200  0.89139200  0.31390600  1
  F  F57  1  0.13314800  0.10860800  0.68609400  1
  F  F58  1  0.36685200  0.10860800  0.18609400  1
  F  F59  1  0.63314800  0.89139200  0.81390600  1
