# generated using pymatgen
data_Ta4Te16PtI8
_symmetry_space_group_name_H-M   'P 1'
_cell_length_a   6.71553600
_cell_length_b   9.73526866
_cell_length_c   17.23898385
_cell_angle_alpha   73.82958531
_cell_angle_beta   79.57408312
_cell_angle_gamma   81.00815471
_symmetry_Int_Tables_number   1
_chemical_formula_structural   Ta4Te16PtI8
_chemical_formula_sum   'Ta4 Te16 Pt1 I8'
_cell_volume   1057.87111509
_cell_formula_units_Z   1
loop_
 _symmetry_equiv_pos_site_id
 _symmetry_equiv_pos_as_xyz
  1  'x, y, z'
loop_
 _atom_site_type_symbol
 _atom_site_label
 _atom_site_symmetry_multiplicity
 _atom_site_fract_x
 _atom_site_fract_y
 _atom_site_fract_z
 _atom_site_occupancy
  Ta  Ta0  1  0.51388800  0.88649500  0.80245500  1
  Ta  Ta1  1  0.48611200  0.11350500  0.19754500  1
  Ta  Ta2  1  0.01429600  0.89648400  0.80453900  1
  Ta  Ta3  1  0.98570400  0.10351600  0.19546100  1
  Te  Te4  1  0.31795000  0.68897700  0.75488700  1
  Te  Te5  1  0.68205000  0.31102300  0.24511300  1
  Te  Te6  1  0.68287100  0.01570500  0.91384200  1
  Te  Te7  1  0.31712900  0.98429500  0.08615800  1
  Te  Te8  1  0.29933600  0.99081900  0.66489200  1
  Te  Te9  1  0.70066400  0.00918100  0.33510800  1
  Te  Te10  1  0.79031800  0.64663800  0.86196300  1
  Te  Te11  1  0.20968200  0.35336200  0.13803700  1
  Te  Te12  1  0.74562100  0.13291500  0.73171500  1
  Te  Te13  1  0.25437900  0.86708500  0.26828500  1
  Te  Te14  1  0.21973900  0.77713500  0.94343800  1
  Te  Te15  1  0.78026100  0.22286500  0.05656200  1
  Te  Te16  1  0.20015600  0.10996300  0.84342500  1
  Te  Te17  1  0.79984400  0.89003700  0.15657500  1
  Te  Te18  1  0.17461600  0.22077900  0.31261200  1
  Te  Te19  1  0.82538400  0.77922100  0.68738800  1
  Pt  Pt20  1  0.00000000  0.00000000  0.00000000  1
  I  I21  1  0.30149600  0.42001000  0.94004900  1
  I  I22  1  0.69850400  0.57999000  0.05995100  1
  I  I23  1  0.35438700  0.29168100  0.44337000  1
  I  I24  1  0.64561300  0.70831900  0.55663000  1
  I  I25  1  0.77066000  0.66863500  0.33094000  1
  I  I26  1  0.22934000  0.33136500  0.66906000  1
  I  I27  1  0.21010000  0.83032400  0.44571700  1
  I  I28  1  0.78990000  0.16967600  0.55428300  1
