# generated using pymatgen
data_Y(AsO)2
_symmetry_space_group_name_H-M   'P 1'
_cell_length_a   10.25604466
_cell_length_b   10.25604466
_cell_length_c   10.25604466
_cell_angle_alpha   115.63086664
_cell_angle_beta   115.63086664
_cell_angle_gamma   97.75034804
_symmetry_Int_Tables_number   1
_chemical_formula_structural   Y(AsO)2
_chemical_formula_sum   'Y4 As8 O8'
_cell_volume   805.21117766
_cell_formula_units_Z   4
loop_
 _symmetry_equiv_pos_site_id
 _symmetry_equiv_pos_as_xyz
  1  'x, y, z'
loop_
 _atom_site_type_symbol
 _atom_site_label
 _atom_site_symmetry_multiplicity
 _atom_site_fract_x
 _atom_site_fract_y
 _atom_site_fract_z
 _atom_site_occupancy
  Y  Y0  1  0.87500000  0.12500000  0.75000000  1
  Y  Y1  1  0.37500000  0.12500000  0.25000000  1
  Y  Y2  1  0.87500000  0.62500000  0.75000000  1
  Y  Y3  1  0.87500000  0.12500000  0.25000000  1
  As  As4  1  0.77348500  0.39146000  0.38202500  1
  As  As5  1  0.00943500  0.39146000  0.61797500  1
  As  As6  1  0.14146000  0.25943500  0.11797500  1
  As  As7  1  0.74056500  0.85854000  0.88202500  1
  As  As8  1  0.97651500  0.85854000  0.11797500  1
  As  As9  1  0.14146000  0.02348500  0.88202500  1
  As  As10  1  0.60854000  0.99056500  0.38202500  1
  As  As11  1  0.60854000  0.22651500  0.61797500  1
  O  O12  1  0.57795600  0.27771600  0.30024000  1
  O  O13  1  0.97747700  0.27771600  0.69976000  1
  O  O14  1  0.02771600  0.22747700  0.19976000  1
  O  O15  1  0.77252300  0.97228400  0.80024000  1
  O  O16  1  0.17204400  0.97228400  0.19976000  1
  O  O17  1  0.02771600  0.82795600  0.80024000  1
  O  O18  1  0.72228400  0.02252300  0.30024000  1
  O  O19  1  0.72228400  0.42204400  0.69976000  1
