# generated using pymatgen
data_YbBi2C
_symmetry_space_group_name_H-M   'P 1'
_cell_length_a   11.38294900
_cell_length_b   11.38294900
_cell_length_c   5.69454000
_cell_angle_alpha   90.00000000
_cell_angle_beta   90.00000000
_cell_angle_gamma   90.00000000
_symmetry_Int_Tables_number   1
_chemical_formula_structural   YbBi2C
_chemical_formula_sum   'Yb8 Bi16 C8'
_cell_volume   737.85024870
_cell_formula_units_Z   8
loop_
 _symmetry_equiv_pos_site_id
 _symmetry_equiv_pos_as_xyz
  1  'x, y, z'
loop_
 _atom_site_type_symbol
 _atom_site_label
 _atom_site_symmetry_multiplicity
 _atom_site_fract_x
 _atom_site_fract_y
 _atom_site_fract_z
 _atom_site_occupancy
  Yb  Yb0  1  0.16400000  0.66400000  0.25000000  1
  Yb  Yb1  1  0.83600000  0.33600000  0.75000000  1
  Yb  Yb2  1  0.83600000  0.33600000  0.25000000  1
  Yb  Yb3  1  0.33600000  0.16400000  0.75000000  1
  Yb  Yb4  1  0.16400000  0.66400000  0.75000000  1
  Yb  Yb5  1  0.66400000  0.83600000  0.25000000  1
  Yb  Yb6  1  0.66400000  0.83600000  0.75000000  1
  Yb  Yb7  1  0.33600000  0.16400000  0.25000000  1
  Bi  Bi8  1  0.10961300  0.39299600  0.00000000  1
  Bi  Bi9  1  0.89038700  0.60700400  0.00000000  1
  Bi  Bi10  1  0.60700400  0.10961300  0.50000000  1
  Bi  Bi11  1  0.39038700  0.89299600  0.00000000  1
  Bi  Bi12  1  0.39299600  0.89038700  0.50000000  1
  Bi  Bi13  1  0.60961300  0.10700400  0.00000000  1
  Bi  Bi14  1  0.89299600  0.60961300  0.50000000  1
  Bi  Bi15  1  0.10700400  0.39038700  0.50000000  1
  Bi  Bi16  1  0.94524300  0.12802300  0.00000000  1
  Bi  Bi17  1  0.05475700  0.87197700  0.00000000  1
  Bi  Bi18  1  0.87197700  0.94524300  0.50000000  1
  Bi  Bi19  1  0.55475700  0.62802300  0.00000000  1
  Bi  Bi20  1  0.12802300  0.05475700  0.50000000  1
  Bi  Bi21  1  0.44524300  0.37197700  0.00000000  1
  Bi  Bi22  1  0.62802300  0.44524300  0.50000000  1
  Bi  Bi23  1  0.37197700  0.55475700  0.50000000  1
  C  C24  1  0.35152000  0.56539300  0.00000000  1
  C  C25  1  0.64848000  0.43460700  0.00000000  1
  C  C26  1  0.43460700  0.35152000  0.50000000  1
  C  C27  1  0.14848000  0.06539300  0.00000000  1
  C  C28  1  0.56539300  0.64848000  0.50000000  1
  C  C29  1  0.85152000  0.93460700  0.00000000  1
  C  C30  1  0.06539300  0.85152000  0.50000000  1
  C  C31  1  0.93460700  0.14848000  0.50000000  1
