# generated using pymatgen
data_Y2Fe17N3
_symmetry_space_group_name_H-M   'P 1'
_cell_length_a   8.64851105
_cell_length_b   8.64851105
_cell_length_c   8.38377400
_cell_angle_alpha   90.00000000
_cell_angle_beta   90.00000000
_cell_angle_gamma   119.99999273
_symmetry_Int_Tables_number   1
_chemical_formula_structural   Y2Fe17N3
_chemical_formula_sum   'Y4 Fe34 N6'
_cell_volume   543.06637741
_cell_formula_units_Z   2
loop_
 _symmetry_equiv_pos_site_id
 _symmetry_equiv_pos_as_xyz
  1  'x, y, z'
loop_
 _atom_site_type_symbol
 _atom_site_label
 _atom_site_symmetry_multiplicity
 _atom_site_fract_x
 _atom_site_fract_y
 _atom_site_fract_z
 _atom_site_occupancy
  Y  Y0  1  0.33333300  0.66666700  0.25000000  1
  Y  Y1  1  0.66666700  0.33333300  0.75000000  1
  Y  Y2  1  0.00000000  0.00000000  0.25000000  1
  Y  Y3  1  0.00000000  0.00000000  0.75000000  1
  Fe  Fe4  1  0.38146000  0.05288000  0.25000000  1
  Fe  Fe5  1  0.61854000  0.94712000  0.75000000  1
  Fe  Fe6  1  0.94712000  0.32858000  0.25000000  1
  Fe  Fe7  1  0.05288000  0.38146000  0.75000000  1
  Fe  Fe8  1  0.05288000  0.67142000  0.75000000  1
  Fe  Fe9  1  0.94712000  0.61854000  0.25000000  1
  Fe  Fe10  1  0.67142000  0.61854000  0.25000000  1
  Fe  Fe11  1  0.32858000  0.94712000  0.75000000  1
  Fe  Fe12  1  0.32858000  0.38146000  0.75000000  1
  Fe  Fe13  1  0.67142000  0.05288000  0.25000000  1
  Fe  Fe14  1  0.61854000  0.67142000  0.75000000  1
  Fe  Fe15  1  0.38146000  0.32858000  0.25000000  1
  Fe  Fe16  1  0.33333300  0.66666700  0.60796300  1
  Fe  Fe17  1  0.66666700  0.33333300  0.39203700  1
  Fe  Fe18  1  0.66666700  0.33333300  0.10796300  1
  Fe  Fe19  1  0.33333300  0.66666700  0.89203700  1
  Fe  Fe20  1  0.16925600  0.33851100  0.02071000  1
  Fe  Fe21  1  0.83074400  0.66148900  0.97929000  1
  Fe  Fe22  1  0.66148900  0.83074400  0.02071000  1
  Fe  Fe23  1  0.83074400  0.66148900  0.52071000  1
  Fe  Fe24  1  0.33851100  0.16925600  0.97929000  1
  Fe  Fe25  1  0.16925600  0.33851100  0.47929000  1
  Fe  Fe26  1  0.16925600  0.83074400  0.02071000  1
  Fe  Fe27  1  0.33851100  0.16925600  0.52071000  1
  Fe  Fe28  1  0.83074400  0.16925600  0.97929000  1
  Fe  Fe29  1  0.66148900  0.83074400  0.47929000  1
  Fe  Fe30  1  0.83074400  0.16925600  0.52071000  1
  Fe  Fe31  1  0.16925600  0.83074400  0.47929000  1
  Fe  Fe32  1  0.50000000  0.00000000  0.00000000  1
  Fe  Fe33  1  0.00000000  0.50000000  0.00000000  1
  Fe  Fe34  1  0.50000000  0.00000000  0.50000000  1
  Fe  Fe35  1  0.50000000  0.50000000  0.00000000  1
  Fe  Fe36  1  0.00000000  0.50000000  0.50000000  1
  Fe  Fe37  1  0.50000000  0.50000000  0.50000000  1
  N  N38  1  0.16404400  0.32808800  0.25000000  1
  N  N39  1  0.83595600  0.67191200  0.75000000  1
  N  N40  1  0.67191200  0.83595600  0.25000000  1
  N  N41  1  0.32808800  0.16404400  0.75000000  1
  N  N42  1  0.16404400  0.83595600  0.25000000  1
  N  N43  1  0.83595600  0.16404400  0.75000000  1
