# generated using pymatgen
data_TmTa5Ag2O15
_symmetry_space_group_name_H-M   'P 1'
_cell_length_a   12.59018500
_cell_length_b   12.59018500
_cell_length_c   3.91530500
_cell_angle_alpha   90.00000000
_cell_angle_beta   90.00000000
_cell_angle_gamma   90.00000000
_symmetry_Int_Tables_number   1
_chemical_formula_structural   TmTa5Ag2O15
_chemical_formula_sum   'Tm2 Ta10 Ag4 O30'
_cell_volume   620.62579527
_cell_formula_units_Z   2
loop_
 _symmetry_equiv_pos_site_id
 _symmetry_equiv_pos_as_xyz
  1  'x, y, z'
loop_
 _atom_site_type_symbol
 _atom_site_label
 _atom_site_symmetry_multiplicity
 _atom_site_fract_x
 _atom_site_fract_y
 _atom_site_fract_z
 _atom_site_occupancy
  Tm  Tm0  1  0.00000000  0.00000000  0.50000000  1
  Tm  Tm1  1  0.50000000  0.50000000  0.50000000  1
  Ta  Ta2  1  0.50000000  0.00000000  0.00000000  1
  Ta  Ta3  1  0.00000000  0.50000000  0.00000000  1
  Ta  Ta4  1  0.21035300  0.07864300  0.00000000  1
  Ta  Ta5  1  0.78964700  0.92135700  0.00000000  1
  Ta  Ta6  1  0.07864300  0.78964700  0.00000000  1
  Ta  Ta7  1  0.71035300  0.42135700  0.00000000  1
  Ta  Ta8  1  0.92135700  0.21035300  0.00000000  1
  Ta  Ta9  1  0.28964700  0.57864300  0.00000000  1
  Ta  Ta10  1  0.57864300  0.71035300  0.00000000  1
  Ta  Ta11  1  0.42135700  0.28964700  0.00000000  1
  Ag  Ag12  1  0.67181500  0.17181500  0.50000000  1
  Ag  Ag13  1  0.32818500  0.82818500  0.50000000  1
  Ag  Ag14  1  0.17181500  0.32818500  0.50000000  1
  Ag  Ag15  1  0.82818500  0.67181500  0.50000000  1
  O  O16  1  0.18667400  0.07926500  0.50000000  1
  O  O17  1  0.81332600  0.92073500  0.50000000  1
  O  O18  1  0.07926500  0.81332600  0.50000000  1
  O  O19  1  0.68667400  0.42073500  0.50000000  1
  O  O20  1  0.92073500  0.18667400  0.50000000  1
  O  O21  1  0.31332600  0.57926500  0.50000000  1
  O  O22  1  0.57926500  0.68667400  0.50000000  1
  O  O23  1  0.42073500  0.31332600  0.50000000  1
  O  O24  1  0.22487700  0.72487700  0.00000000  1
  O  O25  1  0.77512300  0.27512300  0.00000000  1
  O  O26  1  0.72487700  0.77512300  0.00000000  1
  O  O27  1  0.27512300  0.22487700  0.00000000  1
  O  O28  1  0.50000000  0.00000000  0.50000000  1
  O  O29  1  0.00000000  0.50000000  0.50000000  1
  O  O30  1  0.05646300  0.12944000  0.00000000  1
  O  O31  1  0.94353700  0.87056000  0.00000000  1
  O  O32  1  0.12944000  0.94353700  0.00000000  1
  O  O33  1  0.55646300  0.37056000  0.00000000  1
  O  O34  1  0.87056000  0.05646300  0.00000000  1
  O  O35  1  0.44353700  0.62944000  0.00000000  1
  O  O36  1  0.62944000  0.55646300  0.00000000  1
  O  O37  1  0.37056000  0.44353700  0.00000000  1
  O  O38  1  0.34083400  0.99895500  0.00000000  1
  O  O39  1  0.65916600  0.00104500  0.00000000  1
  O  O40  1  0.99895500  0.65916600  0.00000000  1
  O  O41  1  0.84083400  0.50104500  0.00000000  1
  O  O42  1  0.00104500  0.34083400  0.00000000  1
  O  O43  1  0.15916600  0.49895500  0.00000000  1
  O  O44  1  0.49895500  0.84083400  0.00000000  1
  O  O45  1  0.50104500  0.15916600  0.00000000  1
