# generated using pymatgen
data_TmWO5
_symmetry_space_group_name_H-M   'P 1'
_cell_length_a   5.27360158
_cell_length_b   6.51338839
_cell_length_c   12.54755200
_cell_angle_alpha   90.00000000
_cell_angle_beta   90.00000000
_cell_angle_gamma   109.31810071
_symmetry_Int_Tables_number   1
_chemical_formula_structural   TmWO5
_chemical_formula_sum   'Tm4 W4 O20'
_cell_volume   406.72946438
_cell_formula_units_Z   4
loop_
 _symmetry_equiv_pos_site_id
 _symmetry_equiv_pos_as_xyz
  1  'x, y, z'
loop_
 _atom_site_type_symbol
 _atom_site_label
 _atom_site_symmetry_multiplicity
 _atom_site_fract_x
 _atom_site_fract_y
 _atom_site_fract_z
 _atom_site_occupancy
  Tm  Tm0  1  0.14498200  0.78550700  0.44496200  1
  Tm  Tm1  1  0.85501800  0.21449300  0.55503800  1
  Tm  Tm2  1  0.35501800  0.71449300  0.94496200  1
  Tm  Tm3  1  0.64498200  0.28550700  0.05503800  1
  W  W4  1  0.95193500  0.84728000  0.13852100  1
  W  W5  1  0.04806500  0.15272000  0.86147900  1
  W  W6  1  0.54806500  0.65272000  0.63852100  1
  W  W7  1  0.45193500  0.34728000  0.36147900  1
  O  O8  1  0.04681300  0.55712700  0.08487800  1
  O  O9  1  0.95318700  0.44287300  0.91512200  1
  O  O10  1  0.45318700  0.94287300  0.58487800  1
  O  O11  1  0.54681300  0.05712700  0.41512200  1
  O  O12  1  0.86072500  0.84569700  0.57193300  1
  O  O13  1  0.13927500  0.15430300  0.42806700  1
  O  O14  1  0.63927500  0.65430300  0.07193300  1
  O  O15  1  0.36072500  0.34569700  0.92806700  1
  O  O16  1  0.27301600  0.97192700  0.06355200  1
  O  O17  1  0.72698400  0.02807300  0.93644800  1
  O  O18  1  0.22698400  0.52807300  0.56355200  1
  O  O19  1  0.77301600  0.47192700  0.43644800  1
  O  O20  1  0.99785900  0.79089600  0.27590300  1
  O  O21  1  0.00214100  0.20910400  0.72409700  1
  O  O22  1  0.50214100  0.70910400  0.77590300  1
  O  O23  1  0.49785900  0.29089600  0.22409700  1
  O  O24  1  0.15480300  0.91698400  0.85106400  1
  O  O25  1  0.84519700  0.08301600  0.14893600  1
  O  O26  1  0.34519700  0.58301600  0.35106400  1
  O  O27  1  0.65480300  0.41698400  0.64893600  1
