# generated using pymatgen
data_Tb4MgGe4
_symmetry_space_group_name_H-M   'P 1'
_cell_length_a   7.26971700
_cell_length_b   7.82101000
_cell_length_c   14.66667300
_cell_angle_alpha   90.00000000
_cell_angle_beta   90.00000000
_cell_angle_gamma   90.00000000
_symmetry_Int_Tables_number   1
_chemical_formula_structural   Tb4MgGe4
_chemical_formula_sum   'Tb16 Mg4 Ge16'
_cell_volume   833.89612395
_cell_formula_units_Z   4
loop_
 _symmetry_equiv_pos_site_id
 _symmetry_equiv_pos_as_xyz
  1  'x, y, z'
loop_
 _atom_site_type_symbol
 _atom_site_label
 _atom_site_symmetry_multiplicity
 _atom_site_fract_x
 _atom_site_fract_y
 _atom_site_fract_z
 _atom_site_occupancy
  Tb  Tb0  1  0.32968500  0.17821600  0.62712200  1
  Tb  Tb1  1  0.67031500  0.82178400  0.37287800  1
  Tb  Tb2  1  0.17031500  0.67821600  0.37287800  1
  Tb  Tb3  1  0.67031500  0.82178400  0.12712200  1
  Tb  Tb4  1  0.82968500  0.32178400  0.62712200  1
  Tb  Tb5  1  0.32968500  0.17821600  0.87287800  1
  Tb  Tb6  1  0.82968500  0.32178400  0.87287800  1
  Tb  Tb7  1  0.17031500  0.67821600  0.12712200  1
  Tb  Tb8  1  0.01185800  0.18307400  0.09559800  1
  Tb  Tb9  1  0.98814200  0.81692600  0.90440200  1
  Tb  Tb10  1  0.48814200  0.68307400  0.90440200  1
  Tb  Tb11  1  0.98814200  0.81692600  0.59559800  1
  Tb  Tb12  1  0.51185800  0.31692600  0.09559800  1
  Tb  Tb13  1  0.01185800  0.18307400  0.40440200  1
  Tb  Tb14  1  0.51185800  0.31692600  0.40440200  1
  Tb  Tb15  1  0.48814200  0.68307400  0.59559800  1
  Mg  Mg16  1  0.15980000  0.51889600  0.75000000  1
  Mg  Mg17  1  0.84020000  0.48110400  0.25000000  1
  Mg  Mg18  1  0.34020000  0.01889600  0.25000000  1
  Mg  Mg19  1  0.65980000  0.98110400  0.75000000  1
  Ge  Ge20  1  0.28620800  0.86277900  0.75000000  1
  Ge  Ge21  1  0.71379200  0.13722100  0.25000000  1
  Ge  Ge22  1  0.21379200  0.36277900  0.25000000  1
  Ge  Ge23  1  0.78620800  0.63722100  0.75000000  1
  Ge  Ge24  1  0.02290800  0.08805600  0.75000000  1
  Ge  Ge25  1  0.97709200  0.91194400  0.25000000  1
  Ge  Ge26  1  0.47709200  0.58805600  0.25000000  1
  Ge  Ge27  1  0.52290800  0.41194400  0.75000000  1
  Ge  Ge28  1  0.16882500  0.46643900  0.53595900  1
  Ge  Ge29  1  0.83117500  0.53356100  0.46404100  1
  Ge  Ge30  1  0.33117500  0.96643900  0.46404100  1
  Ge  Ge31  1  0.83117500  0.53356100  0.03595900  1
  Ge  Ge32  1  0.66882500  0.03356100  0.53595900  1
  Ge  Ge33  1  0.16882500  0.46643900  0.96404100  1
  Ge  Ge34  1  0.66882500  0.03356100  0.96404100  1
  Ge  Ge35  1  0.33117500  0.96643900  0.03595900  1
