# generated using pymatgen
data_Sc2SiO5
_symmetry_space_group_name_H-M   'P 1'
_cell_length_a   6.48377100
_cell_length_b   7.65242940
_cell_length_c   9.21598895
_cell_angle_alpha   71.28996069
_cell_angle_beta   69.40453449
_cell_angle_gamma   64.93530049
_symmetry_Int_Tables_number   1
_chemical_formula_structural   Sc2SiO5
_chemical_formula_sum   'Sc8 Si4 O20'
_cell_volume   379.69480531
_cell_formula_units_Z   4
loop_
 _symmetry_equiv_pos_site_id
 _symmetry_equiv_pos_as_xyz
  1  'x, y, z'
loop_
 _atom_site_type_symbol
 _atom_site_label
 _atom_site_symmetry_multiplicity
 _atom_site_fract_x
 _atom_site_fract_y
 _atom_site_fract_z
 _atom_site_occupancy
  Sc  Sc0  1  0.70409500  0.60221100  0.47609500  1
  Sc  Sc1  1  0.29590500  0.39778900  0.52390500  1
  Sc  Sc2  1  0.78240200  0.89778900  0.02390500  1
  Sc  Sc3  1  0.21759800  0.10221100  0.97609500  1
  Sc  Sc4  1  0.51822600  0.56211100  0.15838500  1
  Sc  Sc5  1  0.48177400  0.43788900  0.84161500  1
  Sc  Sc6  1  0.23872300  0.93788900  0.34161500  1
  Sc  Sc7  1  0.76127700  0.06211100  0.65838500  1
  Si  Si8  1  0.72128600  0.05801300  0.30792900  1
  Si  Si9  1  0.27871400  0.94198700  0.69207100  1
  Si  Si10  1  0.08722800  0.44198700  0.19207100  1
  Si  Si11  1  0.91277200  0.55801300  0.80792900  1
  O  O12  1  0.58001200  0.90868200  0.33750900  1
  O  O13  1  0.41998800  0.09131800  0.66249100  1
  O  O14  1  0.82620300  0.59131800  0.16249100  1
  O  O15  1  0.17379700  0.40868200  0.83750900  1
  O  O16  1  0.41653400  0.86224400  0.10241000  1
  O  O17  1  0.58346600  0.13775600  0.89759000  1
  O  O18  1  0.38118900  0.63775600  0.39759000  1
  O  O19  1  0.61881100  0.36224400  0.60241000  1
  O  O20  1  0.54529900  0.28436300  0.31809300  1
  O  O21  1  0.45470100  0.71563700  0.68190700  1
  O  O22  1  0.14775500  0.21563700  0.18190700  1
  O  O23  1  0.85224500  0.78436300  0.81809300  1
  O  O24  1  0.28333900  0.53128000  0.06112500  1
  O  O25  1  0.71666100  0.46872000  0.93887500  1
  O  O26  1  0.87574300  0.96872000  0.43887500  1
  O  O27  1  0.12425700  0.03128000  0.56112500  1
  O  O28  1  0.89823700  0.03522200  0.13225100  1
  O  O29  1  0.10176300  0.96477800  0.86774900  1
  O  O30  1  0.06571000  0.46477800  0.36774900  1
  O  O31  1  0.93429000  0.53522200  0.63225100  1
