# generated using pymatgen
data_Sr2LaBeO5
_symmetry_space_group_name_H-M   'P 1'
_cell_length_a   6.69218000
_cell_length_b   7.50559600
_cell_length_c   9.76380200
_cell_angle_alpha   90.00000000
_cell_angle_beta   90.00000000
_cell_angle_gamma   90.00000000
_symmetry_Int_Tables_number   1
_chemical_formula_structural   Sr2LaBeO5
_chemical_formula_sum   'Sr8 La4 Be4 O20'
_cell_volume   490.42405242
_cell_formula_units_Z   4
loop_
 _symmetry_equiv_pos_site_id
 _symmetry_equiv_pos_as_xyz
  1  'x, y, z'
loop_
 _atom_site_type_symbol
 _atom_site_label
 _atom_site_symmetry_multiplicity
 _atom_site_fract_x
 _atom_site_fract_y
 _atom_site_fract_z
 _atom_site_occupancy
  Sr  Sr0  1  0.58584600  0.52493300  0.82658600  1
  Sr  Sr1  1  0.41415400  0.47506700  0.17341400  1
  Sr  Sr2  1  0.08584600  0.47506700  0.67341400  1
  Sr  Sr3  1  0.41415400  0.02493300  0.17341400  1
  Sr  Sr4  1  0.91415400  0.52493300  0.32658600  1
  Sr  Sr5  1  0.58584600  0.97506700  0.82658600  1
  Sr  Sr6  1  0.91415400  0.97506700  0.32658600  1
  Sr  Sr7  1  0.08584600  0.02493300  0.67341400  1
  La  La8  1  0.09610700  0.75000000  0.97054400  1
  La  La9  1  0.90389300  0.25000000  0.02945600  1
  La  La10  1  0.59610700  0.25000000  0.52945600  1
  La  La11  1  0.40389300  0.75000000  0.47054400  1
  Be  Be12  1  0.81146100  0.75000000  0.60150600  1
  Be  Be13  1  0.18853900  0.25000000  0.39849400  1
  Be  Be14  1  0.31146100  0.25000000  0.89849400  1
  Be  Be15  1  0.68853900  0.75000000  0.10150600  1
  O  O16  1  0.68954400  0.56547000  0.56445800  1
  O  O17  1  0.31045600  0.43453000  0.43554200  1
  O  O18  1  0.18954400  0.43453000  0.93554200  1
  O  O19  1  0.31045600  0.06547000  0.43554200  1
  O  O20  1  0.81045600  0.56547000  0.06445800  1
  O  O21  1  0.68954400  0.93453000  0.56445800  1
  O  O22  1  0.81045600  0.93453000  0.06445800  1
  O  O23  1  0.18954400  0.06547000  0.93554200  1
  O  O24  1  0.87117300  0.75000000  0.76808500  1
  O  O25  1  0.12882700  0.25000000  0.23191500  1
  O  O26  1  0.37117300  0.25000000  0.73191500  1
  O  O27  1  0.62882700  0.75000000  0.26808500  1
  O  O28  1  0.02572400  0.75000000  0.51279800  1
  O  O29  1  0.97427600  0.25000000  0.48720200  1
  O  O30  1  0.52572400  0.25000000  0.98720200  1
  O  O31  1  0.47427600  0.75000000  0.01279800  1
  O  O32  1  0.32775600  0.75000000  0.72183000  1
  O  O33  1  0.67224400  0.25000000  0.27817000  1
  O  O34  1  0.82775600  0.25000000  0.77817000  1
  O  O35  1  0.17224400  0.75000000  0.22183000  1
