# generated using pymatgen
data_SrU2S5
_symmetry_space_group_name_H-M   'P 1'
_cell_length_a   7.37860400
_cell_length_b   7.86909700
_cell_length_c   12.29693400
_cell_angle_alpha   90.00000000
_cell_angle_beta   90.00000000
_cell_angle_gamma   90.00000000
_symmetry_Int_Tables_number   1
_chemical_formula_structural   SrU2S5
_chemical_formula_sum   'Sr4 U8 S20'
_cell_volume   713.99627138
_cell_formula_units_Z   4
loop_
 _symmetry_equiv_pos_site_id
 _symmetry_equiv_pos_as_xyz
  1  'x, y, z'
loop_
 _atom_site_type_symbol
 _atom_site_label
 _atom_site_symmetry_multiplicity
 _atom_site_fract_x
 _atom_site_fract_y
 _atom_site_fract_z
 _atom_site_occupancy
  Sr  Sr0  1  0.92357100  0.75000000  0.99375900  1
  Sr  Sr1  1  0.07642900  0.25000000  0.00624100  1
  Sr  Sr2  1  0.42357100  0.25000000  0.50624100  1
  Sr  Sr3  1  0.57642900  0.75000000  0.49375900  1
  U  U4  1  0.99016600  0.00165800  0.68164200  1
  U  U5  1  0.00983400  0.99834200  0.31835800  1
  U  U6  1  0.49016600  0.99834200  0.81835800  1
  U  U7  1  0.00983400  0.50165800  0.31835800  1
  U  U8  1  0.50983400  0.00165800  0.18164200  1
  U  U9  1  0.99016600  0.49834200  0.68164200  1
  U  U10  1  0.50983400  0.49834200  0.18164200  1
  U  U11  1  0.49016600  0.50165800  0.81835800  1
  S  S12  1  0.70910800  0.75000000  0.71690300  1
  S  S13  1  0.29089200  0.25000000  0.28309700  1
  S  S14  1  0.20910800  0.25000000  0.78309700  1
  S  S15  1  0.79089200  0.75000000  0.21690300  1
  S  S16  1  0.17856100  0.75000000  0.81157400  1
  S  S17  1  0.82143900  0.25000000  0.18842600  1
  S  S18  1  0.67856100  0.25000000  0.68842600  1
  S  S19  1  0.32143900  0.75000000  0.31157400  1
  S  S20  1  0.51977100  0.75000000  0.99722600  1
  S  S21  1  0.48022900  0.25000000  0.00277400  1
  S  S22  1  0.01977100  0.25000000  0.50277400  1
  S  S23  1  0.98022900  0.75000000  0.49722600  1
  S  S24  1  0.83173800  0.45463500  0.87877600  1
  S  S25  1  0.16826200  0.54536500  0.12122400  1
  S  S26  1  0.33173800  0.54536500  0.62122400  1
  S  S27  1  0.16826200  0.95463500  0.12122400  1
  S  S28  1  0.66826200  0.45463500  0.37877600  1
  S  S29  1  0.83173800  0.04536500  0.87877600  1
  S  S30  1  0.66826200  0.04536500  0.37877600  1
  S  S31  1  0.33173800  0.95463500  0.62122400  1
