# generated using pymatgen
data_Rb2Fe2(SO4)3
_symmetry_space_group_name_H-M   'P 1'
_cell_length_a   10.26189700
_cell_length_b   10.26189700
_cell_length_c   10.26189700
_cell_angle_alpha   90.00000000
_cell_angle_beta   90.00000000
_cell_angle_gamma   90.00000000
_symmetry_Int_Tables_number   1
_chemical_formula_structural   Rb2Fe2(SO4)3
_chemical_formula_sum   'Rb8 Fe8 S12 O48'
_cell_volume   1080.64476468
_cell_formula_units_Z   4
loop_
 _symmetry_equiv_pos_site_id
 _symmetry_equiv_pos_as_xyz
  1  'x, y, z'
loop_
 _atom_site_type_symbol
 _atom_site_label
 _atom_site_symmetry_multiplicity
 _atom_site_fract_x
 _atom_site_fract_y
 _atom_site_fract_z
 _atom_site_occupancy
  Rb  Rb0  1  0.04816900  0.04816900  0.04816900  1
  Rb  Rb1  1  0.45183100  0.95183100  0.54816900  1
  Rb  Rb2  1  0.95183100  0.54816900  0.45183100  1
  Rb  Rb3  1  0.54816900  0.45183100  0.95183100  1
  Rb  Rb4  1  0.81661300  0.81661300  0.81661300  1
  Rb  Rb5  1  0.68338700  0.18338700  0.31661300  1
  Rb  Rb6  1  0.18338700  0.31661300  0.68338700  1
  Rb  Rb7  1  0.31661300  0.68338700  0.18338700  1
  Fe  Fe8  1  0.33520800  0.33520800  0.33520800  1
  Fe  Fe9  1  0.16479200  0.66479200  0.83520800  1
  Fe  Fe10  1  0.66479200  0.83520800  0.16479200  1
  Fe  Fe11  1  0.83520800  0.16479200  0.66479200  1
  Fe  Fe12  1  0.59873000  0.59873000  0.59873000  1
  Fe  Fe13  1  0.90127000  0.40127000  0.09873000  1
  Fe  Fe14  1  0.40127000  0.09873000  0.90127000  1
  Fe  Fe15  1  0.09873000  0.90127000  0.40127000  1
  S  S16  1  0.01810800  0.21590000  0.37580300  1
  S  S17  1  0.48189200  0.78410000  0.87580300  1
  S  S18  1  0.98189200  0.71590000  0.12419700  1
  S  S19  1  0.37580300  0.01810800  0.21590000  1
  S  S20  1  0.51810800  0.28410000  0.62419700  1
  S  S21  1  0.87580300  0.48189200  0.78410000  1
  S  S22  1  0.12419700  0.98189200  0.71590000  1
  S  S23  1  0.62419700  0.51810800  0.28410000  1
  S  S24  1  0.21590000  0.37580300  0.01810800  1
  S  S25  1  0.71590000  0.12419700  0.98189200  1
  S  S26  1  0.28410000  0.62419700  0.51810800  1
  S  S27  1  0.78410000  0.87580300  0.48189200  1
  O  O28  1  0.00922900  0.07812600  0.33008100  1
  O  O29  1  0.49077100  0.92187400  0.83008100  1
  O  O30  1  0.99077100  0.57812600  0.16991900  1
  O  O31  1  0.33008100  0.00922900  0.07812600  1
  O  O32  1  0.50922900  0.42187400  0.66991900  1
  O  O33  1  0.83008100  0.49077100  0.92187400  1
  O  O34  1  0.16991900  0.99077100  0.57812600  1
  O  O35  1  0.66991900  0.50922900  0.42187400  1
  O  O36  1  0.07812600  0.33008100  0.00922900  1
  O  O37  1  0.57812600  0.16991900  0.99077100  1
  O  O38  1  0.42187400  0.66991900  0.50922900  1
  O  O39  1  0.92187400  0.83008100  0.49077100  1
  O  O40  1  0.26542200  0.50162700  0.44226700  1
  O  O41  1  0.23457800  0.49837300  0.94226700  1
  O  O42  1  0.73457800  0.00162700  0.05773300  1
  O  O43  1  0.44226700  0.26542200  0.50162700  1
  O  O44  1  0.76542200  0.99837300  0.55773300  1
  O  O45  1  0.94226700  0.23457800  0.49837300  1
  O  O46  1  0.05773300  0.73457800  0.00162700  1
  O  O47  1  0.55773300  0.76542200  0.99837300  1
  O  O48  1  0.50162700  0.44226700  0.26542200  1
  O  O49  1  0.00162700  0.05773300  0.73457800  1
  O  O50  1  0.99837300  0.55773300  0.76542200  1
  O  O51  1  0.49837300  0.94226700  0.23457800  1
  O  O52  1  0.04089100  0.80231100  0.22455400  1
  O  O53  1  0.45910900  0.19768900  0.72455400  1
  O  O54  1  0.95910900  0.30231100  0.27544600  1
  O  O55  1  0.22455400  0.04089100  0.80231100  1
  O  O56  1  0.54089100  0.69768900  0.77544600  1
  O  O57  1  0.72455400  0.45910900  0.19768900  1
  O  O58  1  0.27544600  0.95910900  0.30231100  1
  O  O59  1  0.77544600  0.54089100  0.69768900  1
  O  O60  1  0.80231100  0.22455400  0.04089100  1
  O  O61  1  0.30231100  0.27544600  0.95910900  1
  O  O62  1  0.69768900  0.77544600  0.54089100  1
  O  O63  1  0.19768900  0.72455400  0.45910900  1
  O  O64  1  0.15544100  0.25273400  0.40210100  1
  O  O65  1  0.34455900  0.74726600  0.90210100  1
  O  O66  1  0.84455900  0.75273400  0.09789900  1
  O  O67  1  0.40210100  0.15544100  0.25273400  1
  O  O68  1  0.65544100  0.24726600  0.59789900  1
  O  O69  1  0.90210100  0.34455900  0.74726600  1
  O  O70  1  0.09789900  0.84455900  0.75273400  1
  O  O71  1  0.59789900  0.65544100  0.24726600  1
  O  O72  1  0.25273400  0.40210100  0.15544100  1
  O  O73  1  0.75273400  0.09789900  0.84455900  1
  O  O74  1  0.24726600  0.59789900  0.65544100  1
  O  O75  1  0.74726600  0.90210100  0.34455900  1
