# generated using pymatgen
data_Sr2NdBeO5
_symmetry_space_group_name_H-M   'P 1'
_cell_length_a   6.61751700
_cell_length_b   7.45618000
_cell_length_c   9.69899500
_cell_angle_alpha   90.00000000
_cell_angle_beta   90.00000000
_cell_angle_gamma   90.00000000
_symmetry_Int_Tables_number   1
_chemical_formula_structural   Sr2NdBeO5
_chemical_formula_sum   'Sr8 Nd4 Be4 O20'
_cell_volume   478.56197157
_cell_formula_units_Z   4
loop_
 _symmetry_equiv_pos_site_id
 _symmetry_equiv_pos_as_xyz
  1  'x, y, z'
loop_
 _atom_site_type_symbol
 _atom_site_label
 _atom_site_symmetry_multiplicity
 _atom_site_fract_x
 _atom_site_fract_y
 _atom_site_fract_z
 _atom_site_occupancy
  Sr  Sr0  1  0.58573500  0.52494200  0.82686200  1
  Sr  Sr1  1  0.41426500  0.47505800  0.17313800  1
  Sr  Sr2  1  0.08573500  0.47505800  0.67313800  1
  Sr  Sr3  1  0.41426500  0.02494200  0.17313800  1
  Sr  Sr4  1  0.91426500  0.52494200  0.32686200  1
  Sr  Sr5  1  0.58573500  0.97505800  0.82686200  1
  Sr  Sr6  1  0.91426500  0.97505800  0.32686200  1
  Sr  Sr7  1  0.08573500  0.02494200  0.67313800  1
  Nd  Nd8  1  0.09368700  0.75000000  0.97077800  1
  Nd  Nd9  1  0.90631300  0.25000000  0.02922200  1
  Nd  Nd10  1  0.59368700  0.25000000  0.52922200  1
  Nd  Nd11  1  0.40631300  0.75000000  0.47077800  1
  Be  Be12  1  0.81082400  0.75000000  0.60276900  1
  Be  Be13  1  0.18917600  0.25000000  0.39723100  1
  Be  Be14  1  0.31082400  0.25000000  0.89723100  1
  Be  Be15  1  0.68917600  0.75000000  0.10276900  1
  O  O16  1  0.32579000  0.75000000  0.71953000  1
  O  O17  1  0.67421000  0.25000000  0.28047000  1
  O  O18  1  0.82579000  0.25000000  0.78047000  1
  O  O19  1  0.17421000  0.75000000  0.21953000  1
  O  O20  1  0.68819900  0.56449800  0.56473400  1
  O  O21  1  0.31180100  0.43550200  0.43526600  1
  O  O22  1  0.18819900  0.43550200  0.93526600  1
  O  O23  1  0.31180100  0.06449800  0.43526600  1
  O  O24  1  0.81180100  0.56449800  0.06473400  1
  O  O25  1  0.68819900  0.93550200  0.56473400  1
  O  O26  1  0.81180100  0.93550200  0.06473400  1
  O  O27  1  0.18819900  0.06449800  0.93526600  1
  O  O28  1  0.02937400  0.75000000  0.51388900  1
  O  O29  1  0.97062600  0.25000000  0.48611100  1
  O  O30  1  0.52937400  0.25000000  0.98611100  1
  O  O31  1  0.47062600  0.75000000  0.01388900  1
  O  O32  1  0.87216500  0.75000000  0.76991600  1
  O  O33  1  0.12783500  0.25000000  0.23008400  1
  O  O34  1  0.37216500  0.25000000  0.73008400  1
  O  O35  1  0.62783500  0.75000000  0.26991600  1
