# generated using pymatgen
data_RbCe(ClO)4
_symmetry_space_group_name_H-M   'P 1'
_cell_length_a   7.41360900
_cell_length_b   7.42755000
_cell_length_c   8.88631600
_cell_angle_alpha   90.00000000
_cell_angle_beta   90.00000000
_cell_angle_gamma   90.00000000
_symmetry_Int_Tables_number   1
_chemical_formula_structural   RbCe(ClO)4
_chemical_formula_sum   'Rb2 Ce2 Cl8 O8'
_cell_volume   489.32455980
_cell_formula_units_Z   2
loop_
 _symmetry_equiv_pos_site_id
 _symmetry_equiv_pos_as_xyz
  1  'x, y, z'
loop_
 _atom_site_type_symbol
 _atom_site_label
 _atom_site_symmetry_multiplicity
 _atom_site_fract_x
 _atom_site_fract_y
 _atom_site_fract_z
 _atom_site_occupancy
  Rb  Rb0  1  0.00000000  0.08633800  0.00000000  1
  Rb  Rb1  1  0.50000000  0.91366200  0.50000000  1
  Ce  Ce2  1  0.00000000  0.46385700  0.50000000  1
  Ce  Ce3  1  0.50000000  0.53614300  0.00000000  1
  Cl  Cl4  1  0.17375200  0.60084400  0.18326300  1
  Cl  Cl5  1  0.82624800  0.60084400  0.81673700  1
  Cl  Cl6  1  0.32624800  0.39915600  0.68326300  1
  Cl  Cl7  1  0.67375200  0.39915600  0.31673700  1
  Cl  Cl8  1  0.12765500  0.17701400  0.34268500  1
  Cl  Cl9  1  0.87234500  0.17701400  0.65731500  1
  Cl  Cl10  1  0.37234500  0.82298600  0.84268500  1
  Cl  Cl11  1  0.62765500  0.82298600  0.15731500  1
  O  O12  1  0.44222500  0.22380100  0.05572100  1
  O  O13  1  0.55777500  0.22380100  0.94427900  1
  O  O14  1  0.05777500  0.77619900  0.55572100  1
  O  O15  1  0.94222500  0.77619900  0.44427900  1
  O  O16  1  0.24390000  0.57577800  0.35893700  1
  O  O17  1  0.75610000  0.57577800  0.64106300  1
  O  O18  1  0.25610000  0.42422200  0.85893700  1
  O  O19  1  0.74390000  0.42422200  0.14106300  1
