# generated using pymatgen
data_SrMoO2
_symmetry_space_group_name_H-M   'P 1'
_cell_length_a   7.61145371
_cell_length_b   7.61145371
_cell_length_c   7.61145371
_cell_angle_alpha   128.29910068
_cell_angle_beta   128.29910068
_cell_angle_gamma   76.14099547
_symmetry_Int_Tables_number   1
_chemical_formula_structural   SrMoO2
_chemical_formula_sum   'Sr4 Mo4 O8'
_cell_volume   263.99584018
_cell_formula_units_Z   4
loop_
 _symmetry_equiv_pos_site_id
 _symmetry_equiv_pos_as_xyz
  1  'x, y, z'
loop_
 _atom_site_type_symbol
 _atom_site_label
 _atom_site_symmetry_multiplicity
 _atom_site_fract_x
 _atom_site_fract_y
 _atom_site_fract_z
 _atom_site_occupancy
  Sr  Sr0  1  0.87500000  0.62500000  0.25000000  1
  Sr  Sr1  1  0.37500000  0.62500000  0.75000000  1
  Sr  Sr2  1  0.37500000  0.62500000  0.25000000  1
  Sr  Sr3  1  0.37500000  0.12500000  0.75000000  1
  Mo  Mo4  1  0.37500000  0.12500000  0.25000000  1
  Mo  Mo5  1  0.87500000  0.12500000  0.75000000  1
  Mo  Mo6  1  0.87500000  0.12500000  0.25000000  1
  Mo  Mo7  1  0.87500000  0.62500000  0.75000000  1
  O  O8  1  0.15824700  0.37634400  0.21809700  1
  O  O9  1  0.15824700  0.94015000  0.78190300  1
  O  O10  1  0.12634400  0.40824700  0.71809700  1
  O  O11  1  0.59175300  0.87365600  0.28190300  1
  O  O12  1  0.69015000  0.40824700  0.28190300  1
  O  O13  1  0.59175300  0.30985000  0.71809700  1
  O  O14  1  0.62365600  0.84175300  0.78190300  1
  O  O15  1  0.05985000  0.84175300  0.21809700  1
