# generated using pymatgen
data_Rb3CrF6
_symmetry_space_group_name_H-M   'P 1'
_cell_length_a   8.49843970
_cell_length_b   7.02706608
_cell_length_c   7.04283247
_cell_angle_alpha   77.92041715
_cell_angle_beta   110.81897406
_cell_angle_gamma   127.50488303
_symmetry_Int_Tables_number   1
_chemical_formula_structural   Rb3CrF6
_chemical_formula_sum   'Rb3 Cr1 F6'
_cell_volume   311.85650481
_cell_formula_units_Z   1
loop_
 _symmetry_equiv_pos_site_id
 _symmetry_equiv_pos_as_xyz
  1  'x, y, z'
loop_
 _atom_site_type_symbol
 _atom_site_label
 _atom_site_symmetry_multiplicity
 _atom_site_fract_x
 _atom_site_fract_y
 _atom_site_fract_z
 _atom_site_occupancy
  Rb  Rb0  1  0.00000000  0.00000000  0.50000000  1
  Rb  Rb1  1  0.50000000  0.50000000  0.00000000  1
  Rb  Rb2  1  0.00000000  0.50000000  0.00000000  1
  Cr  Cr3  1  0.00000000  0.00000000  0.00000000  1
  F  F4  1  0.04646100  0.25109700  0.79744500  1
  F  F5  1  0.95353900  0.74890300  0.20255500  1
  F  F6  1  0.79482100  0.74504400  0.79500700  1
  F  F7  1  0.20517900  0.25495600  0.20499300  1
  F  F8  1  0.78701800  0.99732000  0.05514600  1
  F  F9  1  0.21298200  0.00268000  0.94485400  1
