# generated using pymatgen
data_Sm23Mg4Pt7
_symmetry_space_group_name_H-M   'P 1'
_cell_length_a   10.01704933
_cell_length_b   10.01704933
_cell_length_c   22.63074700
_cell_angle_alpha   90.00000000
_cell_angle_beta   90.00000000
_cell_angle_gamma   119.99999559
_symmetry_Int_Tables_number   1
_chemical_formula_structural   Sm23Mg4Pt7
_chemical_formula_sum   'Sm46 Mg8 Pt14'
_cell_volume   1966.56889492
_cell_formula_units_Z   2
loop_
 _symmetry_equiv_pos_site_id
 _symmetry_equiv_pos_as_xyz
  1  'x, y, z'
loop_
 _atom_site_type_symbol
 _atom_site_label
 _atom_site_symmetry_multiplicity
 _atom_site_fract_x
 _atom_site_fract_y
 _atom_site_fract_z
 _atom_site_occupancy
  Sm  Sm0  1  0.20664100  0.41328100  0.72022500  1
  Sm  Sm1  1  0.20664100  0.79335900  0.72022500  1
  Sm  Sm2  1  0.79335900  0.58671900  0.22022500  1
  Sm  Sm3  1  0.58671900  0.79335900  0.72022500  1
  Sm  Sm4  1  0.79335900  0.20664100  0.22022500  1
  Sm  Sm5  1  0.41328100  0.20664100  0.22022500  1
  Sm  Sm6  1  0.79337700  0.58675400  0.94625800  1
  Sm  Sm7  1  0.79337700  0.20662300  0.94625800  1
  Sm  Sm8  1  0.20662300  0.41324600  0.44625800  1
  Sm  Sm9  1  0.41324600  0.20662300  0.94625800  1
  Sm  Sm10  1  0.20662300  0.79337700  0.44625800  1
  Sm  Sm11  1  0.58675400  0.79337700  0.44625800  1
  Sm  Sm12  1  0.21221000  0.42442000  0.98984900  1
  Sm  Sm13  1  0.21221000  0.78779000  0.98984900  1
  Sm  Sm14  1  0.78779000  0.57558000  0.48984900  1
  Sm  Sm15  1  0.57558000  0.78779000  0.98984900  1
  Sm  Sm16  1  0.78779000  0.21221000  0.48984900  1
  Sm  Sm17  1  0.42442000  0.21221000  0.48984900  1
  Sm  Sm18  1  0.86985500  0.73971100  0.63520400  1
  Sm  Sm19  1  0.86985500  0.13014500  0.63520400  1
  Sm  Sm20  1  0.13014500  0.26028900  0.13520400  1
  Sm  Sm21  1  0.26028900  0.13014500  0.63520400  1
  Sm  Sm22  1  0.13014500  0.86985500  0.13520400  1
  Sm  Sm23  1  0.73971100  0.86985500  0.13520400  1
  Sm  Sm24  1  0.45605100  0.91210300  0.85675200  1
  Sm  Sm25  1  0.45605100  0.54394900  0.85675200  1
  Sm  Sm26  1  0.54394900  0.08789700  0.35675200  1
  Sm  Sm27  1  0.08789700  0.54394900  0.85675200  1
  Sm  Sm28  1  0.54394900  0.45605100  0.35675200  1
  Sm  Sm29  1  0.91210300  0.45605100  0.35675200  1
  Sm  Sm30  1  0.00000000  0.00000000  0.99867300  1
  Sm  Sm31  1  0.00000000  0.00000000  0.49867300  1
  Sm  Sm32  1  0.46188900  0.92377700  0.58509900  1
  Sm  Sm33  1  0.46188900  0.53811100  0.58509900  1
  Sm  Sm34  1  0.53811100  0.07622300  0.08509900  1
  Sm  Sm35  1  0.07622300  0.53811100  0.58509900  1
  Sm  Sm36  1  0.53811100  0.46188900  0.08509900  1
  Sm  Sm37  1  0.92377700  0.46188900  0.08509900  1
  Sm  Sm38  1  0.79918800  0.59837600  0.78289500  1
  Sm  Sm39  1  0.79918800  0.20081200  0.78289500  1
  Sm  Sm40  1  0.20081200  0.40162400  0.28289500  1
  Sm  Sm41  1  0.40162400  0.20081200  0.78289500  1
  Sm  Sm42  1  0.20081200  0.79918800  0.28289500  1
  Sm  Sm43  1  0.59837600  0.79918800  0.28289500  1
  Sm  Sm44  1  0.66666700  0.33333300  0.64185600  1
  Sm  Sm45  1  0.33333300  0.66666700  0.14185600  1
  Mg  Mg46  1  0.00000000  0.00000000  0.74937600  1
  Mg  Mg47  1  0.00000000  0.00000000  0.24937600  1
  Mg  Mg48  1  0.10634600  0.21269200  0.86352500  1
  Mg  Mg49  1  0.10634600  0.89365400  0.86352500  1
  Mg  Mg50  1  0.89365400  0.78730800  0.36352500  1
  Mg  Mg51  1  0.78730800  0.89365400  0.86352500  1
  Mg  Mg52  1  0.89365400  0.10634600  0.36352500  1
  Mg  Mg53  1  0.21269200  0.10634600  0.36352500  1
  Pt  Pt54  1  0.52264500  0.04528900  0.71026500  1
  Pt  Pt55  1  0.52264500  0.47735500  0.71026500  1
  Pt  Pt56  1  0.47735500  0.95471100  0.21026500  1
  Pt  Pt57  1  0.95471100  0.47735500  0.71026500  1
  Pt  Pt58  1  0.47735500  0.52264500  0.21026500  1
  Pt  Pt59  1  0.04528900  0.52264500  0.21026500  1
  Pt  Pt60  1  0.66666700  0.33333300  0.86160800  1
  Pt  Pt61  1  0.33333300  0.66666700  0.36160800  1
  Pt  Pt62  1  0.14368700  0.28737400  0.56499600  1
  Pt  Pt63  1  0.14368700  0.85631300  0.56499600  1
  Pt  Pt64  1  0.85631300  0.71262600  0.06499600  1
  Pt  Pt65  1  0.71262600  0.85631300  0.56499600  1
  Pt  Pt66  1  0.85631300  0.14368700  0.06499600  1
  Pt  Pt67  1  0.28737400  0.14368700  0.06499600  1
