# generated using pymatgen
data_Rb2Mo
_symmetry_space_group_name_H-M   'P 1'
_cell_length_a   6.63357000
_cell_length_b   8.82693616
_cell_length_c   8.66156603
_cell_angle_alpha   130.49627862
_cell_angle_beta   90.00000000
_cell_angle_gamma   112.07112144
_symmetry_Int_Tables_number   1
_chemical_formula_structural   Rb2Mo
_chemical_formula_sum   'Rb4 Mo2'
_cell_volume   335.30351888
_cell_formula_units_Z   2
loop_
 _symmetry_equiv_pos_site_id
 _symmetry_equiv_pos_as_xyz
  1  'x, y, z'
loop_
 _atom_site_type_symbol
 _atom_site_label
 _atom_site_symmetry_multiplicity
 _atom_site_fract_x
 _atom_site_fract_y
 _atom_site_fract_z
 _atom_site_occupancy
  Rb  Rb0  1  0.68573900  0.37147900  0.77440700  1
  Rb  Rb1  1  0.31426100  0.62852100  0.22559300  1
  Rb  Rb2  1  0.92478000  0.84956100  0.68704800  1
  Rb  Rb3  1  0.07522000  0.15043900  0.31295200  1
  Mo  Mo4  1  0.41535100  0.83070300  0.90497600  1
  Mo  Mo5  1  0.58464900  0.16929700  0.09502400  1
