# generated using pymatgen
data_RbSm2I5
_symmetry_space_group_name_H-M   'P 1'
_cell_length_a   8.78873800
_cell_length_b   9.78271800
_cell_length_c   14.13182983
_cell_angle_alpha   89.23615284
_cell_angle_beta   90.00000000
_cell_angle_gamma   90.00000000
_symmetry_Int_Tables_number   1
_chemical_formula_structural   RbSm2I5
_chemical_formula_sum   'Rb4 Sm8 I20'
_cell_volume   1214.91489415
_cell_formula_units_Z   4
loop_
 _symmetry_equiv_pos_site_id
 _symmetry_equiv_pos_as_xyz
  1  'x, y, z'
loop_
 _atom_site_type_symbol
 _atom_site_label
 _atom_site_symmetry_multiplicity
 _atom_site_fract_x
 _atom_site_fract_y
 _atom_site_fract_z
 _atom_site_occupancy
  Rb  Rb0  1  0.45310700  0.50062400  0.82763600  1
  Rb  Rb1  1  0.54689300  0.49937600  0.17236400  1
  Rb  Rb2  1  0.95310700  0.49937600  0.67236400  1
  Rb  Rb3  1  0.04689300  0.50062400  0.32763600  1
  Sm  Sm4  1  0.44669400  0.99400100  0.82350700  1
  Sm  Sm5  1  0.55330600  0.00599900  0.17649300  1
  Sm  Sm6  1  0.94669400  0.00599900  0.67649300  1
  Sm  Sm7  1  0.05330600  0.99400100  0.32350700  1
  Sm  Sm8  1  0.41288300  0.76662300  0.49925300  1
  Sm  Sm9  1  0.58711700  0.23337700  0.50074700  1
  Sm  Sm10  1  0.91288300  0.23337700  0.00074700  1
  Sm  Sm11  1  0.08711700  0.76662300  0.99925300  1
  I  I12  1  0.33494800  0.46406800  0.57965400  1
  I  I13  1  0.66505200  0.53593200  0.42034600  1
  I  I14  1  0.83494800  0.53593200  0.92034600  1
  I  I15  1  0.16505200  0.46406800  0.07965400  1
  I  I16  1  0.65379200  0.79237800  0.67909700  1
  I  I17  1  0.34620800  0.20762200  0.32090300  1
  I  I18  1  0.15379200  0.20762200  0.82090300  1
  I  I19  1  0.84620800  0.79237800  0.17909700  1
  I  I20  1  0.18313000  0.77637500  0.78261300  1
  I  I21  1  0.81687000  0.22362500  0.21738700  1
  I  I22  1  0.68313000  0.22362500  0.71738700  1
  I  I23  1  0.31687000  0.77637500  0.28261300  1
  I  I24  1  0.04025500  0.79086200  0.50661700  1
  I  I25  1  0.95974500  0.20913800  0.49338300  1
  I  I26  1  0.54025500  0.20913800  0.99338300  1
  I  I27  1  0.45974500  0.79086200  0.00661700  1
  I  I28  1  0.83788000  0.95457900  0.89730300  1
  I  I29  1  0.16212000  0.04542100  0.10269700  1
  I  I30  1  0.33788000  0.04542100  0.60269700  1
  I  I31  1  0.66212000  0.95457900  0.39730300  1
