# generated using pymatgen
data_V5Bi17Pb5O43
_symmetry_space_group_name_H-M   'P 1'
_cell_length_a   11.91490765
_cell_length_b   11.91490765
_cell_length_c   11.98186667
_cell_angle_alpha   61.91165688
_cell_angle_beta   61.91165688
_cell_angle_gamma   92.95414550
_symmetry_Int_Tables_number   1
_chemical_formula_structural   V5Bi17Pb5O43
_chemical_formula_sum   'V5 Bi17 Pb5 O43'
_cell_volume   1239.66816784
_cell_formula_units_Z   1
loop_
 _symmetry_equiv_pos_site_id
 _symmetry_equiv_pos_as_xyz
  1  'x, y, z'
loop_
 _atom_site_type_symbol
 _atom_site_label
 _atom_site_symmetry_multiplicity
 _atom_site_fract_x
 _atom_site_fract_y
 _atom_site_fract_z
 _atom_site_occupancy
  V  V0  1  0.65857100  0.96880400  0.70243800  1
  V  V1  1  0.96880400  0.65857100  0.70243800  1
  V  V2  1  0.98115600  0.98115600  0.02910100  1
  V  V3  1  0.64843100  0.34348900  0.34546200  1
  V  V4  1  0.34348900  0.64843100  0.34546200  1
  Bi  Bi5  1  0.99770300  0.99770300  0.34980300  1
  Bi  Bi6  1  0.35551200  0.01639600  0.29871100  1
  Bi  Bi7  1  0.01639600  0.35551200  0.29871100  1
  Bi  Bi8  1  0.36193200  0.63998700  0.00526300  1
  Bi  Bi9  1  0.63998700  0.36193200  0.00526300  1
  Bi  Bi10  1  0.63376400  0.63376400  0.40530200  1
  Bi  Bi11  1  0.67157300  0.03117800  0.01493400  1
  Bi  Bi12  1  0.03117800  0.67157300  0.01493400  1
  Bi  Bi13  1  0.65817200  0.65817200  0.00769200  1
  Bi  Bi14  1  0.32303100  0.00840500  0.02029700  1
  Bi  Bi15  1  0.00840500  0.32303100  0.02029700  1
  Bi  Bi16  1  0.65466700  0.99863800  0.35683100  1
  Bi  Bi17  1  0.99863800  0.65466700  0.35683100  1
  Bi  Bi18  1  0.35824500  0.00808100  0.65122200  1
  Bi  Bi19  1  0.00808100  0.35824500  0.65122200  1
  Bi  Bi20  1  0.03440500  0.03440500  0.64618600  1
  Bi  Bi21  1  0.33180700  0.33180700  0.69667400  1
  Pb  Pb22  1  0.33280300  0.33280300  0.32742300  1
  Pb  Pb23  1  0.33784200  0.33784200  0.99658000  1
  Pb  Pb24  1  0.66763700  0.33741700  0.67847400  1
  Pb  Pb25  1  0.33741700  0.66763700  0.67847400  1
  Pb  Pb26  1  0.65845100  0.65845100  0.68379400  1
  O  O27  1  0.45264400  0.65019200  0.17985700  1
  O  O28  1  0.65019200  0.45264400  0.17985700  1
  O  O29  1  0.06425100  0.06425100  0.06915200  1
  O  O30  1  0.48758900  0.48758900  0.64288000  1
  O  O31  1  0.38966400  0.21362500  0.85537600  1
  O  O32  1  0.21362500  0.38966400  0.85537600  1
  O  O33  1  0.58894800  0.07009400  0.19393400  1
  O  O34  1  0.07009400  0.58894800  0.19393400  1
  O  O35  1  0.21450400  0.02870000  0.20862500  1
  O  O36  1  0.02870000  0.21450400  0.20862500  1
  O  O37  1  0.59626600  0.77200800  0.47362800  1
  O  O38  1  0.77200800  0.59626600  0.47362800  1
  O  O39  1  0.74125500  0.98823500  0.52496400  1
  O  O40  1  0.98823500  0.74125500  0.52496400  1
  O  O41  1  0.81155800  0.97890600  0.11150200  1
  O  O42  1  0.97890600  0.81155800  0.11150200  1
  O  O43  1  0.06497500  0.06497500  0.83364000  1
  O  O44  1  0.24321600  0.78391900  0.85019000  1
  O  O45  1  0.78391900  0.24321600  0.85019000  1
  O  O46  1  0.51828000  0.51828000  0.03040200  1
  O  O47  1  0.47664300  0.06628800  0.04830800  1
  O  O48  1  0.06628800  0.47664300  0.04830800  1
  O  O49  1  0.42102100  0.23838800  0.18127200  1
  O  O50  1  0.23838800  0.42102100  0.18127200  1
  O  O51  1  0.50978700  0.00626000  0.75091800  1
  O  O52  1  0.00626000  0.50978700  0.75091800  1
  O  O53  1  0.60373900  0.78816200  0.83935100  1
  O  O54  1  0.78816200  0.60373900  0.83935100  1
  O  O55  1  0.58842900  0.17570800  0.40141000  1
  O  O56  1  0.17570800  0.58842900  0.40141000  1
  O  O57  1  0.44027200  0.91754500  0.52964900  1
  O  O58  1  0.91754500  0.44027200  0.52964900  1
  O  O59  1  0.38932100  0.80599600  0.30850300  1
  O  O60  1  0.80599600  0.38932100  0.30850300  1
  O  O61  1  0.25116700  0.07393700  0.53378400  1
  O  O62  1  0.07393700  0.25116700  0.53378400  1
  O  O63  1  0.41853200  0.60327000  0.83161400  1
  O  O64  1  0.60327000  0.41853200  0.83161400  1
  O  O65  1  0.76185200  0.04802700  0.72572900  1
  O  O66  1  0.04802700  0.76185200  0.72572900  1
  O  O67  1  0.07326000  0.07326000  0.43623300  1
  O  O68  1  0.53806200  0.35940800  0.49182000  1
  O  O69  1  0.35940800  0.53806200  0.49182000  1
