# generated using pymatgen
data_Sr2CaFe2Bi2O9
_symmetry_space_group_name_H-M   'P 1'
_cell_length_a   5.33575400
_cell_length_b   5.59253900
_cell_length_c   16.52393659
_cell_angle_alpha   90.00000000
_cell_angle_beta   99.29137664
_cell_angle_gamma   90.00000000
_symmetry_Int_Tables_number   1
_chemical_formula_structural   Sr2CaFe2Bi2O9
_chemical_formula_sum   'Sr4 Ca2 Fe4 Bi4 O18'
_cell_volume   486.61187120
_cell_formula_units_Z   2
loop_
 _symmetry_equiv_pos_site_id
 _symmetry_equiv_pos_as_xyz
  1  'x, y, z'
loop_
 _atom_site_type_symbol
 _atom_site_label
 _atom_site_symmetry_multiplicity
 _atom_site_fract_x
 _atom_site_fract_y
 _atom_site_fract_z
 _atom_site_occupancy
  Sr  Sr0  1  0.36800100  0.24263400  0.73600200  1
  Sr  Sr1  1  0.63199900  0.75736600  0.26399800  1
  Sr  Sr2  1  0.13199900  0.24263400  0.26399800  1
  Sr  Sr3  1  0.86800100  0.75736600  0.73600200  1
  Ca  Ca4  1  0.75000000  0.78127300  0.50000000  1
  Ca  Ca5  1  0.25000000  0.21872700  0.50000000  1
  Fe  Fe6  1  0.80929500  0.25559600  0.61859000  1
  Fe  Fe7  1  0.19070500  0.74440400  0.38141000  1
  Fe  Fe8  1  0.69070500  0.25559600  0.38141000  1
  Fe  Fe9  1  0.30929500  0.74440400  0.61859000  1
  Bi  Bi10  1  0.95474500  0.27114000  0.90949100  1
  Bi  Bi11  1  0.04525500  0.72886000  0.09050900  1
  Bi  Bi12  1  0.54525500  0.27114000  0.09050900  1
  Bi  Bi13  1  0.45474500  0.72886000  0.90949100  1
  O  O14  1  0.06432300  0.00000000  0.62864500  1
  O  O15  1  0.93567700  0.00000000  0.37135500  1
  O  O16  1  0.43567700  0.00000000  0.37135500  1
  O  O17  1  0.56432300  0.00000000  0.62864500  1
  O  O18  1  0.89169100  0.22305600  0.78338100  1
  O  O19  1  0.10830900  0.77694400  0.21661900  1
  O  O20  1  0.60830900  0.22305600  0.21661900  1
  O  O21  1  0.39169100  0.77694400  0.78338100  1
  O  O22  1  0.06928800  0.50000000  0.63857500  1
  O  O23  1  0.93071200  0.50000000  0.36142500  1
  O  O24  1  0.43071200  0.50000000  0.36142500  1
  O  O25  1  0.56928800  0.50000000  0.63857500  1
  O  O26  1  0.75000000  0.25108200  0.50000000  1
  O  O27  1  0.25000000  0.74891800  0.50000000  1
  O  O28  1  0.95365200  0.65335100  0.90730500  1
  O  O29  1  0.04634800  0.34664900  0.09269500  1
  O  O30  1  0.54634800  0.65335100  0.09269500  1
  O  O31  1  0.45365200  0.34664900  0.90730500  1
