# generated using pymatgen
data_Th(SiO)2
_symmetry_space_group_name_H-M   'P 1'
_cell_length_a   10.81539218
_cell_length_b   10.81539218
_cell_length_c   10.81539218
_cell_angle_alpha   120.48773606
_cell_angle_beta   120.48773606
_cell_angle_gamma   89.15727212
_symmetry_Int_Tables_number   1
_chemical_formula_structural   Th(SiO)2
_chemical_formula_sum   'Th4 Si8 O8'
_cell_volume   887.86585062
_cell_formula_units_Z   4
loop_
 _symmetry_equiv_pos_site_id
 _symmetry_equiv_pos_as_xyz
  1  'x, y, z'
loop_
 _atom_site_type_symbol
 _atom_site_label
 _atom_site_symmetry_multiplicity
 _atom_site_fract_x
 _atom_site_fract_y
 _atom_site_fract_z
 _atom_site_occupancy
  Th  Th0  1  0.87500000  0.12500000  0.75000000  1
  Th  Th1  1  0.37500000  0.12500000  0.25000000  1
  Th  Th2  1  0.87500000  0.62500000  0.75000000  1
  Th  Th3  1  0.87500000  0.12500000  0.25000000  1
  Si  Si4  1  0.67803100  0.30392300  0.37410700  1
  Si  Si5  1  0.92981600  0.30392300  0.62589300  1
  Si  Si6  1  0.05392300  0.17981600  0.12589300  1
  Si  Si7  1  0.82018400  0.94607700  0.87410700  1
  Si  Si8  1  0.07196900  0.94607700  0.12589300  1
  Si  Si9  1  0.05392300  0.92803100  0.87410700  1
  Si  Si10  1  0.69607700  0.07018400  0.37410700  1
  Si  Si11  1  0.69607700  0.32196900  0.62589300  1
  O  O12  1  0.48839300  0.26289800  0.22549500  1
  O  O13  1  0.03740400  0.26289800  0.77450500  1
  O  O14  1  0.01289800  0.28740400  0.27450500  1
  O  O15  1  0.71259600  0.98710200  0.72549500  1
  O  O16  1  0.26160700  0.98710200  0.27450500  1
  O  O17  1  0.01289800  0.73839300  0.72549500  1
  O  O18  1  0.73710200  0.96259600  0.22549500  1
  O  O19  1  0.73710200  0.51160700  0.77450500  1
