# generated using pymatgen
data_RbErS2O9
_symmetry_space_group_name_H-M   'P 1'
_cell_length_a   8.55736900
_cell_length_b   10.59367819
_cell_length_c   10.15393430
_cell_angle_alpha   120.17599367
_cell_angle_beta   90.00000000
_cell_angle_gamma   90.00000000
_symmetry_Int_Tables_number   1
_chemical_formula_structural   RbErS2O9
_chemical_formula_sum   'Rb4 Er4 S8 O36'
_cell_volume   795.75447701
_cell_formula_units_Z   4
loop_
 _symmetry_equiv_pos_site_id
 _symmetry_equiv_pos_as_xyz
  1  'x, y, z'
loop_
 _atom_site_type_symbol
 _atom_site_label
 _atom_site_symmetry_multiplicity
 _atom_site_fract_x
 _atom_site_fract_y
 _atom_site_fract_z
 _atom_site_occupancy
  Rb  Rb0  1  0.33178500  0.68261900  0.96416100  1
  Rb  Rb1  1  0.66821500  0.31738100  0.03583900  1
  Rb  Rb2  1  0.83178500  0.81738100  0.53583900  1
  Rb  Rb3  1  0.16821500  0.18261900  0.46416100  1
  Er  Er4  1  0.36896300  0.96817600  0.71790100  1
  Er  Er5  1  0.63103700  0.03182400  0.28209900  1
  Er  Er6  1  0.86896300  0.53182400  0.78209900  1
  Er  Er7  1  0.13103700  0.46817600  0.21790100  1
  S  S8  1  0.13191100  0.31603000  0.87598900  1
  S  S9  1  0.86808900  0.68397000  0.12401100  1
  S  S10  1  0.63191100  0.18397000  0.62401100  1
  S  S11  1  0.36808900  0.81603000  0.37598900  1
  S  S12  1  0.19666100  0.60881500  0.59814400  1
  S  S13  1  0.80333900  0.39118500  0.40185600  1
  S  S14  1  0.69666100  0.89118500  0.90185600  1
  S  S15  1  0.30333900  0.10881500  0.09814400  1
  O  O16  1  0.79092500  0.02643800  0.97068100  1
  O  O17  1  0.20907500  0.97356200  0.02931900  1
  O  O18  1  0.29092500  0.47356200  0.52931900  1
  O  O19  1  0.70907500  0.52643800  0.47068100  1
  O  O20  1  0.20569400  0.17631000  0.76365800  1
  O  O21  1  0.79430600  0.82369000  0.23634200  1
  O  O22  1  0.70569400  0.32369000  0.73634200  1
  O  O23  1  0.29430600  0.67631000  0.26365800  1
  O  O24  1  0.30057600  0.74038400  0.68000800  1
  O  O25  1  0.69942400  0.25961600  0.31999200  1
  O  O26  1  0.80057600  0.75961600  0.81999200  1
  O  O27  1  0.19942400  0.24038400  0.18000800  1
  O  O28  1  0.39168400  0.12011500  0.97792100  1
  O  O29  1  0.60831600  0.87988500  0.02207900  1
  O  O30  1  0.89168400  0.37988500  0.52207900  1
  O  O31  1  0.10831600  0.62011500  0.47792100  1
  O  O32  1  0.11621700  0.93927600  0.77817200  1
  O  O33  1  0.88378300  0.06072400  0.22182900  1
  O  O34  1  0.61621700  0.56072400  0.72182800  1
  O  O35  1  0.38378300  0.43927600  0.27817200  1
  O  O36  1  0.25154600  0.41988000  0.98632400  1
  O  O37  1  0.74845400  0.58012000  0.01367600  1
  O  O38  1  0.75154600  0.08012000  0.51367600  1
  O  O39  1  0.24845400  0.91988000  0.48632400  1
  O  O40  1  0.01314300  0.29976000  0.97333600  1
  O  O41  1  0.98685700  0.70024000  0.02666400  1
  O  O42  1  0.51314300  0.20024000  0.52666400  1
  O  O43  1  0.48685700  0.79976000  0.47333600  1
  O  O44  1  0.06001900  0.38093900  0.78938000  1
  O  O45  1  0.93998100  0.61906100  0.21062000  1
  O  O46  1  0.56001900  0.11906100  0.71062000  1
  O  O47  1  0.43998100  0.88093900  0.28938000  1
  O  O48  1  0.58954000  0.88833200  0.78566100  1
  O  O49  1  0.41046000  0.11166800  0.21433900  1
  O  O50  1  0.08954000  0.61166800  0.71433900  1
  O  O51  1  0.91046000  0.38833200  0.28566100  1
