# generated using pymatgen
data_NdHfF7
_symmetry_space_group_name_H-M   'P 1'
_cell_length_a   5.82307300
_cell_length_b   6.26707399
_cell_length_c   8.44516786
_cell_angle_alpha   101.58436437
_cell_angle_beta   90.00000000
_cell_angle_gamma   90.00000000
_symmetry_Int_Tables_number   1
_chemical_formula_structural   NdHfF7
_chemical_formula_sum   'Nd2 Hf2 F14'
_cell_volume   301.91692364
_cell_formula_units_Z   2
loop_
 _symmetry_equiv_pos_site_id
 _symmetry_equiv_pos_as_xyz
  1  'x, y, z'
loop_
 _atom_site_type_symbol
 _atom_site_label
 _atom_site_symmetry_multiplicity
 _atom_site_fract_x
 _atom_site_fract_y
 _atom_site_fract_z
 _atom_site_occupancy
  Nd  Nd0  1  0.69948300  0.65789500  0.68808500  1
  Nd  Nd1  1  0.19948300  0.34210500  0.31191500  1
  Hf  Hf2  1  0.70878600  0.81146000  0.22418200  1
  Hf  Hf3  1  0.20878600  0.18854000  0.77581800  1
  F  F4  1  0.88438800  0.44828400  0.47397300  1
  F  F5  1  0.38438800  0.55171600  0.52602700  1
  F  F6  1  0.42058300  0.93379300  0.76938700  1
  F  F7  1  0.92058300  0.06620700  0.23061300  1
  F  F8  1  0.94919100  0.97175900  0.76105700  1
  F  F9  1  0.44919100  0.02824100  0.23894300  1
  F  F10  1  0.00053500  0.44698600  0.78641400  1
  F  F11  1  0.50053500  0.55301400  0.21358600  1
  F  F12  1  0.70601100  0.75762900  0.98257700  1
  F  F13  1  0.20601100  0.24237100  0.01742300  1
  F  F14  1  0.71333300  0.85844300  0.46684600  1
  F  F15  1  0.21333300  0.14155700  0.53315400  1
  F  F16  1  0.49405000  0.37401700  0.78350700  1
  F  F17  1  0.99405000  0.62598300  0.21649300  1
