# generated using pymatgen
data_Nd(NiO2)2
_symmetry_space_group_name_H-M   'P 1'
_cell_length_a   6.03067700
_cell_length_b   5.57791300
_cell_length_c   6.51211852
_cell_angle_alpha   90.00000000
_cell_angle_beta   117.58312657
_cell_angle_gamma   90.00000000
_symmetry_Int_Tables_number   1
_chemical_formula_structural   Nd(NiO2)2
_chemical_formula_sum   'Nd2 Ni4 O8'
_cell_volume   194.16030264
_cell_formula_units_Z   2
loop_
 _symmetry_equiv_pos_site_id
 _symmetry_equiv_pos_as_xyz
  1  'x, y, z'
loop_
 _atom_site_type_symbol
 _atom_site_label
 _atom_site_symmetry_multiplicity
 _atom_site_fract_x
 _atom_site_fract_y
 _atom_site_fract_z
 _atom_site_occupancy
  Nd  Nd0  1  0.00000000  0.00000000  0.00000000  1
  Nd  Nd1  1  0.50000000  0.50000000  0.00000000  1
  Ni  Ni2  1  0.68794600  0.90673700  0.37589200  1
  Ni  Ni3  1  0.31205400  0.09326300  0.62410800  1
  Ni  Ni4  1  0.81205400  0.40673700  0.62410800  1
  Ni  Ni5  1  0.18794600  0.59326300  0.37589200  1
  O  O6  1  0.14659000  0.25000000  0.79318000  1
  O  O7  1  0.85341000  0.75000000  0.20682000  1
  O  O8  1  0.35341000  0.75000000  0.20682000  1
  O  O9  1  0.64659000  0.25000000  0.79318000  1
  O  O10  1  0.66656200  0.24310800  0.33312300  1
  O  O11  1  0.33343800  0.75689200  0.66687700  1
  O  O12  1  0.83343800  0.74310800  0.66687700  1
  O  O13  1  0.16656200  0.25689200  0.33312300  1
