# generated using pymatgen
data_NbS6
_symmetry_space_group_name_H-M   'P 1'
_cell_length_a   9.57265178
_cell_length_b   9.57265178
_cell_length_c   51.72607400
_cell_angle_alpha   90.00000000
_cell_angle_beta   90.00000000
_cell_angle_gamma   123.16093897
_symmetry_Int_Tables_number   1
_chemical_formula_structural   NbS6
_chemical_formula_sum   'Nb1 S6'
_cell_volume   3967.99203915
_cell_formula_units_Z   1
loop_
 _symmetry_equiv_pos_site_id
 _symmetry_equiv_pos_as_xyz
  1  'x, y, z'
loop_
 _atom_site_type_symbol
 _atom_site_label
 _atom_site_symmetry_multiplicity
 _atom_site_fract_x
 _atom_site_fract_y
 _atom_site_fract_z
 _atom_site_occupancy
  Nb  Nb0  1  0.00000000  0.00000000  0.00000000  1
  S  S1  1  0.00000000  0.00000000  0.24999600  1
  S  S2  1  0.00000000  0.00000000  0.75000400  1
  S  S3  1  0.24224500  0.99073200  0.00000000  1
  S  S4  1  0.75775500  0.00926800  0.00000000  1
  S  S5  1  0.99073200  0.24224500  0.00000000  1
  S  S6  1  0.00926800  0.75775500  0.00000000  1
