# generated using pymatgen
data_Na2AlGe2
_symmetry_space_group_name_H-M   'P 1'
_cell_length_a   2.90007300
_cell_length_b   2.90007300
_cell_length_c   14.13028900
_cell_angle_alpha   90.00000000
_cell_angle_beta   90.00000000
_cell_angle_gamma   90.00000000
_symmetry_Int_Tables_number   1
_chemical_formula_structural   Na2AlGe2
_chemical_formula_sum   'Na2 Al1 Ge2'
_cell_volume   118.84171333
_cell_formula_units_Z   1
loop_
 _symmetry_equiv_pos_site_id
 _symmetry_equiv_pos_as_xyz
  1  'x, y, z'
loop_
 _atom_site_type_symbol
 _atom_site_label
 _atom_site_symmetry_multiplicity
 _atom_site_fract_x
 _atom_site_fract_y
 _atom_site_fract_z
 _atom_site_occupancy
  Na  Na0  1  0.50000000  0.50000000  0.61045300  1
  Na  Na1  1  0.50000000  0.50000000  0.38954700  1
  Al  Al2  1  0.50000000  0.50000000  0.00000000  1
  Ge  Ge3  1  0.50000000  0.50000000  0.18303400  1
  Ge  Ge4  1  0.50000000  0.50000000  0.81696600  1
