# generated using pymatgen
data_Na4Sr(Ge2O5)3
_symmetry_space_group_name_H-M   'P 1'
_cell_length_a   11.10149329
_cell_length_b   11.10149329
_cell_length_c   5.99472900
_cell_angle_alpha   90.00000000
_cell_angle_beta   90.00000000
_cell_angle_gamma   119.99999575
_symmetry_Int_Tables_number   1
_chemical_formula_structural   Na4Sr(Ge2O5)3
_chemical_formula_sum   'Na8 Sr2 Ge12 O30'
_cell_volume   639.82765364
_cell_formula_units_Z   2
loop_
 _symmetry_equiv_pos_site_id
 _symmetry_equiv_pos_as_xyz
  1  'x, y, z'
loop_
 _atom_site_type_symbol
 _atom_site_label
 _atom_site_symmetry_multiplicity
 _atom_site_fract_x
 _atom_site_fract_y
 _atom_site_fract_z
 _atom_site_occupancy
  Na  Na0  1  0.16238500  0.28611700  0.75000000  1
  Na  Na1  1  0.83761500  0.71388300  0.25000000  1
  Na  Na2  1  0.71388300  0.87626800  0.75000000  1
  Na  Na3  1  0.28611700  0.12373200  0.25000000  1
  Na  Na4  1  0.12373200  0.83761500  0.75000000  1
  Na  Na5  1  0.87626800  0.16238500  0.25000000  1
  Na  Na6  1  0.00000000  0.00000000  0.50000000  1
  Na  Na7  1  0.00000000  0.00000000  0.00000000  1
  Sr  Sr8  1  0.33333300  0.66666700  0.75000000  1
  Sr  Sr9  1  0.66666700  0.33333300  0.25000000  1
  Ge  Ge10  1  0.38785500  0.17352000  0.75000000  1
  Ge  Ge11  1  0.61214500  0.82648000  0.25000000  1
  Ge  Ge12  1  0.82648000  0.21433500  0.75000000  1
  Ge  Ge13  1  0.17352000  0.78566500  0.25000000  1
  Ge  Ge14  1  0.78566500  0.61214500  0.75000000  1
  Ge  Ge15  1  0.21433500  0.38785500  0.25000000  1
  Ge  Ge16  1  0.50000000  0.00000000  0.50000000  1
  Ge  Ge17  1  0.00000000  0.50000000  0.50000000  1
  Ge  Ge18  1  0.50000000  0.00000000  0.00000000  1
  Ge  Ge19  1  0.50000000  0.50000000  0.50000000  1
  Ge  Ge20  1  0.00000000  0.50000000  0.00000000  1
  Ge  Ge21  1  0.50000000  0.50000000  0.00000000  1
  O  O22  1  0.07882600  0.46094200  0.75000000  1
  O  O23  1  0.92117400  0.53905800  0.25000000  1
  O  O24  1  0.53905800  0.61788400  0.75000000  1
  O  O25  1  0.46094200  0.38211600  0.25000000  1
  O  O26  1  0.38211600  0.92117400  0.75000000  1
  O  O27  1  0.61788400  0.07882600  0.25000000  1
  O  O28  1  0.20621100  0.08484300  0.75000000  1
  O  O29  1  0.79378900  0.91515700  0.25000000  1
  O  O30  1  0.91515700  0.12136700  0.75000000  1
  O  O31  1  0.08484300  0.87863300  0.25000000  1
  O  O32  1  0.87863300  0.79378900  0.75000000  1
  O  O33  1  0.12136700  0.20621100  0.25000000  1
  O  O34  1  0.46686000  0.15302000  0.50426300  1
  O  O35  1  0.53314000  0.84698000  0.49573700  1
  O  O36  1  0.84698000  0.31384000  0.50426300  1
  O  O37  1  0.53314000  0.84698000  0.00426300  1
  O  O38  1  0.15302000  0.68616000  0.49573700  1
  O  O39  1  0.46686000  0.15302000  0.99573700  1
  O  O40  1  0.68616000  0.53314000  0.50426300  1
  O  O41  1  0.15302000  0.68616000  0.00426300  1
  O  O42  1  0.31384000  0.46686000  0.49573700  1
  O  O43  1  0.84698000  0.31384000  0.99573700  1
  O  O44  1  0.31384000  0.46686000  0.00426300  1
  O  O45  1  0.68616000  0.53314000  0.99573700  1
  O  O46  1  0.44603500  0.35925800  0.75000000  1
  O  O47  1  0.55396500  0.64074200  0.25000000  1
  O  O48  1  0.64074200  0.08677700  0.75000000  1
  O  O49  1  0.35925800  0.91322300  0.25000000  1
  O  O50  1  0.91322300  0.55396500  0.75000000  1
  O  O51  1  0.08677700  0.44603500  0.25000000  1
