# generated using pymatgen
data_NaCo2Se2O7
_symmetry_space_group_name_H-M   'P 1'
_cell_length_a   6.05322200
_cell_length_b   8.37970000
_cell_length_c   13.51361300
_cell_angle_alpha   90.00000000
_cell_angle_beta   90.00000000
_cell_angle_gamma   90.00000000
_symmetry_Int_Tables_number   1
_chemical_formula_structural   NaCo2Se2O7
_chemical_formula_sum   'Na4 Co8 Se8 O28'
_cell_volume   685.46699763
_cell_formula_units_Z   4
loop_
 _symmetry_equiv_pos_site_id
 _symmetry_equiv_pos_as_xyz
  1  'x, y, z'
loop_
 _atom_site_type_symbol
 _atom_site_label
 _atom_site_symmetry_multiplicity
 _atom_site_fract_x
 _atom_site_fract_y
 _atom_site_fract_z
 _atom_site_occupancy
  Na  Na0  1  0.25000000  0.63037200  0.24886600  1
  Na  Na1  1  0.75000000  0.36962800  0.75113400  1
  Na  Na2  1  0.75000000  0.13037200  0.25113400  1
  Na  Na3  1  0.25000000  0.86962800  0.74886600  1
  Co  Co4  1  0.00000000  0.00000000  0.00000000  1
  Co  Co5  1  0.00000000  0.50000000  0.50000000  1
  Co  Co6  1  0.50000000  0.00000000  0.00000000  1
  Co  Co7  1  0.50000000  0.50000000  0.50000000  1
  Co  Co8  1  0.25000000  0.27459700  0.11566500  1
  Co  Co9  1  0.75000000  0.72540300  0.88433500  1
  Co  Co10  1  0.75000000  0.77459700  0.38433500  1
  Co  Co11  1  0.25000000  0.22540300  0.61566500  1
  Se  Se12  1  0.25000000  0.27380300  0.32806900  1
  Se  Se13  1  0.75000000  0.72619700  0.67193100  1
  Se  Se14  1  0.75000000  0.77380300  0.17193100  1
  Se  Se15  1  0.25000000  0.22619700  0.82806900  1
  Se  Se16  1  0.25000000  0.87971500  0.47449900  1
  Se  Se17  1  0.75000000  0.12028500  0.52550100  1
  Se  Se18  1  0.75000000  0.37971500  0.02550100  1
  Se  Se19  1  0.25000000  0.62028500  0.97449900  1
  O  O20  1  0.52554200  0.24910900  0.01398700  1
  O  O21  1  0.47445800  0.75089100  0.98601300  1
  O  O22  1  0.47445800  0.74910900  0.48601300  1
  O  O23  1  0.02554200  0.75089100  0.98601300  1
  O  O24  1  0.52554200  0.25089100  0.51398700  1
  O  O25  1  0.97445800  0.24910900  0.01398700  1
  O  O26  1  0.97445800  0.25089100  0.51398700  1
  O  O27  1  0.02554200  0.74910900  0.48601300  1
  O  O28  1  0.04073600  0.30078200  0.24275600  1
  O  O29  1  0.95926400  0.69921800  0.75724400  1
  O  O30  1  0.95926400  0.80078200  0.25724400  1
  O  O31  1  0.54073600  0.69921800  0.75724400  1
  O  O32  1  0.04073600  0.19921800  0.74275600  1
  O  O33  1  0.45926400  0.30078200  0.24275600  1
  O  O34  1  0.45926400  0.19921800  0.74275600  1
  O  O35  1  0.54073600  0.80078200  0.25724400  1
  O  O36  1  0.25000000  0.46439300  0.38701700  1
  O  O37  1  0.75000000  0.53560700  0.61298300  1
  O  O38  1  0.75000000  0.96439300  0.11298300  1
  O  O39  1  0.25000000  0.03560700  0.88701700  1
  O  O40  1  0.25000000  0.52747100  0.08750400  1
  O  O41  1  0.75000000  0.47252900  0.91249600  1
  O  O42  1  0.75000000  0.02747100  0.41249600  1
  O  O43  1  0.25000000  0.97252900  0.58750400  1
  O  O44  1  0.25000000  0.02989600  0.08239500  1
  O  O45  1  0.75000000  0.97010400  0.91760500  1
  O  O46  1  0.75000000  0.52989600  0.41760500  1
  O  O47  1  0.25000000  0.47010400  0.58239500  1
