# generated using pymatgen
data_Sm23Cd4Rh7
_symmetry_space_group_name_H-M   'P 1'
_cell_length_a   9.89620618
_cell_length_b   9.89620618
_cell_length_c   22.35275700
_cell_angle_alpha   90.00000000
_cell_angle_beta   90.00000000
_cell_angle_gamma   120.00000117
_symmetry_Int_Tables_number   1
_chemical_formula_structural   Sm23Cd4Rh7
_chemical_formula_sum   'Sm46 Cd8 Rh14'
_cell_volume   1895.82913359
_cell_formula_units_Z   2
loop_
 _symmetry_equiv_pos_site_id
 _symmetry_equiv_pos_as_xyz
  1  'x, y, z'
loop_
 _atom_site_type_symbol
 _atom_site_label
 _atom_site_symmetry_multiplicity
 _atom_site_fract_x
 _atom_site_fract_y
 _atom_site_fract_z
 _atom_site_occupancy
  Sm  Sm0  1  0.20779900  0.41559900  0.72106500  1
  Sm  Sm1  1  0.20779900  0.79220100  0.72106500  1
  Sm  Sm2  1  0.79220100  0.58440100  0.22106500  1
  Sm  Sm3  1  0.58440100  0.79220100  0.72106500  1
  Sm  Sm4  1  0.79220100  0.20779900  0.22106500  1
  Sm  Sm5  1  0.41559900  0.20779900  0.22106500  1
  Sm  Sm6  1  0.79233300  0.58466500  0.94667500  1
  Sm  Sm7  1  0.79233300  0.20766700  0.94667500  1
  Sm  Sm8  1  0.20766700  0.41533500  0.44667500  1
  Sm  Sm9  1  0.41533500  0.20766700  0.94667500  1
  Sm  Sm10  1  0.20766700  0.79233300  0.44667500  1
  Sm  Sm11  1  0.58466500  0.79233300  0.44667500  1
  Sm  Sm12  1  0.20991700  0.41983400  0.98966000  1
  Sm  Sm13  1  0.20991700  0.79008300  0.98966000  1
  Sm  Sm14  1  0.79008300  0.58016600  0.48966000  1
  Sm  Sm15  1  0.58016600  0.79008300  0.98966000  1
  Sm  Sm16  1  0.79008300  0.20991700  0.48966000  1
  Sm  Sm17  1  0.41983400  0.20991700  0.48966000  1
  Sm  Sm18  1  0.87290500  0.74580900  0.63589300  1
  Sm  Sm19  1  0.87290500  0.12709500  0.63589300  1
  Sm  Sm20  1  0.12709500  0.25419100  0.13589300  1
  Sm  Sm21  1  0.25419100  0.12709500  0.63589300  1
  Sm  Sm22  1  0.12709500  0.87290500  0.13589300  1
  Sm  Sm23  1  0.74580900  0.87290500  0.13589300  1
  Sm  Sm24  1  0.45857400  0.91714800  0.85667200  1
  Sm  Sm25  1  0.45857400  0.54142600  0.85667200  1
  Sm  Sm26  1  0.54142600  0.08285200  0.35667200  1
  Sm  Sm27  1  0.08285200  0.54142600  0.85667200  1
  Sm  Sm28  1  0.54142600  0.45857400  0.35667200  1
  Sm  Sm29  1  0.91714800  0.45857400  0.35667200  1
  Sm  Sm30  1  0.00000000  0.00000000  0.99590200  1
  Sm  Sm31  1  0.00000000  0.00000000  0.49590200  1
  Sm  Sm32  1  0.45986600  0.91973100  0.58478800  1
  Sm  Sm33  1  0.45986600  0.54013400  0.58478800  1
  Sm  Sm34  1  0.54013400  0.08026900  0.08478800  1
  Sm  Sm35  1  0.08026900  0.54013400  0.58478800  1
  Sm  Sm36  1  0.54013400  0.45986600  0.08478800  1
  Sm  Sm37  1  0.91973100  0.45986600  0.08478800  1
  Sm  Sm38  1  0.79898600  0.59797200  0.78291400  1
  Sm  Sm39  1  0.79898600  0.20101400  0.78291400  1
  Sm  Sm40  1  0.20101400  0.40202800  0.28291400  1
  Sm  Sm41  1  0.40202800  0.20101400  0.78291400  1
  Sm  Sm42  1  0.20101400  0.79898600  0.28291400  1
  Sm  Sm43  1  0.59797200  0.79898600  0.28291400  1
  Sm  Sm44  1  0.66666700  0.33333300  0.64441700  1
  Sm  Sm45  1  0.33333300  0.66666700  0.14441700  1
  Cd  Cd46  1  0.00000000  0.00000000  0.74998800  1
  Cd  Cd47  1  0.00000000  0.00000000  0.24998800  1
  Cd  Cd48  1  0.10763600  0.21527300  0.86373800  1
  Cd  Cd49  1  0.10763600  0.89236400  0.86373800  1
  Cd  Cd50  1  0.89236400  0.78472700  0.36373800  1
  Cd  Cd51  1  0.78472700  0.89236400  0.86373800  1
  Cd  Cd52  1  0.89236400  0.10763600  0.36373800  1
  Cd  Cd53  1  0.21527300  0.10763600  0.36373800  1
  Rh  Rh54  1  0.52160400  0.04320800  0.71014200  1
  Rh  Rh55  1  0.52160400  0.47839600  0.71014200  1
  Rh  Rh56  1  0.47839600  0.95679200  0.21014200  1
  Rh  Rh57  1  0.95679200  0.47839600  0.71014200  1
  Rh  Rh58  1  0.47839600  0.52160400  0.21014200  1
  Rh  Rh59  1  0.04320800  0.52160400  0.21014200  1
  Rh  Rh60  1  0.66666700  0.33333300  0.86266100  1
  Rh  Rh61  1  0.33333300  0.66666700  0.36266100  1
  Rh  Rh62  1  0.14287300  0.28574700  0.56303700  1
  Rh  Rh63  1  0.14287300  0.85712700  0.56303700  1
  Rh  Rh64  1  0.85712700  0.71425300  0.06303700  1
  Rh  Rh65  1  0.71425300  0.85712700  0.56303700  1
  Rh  Rh66  1  0.85712700  0.14287300  0.06303700  1
  Rh  Rh67  1  0.28574700  0.14287300  0.06303700  1
