# generated using pymatgen
data_UZnH5(SeO5)2
_symmetry_space_group_name_H-M   'P 1'
_cell_length_a   8.59208645
_cell_length_b   11.73518000
_cell_length_c   12.26474241
_cell_angle_alpha   90.00000000
_cell_angle_beta   90.52033728
_cell_angle_gamma   90.00000000
_symmetry_Int_Tables_number   1
_chemical_formula_structural   UZnH5(SeO5)2
_chemical_formula_sum   'U4 Zn4 H20 Se8 O40'
_cell_volume   1236.59906980
_cell_formula_units_Z   4
loop_
 _symmetry_equiv_pos_site_id
 _symmetry_equiv_pos_as_xyz
  1  'x, y, z'
loop_
 _atom_site_type_symbol
 _atom_site_label
 _atom_site_symmetry_multiplicity
 _atom_site_fract_x
 _atom_site_fract_y
 _atom_site_fract_z
 _atom_site_occupancy
  U  U0  1  0.10097400  0.40056500  0.26675700  1
  U  U1  1  0.89902600  0.59943500  0.73324300  1
  U  U2  1  0.89902600  0.90056500  0.23324300  1
  U  U3  1  0.10097400  0.09943500  0.76675700  1
  Zn  Zn4  1  0.30666300  0.80101500  0.00779900  1
  Zn  Zn5  1  0.69333700  0.19898500  0.99220100  1
  Zn  Zn6  1  0.69333700  0.30101500  0.49220100  1
  Zn  Zn7  1  0.30666300  0.69898500  0.50779900  1
  H  H8  1  0.39351900  0.41843800  0.22058100  1
  H  H9  1  0.60648100  0.58156200  0.77941900  1
  H  H10  1  0.60648100  0.91843800  0.27941900  1
  H  H11  1  0.39351900  0.08156200  0.72058100  1
  H  H12  1  0.13744800  0.63194600  0.02068800  1
  H  H13  1  0.86255200  0.36805400  0.97931200  1
  H  H14  1  0.86255200  0.13194600  0.47931200  1
  H  H15  1  0.13744800  0.86805400  0.52068800  1
  H  H16  1  0.32323800  0.35092200  0.90431800  1
  H  H17  1  0.67676200  0.64907800  0.09568200  1
  H  H18  1  0.67676200  0.85092200  0.59568200  1
  H  H19  1  0.32323800  0.14907800  0.40431800  1
  H  H20  1  0.23958700  0.57999700  0.52119300  1
  H  H21  1  0.76041300  0.42000300  0.47880700  1
  H  H22  1  0.76041300  0.07999700  0.97880700  1
  H  H23  1  0.23958700  0.92000300  0.02119300  1
  H  H24  1  0.20427700  0.60646100  0.98976300  1
  H  H25  1  0.79572300  0.39353900  0.01023700  1
  H  H26  1  0.79572300  0.10646100  0.51023700  1
  H  H27  1  0.20427700  0.89353900  0.48976300  1
  Se  Se28  1  0.27678900  0.70798100  0.25084700  1
  Se  Se29  1  0.72321100  0.29201900  0.74915300  1
  Se  Se30  1  0.72321100  0.20798100  0.24915300  1
  Se  Se31  1  0.27678900  0.79201900  0.75084700  1
  Se  Se32  1  0.25982500  0.09857400  0.23143800  1
  Se  Se33  1  0.74017500  0.90142600  0.76856200  1
  Se  Se34  1  0.74017500  0.59857400  0.26856200  1
  Se  Se35  1  0.25982500  0.40142600  0.73143800  1
  O  O36  1  0.23557100  0.23726500  0.20402400  1
  O  O37  1  0.76442900  0.76273500  0.79597600  1
  O  O38  1  0.76442900  0.73726500  0.29597600  1
  O  O39  1  0.23557100  0.26273500  0.70402400  1
  O  O40  1  0.10722100  0.76978600  0.21508000  1
  O  O41  1  0.89277900  0.23021400  0.78492000  1
  O  O42  1  0.89277900  0.26978600  0.28492000  1
  O  O43  1  0.10722100  0.73021400  0.71508000  1
  O  O44  1  0.15709600  0.36625400  0.40437100  1
  O  O45  1  0.84290400  0.63374600  0.59562900  1
  O  O46  1  0.84290400  0.86625400  0.09562900  1
  O  O47  1  0.15709600  0.13374600  0.90437100  1
  O  O48  1  0.64361800  0.27317000  0.14009300  1
  O  O49  1  0.35638200  0.72683000  0.85990700  1
  O  O50  1  0.35638200  0.77317000  0.35990700  1
  O  O51  1  0.64361800  0.22683000  0.64009300  1
  O  O52  1  0.41921900  0.04563400  0.18300100  1
  O  O53  1  0.58078100  0.95436600  0.81699900  1
  O  O54  1  0.58078100  0.54563400  0.31699900  1
  O  O55  1  0.41921900  0.45436600  0.68300100  1
  O  O56  1  0.60342800  0.21544600  0.35648700  1
  O  O57  1  0.39657200  0.78455400  0.64351300  1
  O  O58  1  0.39657200  0.71544600  0.14351300  1
  O  O59  1  0.60342800  0.28455400  0.85648700  1
  O  O60  1  0.09960200  0.02849200  0.19426200  1
  O  O61  1  0.90039800  0.97150800  0.80573800  1
  O  O62  1  0.90039800  0.52849200  0.30573800  1
  O  O63  1  0.09960200  0.47150800  0.69426200  1
  O  O64  1  0.25823000  0.08620700  0.37641500  1
  O  O65  1  0.74177000  0.91379300  0.62358500  1
  O  O66  1  0.74177000  0.58620700  0.12358500  1
  O  O67  1  0.25823000  0.41379300  0.87641500  1
  O  O68  1  0.24009100  0.57202900  0.28247600  1
  O  O69  1  0.75990900  0.42797100  0.71752400  1
  O  O70  1  0.75990900  0.07202900  0.21752400  1
  O  O71  1  0.24009100  0.92797100  0.78247600  1
  O  O72  1  0.06491900  0.42781400  0.12522600  1
  O  O73  1  0.93508100  0.57218600  0.87477400  1
  O  O74  1  0.93508100  0.92781400  0.37477400  1
  O  O75  1  0.06491900  0.07218600  0.62522600  1
