# generated using pymatgen
data_NaFe(SO4)2
_symmetry_space_group_name_H-M   'P 1'
_cell_length_a   5.19095300
_cell_length_b   14.33634700
_cell_length_c   8.30873900
_cell_angle_alpha   90.00000000
_cell_angle_beta   90.00000000
_cell_angle_gamma   90.00000000
_symmetry_Int_Tables_number   1
_chemical_formula_structural   NaFe(SO4)2
_chemical_formula_sum   'Na4 Fe4 S8 O32'
_cell_volume   618.33056908
_cell_formula_units_Z   4
loop_
 _symmetry_equiv_pos_site_id
 _symmetry_equiv_pos_as_xyz
  1  'x, y, z'
loop_
 _atom_site_type_symbol
 _atom_site_label
 _atom_site_symmetry_multiplicity
 _atom_site_fract_x
 _atom_site_fract_y
 _atom_site_fract_z
 _atom_site_occupancy
  Na  Na0  1  0.75000000  0.57965000  0.91911600  1
  Na  Na1  1  0.25000000  0.42035000  0.08088400  1
  Na  Na2  1  0.25000000  0.92035000  0.41911600  1
  Na  Na3  1  0.75000000  0.07965000  0.58088400  1
  Fe  Fe4  1  0.75000000  0.65267800  0.49626500  1
  Fe  Fe5  1  0.25000000  0.34732200  0.50373500  1
  Fe  Fe6  1  0.25000000  0.84732200  0.99626500  1
  Fe  Fe7  1  0.75000000  0.15267800  0.00373500  1
  S  S8  1  0.75000000  0.83598400  0.74650100  1
  S  S9  1  0.25000000  0.16401600  0.25349900  1
  S  S10  1  0.25000000  0.66401600  0.24650100  1
  S  S11  1  0.75000000  0.33598400  0.75349900  1
  S  S12  1  0.75000000  0.94146800  0.19621300  1
  S  S13  1  0.25000000  0.05853200  0.80378700  1
  S  S14  1  0.25000000  0.55853200  0.69621300  1
  S  S15  1  0.75000000  0.44146800  0.30378700  1
  O  O16  1  0.75000000  0.93531200  0.71752200  1
  O  O17  1  0.25000000  0.06468800  0.28247800  1
  O  O18  1  0.25000000  0.56468800  0.21752200  1
  O  O19  1  0.75000000  0.43531200  0.78247800  1
  O  O20  1  0.75000000  0.97124900  0.36425800  1
  O  O21  1  0.25000000  0.02875100  0.63574200  1
  O  O22  1  0.25000000  0.52875100  0.86425800  1
  O  O23  1  0.75000000  0.47124900  0.13574200  1
  O  O24  1  0.75000000  0.51993700  0.41998400  1
  O  O25  1  0.25000000  0.48006300  0.58001600  1
  O  O26  1  0.25000000  0.98006300  0.91998400  1
  O  O27  1  0.75000000  0.01993700  0.08001600  1
  O  O28  1  0.01557500  0.61749500  0.66785600  1
  O  O29  1  0.98442500  0.38250500  0.33214400  1
  O  O30  1  0.98442500  0.88250500  0.16785600  1
  O  O31  1  0.51557500  0.38250500  0.33214400  1
  O  O32  1  0.01557500  0.11749500  0.83214400  1
  O  O33  1  0.48442500  0.61749500  0.66785600  1
  O  O34  1  0.48442500  0.11749500  0.83214400  1
  O  O35  1  0.51557500  0.88250500  0.16785600  1
  O  O36  1  0.75000000  0.78458700  0.58901500  1
  O  O37  1  0.25000000  0.21541300  0.41098500  1
  O  O38  1  0.25000000  0.71541300  0.08901500  1
  O  O39  1  0.75000000  0.28458700  0.91098500  1
  O  O40  1  0.98229900  0.80466900  0.83912300  1
  O  O41  1  0.01770100  0.19533100  0.16087700  1
  O  O42  1  0.01770100  0.69533100  0.33912300  1
  O  O43  1  0.48229900  0.19533100  0.16087700  1
  O  O44  1  0.98229900  0.30466900  0.66087700  1
  O  O45  1  0.51770100  0.80466900  0.83912300  1
  O  O46  1  0.51770100  0.30466900  0.66087700  1
  O  O47  1  0.48229900  0.69533100  0.33912300  1
