# generated using pymatgen
data_Pr2Sn3(PbS4)3
_symmetry_space_group_name_H-M   'P 1'
_cell_length_a   4.00415500
_cell_length_b   11.75165600
_cell_length_c   20.62069400
_cell_angle_alpha   90.00000000
_cell_angle_beta   90.00000000
_cell_angle_gamma   90.00000000
_symmetry_Int_Tables_number   1
_chemical_formula_structural   Pr2Sn3(PbS4)3
_chemical_formula_sum   'Pr4 Sn6 Pb6 S24'
_cell_volume   970.31607942
_cell_formula_units_Z   2
loop_
 _symmetry_equiv_pos_site_id
 _symmetry_equiv_pos_as_xyz
  1  'x, y, z'
loop_
 _atom_site_type_symbol
 _atom_site_label
 _atom_site_symmetry_multiplicity
 _atom_site_fract_x
 _atom_site_fract_y
 _atom_site_fract_z
 _atom_site_occupancy
  Pr  Pr0  1  0.50000000  0.65175300  0.41238400  1
  Pr  Pr1  1  0.50000000  0.15175300  0.58761600  1
  Pr  Pr2  1  0.50000000  0.82430200  0.89480100  1
  Pr  Pr3  1  0.50000000  0.32430200  0.10519900  1
  Sn  Sn4  1  0.00000000  0.00122700  0.74990500  1
  Sn  Sn5  1  0.00000000  0.50122700  0.25009500  1
  Sn  Sn6  1  0.00000000  0.51797300  0.91124700  1
  Sn  Sn7  1  0.00000000  0.01797300  0.08875300  1
  Sn  Sn8  1  0.00000000  0.99488300  0.42345500  1
  Sn  Sn9  1  0.00000000  0.49488300  0.57654500  1
  Pb  Pb10  1  0.50000000  0.40358300  0.74305600  1
  Pb  Pb11  1  0.50000000  0.90358300  0.25694400  1
  Pb  Pb12  1  0.50000000  0.19746100  0.91243600  1
  Pb  Pb13  1  0.50000000  0.69746100  0.08756400  1
  Pb  Pb14  1  0.50000000  0.76981200  0.62326600  1
  Pb  Pb15  1  0.50000000  0.26981200  0.37673400  1
  S  S16  1  0.00000000  0.99781400  0.87455200  1
  S  S17  1  0.00000000  0.49781400  0.12544800  1
  S  S18  1  0.00000000  0.98032000  0.62743300  1
  S  S19  1  0.00000000  0.48032000  0.37256700  1
  S  S20  1  0.00000000  0.68387400  0.51397700  1
  S  S21  1  0.00000000  0.18387400  0.48602300  1
  S  S22  1  0.50000000  0.64434900  0.25689200  1
  S  S23  1  0.50000000  0.14434900  0.74310800  1
  S  S24  1  0.50000000  0.85137000  0.75570400  1
  S  S25  1  0.50000000  0.35137000  0.24429600  1
  S  S26  1  0.50000000  0.59695100  0.84055700  1
  S  S27  1  0.50000000  0.09695100  0.15944300  1
  S  S28  1  0.50000000  0.44106400  0.98087600  1
  S  S29  1  0.50000000  0.94106400  0.01912400  1
  S  S30  1  0.50000000  0.93473600  0.48732900  1
  S  S31  1  0.50000000  0.43473700  0.51267100  1
  S  S32  1  0.00000000  0.33794500  0.84263400  1
  S  S33  1  0.00000000  0.83794500  0.15736600  1
  S  S34  1  0.00000000  0.70847100  0.97203700  1
  S  S35  1  0.00000000  0.20847100  0.02796300  1
  S  S36  1  0.00000000  0.80933500  0.35692900  1
  S  S37  1  0.00000000  0.30933500  0.64307100  1
  S  S38  1  0.00000000  0.60207700  0.67799900  1
  S  S39  1  0.00000000  0.10207700  0.32200100  1
