# generated using pymatgen
data_RbSm(SO6)2
_symmetry_space_group_name_H-M   'P 1'
_cell_length_a   20.11377400
_cell_length_b   6.30221700
_cell_length_c   9.02054724
_cell_angle_alpha   85.45401647
_cell_angle_beta   90.00000000
_cell_angle_gamma   90.00000000
_symmetry_Int_Tables_number   1
_chemical_formula_structural   RbSm(SO6)2
_chemical_formula_sum   'Rb4 Sm4 S8 O48'
_cell_volume   1139.85964766
_cell_formula_units_Z   4
loop_
 _symmetry_equiv_pos_site_id
 _symmetry_equiv_pos_as_xyz
  1  'x, y, z'
loop_
 _atom_site_type_symbol
 _atom_site_label
 _atom_site_symmetry_multiplicity
 _atom_site_fract_x
 _atom_site_fract_y
 _atom_site_fract_z
 _atom_site_occupancy
  Rb  Rb0  1  0.21183100  0.84625500  0.63358900  1
  Rb  Rb1  1  0.78816900  0.15374500  0.36641100  1
  Rb  Rb2  1  0.71183100  0.15374500  0.86641100  1
  Rb  Rb3  1  0.28816900  0.84625500  0.13358900  1
  Sm  Sm4  1  0.36244700  0.37441000  0.78873100  1
  Sm  Sm5  1  0.63755300  0.62559000  0.21126900  1
  Sm  Sm6  1  0.86244700  0.62559000  0.71126900  1
  Sm  Sm7  1  0.13755300  0.37441000  0.28873100  1
  S  S8  1  0.21884700  0.37809400  0.90982700  1
  S  S9  1  0.78115300  0.62190600  0.09017300  1
  S  S10  1  0.71884700  0.62190600  0.59017300  1
  S  S11  1  0.28115300  0.37809400  0.40982700  1
  S  S12  1  0.42690300  0.80801400  0.77240700  1
  S  S13  1  0.57309700  0.19198600  0.22759300  1
  S  S14  1  0.92690300  0.19198600  0.72759300  1
  S  S15  1  0.07309700  0.80801400  0.27240700  1
  O  O16  1  0.12118400  0.17679400  0.52537800  1
  O  O17  1  0.87881600  0.82320600  0.47462200  1
  O  O18  1  0.62118400  0.82320600  0.97462200  1
  O  O19  1  0.37881600  0.17679400  0.02537800  1
  O  O20  1  0.42222200  0.64905900  0.90579900  1
  O  O21  1  0.57777800  0.35094100  0.09420100  1
  O  O22  1  0.92222200  0.35094100  0.59420100  1
  O  O23  1  0.07777800  0.64905900  0.40579900  1
  O  O24  1  0.76019300  0.81700100  0.61787300  1
  O  O25  1  0.23980700  0.18299900  0.38212700  1
  O  O26  1  0.26019300  0.18299900  0.88212700  1
  O  O27  1  0.73980700  0.81700100  0.11787300  1
  O  O28  1  0.47376000  0.32597000  0.63585100  1
  O  O29  1  0.52624000  0.67403000  0.36414900  1
  O  O30  1  0.97376000  0.67403000  0.86414900  1
  O  O31  1  0.02624000  0.32597000  0.13585100  1
  O  O32  1  0.07818300  0.76534100  0.82634700  1
  O  O33  1  0.92181700  0.23465900  0.17365300  1
  O  O34  1  0.57818300  0.23465900  0.67365300  1
  O  O35  1  0.42181700  0.76534100  0.32634700  1
  O  O36  1  0.16378000  0.40581800  0.80564800  1
  O  O37  1  0.83622000  0.59418200  0.19435200  1
  O  O38  1  0.66378000  0.59418200  0.69435200  1
  O  O39  1  0.33622000  0.40581800  0.30564800  1
  O  O40  1  0.38535200  0.71429100  0.65494900  1
  O  O41  1  0.61464800  0.28570900  0.34505100  1
  O  O42  1  0.88535200  0.28570900  0.84505100  1
  O  O43  1  0.11464800  0.71429100  0.15494900  1
  O  O44  1  0.30314400  0.35761300  0.56757700  1
  O  O45  1  0.69685600  0.64238700  0.43242300  1
  O  O46  1  0.80314400  0.64238700  0.93242300  1
  O  O47  1  0.19685600  0.35761300  0.06757700  1
  O  O48  1  0.26816900  0.56051800  0.88785600  1
  O  O49  1  0.73183100  0.43948200  0.11214400  1
  O  O50  1  0.76816900  0.43948200  0.61214400  1
  O  O51  1  0.23183100  0.56051800  0.38785600  1
  O  O52  1  0.49448800  0.85697900  0.72739900  1
  O  O53  1  0.50551200  0.14302100  0.27260100  1
  O  O54  1  0.99448800  0.14302100  0.77260100  1
  O  O55  1  0.00551200  0.85697900  0.22739900  1
  O  O56  1  0.02413100  0.70711900  0.77188200  1
  O  O57  1  0.97586900  0.29288100  0.22811800  1
  O  O58  1  0.52413100  0.29288100  0.72811800  1
  O  O59  1  0.47586900  0.70711900  0.27188200  1
  O  O60  1  0.39005400  0.01038700  0.80770200  1
  O  O61  1  0.60994600  0.98961300  0.19229800  1
  O  O62  1  0.89005400  0.98961300  0.69229800  1
  O  O63  1  0.10994600  0.01038700  0.30770200  1
