# generated using pymatgen
data_Mg(BrO6)2
_symmetry_space_group_name_H-M   'P 1'
_cell_length_a   9.76869900
_cell_length_b   9.76869900
_cell_length_c   9.76869900
_cell_angle_alpha   90.00000000
_cell_angle_beta   90.00000000
_cell_angle_gamma   90.00000000
_symmetry_Int_Tables_number   1
_chemical_formula_structural   Mg(BrO6)2
_chemical_formula_sum   'Mg4 Br8 O48'
_cell_volume   932.20232994
_cell_formula_units_Z   4
loop_
 _symmetry_equiv_pos_site_id
 _symmetry_equiv_pos_as_xyz
  1  'x, y, z'
loop_
 _atom_site_type_symbol
 _atom_site_label
 _atom_site_symmetry_multiplicity
 _atom_site_fract_x
 _atom_site_fract_y
 _atom_site_fract_z
 _atom_site_occupancy
  Mg  Mg0  1  0.00000000  0.00000000  0.00000000  1
  Mg  Mg1  1  0.50000000  0.00000000  0.50000000  1
  Mg  Mg2  1  0.00000000  0.50000000  0.50000000  1
  Mg  Mg3  1  0.50000000  0.50000000  0.00000000  1
  Br  Br4  1  0.26071500  0.26071500  0.26071500  1
  Br  Br5  1  0.73928500  0.73928500  0.73928500  1
  Br  Br6  1  0.23928500  0.73928500  0.76071500  1
  Br  Br7  1  0.73928500  0.76071500  0.23928500  1
  Br  Br8  1  0.76071500  0.26071500  0.23928500  1
  Br  Br9  1  0.26071500  0.23928500  0.76071500  1
  Br  Br10  1  0.76071500  0.23928500  0.73928500  1
  Br  Br11  1  0.23928500  0.76071500  0.26071500  1
  O  O12  1  0.12329000  0.33714000  0.18047900  1
  O  O13  1  0.87671000  0.66286000  0.81952100  1
  O  O14  1  0.37671000  0.66286000  0.68047900  1
  O  O15  1  0.87671000  0.83714000  0.31952100  1
  O  O16  1  0.18047900  0.12329000  0.33714000  1
  O  O17  1  0.62329000  0.33714000  0.31952100  1
  O  O18  1  0.12329000  0.16286000  0.68047900  1
  O  O19  1  0.81952100  0.87671000  0.66286000  1
  O  O20  1  0.62329000  0.16286000  0.81952100  1
  O  O21  1  0.68047900  0.37671000  0.66286000  1
  O  O22  1  0.37671000  0.83714000  0.18047900  1
  O  O23  1  0.31952100  0.62329000  0.33714000  1
  O  O24  1  0.31952100  0.87671000  0.83714000  1
  O  O25  1  0.68047900  0.12329000  0.16286000  1
  O  O26  1  0.81952100  0.62329000  0.16286000  1
  O  O27  1  0.18047900  0.37671000  0.83714000  1
  O  O28  1  0.33714000  0.18047900  0.12329000  1
  O  O29  1  0.66286000  0.81952100  0.87671000  1
  O  O30  1  0.83714000  0.31952100  0.87671000  1
  O  O31  1  0.16286000  0.68047900  0.12329000  1
  O  O32  1  0.16286000  0.81952100  0.62329000  1
  O  O33  1  0.83714000  0.18047900  0.37671000  1
  O  O34  1  0.66286000  0.68047900  0.37671000  1
  O  O35  1  0.33714000  0.31952100  0.62329000  1
  O  O36  1  0.19256800  0.45931200  0.42935000  1
  O  O37  1  0.80743200  0.54068800  0.57065000  1
  O  O38  1  0.30743200  0.54068800  0.92935000  1
  O  O39  1  0.80743200  0.95931200  0.07065000  1
  O  O40  1  0.42935000  0.19256800  0.45931200  1
  O  O41  1  0.69256800  0.45931200  0.07065000  1
  O  O42  1  0.19256800  0.04068800  0.92935000  1
  O  O43  1  0.57065000  0.80743200  0.54068800  1
  O  O44  1  0.69256800  0.04068800  0.57065000  1
  O  O45  1  0.92935000  0.30743200  0.54068800  1
  O  O46  1  0.30743200  0.95931200  0.42935000  1
  O  O47  1  0.07065000  0.69256800  0.45931200  1
  O  O48  1  0.07065000  0.80743200  0.95931200  1
  O  O49  1  0.92935000  0.19256800  0.04068800  1
  O  O50  1  0.57065000  0.69256800  0.04068800  1
  O  O51  1  0.42935000  0.30743200  0.95931200  1
  O  O52  1  0.45931200  0.42935000  0.19256800  1
  O  O53  1  0.54068800  0.57065000  0.80743200  1
  O  O54  1  0.95931200  0.07065000  0.80743200  1
  O  O55  1  0.04068800  0.92935000  0.19256800  1
  O  O56  1  0.04068800  0.57065000  0.69256800  1
  O  O57  1  0.95931200  0.42935000  0.30743200  1
  O  O58  1  0.54068800  0.92935000  0.30743200  1
  O  O59  1  0.45931200  0.07065000  0.69256800  1
