# generated using pymatgen
data_KV3CdCu4O13
_symmetry_space_group_name_H-M   'P 1'
_cell_length_a   6.27182800
_cell_length_b   8.46224045
_cell_length_c   10.92156255
_cell_angle_alpha   97.54321548
_cell_angle_beta   90.00000000
_cell_angle_gamma   90.00000000
_symmetry_Int_Tables_number   1
_chemical_formula_structural   KV3CdCu4O13
_chemical_formula_sum   'K2 V6 Cd2 Cu8 O26'
_cell_volume   574.63171765
_cell_formula_units_Z   2
loop_
 _symmetry_equiv_pos_site_id
 _symmetry_equiv_pos_as_xyz
  1  'x, y, z'
loop_
 _atom_site_type_symbol
 _atom_site_label
 _atom_site_symmetry_multiplicity
 _atom_site_fract_x
 _atom_site_fract_y
 _atom_site_fract_z
 _atom_site_occupancy
  K  K0  1  0.75000000  0.51357500  0.89510400  1
  K  K1  1  0.25000000  0.48642500  0.10489600  1
  V  V2  1  0.75000000  0.46441100  0.29357100  1
  V  V3  1  0.25000000  0.53558900  0.70642900  1
  V  V4  1  0.75000000  0.14041600  0.00542900  1
  V  V5  1  0.25000000  0.85958400  0.99457100  1
  V  V6  1  0.75000000  0.17901000  0.62018600  1
  V  V7  1  0.25000000  0.82099000  0.37981400  1
  Cd  Cd8  1  0.75000000  0.80586800  0.13724400  1
  Cd  Cd9  1  0.25000000  0.19413200  0.86275600  1
  Cu  Cu10  1  0.75000000  0.59989900  0.60199900  1
  Cu  Cu11  1  0.25000000  0.40010100  0.39800100  1
  Cu  Cu12  1  0.99660700  0.89124100  0.72403500  1
  Cu  Cu13  1  0.00339300  0.10875900  0.27596500  1
  Cu  Cu14  1  0.49660700  0.10875900  0.27596500  1
  Cu  Cu15  1  0.50339300  0.89124100  0.72403500  1
  Cu  Cu16  1  0.75000000  0.85647600  0.43965800  1
  Cu  Cu17  1  0.25000000  0.14352400  0.56034200  1
  O  O18  1  0.75000000  0.97741900  0.89592600  1
  O  O19  1  0.25000000  0.02258100  0.10407400  1
  O  O20  1  0.75000000  0.62008300  0.42042300  1
  O  O21  1  0.25000000  0.37991700  0.57957700  1
  O  O22  1  0.75000000  0.55035100  0.16226100  1
  O  O23  1  0.25000000  0.44964900  0.83773900  1
  O  O24  1  0.75000000  0.83747600  0.62066300  1
  O  O25  1  0.25000000  0.16252400  0.37933700  1
  O  O26  1  0.75000000  0.38053100  0.62242500  1
  O  O27  1  0.25000000  0.61946900  0.37757500  1
  O  O28  1  0.75000000  0.07709300  0.16938200  1
  O  O29  1  0.25000000  0.92290700  0.83061800  1
  O  O30  1  0.48043500  0.65809900  0.71058800  1
  O  O31  1  0.51956500  0.34190100  0.28941200  1
  O  O32  1  0.98043500  0.34190100  0.28941200  1
  O  O33  1  0.01956500  0.65809900  0.71058800  1
  O  O34  1  0.75000000  0.08856100  0.46762300  1
  O  O35  1  0.25000000  0.91143900  0.53237700  1
  O  O36  1  0.96872300  0.25557200  0.98510300  1
  O  O37  1  0.03127700  0.74442800  0.01489700  1
  O  O38  1  0.46872300  0.74442800  0.01489700  1
  O  O39  1  0.53127700  0.25557200  0.98510300  1
  O  O40  1  0.00935400  0.88085900  0.30721700  1
  O  O41  1  0.99064600  0.11914100  0.69278300  1
  O  O42  1  0.50935400  0.11914100  0.69278300  1
  O  O43  1  0.49064600  0.88085900  0.30721700  1
