# generated using pymatgen
data_LaMoO2
_symmetry_space_group_name_H-M   'P 1'
_cell_length_a   7.77350618
_cell_length_b   7.77350618
_cell_length_c   7.77350618
_cell_angle_alpha   130.67414557
_cell_angle_beta   130.67414557
_cell_angle_gamma   72.33130732
_symmetry_Int_Tables_number   1
_chemical_formula_structural   LaMoO2
_chemical_formula_sum   'La4 Mo4 O8'
_cell_volume   264.12334512
_cell_formula_units_Z   4
loop_
 _symmetry_equiv_pos_site_id
 _symmetry_equiv_pos_as_xyz
  1  'x, y, z'
loop_
 _atom_site_type_symbol
 _atom_site_label
 _atom_site_symmetry_multiplicity
 _atom_site_fract_x
 _atom_site_fract_y
 _atom_site_fract_z
 _atom_site_occupancy
  La  La0  1  0.87500000  0.62500000  0.25000000  1
  La  La1  1  0.37500000  0.62500000  0.75000000  1
  La  La2  1  0.37500000  0.62500000  0.25000000  1
  La  La3  1  0.37500000  0.12500000  0.75000000  1
  Mo  Mo4  1  0.37500000  0.12500000  0.25000000  1
  Mo  Mo5  1  0.87500000  0.12500000  0.75000000  1
  Mo  Mo6  1  0.87500000  0.12500000  0.25000000  1
  Mo  Mo7  1  0.87500000  0.62500000  0.75000000  1
  O  O8  1  0.17555100  0.39478000  0.21922900  1
  O  O9  1  0.17555100  0.95632200  0.78077100  1
  O  O10  1  0.14478000  0.42555100  0.71922900  1
  O  O11  1  0.57444900  0.85522000  0.28077100  1
  O  O12  1  0.70632200  0.42555100  0.28077100  1
  O  O13  1  0.57444900  0.29367800  0.71922900  1
  O  O14  1  0.60522000  0.82444900  0.78077100  1
  O  O15  1  0.04367800  0.82444900  0.21922900  1
