# generated using pymatgen
data_Nd4CoSi4(C2O11)2
_symmetry_space_group_name_H-M   'P 1'
_cell_length_a   5.74421000
_cell_length_b   11.76307700
_cell_length_c   14.74215570
_cell_angle_alpha   75.58930233
_cell_angle_beta   90.00000000
_cell_angle_gamma   90.00000000
_symmetry_Int_Tables_number   1
_chemical_formula_structural   Nd4CoSi4(C2O11)2
_chemical_formula_sum   'Nd8 Co2 Si8 C8 O44'
_cell_volume   964.78008268
_cell_formula_units_Z   2
loop_
 _symmetry_equiv_pos_site_id
 _symmetry_equiv_pos_as_xyz
  1  'x, y, z'
loop_
 _atom_site_type_symbol
 _atom_site_label
 _atom_site_symmetry_multiplicity
 _atom_site_fract_x
 _atom_site_fract_y
 _atom_site_fract_z
 _atom_site_occupancy
  Nd  Nd0  1  0.96636600  0.71109400  0.91259400  1
  Nd  Nd1  1  0.03363400  0.28890600  0.08740600  1
  Nd  Nd2  1  0.46636600  0.28890600  0.58740600  1
  Nd  Nd3  1  0.53363400  0.71109400  0.41259400  1
  Nd  Nd4  1  0.05443000  0.70648000  0.66996000  1
  Nd  Nd5  1  0.94557000  0.29352000  0.33004000  1
  Nd  Nd6  1  0.55443000  0.29352000  0.83004000  1
  Nd  Nd7  1  0.44557000  0.70648000  0.16996000  1
  Co  Co8  1  0.50000000  0.50000000  0.00000000  1
  Co  Co9  1  0.00000000  0.50000000  0.50000000  1
  Si  Si10  1  0.02929200  0.43010600  0.86576800  1
  Si  Si11  1  0.97070800  0.56989400  0.13423200  1
  Si  Si12  1  0.52929200  0.56989400  0.63423200  1
  Si  Si13  1  0.47070800  0.43010600  0.36576800  1
  Si  Si14  1  0.51534800  0.71468200  0.79391000  1
  Si  Si15  1  0.48465200  0.28531800  0.20609000  1
  Si  Si16  1  0.01534800  0.28531800  0.70609000  1
  Si  Si17  1  0.98465200  0.71468200  0.29391000  1
  C  C18  1  0.50000000  0.00000000  0.50000000  1
  C  C19  1  0.00000000  0.00000000  0.00000000  1
  C  C20  1  0.25117900  0.98025700  0.83196600  1
  C  C21  1  0.74882100  0.01974300  0.16803400  1
  C  C22  1  0.75117900  0.01974300  0.66803400  1
  C  C23  1  0.24882100  0.98025700  0.33196600  1
  C  C24  1  0.50000000  0.00000000  0.00000000  1
  C  C25  1  0.00000000  0.00000000  0.50000000  1
  O  O26  1  0.44941900  0.62477600  0.72405900  1
  O  O27  1  0.55058100  0.37522400  0.27594100  1
  O  O28  1  0.94941900  0.37522400  0.77594100  1
  O  O29  1  0.05058100  0.62477600  0.22405900  1
  O  O30  1  0.49901200  0.89463700  0.52308200  1
  O  O31  1  0.50098800  0.10536300  0.47691800  1
  O  O32  1  0.99901200  0.10536300  0.97691800  1
  O  O33  1  0.00098800  0.89463700  0.02308200  1
  O  O34  1  0.32683800  0.62230000  0.55521600  1
  O  O35  1  0.67316200  0.37770000  0.44478400  1
  O  O36  1  0.82683800  0.37770000  0.94478400  1
  O  O37  1  0.17316200  0.62230000  0.05521600  1
  O  O38  1  0.04739500  0.96769000  0.83999500  1
  O  O39  1  0.95260500  0.03231000  0.16000500  1
  O  O40  1  0.54739500  0.03231000  0.66000500  1
  O  O41  1  0.45260500  0.96769000  0.33999500  1
  O  O42  1  0.26585300  0.78417000  0.78861300  1
  O  O43  1  0.73414700  0.21583000  0.21138700  1
  O  O44  1  0.76585300  0.21583000  0.71138700  1
  O  O45  1  0.23414700  0.78417000  0.28861300  1
  O  O46  1  0.95340200  0.00792500  0.66782700  1
  O  O47  1  0.04659800  0.99207500  0.33217300  1
  O  O48  1  0.45340200  0.99207500  0.83217300  1
  O  O49  1  0.54659800  0.00792500  0.16782700  1
  O  O50  1  0.08243200  0.34774800  0.59757200  1
  O  O51  1  0.91756800  0.65225200  0.40242800  1
  O  O52  1  0.58243200  0.65225200  0.90242800  1
  O  O53  1  0.41756800  0.34774800  0.09757200  1
  O  O54  1  0.00039700  0.89354500  0.52554200  1
  O  O55  1  0.99960300  0.10645500  0.47445800  1
  O  O56  1  0.50039700  0.10645500  0.97445800  1
  O  O57  1  0.49960300  0.89354500  0.02554200  1
  O  O58  1  0.27937400  0.37718100  0.90769100  1
  O  O59  1  0.72062600  0.62281900  0.09230900  1
  O  O60  1  0.77937400  0.62281900  0.59230900  1
  O  O61  1  0.22062600  0.37718100  0.40769100  1
  O  O62  1  0.75764400  0.78205900  0.75257000  1
  O  O63  1  0.24235600  0.21794100  0.24743000  1
  O  O64  1  0.25764400  0.21794100  0.74743000  1
  O  O65  1  0.74235600  0.78205900  0.25257000  1
  O  O66  1  0.52219600  0.42776000  0.67330100  1
  O  O67  1  0.47780400  0.57224000  0.32669900  1
  O  O68  1  0.02219600  0.57224000  0.82669900  1
  O  O69  1  0.97780400  0.42776000  0.17330100  1
