# generated using pymatgen
data_Na2Al3Si3HNO12
_symmetry_space_group_name_H-M   'P 1'
_cell_length_a   5.37556600
_cell_length_b   15.56297300
_cell_length_c   17.69707300
_cell_angle_alpha   90.00000000
_cell_angle_beta   90.00000000
_cell_angle_gamma   90.00000000
_symmetry_Int_Tables_number   1
_chemical_formula_structural   Na2Al3Si3HNO12
_chemical_formula_sum   'Na8 Al12 Si12 H4 N4 O48'
_cell_volume   1480.53338456
_cell_formula_units_Z   4
loop_
 _symmetry_equiv_pos_site_id
 _symmetry_equiv_pos_as_xyz
  1  'x, y, z'
loop_
 _atom_site_type_symbol
 _atom_site_label
 _atom_site_symmetry_multiplicity
 _atom_site_fract_x
 _atom_site_fract_y
 _atom_site_fract_z
 _atom_site_occupancy
  Na  Na0  1  0.69174200  0.72464300  0.40471000  1
  Na  Na1  1  0.19174200  0.27535700  0.59529000  1
  Na  Na2  1  0.69174200  0.77535700  0.90471000  1
  Na  Na3  1  0.19174200  0.22464300  0.09529000  1
  Na  Na4  1  0.19571600  0.76990800  0.08976800  1
  Na  Na5  1  0.69571600  0.23009200  0.91023200  1
  Na  Na6  1  0.19571600  0.73009200  0.58976800  1
  Na  Na7  1  0.69571600  0.26990800  0.41023200  1
  Al  Al8  1  0.72212900  0.75661800  0.19133500  1
  Al  Al9  1  0.22212900  0.24338200  0.80866500  1
  Al  Al10  1  0.72212900  0.74338200  0.69133500  1
  Al  Al11  1  0.22212900  0.25661800  0.30866500  1
  Al  Al12  1  0.75942000  0.39503000  0.03963500  1
  Al  Al13  1  0.25942000  0.60497000  0.96036500  1
  Al  Al14  1  0.75942000  0.10497000  0.53963500  1
  Al  Al15  1  0.25942000  0.89503000  0.46036500  1
  Al  Al16  1  0.74590600  0.39854900  0.54445800  1
  Al  Al17  1  0.24590600  0.60145100  0.45554200  1
  Al  Al18  1  0.74590600  0.10145100  0.04445800  1
  Al  Al19  1  0.24590600  0.89854900  0.95554200  1
  Si  Si20  1  0.78896300  0.45362800  0.17505900  1
  Si  Si21  1  0.28896300  0.54637200  0.82494100  1
  Si  Si22  1  0.78896300  0.04637200  0.67505900  1
  Si  Si23  1  0.28896300  0.95362800  0.32494100  1
  Si  Si24  1  0.74879900  0.89164700  0.05344800  1
  Si  Si25  1  0.24879900  0.10835300  0.94655200  1
  Si  Si26  1  0.74879900  0.60835300  0.55344800  1
  Si  Si27  1  0.24879900  0.39164700  0.44655200  1
  Si  Si28  1  0.75832700  0.61259600  0.06249200  1
  Si  Si29  1  0.25832700  0.38740400  0.93750800  1
  Si  Si30  1  0.75832700  0.88740400  0.56249200  1
  Si  Si31  1  0.25832700  0.11259600  0.43750800  1
  H  H32  1  0.56305500  0.47387100  0.22014700  1
  H  H33  1  0.06305500  0.52612900  0.77985300  1
  H  H34  1  0.56305500  0.02612900  0.72014700  1
  H  H35  1  0.06305500  0.97387100  0.27985300  1
  N  N36  1  0.56411600  0.99484600  0.28062200  1
  N  N37  1  0.06411600  0.00515400  0.71937800  1
  N  N38  1  0.56411600  0.50515400  0.78062200  1
  N  N39  1  0.06411600  0.49484600  0.21937800  1
  O  O40  1  0.81232000  0.84090500  0.13198800  1
  O  O41  1  0.31232000  0.15909500  0.86801200  1
  O  O42  1  0.81232000  0.65909500  0.63198800  1
  O  O43  1  0.31232000  0.34090500  0.36801200  1
  O  O44  1  0.39963900  0.77811100  0.20350100  1
  O  O45  1  0.89963900  0.22188900  0.79649900  1
  O  O46  1  0.39963900  0.72188900  0.70350100  1
  O  O47  1  0.89963900  0.27811100  0.29649900  1
  O  O48  1  0.76589400  0.50571300  0.08531500  1
  O  O49  1  0.26589400  0.49428700  0.91468500  1
  O  O50  1  0.76589400  0.99428700  0.58531500  1
  O  O51  1  0.26589400  0.00571300  0.41468500  1
  O  O52  1  0.76185800  0.99406800  0.06505500  1
  O  O53  1  0.26185800  0.00593200  0.93494500  1
  O  O54  1  0.76185800  0.50593200  0.56505500  1
  O  O55  1  0.26185800  0.49406800  0.43494500  1
  O  O56  1  0.47710500  0.86036900  0.02003700  1
  O  O57  1  0.97710500  0.13963100  0.97996300  1
  O  O58  1  0.47710500  0.63963100  0.52003700  1
  O  O59  1  0.97710500  0.36036900  0.47996300  1
  O  O60  1  0.80789700  0.66327500  0.14030300  1
  O  O61  1  0.30789700  0.33672500  0.85969700  1
  O  O62  1  0.80789700  0.83672500  0.64030300  1
  O  O63  1  0.30789700  0.16327500  0.35969700  1
  O  O64  1  0.97462500  0.62775700  0.00005800  1
  O  O65  1  0.47462500  0.37224300  0.99994200  1
  O  O66  1  0.97462500  0.87224300  0.50005800  1
  O  O67  1  0.47462500  0.12775700  0.49994200  1
  O  O68  1  0.96312800  0.85833600  0.99243100  1
  O  O69  1  0.46312800  0.14166400  0.00756900  1
  O  O70  1  0.96312800  0.64166400  0.49243100  1
  O  O71  1  0.46312800  0.35833600  0.50756900  1
  O  O72  1  0.48959700  0.63155600  0.02463100  1
  O  O73  1  0.98959700  0.36844400  0.97536900  1
  O  O74  1  0.48959700  0.86844400  0.52463100  1
  O  O75  1  0.98959700  0.13155600  0.47536900  1
  O  O76  1  0.81059500  0.36063300  0.13312300  1
  O  O77  1  0.31059500  0.63936700  0.86687700  1
  O  O78  1  0.81059500  0.13936700  0.63312300  1
  O  O79  1  0.31059500  0.86063300  0.36687700  1
  O  O80  1  0.80793000  0.15870800  0.13036300  1
  O  O81  1  0.30793000  0.84129200  0.86963700  1
  O  O82  1  0.80793000  0.34129200  0.63036300  1
  O  O83  1  0.30793000  0.65870800  0.36963700  1
  O  O84  1  0.80093900  0.76006800  0.28723200  1
  O  O85  1  0.30093900  0.23993200  0.71276800  1
  O  O86  1  0.80093900  0.73993200  0.78723200  1
  O  O87  1  0.30093900  0.26006800  0.21276800  1
