# generated using pymatgen
data_Na2SeO9
_symmetry_space_group_name_H-M   'P 1'
_cell_length_a   7.88003900
_cell_length_b   7.88003900
_cell_length_c   12.03877700
_cell_angle_alpha   90.00000000
_cell_angle_beta   90.00000000
_cell_angle_gamma   90.00000000
_symmetry_Int_Tables_number   1
_chemical_formula_structural   Na2SeO9
_chemical_formula_sum   'Na8 Se4 O36'
_cell_volume   747.54803408
_cell_formula_units_Z   4
loop_
 _symmetry_equiv_pos_site_id
 _symmetry_equiv_pos_as_xyz
  1  'x, y, z'
loop_
 _atom_site_type_symbol
 _atom_site_label
 _atom_site_symmetry_multiplicity
 _atom_site_fract_x
 _atom_site_fract_y
 _atom_site_fract_z
 _atom_site_occupancy
  Na  Na0  1  0.50000000  0.68494900  0.00000000  1
  Na  Na1  1  0.50000000  0.31505100  0.50000000  1
  Na  Na2  1  0.31505100  0.50000000  0.25000000  1
  Na  Na3  1  0.68494900  0.50000000  0.75000000  1
  Na  Na4  1  0.00000000  0.24828900  0.00000000  1
  Na  Na5  1  0.00000000  0.75171100  0.50000000  1
  Na  Na6  1  0.75171100  0.00000000  0.25000000  1
  Na  Na7  1  0.24828900  0.00000000  0.75000000  1
  Se  Se8  1  0.50000000  0.30702100  0.00000000  1
  Se  Se9  1  0.50000000  0.69297900  0.50000000  1
  Se  Se10  1  0.69297900  0.50000000  0.25000000  1
  Se  Se11  1  0.30702100  0.50000000  0.75000000  1
  O  O12  1  0.14262300  0.21572500  0.26238900  1
  O  O13  1  0.85737700  0.78427500  0.76238900  1
  O  O14  1  0.78427500  0.14262300  0.51238900  1
  O  O15  1  0.85737700  0.21572500  0.73761100  1
  O  O16  1  0.21572500  0.85737700  0.01238900  1
  O  O17  1  0.14262300  0.78427500  0.23761100  1
  O  O18  1  0.21572500  0.14262300  0.48761100  1
  O  O19  1  0.78427500  0.85737700  0.98761100  1
  O  O20  1  0.98902200  0.56504900  0.05140800  1
  O  O21  1  0.01097800  0.43495100  0.55140800  1
  O  O22  1  0.43495100  0.98902200  0.30140800  1
  O  O23  1  0.01097800  0.56504900  0.94859200  1
  O  O24  1  0.56504900  0.01097800  0.80140800  1
  O  O25  1  0.98902200  0.43495100  0.44859200  1
  O  O26  1  0.56504900  0.98902200  0.69859200  1
  O  O27  1  0.43495100  0.01097800  0.19859200  1
  O  O28  1  0.00939200  0.18815600  0.20611900  1
  O  O29  1  0.99060800  0.81184400  0.70611900  1
  O  O30  1  0.81184400  0.00939200  0.45611900  1
  O  O31  1  0.99060800  0.18815600  0.79388100  1
  O  O32  1  0.18815600  0.99060800  0.95611900  1
  O  O33  1  0.00939200  0.81184400  0.29388100  1
  O  O34  1  0.18815600  0.00939200  0.54388100  1
  O  O35  1  0.81184400  0.99060800  0.04388100  1
  O  O36  1  0.56747000  0.35414800  0.31552900  1
  O  O37  1  0.43253000  0.64585200  0.81552900  1
  O  O38  1  0.64585200  0.56747000  0.56552900  1
  O  O39  1  0.43253000  0.35414800  0.68447100  1
  O  O40  1  0.35414800  0.43253000  0.06552900  1
  O  O41  1  0.56747000  0.64585200  0.18447100  1
  O  O42  1  0.35414800  0.56747000  0.43447100  1
  O  O43  1  0.64585200  0.43253000  0.93447100  1
  O  O44  1  0.67883500  0.67883500  0.37500000  1
  O  O45  1  0.32116500  0.32116500  0.87500000  1
  O  O46  1  0.32116500  0.67883500  0.62500000  1
  O  O47  1  0.67883500  0.32116500  0.12500000  1
