# generated using pymatgen
data_Na3Pu
_symmetry_space_group_name_H-M   'P 1'
_cell_length_a   7.85846943
_cell_length_b   7.85846943
_cell_length_c   5.56458300
_cell_angle_alpha   90.00000000
_cell_angle_beta   90.00000000
_cell_angle_gamma   119.99999523
_symmetry_Int_Tables_number   1
_chemical_formula_structural   Na3Pu
_chemical_formula_sum   'Na6 Pu2'
_cell_volume   297.60430806
_cell_formula_units_Z   2
loop_
 _symmetry_equiv_pos_site_id
 _symmetry_equiv_pos_as_xyz
  1  'x, y, z'
loop_
 _atom_site_type_symbol
 _atom_site_label
 _atom_site_symmetry_multiplicity
 _atom_site_fract_x
 _atom_site_fract_y
 _atom_site_fract_z
 _atom_site_occupancy
  Na  Na0  1  0.16061100  0.32122100  0.25000000  1
  Na  Na1  1  0.67877900  0.83938900  0.25000000  1
  Na  Na2  1  0.16061100  0.83938900  0.25000000  1
  Na  Na3  1  0.83938900  0.67877900  0.75000000  1
  Na  Na4  1  0.32122100  0.16061100  0.75000000  1
  Na  Na5  1  0.83938900  0.16061100  0.75000000  1
  Pu  Pu6  1  0.33333300  0.66666700  0.75000000  1
  Pu  Pu7  1  0.66666700  0.33333300  0.25000000  1
