# generated using pymatgen
data_Lu4Rh
_symmetry_space_group_name_H-M   'P 1'
_cell_length_a   7.46998210
_cell_length_b   7.46998210
_cell_length_c   7.46998210
_cell_angle_alpha   60.00000000
_cell_angle_beta   60.00000000
_cell_angle_gamma   60.00000000
_symmetry_Int_Tables_number   1
_chemical_formula_structural   Lu4Rh
_chemical_formula_sum   'Lu8 Rh2'
_cell_volume   294.74312650
_cell_formula_units_Z   2
loop_
 _symmetry_equiv_pos_site_id
 _symmetry_equiv_pos_as_xyz
  1  'x, y, z'
loop_
 _atom_site_type_symbol
 _atom_site_label
 _atom_site_symmetry_multiplicity
 _atom_site_fract_x
 _atom_site_fract_y
 _atom_site_fract_z
 _atom_site_occupancy
  Lu  Lu0  1  0.38863100  0.38863100  0.38863100  1
  Lu  Lu1  1  0.38863100  0.38863100  0.83410600  1
  Lu  Lu2  1  0.38863100  0.83410600  0.38863100  1
  Lu  Lu3  1  0.86136900  0.86136900  0.41589400  1
  Lu  Lu4  1  0.86136900  0.86136900  0.86136900  1
  Lu  Lu5  1  0.83410600  0.38863100  0.38863100  1
  Lu  Lu6  1  0.86136900  0.41589400  0.86136900  1
  Lu  Lu7  1  0.41589400  0.86136900  0.86136900  1
  Rh  Rh8  1  0.00000000  0.00000000  0.00000000  1
  Rh  Rh9  1  0.25000000  0.25000000  0.25000000  1
