# generated using pymatgen
data_KC2
_symmetry_space_group_name_H-M   'P 1'
_cell_length_a   4.46421200
_cell_length_b   4.67631255
_cell_length_c   8.27779972
_cell_angle_alpha   106.30663986
_cell_angle_beta   90.00000000
_cell_angle_gamma   118.51063124
_symmetry_Int_Tables_number   1
_chemical_formula_structural   KC2
_chemical_formula_sum   'K2 C4'
_cell_volume   143.89062869
_cell_formula_units_Z   2
loop_
 _symmetry_equiv_pos_site_id
 _symmetry_equiv_pos_as_xyz
  1  'x, y, z'
loop_
 _atom_site_type_symbol
 _atom_site_label
 _atom_site_symmetry_multiplicity
 _atom_site_fract_x
 _atom_site_fract_y
 _atom_site_fract_z
 _atom_site_occupancy
  K  K0  1  0.78392900  0.56785900  0.75162100  1
  K  K1  1  0.21607100  0.43214100  0.24837900  1
  C  C2  1  0.92790200  0.85580400  0.44255900  1
  C  C3  1  0.07209800  0.14419600  0.55744100  1
  C  C4  1  0.53586400  0.07172900  0.94277000  1
  C  C5  1  0.46413600  0.92827100  0.05723000  1
