# generated using pymatgen
data_Rb2NO4
_symmetry_space_group_name_H-M   'P 1'
_cell_length_a   9.59861000
_cell_length_b   18.43694900
_cell_length_c   18.87418600
_cell_angle_alpha   90.00000000
_cell_angle_beta   90.00000000
_cell_angle_gamma   90.00000000
_symmetry_Int_Tables_number   1
_chemical_formula_structural   Rb2NO4
_chemical_formula_sum   'Rb4 N2 O8'
_cell_volume   3340.14738956
_cell_formula_units_Z   2
loop_
 _symmetry_equiv_pos_site_id
 _symmetry_equiv_pos_as_xyz
  1  'x, y, z'
loop_
 _atom_site_type_symbol
 _atom_site_label
 _atom_site_symmetry_multiplicity
 _atom_site_fract_x
 _atom_site_fract_y
 _atom_site_fract_z
 _atom_site_occupancy
  Rb  Rb0  1  0.50000000  0.88793800  0.00086700  1
  Rb  Rb1  1  0.50000000  0.88793800  0.49913300  1
  Rb  Rb2  1  0.50000000  0.11206200  0.50086700  1
  Rb  Rb3  1  0.50000000  0.11206200  0.99913300  1
  N  N4  1  0.50000000  0.50000000  0.50000000  1
  N  N5  1  0.50000000  0.50000000  0.00000000  1
  O  O6  1  0.50000000  0.36863000  0.71727200  1
  O  O7  1  0.50000000  0.36863000  0.78272800  1
  O  O8  1  0.50000000  0.63137000  0.21727200  1
  O  O9  1  0.50000000  0.63137000  0.28272800  1
  O  O10  1  0.50000000  0.75782700  0.50109400  1
  O  O11  1  0.50000000  0.75782700  0.99890600  1
  O  O12  1  0.50000000  0.24217300  0.00109400  1
  O  O13  1  0.50000000  0.24217300  0.49890600  1
