# generated using pymatgen
data_Na2ZnH4(SO4)2
_symmetry_space_group_name_H-M   'P 1'
_cell_length_a   5.50988141
_cell_length_b   8.30564500
_cell_length_c   11.20643124
_cell_angle_alpha   90.00000000
_cell_angle_beta   110.74801213
_cell_angle_gamma   90.00000000
_symmetry_Int_Tables_number   1
_chemical_formula_structural   Na2ZnH4(SO4)2
_chemical_formula_sum   'Na4 Zn2 H8 S4 O16'
_cell_volume   479.58221017
_cell_formula_units_Z   2
loop_
 _symmetry_equiv_pos_site_id
 _symmetry_equiv_pos_as_xyz
  1  'x, y, z'
loop_
 _atom_site_type_symbol
 _atom_site_label
 _atom_site_symmetry_multiplicity
 _atom_site_fract_x
 _atom_site_fract_y
 _atom_site_fract_z
 _atom_site_occupancy
  Na  Na0  1  0.16670400  0.03091900  0.37690300  1
  Na  Na1  1  0.83329600  0.96908100  0.62309700  1
  Na  Na2  1  0.83329600  0.53091900  0.12309700  1
  Na  Na3  1  0.16670400  0.46908100  0.87690300  1
  Zn  Zn4  1  0.00000000  0.00000000  0.00000000  1
  Zn  Zn5  1  0.00000000  0.50000000  0.50000000  1
  H  H6  1  0.26931200  0.60684000  0.42353900  1
  H  H7  1  0.73068800  0.39316000  0.57646100  1
  H  H8  1  0.73068800  0.10684000  0.07646100  1
  H  H9  1  0.26931200  0.89316000  0.92353900  1
  H  H10  1  0.25621400  0.83130400  0.97087000  1
  H  H11  1  0.74378600  0.16869600  0.02913000  1
  H  H12  1  0.74378600  0.33130400  0.52913000  1
  H  H13  1  0.25621400  0.66869600  0.47087000  1
  S  S14  1  0.33781700  0.27537900  0.16521300  1
  S  S15  1  0.66218300  0.72462100  0.83478700  1
  S  S16  1  0.66218300  0.77537900  0.33478700  1
  S  S17  1  0.33781700  0.22462100  0.66521300  1
  O  O18  1  0.27690800  0.24881800  0.28110100  1
  O  O19  1  0.72309200  0.75118200  0.71889900  1
  O  O20  1  0.72309200  0.74881800  0.21889900  1
  O  O21  1  0.27690800  0.25118200  0.78110100  1
  O  O22  1  0.60883000  0.32223500  0.19157200  1
  O  O23  1  0.39117000  0.67776500  0.80842800  1
  O  O24  1  0.39117000  0.82223500  0.30842800  1
  O  O25  1  0.60883000  0.17776500  0.69157200  1
  O  O26  1  0.30115200  0.11171600  0.09101400  1
  O  O27  1  0.69884800  0.88828400  0.90898600  1
  O  O28  1  0.69884800  0.61171600  0.40898600  1
  O  O29  1  0.30115200  0.38828400  0.59101400  1
  O  O30  1  0.15555900  0.39190600  0.07777700  1
  O  O31  1  0.84444100  0.60809400  0.92222300  1
  O  O32  1  0.84444100  0.89190600  0.42222300  1
  O  O33  1  0.15555900  0.10809400  0.57777700  1
