# generated using pymatgen
data_Na2MoO2
_symmetry_space_group_name_H-M   'P 1'
_cell_length_a   8.40897944
_cell_length_b   8.40897944
_cell_length_c   10.36259299
_cell_angle_alpha   117.00966384
_cell_angle_beta   117.00966384
_cell_angle_gamma   83.14842267
_symmetry_Int_Tables_number   1
_chemical_formula_structural   Na2MoO2
_chemical_formula_sum   'Na8 Mo4 O8'
_cell_volume   578.12392045
_cell_formula_units_Z   4
loop_
 _symmetry_equiv_pos_site_id
 _symmetry_equiv_pos_as_xyz
  1  'x, y, z'
loop_
 _atom_site_type_symbol
 _atom_site_label
 _atom_site_symmetry_multiplicity
 _atom_site_fract_x
 _atom_site_fract_y
 _atom_site_fract_z
 _atom_site_occupancy
  Na  Na0  1  0.29516500  0.11210100  0.65741400  1
  Na  Na1  1  0.36224900  0.54531300  0.65741400  1
  Na  Na2  1  0.88789900  0.70483500  0.34258600  1
  Na  Na3  1  0.95483500  0.63789900  0.84258600  1
  Na  Na4  1  0.45468700  0.63775100  0.34258600  1
  Na  Na5  1  0.88775100  0.20468700  0.84258600  1
  Na  Na6  1  0.36210100  0.04516500  0.15741400  1
  Na  Na7  1  0.79531300  0.11224900  0.15741400  1
  Mo  Mo8  1  0.62500000  0.87500000  0.75000000  1
  Mo  Mo9  1  0.12500000  0.87500000  0.75000000  1
  Mo  Mo10  1  0.12500000  0.37500000  0.25000000  1
  Mo  Mo11  1  0.12500000  0.87500000  0.25000000  1
  O  O12  1  0.65085100  0.64786500  0.73917400  1
  O  O13  1  0.08832200  0.09130800  0.73917400  1
  O  O14  1  0.35213500  0.34914900  0.26082600  1
  O  O15  1  0.59914900  0.10213500  0.76082600  1
  O  O16  1  0.90869200  0.91167800  0.26082600  1
  O  O17  1  0.16167800  0.65869200  0.76082600  1
  O  O18  1  0.89786500  0.40085100  0.23917400  1
  O  O19  1  0.34130800  0.83832200  0.23917400  1
