# generated using pymatgen
data_Mg4(MoO4)3
_symmetry_space_group_name_H-M   'P 1'
_cell_length_a   5.24082500
_cell_length_b   10.74400600
_cell_length_c   17.35153900
_cell_angle_alpha   90.00000000
_cell_angle_beta   90.00000000
_cell_angle_gamma   90.00000000
_symmetry_Int_Tables_number   1
_chemical_formula_structural   Mg4(MoO4)3
_chemical_formula_sum   'Mg16 Mo12 O48'
_cell_volume   977.02100567
_cell_formula_units_Z   4
loop_
 _symmetry_equiv_pos_site_id
 _symmetry_equiv_pos_as_xyz
  1  'x, y, z'
loop_
 _atom_site_type_symbol
 _atom_site_label
 _atom_site_symmetry_multiplicity
 _atom_site_fract_x
 _atom_site_fract_y
 _atom_site_fract_z
 _atom_site_occupancy
  Mg  Mg0  1  0.07895200  0.25000000  0.25031200  1
  Mg  Mg1  1  0.92104800  0.75000000  0.74968800  1
  Mg  Mg2  1  0.42104800  0.75000000  0.75031200  1
  Mg  Mg3  1  0.57895200  0.25000000  0.24968800  1
  Mg  Mg4  1  0.23277900  0.07152300  0.52689900  1
  Mg  Mg5  1  0.76722100  0.92847700  0.47310100  1
  Mg  Mg6  1  0.26722100  0.92847700  0.02689900  1
  Mg  Mg7  1  0.76722100  0.57152300  0.47310100  1
  Mg  Mg8  1  0.73277900  0.07152300  0.97310100  1
  Mg  Mg9  1  0.23277900  0.42847700  0.52689900  1
  Mg  Mg10  1  0.73277900  0.42847700  0.97310100  1
  Mg  Mg11  1  0.26722100  0.57152300  0.02689900  1
  Mg  Mg12  1  0.25613500  0.25000000  0.69711100  1
  Mg  Mg13  1  0.74386500  0.75000000  0.30288900  1
  Mg  Mg14  1  0.24386500  0.75000000  0.19711100  1
  Mg  Mg15  1  0.75613500  0.25000000  0.80288900  1
  Mo  Mo16  1  0.29539100  0.53387100  0.33424100  1
  Mo  Mo17  1  0.70460900  0.46612900  0.66575900  1
  Mo  Mo18  1  0.20460900  0.46612900  0.83424100  1
  Mo  Mo19  1  0.70460900  0.03387100  0.66575900  1
  Mo  Mo20  1  0.79539100  0.53387100  0.16575900  1
  Mo  Mo21  1  0.29539100  0.96612900  0.33424100  1
  Mo  Mo22  1  0.79539100  0.96612900  0.16575900  1
  Mo  Mo23  1  0.20460900  0.03387100  0.83424100  1
  Mo  Mo24  1  0.27048600  0.25000000  0.05483500  1
  Mo  Mo25  1  0.72951400  0.75000000  0.94516500  1
  Mo  Mo26  1  0.22951400  0.75000000  0.55483500  1
  Mo  Mo27  1  0.77048600  0.25000000  0.44516500  1
  O  O28  1  0.05589200  0.25000000  0.50591700  1
  O  O29  1  0.94410800  0.75000000  0.49408300  1
  O  O30  1  0.44410800  0.75000000  0.00591700  1
  O  O31  1  0.55589200  0.25000000  0.99408300  1
  O  O32  1  0.07917600  0.11485500  0.03668100  1
  O  O33  1  0.92082400  0.88514500  0.96331900  1
  O  O34  1  0.42082400  0.88514500  0.53668100  1
  O  O35  1  0.92082400  0.61485500  0.96331900  1
  O  O36  1  0.57917600  0.11485500  0.46331900  1
  O  O37  1  0.07917600  0.38514500  0.03668100  1
  O  O38  1  0.57917600  0.38514500  0.46331900  1
  O  O39  1  0.42082400  0.61485500  0.53668100  1
  O  O40  1  0.09179500  0.00194100  0.42363100  1
  O  O41  1  0.90820500  0.99805900  0.57636900  1
  O  O42  1  0.40820500  0.99805900  0.92363100  1
  O  O43  1  0.90820500  0.50194100  0.57636900  1
  O  O44  1  0.59179500  0.00194100  0.07636900  1
  O  O45  1  0.09179500  0.49805900  0.42363100  1
  O  O46  1  0.59179500  0.49805900  0.07636900  1
  O  O47  1  0.40820500  0.50194100  0.92363100  1
  O  O48  1  0.32860400  0.12221800  0.29130600  1
  O  O49  1  0.67139600  0.87778200  0.70869400  1
  O  O50  1  0.17139600  0.87778200  0.79130600  1
  O  O51  1  0.67139600  0.62221800  0.70869400  1
  O  O52  1  0.82860400  0.12221800  0.20869400  1
  O  O53  1  0.32860400  0.37778200  0.29130600  1
  O  O54  1  0.82860400  0.37778200  0.20869400  1
  O  O55  1  0.17139600  0.62221800  0.79130600  1
  O  O56  1  0.33561600  0.25000000  0.15581300  1
  O  O57  1  0.66438400  0.75000000  0.84418700  1
  O  O58  1  0.16438400  0.75000000  0.65581300  1
  O  O59  1  0.83561600  0.25000000  0.34418700  1
  O  O60  1  0.04497400  0.62625800  0.27593000  1
  O  O61  1  0.95502600  0.37374200  0.72407000  1
  O  O62  1  0.45502600  0.37374200  0.77593000  1
  O  O63  1  0.95502600  0.12625800  0.72407000  1
  O  O64  1  0.54497400  0.62625800  0.22407000  1
  O  O65  1  0.04497400  0.87374200  0.27593000  1
  O  O66  1  0.54497400  0.87374200  0.22407000  1
  O  O67  1  0.45502600  0.12625800  0.77593000  1
  O  O68  1  0.05994700  0.62279000  0.12041000  1
  O  O69  1  0.94005300  0.37721000  0.87959000  1
  O  O70  1  0.44005300  0.37721000  0.62041000  1
  O  O71  1  0.94005300  0.12279000  0.87959000  1
  O  O72  1  0.55994700  0.62279000  0.37959000  1
  O  O73  1  0.05994700  0.87721000  0.12041000  1
  O  O74  1  0.55994700  0.87721000  0.37959000  1
  O  O75  1  0.44005300  0.12279000  0.62041000  1
