# generated using pymatgen
data_KSm(WO4)2
_symmetry_space_group_name_H-M   'P 1'
_cell_length_a   7.48334652
_cell_length_b   7.48334652
_cell_length_c   7.55997917
_cell_angle_alpha   66.41966522
_cell_angle_beta   66.41966522
_cell_angle_gamma   93.13890651
_symmetry_Int_Tables_number   1
_chemical_formula_structural   KSm(WO4)2
_chemical_formula_sum   'K2 Sm2 W4 O16'
_cell_volume   343.79043533
_cell_formula_units_Z   2
loop_
 _symmetry_equiv_pos_site_id
 _symmetry_equiv_pos_as_xyz
  1  'x, y, z'
loop_
 _atom_site_type_symbol
 _atom_site_label
 _atom_site_symmetry_multiplicity
 _atom_site_fract_x
 _atom_site_fract_y
 _atom_site_fract_z
 _atom_site_occupancy
  K  K0  1  0.68861900  0.68861900  0.47352300  1
  K  K1  1  0.31138100  0.31138100  0.52647700  1
  Sm  Sm2  1  0.69944600  0.30055400  0.00000000  1
  Sm  Sm3  1  0.30055400  0.69944600  0.00000000  1
  W  W4  1  0.20529400  0.20529400  0.05500800  1
  W  W5  1  0.79470600  0.79470600  0.94499200  1
  W  W6  1  0.83788800  0.16211200  0.50000000  1
  W  W7  1  0.16211200  0.83788800  0.50000000  1
  O  O8  1  0.34914400  0.09555700  0.25895500  1
  O  O9  1  0.65085600  0.90444300  0.74104500  1
  O  O10  1  0.90444300  0.65085600  0.74104500  1
  O  O11  1  0.09555700  0.34914400  0.25895500  1
  O  O12  1  0.69171800  0.21673200  0.35053800  1
  O  O13  1  0.30828200  0.78326800  0.64946200  1
  O  O14  1  0.78326800  0.30828200  0.64946200  1
  O  O15  1  0.21673200  0.69171800  0.35053800  1
  O  O16  1  0.70540700  0.96228200  0.06396600  1
  O  O17  1  0.29459300  0.03771800  0.93603400  1
  O  O18  1  0.03771800  0.29459300  0.93603400  1
  O  O19  1  0.96228200  0.70540700  0.06396600  1
  O  O20  1  0.98320300  0.98320300  0.34428100  1
  O  O21  1  0.01679700  0.01679700  0.65571900  1
  O  O22  1  0.57104100  0.57104100  0.11118000  1
  O  O23  1  0.42895900  0.42895900  0.88882000  1
