# generated using pymatgen
data_NaCNO2
_symmetry_space_group_name_H-M   'P 1'
_cell_length_a   4.17680139
_cell_length_b   7.29457874
_cell_length_c   10.17366500
_cell_angle_alpha   90.00000000
_cell_angle_beta   90.00000000
_cell_angle_gamma   114.46924122
_symmetry_Int_Tables_number   1
_chemical_formula_structural   NaCNO2
_chemical_formula_sum   'Na4 C4 N4 O8'
_cell_volume   282.13083815
_cell_formula_units_Z   4
loop_
 _symmetry_equiv_pos_site_id
 _symmetry_equiv_pos_as_xyz
  1  'x, y, z'
loop_
 _atom_site_type_symbol
 _atom_site_label
 _atom_site_symmetry_multiplicity
 _atom_site_fract_x
 _atom_site_fract_y
 _atom_site_fract_z
 _atom_site_occupancy
  Na  Na0  1  0.89141900  0.56336900  0.76922400  1
  Na  Na1  1  0.10858100  0.43663100  0.23077600  1
  Na  Na2  1  0.10858100  0.93663100  0.26922400  1
  Na  Na3  1  0.89141900  0.06336900  0.73077600  1
  C  C4  1  0.59245900  0.74664800  0.01738400  1
  C  C5  1  0.40754100  0.25335200  0.98261600  1
  C  C6  1  0.40754100  0.75335200  0.51738400  1
  C  C7  1  0.59245900  0.24664800  0.48261600  1
  N  N8  1  0.75660100  0.81053600  0.90652700  1
  N  N9  1  0.24339900  0.18946400  0.09347300  1
  N  N10  1  0.24339900  0.68946400  0.40652700  1
  N  N11  1  0.75660100  0.31053600  0.59347300  1
  O  O12  1  0.69476500  0.78220000  0.44334300  1
  O  O13  1  0.30523500  0.21780000  0.55665700  1
  O  O14  1  0.30523500  0.71780000  0.94334300  1
  O  O15  1  0.69476500  0.28220000  0.05665700  1
  O  O16  1  0.37399800  0.78492900  0.63549300  1
  O  O17  1  0.62600200  0.21507100  0.36450700  1
  O  O18  1  0.62600200  0.71507100  0.13549300  1
  O  O19  1  0.37399800  0.28492900  0.86450700  1
