# generated using pymatgen
data_Na3Ca4TiSi4(O8F)2
_symmetry_space_group_name_H-M   'P 1'
_cell_length_a   5.68992900
_cell_length_b   7.45843400
_cell_length_c   18.81919740
_cell_angle_alpha   89.97792405
_cell_angle_beta   90.00000000
_cell_angle_gamma   90.00000000
_symmetry_Int_Tables_number   1
_chemical_formula_structural   Na3Ca4TiSi4(O8F)2
_chemical_formula_sum   'Na6 Ca8 Ti2 Si8 O32 F4'
_cell_volume   798.64828541
_cell_formula_units_Z   2
loop_
 _symmetry_equiv_pos_site_id
 _symmetry_equiv_pos_as_xyz
  1  'x, y, z'
loop_
 _atom_site_type_symbol
 _atom_site_label
 _atom_site_symmetry_multiplicity
 _atom_site_fract_x
 _atom_site_fract_y
 _atom_site_fract_z
 _atom_site_occupancy
  Na  Na0  1  0.34884500  0.62310200  0.24929800  1
  Na  Na1  1  0.84884500  0.37689800  0.75070200  1
  Na  Na2  1  0.84760000  0.85876000  0.24595600  1
  Na  Na3  1  0.34760000  0.14124000  0.75404400  1
  Na  Na4  1  0.34070700  0.61230000  0.75291200  1
  Na  Na5  1  0.84070700  0.38770000  0.24708800  1
  Ca  Ca6  1  0.18290700  0.87702600  0.55218000  1
  Ca  Ca7  1  0.68290700  0.12297400  0.44782000  1
  Ca  Ca8  1  0.00044900  0.62791400  0.06172800  1
  Ca  Ca9  1  0.50044900  0.37208600  0.93827200  1
  Ca  Ca10  1  0.19919500  0.37391300  0.56554900  1
  Ca  Ca11  1  0.69919500  0.62608700  0.43445100  1
  Ca  Ca12  1  0.50048200  0.87607700  0.93999900  1
  Ca  Ca13  1  0.00048200  0.12392300  0.06000100  1
  Ti  Ti14  1  0.31086200  0.12310300  0.23648600  1
  Ti  Ti15  1  0.81086200  0.87689700  0.76351400  1
  Si  Si16  1  0.49516000  0.40870700  0.10857800  1
  Si  Si17  1  0.99516000  0.59129300  0.89142200  1
  Si  Si18  1  0.19984300  0.84046300  0.38777600  1
  Si  Si19  1  0.69984300  0.15953700  0.61222400  1
  Si  Si20  1  0.20220200  0.40770200  0.39133400  1
  Si  Si21  1  0.70220200  0.59229800  0.60866600  1
  Si  Si22  1  0.49582300  0.84076600  0.11036100  1
  Si  Si23  1  0.99582300  0.15923400  0.88963900  1
  O  O24  1  0.48820000  0.93578400  0.18881600  1
  O  O25  1  0.98820000  0.06421600  0.81118400  1
  O  O26  1  0.73907600  0.88180600  0.06795700  1
  O  O27  1  0.23907600  0.11819400  0.93204300  1
  O  O28  1  0.73754700  0.36910600  0.06538900  1
  O  O29  1  0.23754700  0.63089400  0.93461100  1
  O  O30  1  0.48545200  0.31018200  0.18627600  1
  O  O31  1  0.98545200  0.68981800  0.81372400  1
  O  O32  1  0.07746700  0.86052600  0.67953100  1
  O  O33  1  0.57746700  0.13947400  0.32046900  1
  O  O34  1  0.22221300  0.93703900  0.30953800  1
  O  O35  1  0.72221300  0.06296100  0.69046200  1
  O  O36  1  0.49259800  0.62416400  0.13028000  1
  O  O37  1  0.99259800  0.37583600  0.86972000  1
  O  O38  1  0.24276000  0.30877200  0.31329000  1
  O  O39  1  0.74276000  0.69122800  0.68671000  1
  O  O40  1  0.44623400  0.64105800  0.57579300  1
  O  O41  1  0.94623400  0.35894200  0.42420700  1
  O  O42  1  0.04523500  0.12793400  0.19076000  1
  O  O43  1  0.54523500  0.87206600  0.80924000  1
  O  O44  1  0.26988100  0.37016400  0.05727500  1
  O  O45  1  0.76988100  0.62983600  0.94272500  1
  O  O46  1  0.95341600  0.88594800  0.42797900  1
  O  O47  1  0.45341600  0.11405200  0.57202100  1
  O  O48  1  0.41375300  0.37753600  0.44818200  1
  O  O49  1  0.91375300  0.62246400  0.55181800  1
  O  O50  1  0.41985500  0.87524800  0.44110000  1
  O  O51  1  0.91985500  0.12475200  0.55890000  1
  O  O52  1  0.19712200  0.62274200  0.36772000  1
  O  O53  1  0.69712200  0.37725800  0.63228000  1
  O  O54  1  0.27062200  0.88173200  0.05977400  1
  O  O55  1  0.77062200  0.11826800  0.94022600  1
  F  F56  1  0.68902200  0.62606900  0.31381600  1
  F  F57  1  0.18902200  0.37393100  0.68618400  1
  F  F58  1  0.00647200  0.62148400  0.18354100  1
  F  F59  1  0.50647200  0.37851600  0.81645900  1
