# generated using pymatgen
data_LaTi4Mn3O12
_symmetry_space_group_name_H-M   'P 1'
_cell_length_a   6.62376759
_cell_length_b   6.62376759
_cell_length_c   10.81656718
_cell_angle_alpha   90.00000000
_cell_angle_beta   90.00000000
_cell_angle_gamma   109.47122063
_symmetry_Int_Tables_number   1
_chemical_formula_structural   LaTi4Mn3O12
_chemical_formula_sum   'La2 Ti8 Mn6 O24'
_cell_volume   447.42820945
_cell_formula_units_Z   2
loop_
 _symmetry_equiv_pos_site_id
 _symmetry_equiv_pos_as_xyz
  1  'x, y, z'
loop_
 _atom_site_type_symbol
 _atom_site_label
 _atom_site_symmetry_multiplicity
 _atom_site_fract_x
 _atom_site_fract_y
 _atom_site_fract_z
 _atom_site_occupancy
  La  La0  1  0.00000000  0.00000000  0.00000000  1
  La  La1  1  0.50000000  0.50000000  0.50000000  1
  Ti  Ti2  1  0.25000000  0.25000000  0.25000000  1
  Ti  Ti3  1  0.75000000  0.75000000  0.75000000  1
  Ti  Ti4  1  0.50000000  0.00000000  0.00000000  1
  Ti  Ti5  1  0.00000000  0.50000000  0.50000000  1
  Ti  Ti6  1  0.00000000  0.50000000  0.00000000  1
  Ti  Ti7  1  0.50000000  0.00000000  0.50000000  1
  Ti  Ti8  1  0.75000000  0.75000000  0.25000000  1
  Ti  Ti9  1  0.25000000  0.25000000  0.75000000  1
  Mn  Mn10  1  0.75000000  0.25000000  0.75000000  1
  Mn  Mn11  1  0.75000000  0.25000000  0.25000000  1
  Mn  Mn12  1  0.25000000  0.75000000  0.75000000  1
  Mn  Mn13  1  0.50000000  0.50000000  0.00000000  1
  Mn  Mn14  1  0.00000000  0.00000000  0.50000000  1
  Mn  Mn15  1  0.25000000  0.75000000  0.25000000  1
  O  O16  1  0.55123100  0.44876900  0.25770800  1
  O  O17  1  0.05123100  0.94876900  0.75770800  1
  O  O18  1  0.94876900  0.05123100  0.24229200  1
  O  O19  1  0.44876900  0.55123100  0.74229200  1
  O  O20  1  0.74229200  0.25770800  0.44876900  1
  O  O21  1  0.24229200  0.75770800  0.94876900  1
  O  O22  1  0.75770800  0.24229200  0.05123100  1
  O  O23  1  0.25770800  0.74229200  0.55123100  1
  O  O24  1  0.30200700  0.11094600  0.40446900  1
  O  O25  1  0.80200700  0.61094600  0.90446900  1
  O  O26  1  0.19799300  0.38905400  0.09553100  1
  O  O27  1  0.69799300  0.88905400  0.59553100  1
  O  O28  1  0.61094600  0.80200700  0.09553100  1
  O  O29  1  0.11094600  0.30200700  0.59553100  1
  O  O30  1  0.88905400  0.69799300  0.40446900  1
  O  O31  1  0.38905400  0.19799300  0.90446900  1
  O  O32  1  0.16217700  0.45570100  0.35323800  1
  O  O33  1  0.66217700  0.95570100  0.85323800  1
  O  O34  1  0.33782300  0.04429900  0.14676200  1
  O  O35  1  0.83782300  0.54429900  0.64676200  1
  O  O36  1  0.95570100  0.66217700  0.14676200  1
  O  O37  1  0.45570100  0.16217700  0.64676200  1
  O  O38  1  0.54429900  0.83782300  0.35323800  1
  O  O39  1  0.04429900  0.33782300  0.85323800  1
