# generated using pymatgen
data_Lu2MoO6
_symmetry_space_group_name_H-M   'P 1'
_cell_length_a   9.77822930
_cell_length_b   9.77822930
_cell_length_c   5.30642849
_cell_angle_alpha   74.92613023
_cell_angle_beta   74.92613023
_cell_angle_gamma   67.84260885
_symmetry_Int_Tables_number   1
_chemical_formula_structural   Lu2MoO6
_chemical_formula_sum   'Lu8 Mo4 O24'
_cell_volume   446.22561590
_cell_formula_units_Z   4
loop_
 _symmetry_equiv_pos_site_id
 _symmetry_equiv_pos_as_xyz
  1  'x, y, z'
loop_
 _atom_site_type_symbol
 _atom_site_label
 _atom_site_symmetry_multiplicity
 _atom_site_fract_x
 _atom_site_fract_y
 _atom_site_fract_z
 _atom_site_occupancy
  Lu  Lu0  1  0.63770100  0.36229900  0.75000000  1
  Lu  Lu1  1  0.36229900  0.63770100  0.25000000  1
  Lu  Lu2  1  0.10504500  0.89495500  0.75000000  1
  Lu  Lu3  1  0.89495500  0.10504500  0.25000000  1
  Lu  Lu4  1  0.71834400  0.94746900  0.87772800  1
  Lu  Lu5  1  0.28165600  0.05253100  0.12227200  1
  Lu  Lu6  1  0.05253100  0.28165600  0.62227200  1
  Lu  Lu7  1  0.94746900  0.71834400  0.37772800  1
  Mo  Mo8  1  0.51133700  0.79666600  0.56236300  1
  Mo  Mo9  1  0.48866300  0.20333400  0.43763700  1
  Mo  Mo10  1  0.20333400  0.48866300  0.93763700  1
  Mo  Mo11  1  0.79666600  0.51133700  0.06236300  1
  O  O12  1  0.69505200  0.16071200  0.58384600  1
  O  O13  1  0.30494800  0.83928800  0.41615400  1
  O  O14  1  0.83928800  0.30494800  0.91615400  1
  O  O15  1  0.16071200  0.69505200  0.08384600  1
  O  O16  1  0.38121300  0.82443900  0.87850300  1
  O  O17  1  0.61878700  0.17556100  0.12149700  1
  O  O18  1  0.17556100  0.61878700  0.62149700  1
  O  O19  1  0.82443900  0.38121300  0.37850300  1
  O  O20  1  0.68709500  0.78768400  0.63841400  1
  O  O21  1  0.31290500  0.21231600  0.36158600  1
  O  O22  1  0.21231600  0.31290500  0.86158600  1
  O  O23  1  0.78768400  0.68709500  0.13841400  1
  O  O24  1  0.47626200  0.06325700  0.74802400  1
  O  O25  1  0.52373800  0.93674300  0.25197600  1
  O  O26  1  0.93674300  0.52373800  0.75197600  1
  O  O27  1  0.06325700  0.47626200  0.24802400  1
  O  O28  1  0.54723400  0.60809200  0.51635300  1
  O  O29  1  0.45276600  0.39190800  0.48364700  1
  O  O30  1  0.39190800  0.45276600  0.98364700  1
  O  O31  1  0.60809200  0.54723400  0.01635300  1
  O  O32  1  0.88980000  0.92784200  0.07948800  1
  O  O33  1  0.11020000  0.07215800  0.92051200  1
  O  O34  1  0.07215800  0.11020000  0.42051200  1
  O  O35  1  0.92784200  0.88980000  0.57948800  1
