# generated using pymatgen
data_KPbI3
_symmetry_space_group_name_H-M   'P 1'
_cell_length_a   4.78211700
_cell_length_b   10.56747900
_cell_length_c   17.45812300
_cell_angle_alpha   90.00000000
_cell_angle_beta   90.00000000
_cell_angle_gamma   90.00000000
_symmetry_Int_Tables_number   1
_chemical_formula_structural   KPbI3
_chemical_formula_sum   'K4 Pb4 I12'
_cell_volume   882.24486614
_cell_formula_units_Z   4
loop_
 _symmetry_equiv_pos_site_id
 _symmetry_equiv_pos_as_xyz
  1  'x, y, z'
loop_
 _atom_site_type_symbol
 _atom_site_label
 _atom_site_symmetry_multiplicity
 _atom_site_fract_x
 _atom_site_fract_y
 _atom_site_fract_z
 _atom_site_occupancy
  K  K0  1  0.25000000  0.93313600  0.17646000  1
  K  K1  1  0.75000000  0.06686400  0.82354000  1
  K  K2  1  0.75000000  0.56686400  0.67646000  1
  K  K3  1  0.25000000  0.43313600  0.32354000  1
  Pb  Pb4  1  0.25000000  0.66678500  0.94146400  1
  Pb  Pb5  1  0.75000000  0.33321500  0.05853600  1
  Pb  Pb6  1  0.75000000  0.83321500  0.44146400  1
  Pb  Pb7  1  0.25000000  0.16678500  0.55853600  1
  I  I8  1  0.25000000  0.52481800  0.11325300  1
  I  I9  1  0.75000000  0.47518200  0.88674700  1
  I  I10  1  0.75000000  0.97518200  0.61325300  1
  I  I11  1  0.25000000  0.02481800  0.38674700  1
  I  I12  1  0.25000000  0.65627900  0.50938400  1
  I  I13  1  0.75000000  0.34372100  0.49061600  1
  I  I14  1  0.75000000  0.84372100  0.00938400  1
  I  I15  1  0.25000000  0.15627900  0.99061600  1
  I  I16  1  0.25000000  0.79507500  0.78066000  1
  I  I17  1  0.75000000  0.20492500  0.21934000  1
  I  I18  1  0.75000000  0.70492500  0.28066000  1
  I  I19  1  0.25000000  0.29507500  0.71934000  1
