# generated using pymatgen
data_KMgH(CO5)2
_symmetry_space_group_name_H-M   'P 1'
_cell_length_a   5.13322100
_cell_length_b   6.52739994
_cell_length_c   6.88429522
_cell_angle_alpha   63.56421263
_cell_angle_beta   82.23103049
_cell_angle_gamma   77.43085937
_symmetry_Int_Tables_number   1
_chemical_formula_structural   KMgH(CO5)2
_chemical_formula_sum   'K1 Mg1 H1 C2 O10'
_cell_volume   201.40527106
_cell_formula_units_Z   1
loop_
 _symmetry_equiv_pos_site_id
 _symmetry_equiv_pos_as_xyz
  1  'x, y, z'
loop_
 _atom_site_type_symbol
 _atom_site_label
 _atom_site_symmetry_multiplicity
 _atom_site_fract_x
 _atom_site_fract_y
 _atom_site_fract_z
 _atom_site_occupancy
  K  K0  1  0.00000000  0.50000000  0.00000000  1
  Mg  Mg1  1  0.50000000  0.00000000  0.50000000  1
  H  H2  1  0.00000000  0.00000000  0.00000000  1
  C  C3  1  0.65931100  0.20592500  0.79720000  1
  C  C4  1  0.34068900  0.79407500  0.20280000  1
  O  O5  1  0.83897900  0.17823900  0.92544800  1
  O  O6  1  0.16102100  0.82176100  0.07455200  1
  O  O7  1  0.59860600  0.63469400  0.74478700  1
  O  O8  1  0.40139400  0.36530600  0.25521300  1
  O  O9  1  0.48129500  0.39896100  0.72518000  1
  O  O10  1  0.51870500  0.60103900  0.27482000  1
  O  O11  1  0.79840900  0.71167800  0.59958800  1
  O  O12  1  0.20159100  0.28832200  0.40041200  1
  O  O13  1  0.63637200  0.05249200  0.73629500  1
  O  O14  1  0.36362800  0.94750800  0.26370500  1
