# generated using pymatgen
data_Re6Se8O7F6
_symmetry_space_group_name_H-M   'P 1'
_cell_length_a   11.52325790
_cell_length_b   11.52325790
_cell_length_c   10.95216803
_cell_angle_alpha   66.23548543
_cell_angle_beta   66.23548543
_cell_angle_gamma   65.70877491
_symmetry_Int_Tables_number   1
_chemical_formula_structural   Re6Se8O7F6
_chemical_formula_sum   'Re12 Se16 O14 F12'
_cell_volume   1163.06294353
_cell_formula_units_Z   2
loop_
 _symmetry_equiv_pos_site_id
 _symmetry_equiv_pos_as_xyz
  1  'x, y, z'
loop_
 _atom_site_type_symbol
 _atom_site_label
 _atom_site_symmetry_multiplicity
 _atom_site_fract_x
 _atom_site_fract_y
 _atom_site_fract_z
 _atom_site_occupancy
  Re  Re0  1  0.31588900  0.05648900  0.55038500  1
  Re  Re1  1  0.68411100  0.94351100  0.44961500  1
  Re  Re2  1  0.94351100  0.68411100  0.94961500  1
  Re  Re3  1  0.05648900  0.31588900  0.05038500  1
  Re  Re4  1  0.49862400  0.85023600  0.65513000  1
  Re  Re5  1  0.50137600  0.14976400  0.34487000  1
  Re  Re6  1  0.14976400  0.50137600  0.84487000  1
  Re  Re7  1  0.85023600  0.49862400  0.15513000  1
  Re  Re8  1  0.49301600  0.10709800  0.60558800  1
  Re  Re9  1  0.50698400  0.89290200  0.39441200  1
  Re  Re10  1  0.89290200  0.50698400  0.89441200  1
  Re  Re11  1  0.10709800  0.49301600  0.10558800  1
  Se  Se12  1  0.36963900  0.97441300  0.84004900  1
  Se  Se13  1  0.63036100  0.02558700  0.15995100  1
  Se  Se14  1  0.02558700  0.63036100  0.65995100  1
  Se  Se15  1  0.97441300  0.36963900  0.34004900  1
  Se  Se16  1  0.31212600  0.29044100  0.51535200  1
  Se  Se17  1  0.68787400  0.70955900  0.48464800  1
  Se  Se18  1  0.70955900  0.68787400  0.98464800  1
  Se  Se19  1  0.29044100  0.31212600  0.01535200  1
  Se  Se20  1  0.31658500  0.82442100  0.59701500  1
  Se  Se21  1  0.68341500  0.17557900  0.40298500  1
  Se  Se22  1  0.17557900  0.68341500  0.90298500  1
  Se  Se23  1  0.82442100  0.31658500  0.09701500  1
  Se  Se24  1  0.68053300  0.90145300  0.68981100  1
  Se  Se25  1  0.31946700  0.09854700  0.31018900  1
  Se  Se26  1  0.09854700  0.31946700  0.81018900  1
  Se  Se27  1  0.90145300  0.68053300  0.18981100  1
  O  O28  1  0.62287200  0.37712800  0.75000000  1
  O  O29  1  0.37712800  0.62287200  0.25000000  1
  O  O30  1  0.95491100  0.04279300  0.52638300  1
  O  O31  1  0.04508900  0.95720700  0.47361700  1
  O  O32  1  0.95720700  0.04508900  0.97361700  1
  O  O33  1  0.04279300  0.95491100  0.02638300  1
  O  O34  1  0.56049900  0.08744100  0.03010400  1
  O  O35  1  0.43950100  0.91255900  0.96989600  1
  O  O36  1  0.91255900  0.43950100  0.46989600  1
  O  O37  1  0.08744100  0.56049900  0.53010400  1
  O  O38  1  0.65417100  0.30254400  0.86321300  1
  O  O39  1  0.34582900  0.69745600  0.13678700  1
  O  O40  1  0.69745600  0.34582900  0.63678700  1
  O  O41  1  0.30254400  0.65417100  0.36321300  1
  F  F42  1  0.49461700  0.21082800  0.70659900  1
  F  F43  1  0.50538300  0.78917200  0.29340100  1
  F  F44  1  0.78917200  0.50538300  0.79340100  1
  F  F45  1  0.21082800  0.49461700  0.20659900  1
  F  F46  1  0.50786800  0.68466700  0.80375900  1
  F  F47  1  0.49213200  0.31533300  0.19624100  1
  F  F48  1  0.31533300  0.49213200  0.69624100  1
  F  F49  1  0.68466700  0.50786800  0.30375900  1
  F  F50  1  0.90412700  0.86097800  0.82295400  1
  F  F51  1  0.09587300  0.13902200  0.17704600  1
  F  F52  1  0.13902200  0.09587300  0.67704600  1
  F  F53  1  0.86097800  0.90412700  0.32295400  1
