# generated using pymatgen
data_HgCN2Cl2O
_symmetry_space_group_name_H-M   'P 1'
_cell_length_a   7.40741400
_cell_length_b   9.31943404
_cell_length_c   11.06435331
_cell_angle_alpha   74.69711123
_cell_angle_beta   76.86375363
_cell_angle_gamma   81.76566100
_symmetry_Int_Tables_number   1
_chemical_formula_structural   HgCN2Cl2O
_chemical_formula_sum   'Hg4 C4 N8 Cl8 O4'
_cell_volume   714.62202298
_cell_formula_units_Z   4
loop_
 _symmetry_equiv_pos_site_id
 _symmetry_equiv_pos_as_xyz
  1  'x, y, z'
loop_
 _atom_site_type_symbol
 _atom_site_label
 _atom_site_symmetry_multiplicity
 _atom_site_fract_x
 _atom_site_fract_y
 _atom_site_fract_z
 _atom_site_occupancy
  Hg  Hg0  1  0.71341900  0.15805200  0.48721300  1
  Hg  Hg1  1  0.28658100  0.84194800  0.51278700  1
  Hg  Hg2  1  0.70843400  0.40474200  0.12209700  1
  Hg  Hg3  1  0.29156600  0.59525800  0.87790300  1
  C  C4  1  0.16886600  0.20626100  0.03848800  1
  C  C5  1  0.83113400  0.79373900  0.96151200  1
  C  C6  1  0.19841700  0.25822900  0.37702300  1
  C  C7  1  0.80158300  0.74177100  0.62297700  1
  N  N8  1  0.19871300  0.05403700  0.08965600  1
  N  N9  1  0.80128700  0.94596300  0.91034400  1
  N  N10  1  0.29435200  0.37971600  0.30489900  1
  N  N11  1  0.70564800  0.62028400  0.69510100  1
  N  N12  1  0.22279900  0.10358800  0.96349000  1
  N  N13  1  0.77720100  0.89641200  0.03651000  1
  N  N14  1  0.27622300  0.34670100  0.43113700  1
  N  N15  1  0.72377700  0.65329900  0.56886300  1
  Cl  Cl16  1  0.66805700  0.04805600  0.33138700  1
  Cl  Cl17  1  0.33194300  0.95194400  0.66861300  1
  Cl  Cl18  1  0.34245700  0.70382200  0.03117300  1
  Cl  Cl19  1  0.65754300  0.29617800  0.96882700  1
  Cl  Cl20  1  0.23439600  0.50095500  0.71791000  1
  Cl  Cl21  1  0.76560400  0.49904500  0.28209000  1
  Cl  Cl22  1  0.23905100  0.73292700  0.36055000  1
  Cl  Cl23  1  0.76094900  0.26707300  0.63945000  1
  O  O24  1  0.11604700  0.15250000  0.38485900  1
  O  O25  1  0.88395300  0.84750000  0.61514100  1
  O  O26  1  0.12563700  0.33161700  0.05191700  1
  O  O27  1  0.87436300  0.66838300  0.94808300  1
