# generated using pymatgen
data_KNbPO5
_symmetry_space_group_name_H-M   'P 1'
_cell_length_a   6.61910600
_cell_length_b   11.22134000
_cell_length_c   13.36635500
_cell_angle_alpha   90.00000000
_cell_angle_beta   90.00000000
_cell_angle_gamma   90.00000000
_symmetry_Int_Tables_number   1
_chemical_formula_structural   KNbPO5
_chemical_formula_sum   'K8 Nb8 P8 O40'
_cell_volume   992.78921114
_cell_formula_units_Z   8
loop_
 _symmetry_equiv_pos_site_id
 _symmetry_equiv_pos_as_xyz
  1  'x, y, z'
loop_
 _atom_site_type_symbol
 _atom_site_label
 _atom_site_symmetry_multiplicity
 _atom_site_fract_x
 _atom_site_fract_y
 _atom_site_fract_z
 _atom_site_occupancy
  K  K0  1  0.18856100  0.58943200  0.10243100  1
  K  K1  1  0.81143900  0.08943200  0.89756900  1
  K  K2  1  0.31143900  0.58943200  0.60243100  1
  K  K3  1  0.68856100  0.08943200  0.39756900  1
  K  K4  1  0.77251200  0.32586900  0.12448600  1
  K  K5  1  0.22748800  0.82586900  0.87551400  1
  K  K6  1  0.72748800  0.32586900  0.62448600  1
  K  K7  1  0.27251200  0.82586900  0.37551400  1
  Nb  Nb8  1  0.24930400  0.27329100  0.25334600  1
  Nb  Nb9  1  0.75069600  0.77329100  0.74665400  1
  Nb  Nb10  1  0.25069600  0.27329100  0.75334600  1
  Nb  Nb11  1  0.74930400  0.77329100  0.24665400  1
  Nb  Nb12  1  0.49771100  0.02577200  0.12776100  1
  Nb  Nb13  1  0.50228900  0.52577200  0.87223900  1
  Nb  Nb14  1  0.00228900  0.02577200  0.62776100  1
  Nb  Nb15  1  0.99771100  0.52577200  0.37223900  1
  P  P16  1  0.00234200  0.02485700  0.17991500  1
  P  P17  1  0.99765800  0.52485700  0.82008500  1
  P  P18  1  0.49765800  0.02485700  0.67991500  1
  P  P19  1  0.50234200  0.52485700  0.32008500  1
  P  P20  1  0.33916800  0.27725000  0.00141600  1
  P  P21  1  0.66083200  0.77725000  0.99858400  1
  P  P22  1  0.16083200  0.27725000  0.50141600  1
  P  P23  1  0.83916800  0.77725000  0.49858400  1
  O  O24  1  0.18597000  0.00623100  0.10908000  1
  O  O25  1  0.81403000  0.50623100  0.89092000  1
  O  O26  1  0.31403000  0.00623100  0.60908000  1
  O  O27  1  0.68597000  0.50623100  0.39092000  1
  O  O28  1  0.19854700  0.29366900  0.09435200  1
  O  O29  1  0.80145300  0.79366900  0.90564800  1
  O  O30  1  0.30145300  0.29366900  0.59435200  1
  O  O31  1  0.69854700  0.79366900  0.40564800  1
  O  O32  1  0.03208800  0.39309200  0.48914800  1
  O  O33  1  0.96791200  0.89309200  0.51085200  1
  O  O34  1  0.46791200  0.39309200  0.98914800  1
  O  O35  1  0.53208800  0.89309200  0.01085200  1
  O  O36  1  0.03261600  0.13207400  0.25198000  1
  O  O37  1  0.96738400  0.63207400  0.74802000  1
  O  O38  1  0.46738400  0.13207400  0.75198000  1
  O  O39  1  0.53261600  0.63207400  0.24802000  1
  O  O40  1  0.48872300  0.17116600  0.01609800  1
  O  O41  1  0.51127700  0.67116600  0.98390200  1
  O  O42  1  0.01127700  0.17116600  0.51609800  1
  O  O43  1  0.98872300  0.67116600  0.48390200  1
  O  O44  1  0.31546200  0.55136900  0.38795600  1
  O  O45  1  0.68453800  0.05136900  0.61204400  1
  O  O46  1  0.18453800  0.55136900  0.88795600  1
  O  O47  1  0.81546200  0.05136900  0.11204400  1
  O  O48  1  0.04433000  0.40056700  0.27628600  1
  O  O49  1  0.95567000  0.90056700  0.72371400  1
  O  O50  1  0.45567000  0.40056700  0.77628600  1
  O  O51  1  0.54433000  0.90056700  0.22371400  1
  O  O52  1  0.29902200  0.25511300  0.40915400  1
  O  O53  1  0.70097800  0.75511300  0.59084600  1
  O  O54  1  0.20097800  0.25511300  0.90915400  1
  O  O55  1  0.79902200  0.75511300  0.09084600  1
  O  O56  1  0.47024800  0.41288500  0.25377600  1
  O  O57  1  0.52975200  0.91288500  0.74622400  1
  O  O58  1  0.02975200  0.41288500  0.75377600  1
  O  O59  1  0.97024800  0.91288500  0.24622400  1
  O  O60  1  0.45905500  0.14996100  0.22451100  1
  O  O61  1  0.54094500  0.64996100  0.77548900  1
  O  O62  1  0.04094500  0.14996100  0.72451100  1
  O  O63  1  0.95905500  0.64996100  0.27548900  1
