# generated using pymatgen
data_K3AsF12
_symmetry_space_group_name_H-M   'P 1'
_cell_length_a   7.74499658
_cell_length_b   8.19750703
_cell_length_c   8.35788230
_cell_angle_alpha   119.36725918
_cell_angle_beta   113.81257025
_cell_angle_gamma   34.58453729
_symmetry_Int_Tables_number   1
_chemical_formula_structural   K3AsF12
_chemical_formula_sum   'K3 As1 F12'
_cell_volume   262.49598975
_cell_formula_units_Z   1
loop_
 _symmetry_equiv_pos_site_id
 _symmetry_equiv_pos_as_xyz
  1  'x, y, z'
loop_
 _atom_site_type_symbol
 _atom_site_label
 _atom_site_symmetry_multiplicity
 _atom_site_fract_x
 _atom_site_fract_y
 _atom_site_fract_z
 _atom_site_occupancy
  K  K0  1  0.50000000  0.00000000  0.00000000  1
  K  K1  1  0.00000000  0.50000000  0.50000000  1
  K  K2  1  0.00000000  0.00000000  0.50000000  1
  As  As3  1  0.00000000  0.00000000  0.00000000  1
  F  F4  1  0.92960800  0.23853300  0.87061500  1
  F  F5  1  0.07039200  0.76146700  0.12938500  1
  F  F6  1  0.62352200  0.98746400  0.36999000  1
  F  F7  1  0.07039200  0.63208200  0.87061500  1
  F  F8  1  0.37647800  0.01253600  0.63001000  1
  F  F9  1  0.92960800  0.36791800  0.12938500  1
  F  F10  1  0.28520000  0.72056200  0.83438700  1
  F  F11  1  0.37647800  0.38252600  0.36999000  1
  F  F12  1  0.71480000  0.27943800  0.16561300  1
  F  F13  1  0.62352200  0.61747400  0.63001000  1
  F  F14  1  0.71480000  0.11382500  0.83438700  1
  F  F15  1  0.28520000  0.88617500  0.16561300  1
