# generated using pymatgen
data_NaCrH12(SO4)2
_symmetry_space_group_name_H-M   'P 1'
_cell_length_a   10.07561800
_cell_length_b   10.07561800
_cell_length_c   10.07561800
_cell_angle_alpha   90.00000000
_cell_angle_beta   90.00000000
_cell_angle_gamma   90.00000000
_symmetry_Int_Tables_number   1
_chemical_formula_structural   NaCrH12(SO4)2
_chemical_formula_sum   'Na4 Cr4 H48 S8 O32'
_cell_volume   1022.85737485
_cell_formula_units_Z   4
loop_
 _symmetry_equiv_pos_site_id
 _symmetry_equiv_pos_as_xyz
  1  'x, y, z'
loop_
 _atom_site_type_symbol
 _atom_site_label
 _atom_site_symmetry_multiplicity
 _atom_site_fract_x
 _atom_site_fract_y
 _atom_site_fract_z
 _atom_site_occupancy
  Na  Na0  1  0.00000000  0.00000000  0.00000000  1
  Na  Na1  1  0.50000000  0.00000000  0.50000000  1
  Na  Na2  1  0.00000000  0.50000000  0.50000000  1
  Na  Na3  1  0.50000000  0.50000000  0.00000000  1
  Cr  Cr4  1  0.50000000  0.50000000  0.50000000  1
  Cr  Cr5  1  0.00000000  0.50000000  0.00000000  1
  Cr  Cr6  1  0.50000000  0.00000000  0.00000000  1
  Cr  Cr7  1  0.00000000  0.00000000  0.50000000  1
  H  H8  1  0.01893600  0.95074900  0.27065200  1
  H  H9  1  0.98106400  0.04925100  0.72934800  1
  H  H10  1  0.48106400  0.04925100  0.77065200  1
  H  H11  1  0.98106400  0.45074900  0.22934800  1
  H  H12  1  0.27065200  0.01893600  0.95074900  1
  H  H13  1  0.51893600  0.95074900  0.22934800  1
  H  H14  1  0.01893600  0.54925100  0.77065200  1
  H  H15  1  0.72934800  0.98106400  0.04925100  1
  H  H16  1  0.51893600  0.54925100  0.72934800  1
  H  H17  1  0.77065200  0.48106400  0.04925100  1
  H  H18  1  0.48106400  0.45074900  0.27065200  1
  H  H19  1  0.22934800  0.51893600  0.95074900  1
  H  H20  1  0.22934800  0.98106400  0.45074900  1
  H  H21  1  0.77065200  0.01893600  0.54925100  1
  H  H22  1  0.72934800  0.51893600  0.54925100  1
  H  H23  1  0.27065200  0.48106400  0.45074900  1
  H  H24  1  0.95074900  0.27065200  0.01893600  1
  H  H25  1  0.04925100  0.72934800  0.98106400  1
  H  H26  1  0.45074900  0.22934800  0.98106400  1
  H  H27  1  0.54925100  0.77065200  0.01893600  1
  H  H28  1  0.54925100  0.72934800  0.51893600  1
  H  H29  1  0.45074900  0.27065200  0.48106400  1
  H  H30  1  0.04925100  0.77065200  0.48106400  1
  H  H31  1  0.95074900  0.22934800  0.51893600  1
  H  H32  1  0.28095200  0.48707400  0.37606600  1
  H  H33  1  0.71904800  0.51292600  0.62393400  1
  H  H34  1  0.21904800  0.51292600  0.87606600  1
  H  H35  1  0.71904800  0.98707400  0.12393400  1
  H  H36  1  0.37606600  0.28095200  0.48707400  1
  H  H37  1  0.78095200  0.48707400  0.12393400  1
  H  H38  1  0.28095200  0.01292600  0.87606600  1
  H  H39  1  0.62393400  0.71904800  0.51292600  1
  H  H40  1  0.78095200  0.01292600  0.62393400  1
  H  H41  1  0.87606600  0.21904800  0.51292600  1
  H  H42  1  0.21904800  0.98707400  0.37606600  1
  H  H43  1  0.12393400  0.78095200  0.48707400  1
  H  H44  1  0.12393400  0.71904800  0.98707400  1
  H  H45  1  0.87606600  0.28095200  0.01292600  1
  H  H46  1  0.62393400  0.78095200  0.01292600  1
  H  H47  1  0.37606600  0.21904800  0.98707400  1
  H  H48  1  0.48707400  0.37606600  0.28095200  1
  H  H49  1  0.51292600  0.62393400  0.71904800  1
  H  H50  1  0.98707400  0.12393400  0.71904800  1
  H  H51  1  0.01292600  0.87606600  0.28095200  1
  H  H52  1  0.01292600  0.62393400  0.78095200  1
  H  H53  1  0.98707400  0.37606600  0.21904800  1
  H  H54  1  0.51292600  0.87606600  0.21904800  1
  H  H55  1  0.48707400  0.12393400  0.78095200  1
  S  S56  1  0.18611400  0.18611400  0.18611400  1
  S  S57  1  0.81388600  0.81388600  0.81388600  1
  S  S58  1  0.31388600  0.81388600  0.68611400  1
  S  S59  1  0.81388600  0.68611400  0.31388600  1
  S  S60  1  0.68611400  0.18611400  0.31388600  1
  S  S61  1  0.18611400  0.31388600  0.68611400  1
  S  S62  1  0.68611400  0.31388600  0.81388600  1
  S  S63  1  0.31388600  0.68611400  0.18611400  1
  O  O64  1  0.26971500  0.26971500  0.26971500  1
  O  O65  1  0.73028500  0.73028500  0.73028500  1
  O  O66  1  0.23028500  0.73028500  0.76971500  1
  O  O67  1  0.73028500  0.76971500  0.23028500  1
  O  O68  1  0.76971500  0.26971500  0.23028500  1
  O  O69  1  0.26971500  0.23028500  0.76971500  1
  O  O70  1  0.76971500  0.23028500  0.73028500  1
  O  O71  1  0.23028500  0.76971500  0.26971500  1
  O  O72  1  0.05962600  0.14561700  0.25472000  1
  O  O73  1  0.94037400  0.85438300  0.74528000  1
  O  O74  1  0.44037400  0.85438300  0.75472000  1
  O  O75  1  0.94037400  0.64561700  0.24528000  1
  O  O76  1  0.25472000  0.05962600  0.14561700  1
  O  O77  1  0.55962600  0.14561700  0.24528000  1
  O  O78  1  0.05962600  0.35438300  0.75472000  1
  O  O79  1  0.74528000  0.94037400  0.85438300  1
  O  O80  1  0.55962600  0.35438300  0.74528000  1
  O  O81  1  0.75472000  0.44037400  0.85438300  1
  O  O82  1  0.44037400  0.64561700  0.25472000  1
  O  O83  1  0.24528000  0.55962600  0.14561700  1
  O  O84  1  0.24528000  0.94037400  0.64561700  1
  O  O85  1  0.75472000  0.05962600  0.35438300  1
  O  O86  1  0.74528000  0.55962600  0.35438300  1
  O  O87  1  0.25472000  0.44037400  0.64561700  1
  O  O88  1  0.14561700  0.25472000  0.05962600  1
  O  O89  1  0.85438300  0.74528000  0.94037400  1
  O  O90  1  0.64561700  0.24528000  0.94037400  1
  O  O91  1  0.35438300  0.75472000  0.05962600  1
  O  O92  1  0.35438300  0.74528000  0.55962600  1
  O  O93  1  0.64561700  0.25472000  0.44037400  1
  O  O94  1  0.85438300  0.75472000  0.44037400  1
  O  O95  1  0.14561700  0.24528000  0.55962600  1
