# generated using pymatgen
data_GdNb5Ag2O15
_symmetry_space_group_name_H-M   'P 1'
_cell_length_a   12.69885900
_cell_length_b   12.69885900
_cell_length_c   3.93781700
_cell_angle_alpha   90.00000000
_cell_angle_beta   90.00000000
_cell_angle_gamma   90.00000000
_symmetry_Int_Tables_number   1
_chemical_formula_structural   GdNb5Ag2O15
_chemical_formula_sum   'Gd2 Nb10 Ag4 O30'
_cell_volume   635.01638561
_cell_formula_units_Z   2
loop_
 _symmetry_equiv_pos_site_id
 _symmetry_equiv_pos_as_xyz
  1  'x, y, z'
loop_
 _atom_site_type_symbol
 _atom_site_label
 _atom_site_symmetry_multiplicity
 _atom_site_fract_x
 _atom_site_fract_y
 _atom_site_fract_z
 _atom_site_occupancy
  Gd  Gd0  1  0.00000000  0.00000000  0.50000000  1
  Gd  Gd1  1  0.50000000  0.50000000  0.50000000  1
  Nb  Nb2  1  0.50000000  0.00000000  0.00000000  1
  Nb  Nb3  1  0.00000000  0.50000000  0.00000000  1
  Nb  Nb4  1  0.21162800  0.07823000  0.00000000  1
  Nb  Nb5  1  0.78837200  0.92177000  0.00000000  1
  Nb  Nb6  1  0.07823000  0.78837200  0.00000000  1
  Nb  Nb7  1  0.71162800  0.42177000  0.00000000  1
  Nb  Nb8  1  0.92177000  0.21162800  0.00000000  1
  Nb  Nb9  1  0.28837200  0.57823000  0.00000000  1
  Nb  Nb10  1  0.57823000  0.71162800  0.00000000  1
  Nb  Nb11  1  0.42177000  0.28837200  0.00000000  1
  Ag  Ag12  1  0.67461800  0.17461800  0.50000000  1
  Ag  Ag13  1  0.32538200  0.82538200  0.50000000  1
  Ag  Ag14  1  0.17461800  0.32538200  0.50000000  1
  Ag  Ag15  1  0.82538200  0.67461800  0.50000000  1
  O  O16  1  0.18726200  0.08229800  0.50000000  1
  O  O17  1  0.81273800  0.91770200  0.50000000  1
  O  O18  1  0.08229800  0.81273800  0.50000000  1
  O  O19  1  0.68726200  0.41770200  0.50000000  1
  O  O20  1  0.91770200  0.18726200  0.50000000  1
  O  O21  1  0.31273800  0.58229800  0.50000000  1
  O  O22  1  0.58229800  0.68726200  0.50000000  1
  O  O23  1  0.41770200  0.31273800  0.50000000  1
  O  O24  1  0.22596800  0.72596800  0.00000000  1
  O  O25  1  0.77403200  0.27403200  0.00000000  1
  O  O26  1  0.72596800  0.77403200  0.00000000  1
  O  O27  1  0.27403200  0.22596800  0.00000000  1
  O  O28  1  0.50000000  0.00000000  0.50000000  1
  O  O29  1  0.00000000  0.50000000  0.50000000  1
  O  O30  1  0.05548100  0.13083200  0.00000000  1
  O  O31  1  0.94451900  0.86916800  0.00000000  1
  O  O32  1  0.13083200  0.94451900  0.00000000  1
  O  O33  1  0.55548100  0.36916800  0.00000000  1
  O  O34  1  0.86916800  0.05548100  0.00000000  1
  O  O35  1  0.44451900  0.63083200  0.00000000  1
  O  O36  1  0.63083200  0.55548100  0.00000000  1
  O  O37  1  0.36916800  0.44451900  0.00000000  1
  O  O38  1  0.34114100  0.99995600  0.00000000  1
  O  O39  1  0.65885900  0.00004400  0.00000000  1
  O  O40  1  0.99995600  0.65885900  0.00000000  1
  O  O41  1  0.84114100  0.50004400  0.00000000  1
  O  O42  1  0.00004400  0.34114100  0.00000000  1
  O  O43  1  0.15885900  0.49995600  0.00000000  1
  O  O44  1  0.49995600  0.84114100  0.00000000  1
  O  O45  1  0.50004400  0.15885900  0.00000000  1
