# generated using pymatgen
data_K(SeO3)2
_symmetry_space_group_name_H-M   'P 1'
_cell_length_a   6.30000359
_cell_length_b   6.14781163
_cell_length_c   16.80303900
_cell_angle_alpha   90.00000000
_cell_angle_beta   90.00000000
_cell_angle_gamma   78.66740660
_symmetry_Int_Tables_number   1
_chemical_formula_structural   K(SeO3)2
_chemical_formula_sum   'K4 Se8 O24'
_cell_volume   638.11378461
_cell_formula_units_Z   4
loop_
 _symmetry_equiv_pos_site_id
 _symmetry_equiv_pos_as_xyz
  1  'x, y, z'
loop_
 _atom_site_type_symbol
 _atom_site_label
 _atom_site_symmetry_multiplicity
 _atom_site_fract_x
 _atom_site_fract_y
 _atom_site_fract_z
 _atom_site_occupancy
  K  K0  1  0.22573300  0.24177300  0.00282900  1
  K  K1  1  0.77426700  0.75822700  0.99717100  1
  K  K2  1  0.27426700  0.75822700  0.50282900  1
  K  K3  1  0.72573300  0.24177300  0.49717100  1
  Se  Se4  1  0.19734500  0.28654100  0.35682100  1
  Se  Se5  1  0.80265500  0.71345900  0.64317900  1
  Se  Se6  1  0.30265500  0.71345900  0.85682100  1
  Se  Se7  1  0.69734500  0.28654100  0.14317900  1
  Se  Se8  1  0.20011400  0.23520100  0.67295800  1
  Se  Se9  1  0.79988600  0.76479900  0.32704200  1
  Se  Se10  1  0.29988600  0.76479900  0.17295800  1
  Se  Se11  1  0.70011400  0.23520100  0.82704200  1
  O  O12  1  0.35358400  0.13089900  0.59626500  1
  O  O13  1  0.64641600  0.86910100  0.40373500  1
  O  O14  1  0.14641600  0.86910100  0.09626500  1
  O  O15  1  0.85358400  0.13089900  0.90373500  1
  O  O16  1  0.15524600  0.67229100  0.24396300  1
  O  O17  1  0.84475400  0.32770900  0.75603700  1
  O  O18  1  0.34475400  0.32770900  0.74396300  1
  O  O19  1  0.65524600  0.67229100  0.25603700  1
  O  O20  1  0.10304700  0.09887400  0.41029100  1
  O  O21  1  0.89695300  0.90112600  0.58970900  1
  O  O22  1  0.39695300  0.90112600  0.91029100  1
  O  O23  1  0.60304700  0.09887400  0.08970900  1
  O  O24  1  0.38613900  0.39228200  0.40197600  1
  O  O25  1  0.61386100  0.60771800  0.59802400  1
  O  O26  1  0.11386100  0.60771800  0.90197600  1
  O  O27  1  0.88613900  0.39228200  0.09802400  1
  O  O28  1  0.04845300  0.48752400  0.62230400  1
  O  O29  1  0.95154700  0.51247600  0.37769600  1
  O  O30  1  0.45154700  0.51247600  0.12230400  1
  O  O31  1  0.54845300  0.48752400  0.87769600  1
  O  O32  1  0.24097500  0.21471500  0.26361400  1
  O  O33  1  0.75902500  0.78528500  0.73638600  1
  O  O34  1  0.25902500  0.78528500  0.76361400  1
  O  O35  1  0.74097500  0.21471500  0.23638600  1
