# generated using pymatgen
data_K2U3H4(O3F4)2
_symmetry_space_group_name_H-M   'P 1'
_cell_length_a   8.32649328
_cell_length_b   8.32649328
_cell_length_c   13.35092000
_cell_angle_alpha   90.00000000
_cell_angle_beta   90.00000000
_cell_angle_gamma   118.30245672
_symmetry_Int_Tables_number   1
_chemical_formula_structural   K2U3H4(O3F4)2
_chemical_formula_sum   'K4 U6 H8 O12 F16'
_cell_volume   814.97376457
_cell_formula_units_Z   2
loop_
 _symmetry_equiv_pos_site_id
 _symmetry_equiv_pos_as_xyz
  1  'x, y, z'
loop_
 _atom_site_type_symbol
 _atom_site_label
 _atom_site_symmetry_multiplicity
 _atom_site_fract_x
 _atom_site_fract_y
 _atom_site_fract_z
 _atom_site_occupancy
  K  K0  1  0.63240900  0.65258300  0.25000000  1
  K  K1  1  0.65258300  0.63240900  0.75000000  1
  K  K2  1  0.36811500  0.11034900  0.25000000  1
  K  K3  1  0.11034900  0.36811500  0.75000000  1
  U  U4  1  0.80371800  0.39565700  0.02380200  1
  U  U5  1  0.39565700  0.80371800  0.97619800  1
  U  U6  1  0.39565700  0.80371800  0.52380200  1
  U  U7  1  0.80371800  0.39565700  0.47619800  1
  U  U8  1  0.99135300  0.99135300  0.00000000  1
  U  U9  1  0.99135300  0.99135300  0.50000000  1
  H  H10  1  0.64055100  0.00098100  0.25000000  1
  H  H11  1  0.00098100  0.64055100  0.75000000  1
  H  H12  1  0.25007200  0.38527400  0.25000000  1
  H  H13  1  0.38527400  0.25007200  0.75000000  1
  H  H14  1  0.29819800  0.29819800  0.00000000  1
  H  H15  1  0.29819800  0.29819800  0.50000000  1
  H  H16  1  0.05375900  0.75905600  0.25000000  1
  H  H17  1  0.75905600  0.05375900  0.75000000  1
  O  O18  1  0.93245700  0.41007400  0.13436700  1
  O  O19  1  0.41007400  0.93245700  0.86563300  1
  O  O20  1  0.41007400  0.93245700  0.63436700  1
  O  O21  1  0.93245700  0.41007400  0.36563300  1
  O  O22  1  0.39752700  0.69315700  0.09326200  1
  O  O23  1  0.69315700  0.39752800  0.90673800  1
  O  O24  1  0.69315700  0.39752800  0.59326200  1
  O  O25  1  0.39752700  0.69315700  0.40673800  1
  O  O26  1  0.96133800  0.04692900  0.12695800  1
  O  O27  1  0.04692900  0.96133800  0.87304200  1
  O  O28  1  0.04692900  0.96133800  0.62695800  1
  O  O29  1  0.96133800  0.04692900  0.37304200  1
  F  F30  1  0.85770900  0.69883400  0.05473800  1
  F  F31  1  0.69883400  0.85770900  0.94526200  1
  F  F32  1  0.69883400  0.85770900  0.55473800  1
  F  F33  1  0.85770900  0.69883400  0.44526200  1
  F  F34  1  0.37772800  0.57636400  0.61895400  1
  F  F35  1  0.57636400  0.37772800  0.38104600  1
  F  F36  1  0.57636400  0.37772800  0.11895400  1
  F  F37  1  0.37772800  0.57636400  0.88104600  1
  F  F38  1  0.08429500  0.61263300  0.54737800  1
  F  F39  1  0.61263300  0.08429500  0.45262200  1
  F  F40  1  0.61263300  0.08429500  0.04737800  1
  F  F41  1  0.08429500  0.61263300  0.95262200  1
  F  F42  1  0.96013800  0.23701600  0.55424700  1
  F  F43  1  0.23701600  0.96013800  0.44575300  1
  F  F44  1  0.23701600  0.96013800  0.05424700  1
  F  F45  1  0.96013800  0.23701600  0.94575300  1
