# generated using pymatgen
data_K2Pd3S2
_symmetry_space_group_name_H-M   'P 1'
_cell_length_a   8.24348700
_cell_length_b   6.66824901
_cell_length_c   16.44592495
_cell_angle_alpha   81.08816562
_cell_angle_beta   75.48555783
_cell_angle_gamma   51.82139598
_symmetry_Int_Tables_number   1
_chemical_formula_structural   K2Pd3S2
_chemical_formula_sum   'K8 Pd12 S8'
_cell_volume   687.96346699
_cell_formula_units_Z   4
loop_
 _symmetry_equiv_pos_site_id
 _symmetry_equiv_pos_as_xyz
  1  'x, y, z'
loop_
 _atom_site_type_symbol
 _atom_site_label
 _atom_site_symmetry_multiplicity
 _atom_site_fract_x
 _atom_site_fract_y
 _atom_site_fract_z
 _atom_site_occupancy
  K  K0  1  0.64777200  0.15830800  0.09350300  1
  K  K1  1  0.25872500  0.84169200  0.09350300  1
  K  K2  1  0.19392000  0.15830800  0.90649700  1
  K  K3  1  0.10222800  0.34169200  0.40649700  1
  K  K4  1  0.89958300  0.84169200  0.90649700  1
  K  K5  1  0.49127500  0.65830800  0.40649700  1
  K  K6  1  0.55608000  0.34169200  0.59350300  1
  K  K7  1  0.85041700  0.65830800  0.59350300  1
  Pd  Pd8  1  0.50921100  0.24925800  0.78603800  1
  Pd  Pd9  1  0.70475100  0.75074200  0.78603800  1
  Pd  Pd10  1  0.24153100  0.24925800  0.21396200  1
  Pd  Pd11  1  0.24078900  0.25074200  0.71396200  1
  Pd  Pd12  1  0.54450700  0.75074200  0.21396200  1
  Pd  Pd13  1  0.04524900  0.74925800  0.71396200  1
  Pd  Pd14  1  0.50846900  0.25074200  0.28603800  1
  Pd  Pd15  1  0.20549300  0.74925800  0.28603800  1
  Pd  Pd16  1  0.87500000  0.25000000  0.25000000  1
  Pd  Pd17  1  0.87500000  0.75000000  0.25000000  1
  Pd  Pd18  1  0.87500000  0.25000000  0.75000000  1
  Pd  Pd19  1  0.37500000  0.75000000  0.75000000  1
  S  S20  1  0.83112000  0.45796500  0.11722400  1
  S  S21  1  0.05165500  0.54203500  0.11722400  1
  S  S22  1  0.71091400  0.45796500  0.88277600  1
  S  S23  1  0.91888000  0.04203500  0.38277600  1
  S  S24  1  0.40631000  0.54203500  0.88277600  1
  S  S25  1  0.69834500  0.95796500  0.38277600  1
  S  S26  1  0.03908600  0.04203500  0.61722400  1
  S  S27  1  0.34369000  0.95796500  0.61722400  1
