# generated using pymatgen
data_LaV2O2
_symmetry_space_group_name_H-M   'P 1'
_cell_length_a   8.39783130
_cell_length_b   8.39783130
_cell_length_c   8.39783130
_cell_angle_alpha   118.47724724
_cell_angle_beta   118.47724724
_cell_angle_gamma   92.65836228
_symmetry_Int_Tables_number   1
_chemical_formula_structural   LaV2O2
_chemical_formula_sum   'La4 V8 O8'
_cell_volume   427.92104467
_cell_formula_units_Z   4
loop_
 _symmetry_equiv_pos_site_id
 _symmetry_equiv_pos_as_xyz
  1  'x, y, z'
loop_
 _atom_site_type_symbol
 _atom_site_label
 _atom_site_symmetry_multiplicity
 _atom_site_fract_x
 _atom_site_fract_y
 _atom_site_fract_z
 _atom_site_occupancy
  La  La0  1  0.87500000  0.12500000  0.25000000  1
  La  La1  1  0.87500000  0.62500000  0.75000000  1
  La  La2  1  0.37500000  0.12500000  0.25000000  1
  La  La3  1  0.87500000  0.12500000  0.75000000  1
  V  V4  1  0.56646100  0.39256800  0.82610800  1
  V  V5  1  0.56646100  0.74035300  0.17389200  1
  V  V6  1  0.49035300  0.81646100  0.67389200  1
  V  V7  1  0.18353900  0.50964700  0.32610800  1
  V  V8  1  0.18353900  0.85743200  0.67389200  1
  V  V9  1  0.14256800  0.81646100  0.32610800  1
  V  V10  1  0.25964700  0.43353900  0.82610800  1
  V  V11  1  0.60743200  0.43353900  0.17389200  1
  O  O12  1  0.66641100  0.32679300  0.66038200  1
  O  O13  1  0.66641100  0.00602800  0.33961800  1
  O  O14  1  0.75602800  0.91641100  0.83961800  1
  O  O15  1  0.08358900  0.24397200  0.16038200  1
  O  O16  1  0.08358900  0.92320700  0.83961800  1
  O  O17  1  0.07679300  0.91641100  0.16038200  1
  O  O18  1  0.99397200  0.33358900  0.66038200  1
  O  O19  1  0.67320700  0.33358900  0.33961800  1
