# generated using pymatgen
data_La4Mg
_symmetry_space_group_name_H-M   'P 1'
_cell_length_a   8.25532601
_cell_length_b   8.25532601
_cell_length_c   8.25532601
_cell_angle_alpha   60.00000000
_cell_angle_beta   60.00000000
_cell_angle_gamma   60.00000000
_symmetry_Int_Tables_number   1
_chemical_formula_structural   La4Mg
_chemical_formula_sum   'La8 Mg2'
_cell_volume   397.82098412
_cell_formula_units_Z   2
loop_
 _symmetry_equiv_pos_site_id
 _symmetry_equiv_pos_as_xyz
  1  'x, y, z'
loop_
 _atom_site_type_symbol
 _atom_site_label
 _atom_site_symmetry_multiplicity
 _atom_site_fract_x
 _atom_site_fract_y
 _atom_site_fract_z
 _atom_site_occupancy
  La  La0  1  0.39757300  0.39757300  0.39757300  1
  La  La1  1  0.39757300  0.39757300  0.80728200  1
  La  La2  1  0.39757300  0.80728200  0.39757300  1
  La  La3  1  0.85242700  0.85242700  0.44271800  1
  La  La4  1  0.85242700  0.85242700  0.85242700  1
  La  La5  1  0.80728200  0.39757300  0.39757300  1
  La  La6  1  0.85242700  0.44271800  0.85242700  1
  La  La7  1  0.44271800  0.85242700  0.85242700  1
  Mg  Mg8  1  0.00000000  0.00000000  0.00000000  1
  Mg  Mg9  1  0.25000000  0.25000000  0.25000000  1
