# generated using pymatgen
data_Dy4Rh
_symmetry_space_group_name_H-M   'P 1'
_cell_length_a   7.58914232
_cell_length_b   7.58914232
_cell_length_c   7.58914232
_cell_angle_alpha   60.00000000
_cell_angle_beta   60.00000000
_cell_angle_gamma   60.00000000
_symmetry_Int_Tables_number   1
_chemical_formula_structural   Dy4Rh
_chemical_formula_sum   'Dy8 Rh2'
_cell_volume   309.07444247
_cell_formula_units_Z   2
loop_
 _symmetry_equiv_pos_site_id
 _symmetry_equiv_pos_as_xyz
  1  'x, y, z'
loop_
 _atom_site_type_symbol
 _atom_site_label
 _atom_site_symmetry_multiplicity
 _atom_site_fract_x
 _atom_site_fract_y
 _atom_site_fract_z
 _atom_site_occupancy
  Dy  Dy0  1  0.88929900  0.88929900  0.88929900  1
  Dy  Dy1  1  0.88929900  0.88929900  0.33210400  1
  Dy  Dy2  1  0.88929900  0.33210400  0.88929900  1
  Dy  Dy3  1  0.36070100  0.36070100  0.91789600  1
  Dy  Dy4  1  0.36070100  0.36070100  0.36070100  1
  Dy  Dy5  1  0.33210400  0.88929900  0.88929900  1
  Dy  Dy6  1  0.36070100  0.91789600  0.36070100  1
  Dy  Dy7  1  0.91789600  0.36070100  0.36070100  1
  Rh  Rh8  1  0.50000000  0.50000000  0.50000000  1
  Rh  Rh9  1  0.75000000  0.75000000  0.75000000  1
