# generated using pymatgen
data_HoN7O15
_symmetry_space_group_name_H-M   'P 1'
_cell_length_a   11.34026065
_cell_length_b   11.34026065
_cell_length_c   9.56859500
_cell_angle_alpha   90.00000000
_cell_angle_beta   90.00000000
_cell_angle_gamma   120.00000381
_symmetry_Int_Tables_number   1
_chemical_formula_structural   HoN7O15
_chemical_formula_sum   'Ho3 N21 O45'
_cell_volume   1065.67520630
_cell_formula_units_Z   3
loop_
 _symmetry_equiv_pos_site_id
 _symmetry_equiv_pos_as_xyz
  1  'x, y, z'
loop_
 _atom_site_type_symbol
 _atom_site_label
 _atom_site_symmetry_multiplicity
 _atom_site_fract_x
 _atom_site_fract_y
 _atom_site_fract_z
 _atom_site_occupancy
  Ho  Ho0  1  0.33122800  0.99955000  0.73927200  1
  Ho  Ho1  1  0.00045000  0.33167800  0.07260500  1
  Ho  Ho2  1  0.66832200  0.66877200  0.40593800  1
  N  N3  1  0.10056300  0.36131500  0.78578900  1
  N  N4  1  0.63868500  0.73924800  0.11912200  1
  N  N5  1  0.26075200  0.89943700  0.45245500  1
  N  N6  1  0.08197700  0.00117000  0.74293100  1
  N  N7  1  0.99883000  0.08080700  0.07626400  1
  N  N8  1  0.91919300  0.91802300  0.40959700  1
  N  N9  1  0.24943000  0.58298100  0.13770700  1
  N  N10  1  0.41701900  0.66644900  0.47104000  1
  N  N11  1  0.33355100  0.75057000  0.80437300  1
  N  N12  1  0.45529600  0.45181900  0.90549900  1
  N  N13  1  0.54818100  0.00347700  0.23883300  1
  N  N14  1  0.99652300  0.54470400  0.57216600  1
  N  N15  1  0.58317200  0.25034100  0.68154500  1
  N  N16  1  0.74965900  0.33283000  0.01487800  1
  N  N17  1  0.66717000  0.41682800  0.34821100  1
  N  N18  1  0.36171700  0.09980400  0.03539100  1
  N  N19  1  0.90019600  0.26191400  0.36872400  1
  N  N20  1  0.73808600  0.63828300  0.70205800  1
  N  N21  1  0.72803400  0.00250700  0.74073900  1
  N  N22  1  0.99749300  0.72552700  0.07407200  1
  N  N23  1  0.27447300  0.27196600  0.40740500  1
  O  O24  1  0.33601000  0.15687100  0.93362500  1
  O  O25  1  0.84312900  0.17913900  0.26695800  1
  O  O26  1  0.82086100  0.66399000  0.60029200  1
  O  O27  1  0.37344000  0.14104700  0.15603600  1
  O  O28  1  0.85895300  0.23239300  0.48937000  1
  O  O29  1  0.76760700  0.62656000  0.82270300  1
  O  O30  1  0.57614000  0.13936400  0.72452300  1
  O  O31  1  0.86063600  0.43677600  0.05785600  1
  O  O32  1  0.56322400  0.42386000  0.39118900  1
  O  O33  1  0.00204600  0.37700100  0.33516000  1
  O  O34  1  0.62299900  0.62504600  0.66849300  1
  O  O35  1  0.37495400  0.99795400  0.00182600  1
  O  O36  1  0.46870400  0.24495100  0.66558500  1
  O  O37  1  0.75504900  0.22375300  0.99891800  1
  O  O38  1  0.77624700  0.53129600  0.33225200  1
  O  O39  1  0.08389300  0.18290200  0.14956500  1
  O  O40  1  0.81709800  0.90099100  0.48289900  1
  O  O41  1  0.09900900  0.91610700  0.81623200  1
  O  O42  1  0.14116000  0.37406000  0.66474400  1
  O  O43  1  0.62594000  0.76710000  0.99807700  1
  O  O44  1  0.23290000  0.85884000  0.33141100  1
  O  O45  1  0.15758800  0.33439300  0.88713100  1
  O  O46  1  0.66560700  0.82319500  0.22046500  1
  O  O47  1  0.17680500  0.84241200  0.55379800  1
  O  O48  1  0.64594600  0.33862100  0.99213800  1
  O  O49  1  0.66137900  0.30732500  0.32547100  1
  O  O50  1  0.69267500  0.35405400  0.65880400  1
  O  O51  1  0.13974100  0.57677400  0.09312400  1
  O  O52  1  0.42322600  0.56296600  0.42645800  1
  O  O53  1  0.43703400  0.86025900  0.75979100  1
  O  O54  1  0.02801200  0.02543300  0.40909200  1
  O  O55  1  0.97456700  0.00258000  0.74242500  1
  O  O56  1  0.99742000  0.97198800  0.07575900  1
  O  O57  1  0.99844000  0.37453100  0.82111700  1
  O  O58  1  0.62546900  0.62390900  0.15445100  1
  O  O59  1  0.37609100  0.00156000  0.48778400  1
  O  O60  1  0.33968200  0.64734600  0.82888200  1
  O  O61  1  0.35265400  0.69233600  0.16221500  1
  O  O62  1  0.30766400  0.66031800  0.49554800  1
  O  O63  1  0.18492400  0.08523300  0.66976600  1
  O  O64  1  0.91476700  0.09969200  0.00309900  1
  O  O65  1  0.90030800  0.81507600  0.33643300  1
  O  O66  1  0.24433100  0.46883600  0.15385400  1
  O  O67  1  0.53116400  0.77549500  0.48718700  1
  O  O68  1  0.22450500  0.75566900  0.82052100  1
