# generated using pymatgen
data_Hf3GeO8
_symmetry_space_group_name_H-M   'P 1'
_cell_length_a   6.32077296
_cell_length_b   6.32077296
_cell_length_c   6.32077296
_cell_angle_alpha   133.36453266
_cell_angle_beta   133.36453266
_cell_angle_gamma   68.08224860
_symmetry_Int_Tables_number   1
_chemical_formula_structural   Hf3GeO8
_chemical_formula_sum   'Hf3 Ge1 O8'
_cell_volume   131.14484684
_cell_formula_units_Z   1
loop_
 _symmetry_equiv_pos_site_id
 _symmetry_equiv_pos_as_xyz
  1  'x, y, z'
loop_
 _atom_site_type_symbol
 _atom_site_label
 _atom_site_symmetry_multiplicity
 _atom_site_fract_x
 _atom_site_fract_y
 _atom_site_fract_z
 _atom_site_occupancy
  Hf  Hf0  1  0.25000000  0.75000000  0.50000000  1
  Hf  Hf1  1  0.75000000  0.25000000  0.50000000  1
  Hf  Hf2  1  0.50000000  0.50000000  0.00000000  1
  Ge  Ge3  1  0.00000000  0.00000000  0.00000000  1
  O  O4  1  0.53974000  0.14222400  0.00000000  1
  O  O5  1  0.14222400  0.53974000  0.00000000  1
  O  O6  1  0.85777600  0.85777600  0.39751600  1
  O  O7  1  0.46026000  0.46026000  0.60248400  1
  O  O8  1  0.30498500  0.87402500  0.00000000  1
  O  O9  1  0.87402500  0.30498500  0.00000000  1
  O  O10  1  0.12597500  0.12597500  0.43096000  1
  O  O11  1  0.69501500  0.69501500  0.56904000  1
