# generated using pymatgen
data_Hg2P4PdO8
_symmetry_space_group_name_H-M   'P 1'
_cell_length_a   10.76231620
_cell_length_b   10.04228945
_cell_length_c   9.49508813
_cell_angle_alpha   66.78359167
_cell_angle_beta   59.04120850
_cell_angle_gamma   54.17519983
_symmetry_Int_Tables_number   1
_chemical_formula_structural   Hg2P4PdO8
_chemical_formula_sum   'Hg4 P8 Pd2 O16'
_cell_volume   707.09965171
_cell_formula_units_Z   2
loop_
 _symmetry_equiv_pos_site_id
 _symmetry_equiv_pos_as_xyz
  1  'x, y, z'
loop_
 _atom_site_type_symbol
 _atom_site_label
 _atom_site_symmetry_multiplicity
 _atom_site_fract_x
 _atom_site_fract_y
 _atom_site_fract_z
 _atom_site_occupancy
  Hg  Hg0  1  0.12500000  0.62500000  0.62500000  1
  Hg  Hg1  1  0.62500000  0.62500000  0.12500000  1
  Hg  Hg2  1  0.62500000  0.62500000  0.62500000  1
  Hg  Hg3  1  0.62500000  0.12500000  0.62500000  1
  P  P4  1  0.33009100  0.28833700  0.96498300  1
  P  P5  1  0.96498300  0.41658900  0.33009100  1
  P  P6  1  0.41658900  0.96498300  0.28833700  1
  P  P7  1  0.91990900  0.96166300  0.28501700  1
  P  P8  1  0.28833700  0.33009100  0.41658900  1
  P  P9  1  0.28501700  0.83341100  0.91990900  1
  P  P10  1  0.83341100  0.28501700  0.96166300  1
  P  P11  1  0.96166300  0.91990900  0.83341100  1
  Pd  Pd12  1  0.00000000  0.00000000  0.00000000  1
  Pd  Pd13  1  0.25000000  0.25000000  0.25000000  1
  O  O14  1  0.38614200  0.22637500  0.52419500  1
  O  O15  1  0.52419500  0.86328800  0.38614200  1
  O  O16  1  0.86328800  0.52419500  0.22637500  1
  O  O17  1  0.86385800  0.02362500  0.72580500  1
  O  O18  1  0.22637500  0.38614200  0.86328800  1
  O  O19  1  0.72580500  0.38671200  0.86385800  1
  O  O20  1  0.38671200  0.72580500  0.02362500  1
  O  O21  1  0.02362500  0.86385800  0.38671200  1
  O  O22  1  0.51481700  0.16669300  0.87004600  1
  O  O23  1  0.87004600  0.44844400  0.51481700  1
  O  O24  1  0.44844400  0.87004600  0.16669300  1
  O  O25  1  0.73518300  0.08330700  0.37995400  1
  O  O26  1  0.16669300  0.51481700  0.44844400  1
  O  O27  1  0.37995400  0.80155600  0.73518300  1
  O  O28  1  0.80155600  0.37995400  0.08330700  1
  O  O29  1  0.08330700  0.73518300  0.80155600  1
