# generated using pymatgen
data_Er(PO5)2
_symmetry_space_group_name_H-M   'P 1'
_cell_length_a   6.73713100
_cell_length_b   10.35853400
_cell_length_c   12.63908000
_cell_angle_alpha   90.00000000
_cell_angle_beta   90.00000000
_cell_angle_gamma   90.00000000
_symmetry_Int_Tables_number   1
_chemical_formula_structural   Er(PO5)2
_chemical_formula_sum   'Er4 P8 O40'
_cell_volume   882.04095479
_cell_formula_units_Z   4
loop_
 _symmetry_equiv_pos_site_id
 _symmetry_equiv_pos_as_xyz
  1  'x, y, z'
loop_
 _atom_site_type_symbol
 _atom_site_label
 _atom_site_symmetry_multiplicity
 _atom_site_fract_x
 _atom_site_fract_y
 _atom_site_fract_z
 _atom_site_occupancy
  Er  Er0  1  0.25000000  0.23881100  0.25000000  1
  Er  Er1  1  0.75000000  0.76118900  0.75000000  1
  Er  Er2  1  0.25000000  0.26118900  0.75000000  1
  Er  Er3  1  0.75000000  0.73881100  0.25000000  1
  P  P4  1  0.02841200  0.49815300  0.09275300  1
  P  P5  1  0.97158800  0.50184700  0.90724700  1
  P  P6  1  0.02841200  0.00184700  0.90724700  1
  P  P7  1  0.47158800  0.00184700  0.59275300  1
  P  P8  1  0.97158800  0.99815300  0.09275300  1
  P  P9  1  0.52841200  0.99815300  0.40724700  1
  P  P10  1  0.47158800  0.49815300  0.40724700  1
  P  P11  1  0.52841200  0.50184700  0.59275300  1
  O  O12  1  0.13593000  0.56456200  0.98940800  1
  O  O13  1  0.86407000  0.43543800  0.01059200  1
  O  O14  1  0.13593000  0.93543800  0.01059200  1
  O  O15  1  0.36407000  0.93543800  0.48940800  1
  O  O16  1  0.86407000  0.06456200  0.98940800  1
  O  O17  1  0.63593000  0.06456200  0.51059200  1
  O  O18  1  0.36407000  0.56456200  0.51059200  1
  O  O19  1  0.63593000  0.43543800  0.48940800  1
  O  O20  1  0.06263000  0.09579200  0.16524500  1
  O  O21  1  0.93737000  0.90420800  0.83475500  1
  O  O22  1  0.06263000  0.40420800  0.83475500  1
  O  O23  1  0.43737000  0.40420800  0.66524500  1
  O  O24  1  0.93737000  0.59579200  0.16524500  1
  O  O25  1  0.56263000  0.59579200  0.33475500  1
  O  O26  1  0.43737000  0.09579200  0.33475500  1
  O  O27  1  0.56263000  0.90420800  0.66524500  1
  O  O28  1  0.56775100  0.26845800  0.16445500  1
  O  O29  1  0.43224900  0.73154200  0.83554500  1
  O  O30  1  0.56775100  0.23154200  0.83554500  1
  O  O31  1  0.93224900  0.23154200  0.66445500  1
  O  O32  1  0.43224900  0.76845800  0.16445500  1
  O  O33  1  0.06775100  0.76845800  0.33554500  1
  O  O34  1  0.93224900  0.26845800  0.33554500  1
  O  O35  1  0.06775100  0.73154200  0.66445500  1
  O  O36  1  0.46097100  0.20435600  0.09765100  1
  O  O37  1  0.53902900  0.79564400  0.90234900  1
  O  O38  1  0.46097100  0.29564400  0.90234900  1
  O  O39  1  0.03902900  0.29564400  0.59765100  1
  O  O40  1  0.53902900  0.70435600  0.09765100  1
  O  O41  1  0.96097100  0.70435600  0.40234900  1
  O  O42  1  0.03902900  0.20435600  0.40234900  1
  O  O43  1  0.96097100  0.79564400  0.59765100  1
  O  O44  1  0.15597900  0.39681600  0.14240300  1
  O  O45  1  0.84402100  0.60318400  0.85759700  1
  O  O46  1  0.15597900  0.10318400  0.85759700  1
  O  O47  1  0.34402100  0.10318400  0.64240300  1
  O  O48  1  0.84402100  0.89681600  0.14240300  1
  O  O49  1  0.65597900  0.89681600  0.35759700  1
  O  O50  1  0.34402100  0.39681600  0.35759700  1
  O  O51  1  0.65597900  0.60318400  0.64240300  1
