# generated using pymatgen
data_ErBeNF6
_symmetry_space_group_name_H-M   'P 1'
_cell_length_a   5.87395900
_cell_length_b   6.48953700
_cell_length_c   7.32616703
_cell_angle_alpha   66.98512684
_cell_angle_beta   90.00000000
_cell_angle_gamma   90.00000000
_symmetry_Int_Tables_number   1
_chemical_formula_structural   ErBeNF6
_chemical_formula_sum   'Er2 Be2 N2 F12'
_cell_volume   257.03937184
_cell_formula_units_Z   2
loop_
 _symmetry_equiv_pos_site_id
 _symmetry_equiv_pos_as_xyz
  1  'x, y, z'
loop_
 _atom_site_type_symbol
 _atom_site_label
 _atom_site_symmetry_multiplicity
 _atom_site_fract_x
 _atom_site_fract_y
 _atom_site_fract_z
 _atom_site_occupancy
  Er  Er0  1  0.25000000  0.37038400  0.21886200  1
  Er  Er1  1  0.75000000  0.62961600  0.78113800  1
  Be  Be2  1  0.25000000  0.77996800  0.45663500  1
  Be  Be3  1  0.75000000  0.22003200  0.54336500  1
  N  N4  1  0.25000000  0.20498000  0.85204500  1
  N  N5  1  0.75000000  0.79502000  0.14795500  1
  F  F6  1  0.46257500  0.75616500  0.59114000  1
  F  F7  1  0.53742500  0.24383500  0.40886000  1
  F  F8  1  0.96257500  0.24383500  0.40886000  1
  F  F9  1  0.03742500  0.75616500  0.59114000  1
  F  F10  1  0.25000000  0.59040900  0.37736000  1
  F  F11  1  0.75000000  0.40959100  0.62264000  1
  F  F12  1  0.54405200  0.64672500  0.05065400  1
  F  F13  1  0.45594800  0.35327500  0.94934600  1
  F  F14  1  0.04405200  0.35327500  0.94934600  1
  F  F15  1  0.95594800  0.64672500  0.05065400  1
  F  F16  1  0.25000000  0.01064000  0.27751200  1
  F  F17  1  0.75000000  0.98936000  0.72248800  1
