# generated using pymatgen
data_Fe(ClO2)2
_symmetry_space_group_name_H-M   'P 1'
_cell_length_a   6.81630400
_cell_length_b   5.27459600
_cell_length_c   8.19617649
_cell_angle_alpha   52.87398314
_cell_angle_beta   90.00000000
_cell_angle_gamma   90.00000000
_symmetry_Int_Tables_number   1
_chemical_formula_structural   Fe(ClO2)2
_chemical_formula_sum   'Fe2 Cl4 O8'
_cell_volume   234.95064053
_cell_formula_units_Z   2
loop_
 _symmetry_equiv_pos_site_id
 _symmetry_equiv_pos_as_xyz
  1  'x, y, z'
loop_
 _atom_site_type_symbol
 _atom_site_label
 _atom_site_symmetry_multiplicity
 _atom_site_fract_x
 _atom_site_fract_y
 _atom_site_fract_z
 _atom_site_occupancy
  Fe  Fe0  1  0.00000000  0.00000000  0.00000000  1
  Fe  Fe1  1  0.50000000  0.00000000  0.50000000  1
  Cl  Cl2  1  0.25905800  0.64065900  0.34686000  1
  Cl  Cl3  1  0.74094200  0.35934100  0.65314000  1
  Cl  Cl4  1  0.75905800  0.35934100  0.15314000  1
  Cl  Cl5  1  0.24094200  0.64065900  0.84686000  1
  O  O6  1  0.07672500  0.88633300  0.80382200  1
  O  O7  1  0.92327500  0.11366700  0.19617800  1
  O  O8  1  0.57672500  0.11366700  0.69617800  1
  O  O9  1  0.42327500  0.88633300  0.30382200  1
  O  O10  1  0.83786900  0.60049500  0.19251400  1
  O  O11  1  0.16213100  0.39950500  0.80748600  1
  O  O12  1  0.33786900  0.39950500  0.30748600  1
  O  O13  1  0.66213100  0.60049500  0.69251400  1
