# generated using pymatgen
data_Er4Co
_symmetry_space_group_name_H-M   'P 1'
_cell_length_a   7.39858553
_cell_length_b   7.39858553
_cell_length_c   7.39858553
_cell_angle_alpha   60.00000000
_cell_angle_beta   60.00000000
_cell_angle_gamma   60.00000000
_symmetry_Int_Tables_number   1
_chemical_formula_structural   Er4Co
_chemical_formula_sum   'Er8 Co2'
_cell_volume   286.37236001
_cell_formula_units_Z   2
loop_
 _symmetry_equiv_pos_site_id
 _symmetry_equiv_pos_as_xyz
  1  'x, y, z'
loop_
 _atom_site_type_symbol
 _atom_site_label
 _atom_site_symmetry_multiplicity
 _atom_site_fract_x
 _atom_site_fract_y
 _atom_site_fract_z
 _atom_site_occupancy
  Er  Er0  1  0.38551500  0.38551500  0.38551500  1
  Er  Er1  1  0.38551500  0.38551500  0.84345500  1
  Er  Er2  1  0.38551500  0.84345500  0.38551500  1
  Er  Er3  1  0.86448500  0.86448500  0.40654500  1
  Er  Er4  1  0.86448500  0.86448500  0.86448500  1
  Er  Er5  1  0.84345500  0.38551500  0.38551500  1
  Er  Er6  1  0.86448500  0.40654500  0.86448500  1
  Er  Er7  1  0.40654500  0.86448500  0.86448500  1
  Co  Co8  1  0.00000000  0.00000000  0.00000000  1
  Co  Co9  1  0.25000000  0.25000000  0.25000000  1
