# generated using pymatgen
data_CsMnBr3O2
_symmetry_space_group_name_H-M   'P 1'
_cell_length_a   7.38164800
_cell_length_b   8.96941700
_cell_length_c   13.35975500
_cell_angle_alpha   90.00000000
_cell_angle_beta   90.00000000
_cell_angle_gamma   90.00000000
_symmetry_Int_Tables_number   1
_chemical_formula_structural   CsMnBr3O2
_chemical_formula_sum   'Cs4 Mn4 Br12 O8'
_cell_volume   884.53707501
_cell_formula_units_Z   4
loop_
 _symmetry_equiv_pos_site_id
 _symmetry_equiv_pos_as_xyz
  1  'x, y, z'
loop_
 _atom_site_type_symbol
 _atom_site_label
 _atom_site_symmetry_multiplicity
 _atom_site_fract_x
 _atom_site_fract_y
 _atom_site_fract_z
 _atom_site_occupancy
  Cs  Cs0  1  0.50000000  0.75000000  0.37265800  1
  Cs  Cs1  1  0.50000000  0.25000000  0.62734200  1
  Cs  Cs2  1  0.50000000  0.25000000  0.12734200  1
  Cs  Cs3  1  0.50000000  0.75000000  0.87265800  1
  Mn  Mn4  1  0.03287000  0.50000000  0.25000000  1
  Mn  Mn5  1  0.96713000  0.50000000  0.75000000  1
  Mn  Mn6  1  0.96713000  0.00000000  0.25000000  1
  Mn  Mn7  1  0.03287000  0.00000000  0.75000000  1
  Br  Br8  1  0.25027000  0.61538800  0.13102000  1
  Br  Br9  1  0.74973000  0.38461200  0.86898000  1
  Br  Br10  1  0.74973000  0.88461200  0.13102000  1
  Br  Br11  1  0.25027000  0.38461200  0.36898000  1
  Br  Br12  1  0.25027000  0.11538800  0.86898000  1
  Br  Br13  1  0.74973000  0.61538800  0.63102000  1
  Br  Br14  1  0.74973000  0.11538800  0.36898000  1
  Br  Br15  1  0.25027000  0.88461200  0.63102000  1
  Br  Br16  1  0.00000000  0.75000000  0.36533700  1
  Br  Br17  1  0.00000000  0.25000000  0.63466300  1
  Br  Br18  1  0.00000000  0.25000000  0.13466300  1
  Br  Br19  1  0.00000000  0.75000000  0.86533700  1
  O  O20  1  0.23458200  0.96689700  0.20619300  1
  O  O21  1  0.76541800  0.03310300  0.79380700  1
  O  O22  1  0.76541800  0.53310300  0.20619300  1
  O  O23  1  0.23458200  0.03310300  0.29380700  1
  O  O24  1  0.23458200  0.46689700  0.79380700  1
  O  O25  1  0.76541800  0.96689700  0.70619300  1
  O  O26  1  0.76541800  0.46689700  0.29380700  1
  O  O27  1  0.23458200  0.53310300  0.70619300  1
