# generated using pymatgen
data_CrRu(NF)6
_symmetry_space_group_name_H-M   'P 1'
_cell_length_a   9.62334600
_cell_length_b   9.62334600
_cell_length_c   9.62334600
_cell_angle_alpha   90.00000000
_cell_angle_beta   90.00000000
_cell_angle_gamma   90.00000000
_symmetry_Int_Tables_number   1
_chemical_formula_structural   CrRu(NF)6
_chemical_formula_sum   'Cr4 Ru4 N24 F24'
_cell_volume   891.20641183
_cell_formula_units_Z   4
loop_
 _symmetry_equiv_pos_site_id
 _symmetry_equiv_pos_as_xyz
  1  'x, y, z'
loop_
 _atom_site_type_symbol
 _atom_site_label
 _atom_site_symmetry_multiplicity
 _atom_site_fract_x
 _atom_site_fract_y
 _atom_site_fract_z
 _atom_site_occupancy
  Cr  Cr0  1  0.50000000  0.50000000  0.50000000  1
  Cr  Cr1  1  0.00000000  0.50000000  0.00000000  1
  Cr  Cr2  1  0.50000000  0.00000000  0.00000000  1
  Cr  Cr3  1  0.00000000  0.00000000  0.50000000  1
  Ru  Ru4  1  0.00000000  0.00000000  0.00000000  1
  Ru  Ru5  1  0.50000000  0.00000000  0.50000000  1
  Ru  Ru6  1  0.00000000  0.50000000  0.50000000  1
  Ru  Ru7  1  0.50000000  0.50000000  0.00000000  1
  N  N8  1  0.11517200  0.34522000  0.43761200  1
  N  N9  1  0.88482800  0.65478000  0.56238800  1
  N  N10  1  0.38482800  0.65478000  0.93761200  1
  N  N11  1  0.88482800  0.84522000  0.06238800  1
  N  N12  1  0.43761200  0.11517200  0.34522000  1
  N  N13  1  0.61517200  0.34522000  0.06238800  1
  N  N14  1  0.11517200  0.15478000  0.93761200  1
  N  N15  1  0.56238800  0.88482800  0.65478000  1
  N  N16  1  0.61517200  0.15478000  0.56238800  1
  N  N17  1  0.93761200  0.38482800  0.65478000  1
  N  N18  1  0.38482800  0.84522000  0.43761200  1
  N  N19  1  0.06238800  0.61517200  0.34522000  1
  N  N20  1  0.06238800  0.88482800  0.84522000  1
  N  N21  1  0.93761200  0.11517200  0.15478000  1
  N  N22  1  0.56238800  0.61517200  0.15478000  1
  N  N23  1  0.43761200  0.38482800  0.84522000  1
  N  N24  1  0.34522000  0.43761200  0.11517200  1
  N  N25  1  0.65478000  0.56238800  0.88482800  1
  N  N26  1  0.84522000  0.06238800  0.88482800  1
  N  N27  1  0.15478000  0.93761200  0.11517200  1
  N  N28  1  0.15478000  0.56238800  0.61517200  1
  N  N29  1  0.84522000  0.43761200  0.38482800  1
  N  N30  1  0.65478000  0.93761200  0.38482800  1
  N  N31  1  0.34522000  0.06238800  0.61517200  1
  F  F32  1  0.06267500  0.37996400  0.12866900  1
  F  F33  1  0.93732500  0.62003600  0.87133100  1
  F  F34  1  0.43732500  0.62003600  0.62866900  1
  F  F35  1  0.93732500  0.87996400  0.37133100  1
  F  F36  1  0.12866900  0.06267500  0.37996400  1
  F  F37  1  0.56267500  0.37996400  0.37133100  1
  F  F38  1  0.06267500  0.12003600  0.62866900  1
  F  F39  1  0.87133100  0.93732500  0.62003600  1
  F  F40  1  0.56267500  0.12003600  0.87133100  1
  F  F41  1  0.62866900  0.43732500  0.62003600  1
  F  F42  1  0.43732500  0.87996400  0.12866900  1
  F  F43  1  0.37133100  0.56267500  0.37996400  1
  F  F44  1  0.37133100  0.93732500  0.87996400  1
  F  F45  1  0.62866900  0.06267500  0.12003600  1
  F  F46  1  0.87133100  0.56267500  0.12003600  1
  F  F47  1  0.12866900  0.43732500  0.87996400  1
  F  F48  1  0.37996400  0.12866900  0.06267500  1
  F  F49  1  0.62003600  0.87133100  0.93732500  1
  F  F50  1  0.87996400  0.37133100  0.93732500  1
  F  F51  1  0.12003600  0.62866900  0.06267500  1
  F  F52  1  0.12003600  0.87133100  0.56267500  1
  F  F53  1  0.87996400  0.12866900  0.43732500  1
  F  F54  1  0.62003600  0.62866900  0.43732500  1
  F  F55  1  0.37996400  0.37133100  0.56267500  1
