# generated using pymatgen
data_Cu2H6C3(BrN3)2
_symmetry_space_group_name_H-M   'P 1'
_cell_length_a   4.77841295
_cell_length_b   8.21858880
_cell_length_c   16.72315500
_cell_angle_alpha   90.00000000
_cell_angle_beta   90.00000000
_cell_angle_gamma   89.04786098
_symmetry_Int_Tables_number   1
_chemical_formula_structural   Cu2H6C3(BrN3)2
_chemical_formula_sum   'Cu4 H12 C6 Br4 N12'
_cell_volume   656.65790372
_cell_formula_units_Z   2
loop_
 _symmetry_equiv_pos_site_id
 _symmetry_equiv_pos_as_xyz
  1  'x, y, z'
loop_
 _atom_site_type_symbol
 _atom_site_label
 _atom_site_symmetry_multiplicity
 _atom_site_fract_x
 _atom_site_fract_y
 _atom_site_fract_z
 _atom_site_occupancy
  Cu  Cu0  1  0.80445800  0.55517100  0.92219400  1
  Cu  Cu1  1  0.19554200  0.44482900  0.07780600  1
  Cu  Cu2  1  0.19554200  0.44482900  0.42219400  1
  Cu  Cu3  1  0.80445800  0.55517100  0.57780600  1
  H  H4  1  0.89587500  0.37084100  0.80284700  1
  H  H5  1  0.10412500  0.62915900  0.19715300  1
  H  H6  1  0.10412500  0.62915900  0.30284700  1
  H  H7  1  0.89587500  0.37084100  0.69715300  1
  H  H8  1  0.48695900  0.81487500  0.93916100  1
  H  H9  1  0.51304100  0.18512500  0.06083900  1
  H  H10  1  0.51304100  0.18512500  0.43916100  1
  H  H11  1  0.48695900  0.81487500  0.56083900  1
  H  H12  1  0.40450100  0.98891600  0.88201100  1
  H  H13  1  0.59549900  0.01108400  0.11798900  1
  H  H14  1  0.59549900  0.01108400  0.38201100  1
  H  H15  1  0.40450100  0.98891600  0.61798900  1
  C  C16  1  0.71754500  0.57098000  0.75000000  1
  C  C17  1  0.28245500  0.42902000  0.25000000  1
  C  C18  1  0.55985700  0.79923900  0.81787500  1
  C  C19  1  0.44014300  0.20076100  0.18212500  1
  C  C20  1  0.44014300  0.20076100  0.31787500  1
  C  C21  1  0.55985700  0.79923900  0.68212500  1
  Br  Br22  1  0.85753300  0.66916500  0.44451300  1
  Br  Br23  1  0.14246700  0.33083500  0.55548700  1
  Br  Br24  1  0.14246700  0.33083500  0.94451300  1
  Br  Br25  1  0.85753300  0.66916500  0.05548700  1
  N  N26  1  0.66340400  0.64278900  0.82194600  1
  N  N27  1  0.33659600  0.35721100  0.17805400  1
  N  N28  1  0.33659600  0.35721100  0.32194600  1
  N  N29  1  0.66340400  0.64278900  0.67805400  1
  N  N30  1  0.49274200  0.87611800  0.88635000  1
  N  N31  1  0.50725800  0.12388200  0.11365000  1
  N  N32  1  0.50725800  0.12388200  0.38635000  1
  N  N33  1  0.49274200  0.87611800  0.61365000  1
  N  N34  1  0.83001500  0.42027100  0.75000000  1
  N  N35  1  0.16998500  0.57972900  0.25000000  1
  N  N36  1  0.51964200  0.88248200  0.75000000  1
  N  N37  1  0.48035800  0.11751800  0.25000000  1
