data_image0
_chemical_formula_structural       Ag2BaS4Sn
_chemical_formula_sum              "Ag2 Ba1 S4 Sn1"
_cell_length_a       6.48659
_cell_length_b       6.48659
_cell_length_c       6.48659
_cell_angle_alpha    115.956
_cell_angle_beta     100.866
_cell_angle_gamma    111.951

_space_group_name_H-M_alt    "P 1"
_space_group_IT_number       1

loop_
  _space_group_symop_operation_xyz
  'x, y, z'

loop_
  _atom_site_type_symbol
  _atom_site_label
  _atom_site_symmetry_multiplicity
  _atom_site_fract_x
  _atom_site_fract_y
  _atom_site_fract_z
  _atom_site_occupancy
  Ag  Ag1       1.0  0.69200  0.50000  0.19200  1.0000
  Ag  Ag2       1.0  0.30800  0.50000  0.80800  1.0000
  Ba  Ba1       1.0  0.00000  0.00000  0.00000  1.0000
  S   S1        1.0  0.52100  0.98900  0.12600  1.0000
  S   S2        1.0  0.47900  0.60500  0.46700  1.0000
  S   S3        1.0  0.13800  0.01140  0.53300  1.0000
  S   S4        1.0  0.86200  0.39500  0.87400  1.0000
  Sn  Sn1       1.0  0.50000  0.00000  0.50000  1.0000
