# generated using pymatgen
data_ErCu(MoO4)2
_symmetry_space_group_name_H-M   'P 1'
_cell_length_a   9.68624500
_cell_length_b   9.96103400
_cell_length_c   13.77289200
_cell_angle_alpha   90.00000000
_cell_angle_beta   90.00000000
_cell_angle_gamma   90.00000000
_symmetry_Int_Tables_number   1
_chemical_formula_structural   ErCu(MoO4)2
_chemical_formula_sum   'Er8 Cu8 Mo16 O64'
_cell_volume   1328.87770192
_cell_formula_units_Z   8
loop_
 _symmetry_equiv_pos_site_id
 _symmetry_equiv_pos_as_xyz
  1  'x, y, z'
loop_
 _atom_site_type_symbol
 _atom_site_label
 _atom_site_symmetry_multiplicity
 _atom_site_fract_x
 _atom_site_fract_y
 _atom_site_fract_z
 _atom_site_occupancy
  Er  Er0  1  0.46178500  0.38348800  0.12678600  1
  Er  Er1  1  0.53821500  0.61651200  0.87321400  1
  Er  Er2  1  0.96178500  0.11651200  0.87321400  1
  Er  Er3  1  0.03821500  0.61651200  0.62678600  1
  Er  Er4  1  0.03821500  0.88348800  0.12678600  1
  Er  Er5  1  0.96178500  0.38348800  0.37321400  1
  Er  Er6  1  0.53821500  0.88348800  0.37321400  1
  Er  Er7  1  0.46178500  0.11651200  0.62678600  1
  Cu  Cu8  1  0.26573200  0.43080100  0.48115300  1
  Cu  Cu9  1  0.73426800  0.56919900  0.51884700  1
  Cu  Cu10  1  0.76573200  0.06919900  0.51884700  1
  Cu  Cu11  1  0.23426800  0.56919900  0.98115300  1
  Cu  Cu12  1  0.23426800  0.93080100  0.48115300  1
  Cu  Cu13  1  0.76573200  0.43080100  0.01884700  1
  Cu  Cu14  1  0.73426800  0.93080100  0.01884700  1
  Cu  Cu15  1  0.26573200  0.06919900  0.98115300  1
  Mo  Mo16  1  0.08859000  0.28510800  0.07857300  1
  Mo  Mo17  1  0.91141000  0.71489200  0.92142700  1
  Mo  Mo18  1  0.58859000  0.21489200  0.92142700  1
  Mo  Mo19  1  0.41141000  0.71489200  0.57857300  1
  Mo  Mo20  1  0.41141000  0.78510800  0.07857300  1
  Mo  Mo21  1  0.58859000  0.28510800  0.42142700  1
  Mo  Mo22  1  0.91141000  0.78510800  0.42142700  1
  Mo  Mo23  1  0.08859000  0.21489200  0.57857300  1
  Mo  Mo24  1  0.23203100  0.13324500  0.29078700  1
  Mo  Mo25  1  0.76796900  0.86675500  0.70921300  1
  Mo  Mo26  1  0.73203100  0.36675500  0.70921300  1
  Mo  Mo27  1  0.26796900  0.86675500  0.79078700  1
  Mo  Mo28  1  0.26796900  0.63324500  0.29078700  1
  Mo  Mo29  1  0.73203100  0.13324500  0.20921300  1
  Mo  Mo30  1  0.76796900  0.63324500  0.20921300  1
  Mo  Mo31  1  0.23203100  0.36675500  0.79078700  1
  O  O32  1  0.44322600  0.35306700  0.48456100  1
  O  O33  1  0.55677400  0.64693300  0.51543900  1
  O  O34  1  0.94322600  0.14693300  0.51543900  1
  O  O35  1  0.05677400  0.64693300  0.98456100  1
  O  O36  1  0.05677400  0.85306700  0.48456100  1
  O  O37  1  0.94322600  0.35306700  0.01543900  1
  O  O38  1  0.55677400  0.85306700  0.01543900  1
  O  O39  1  0.44322600  0.14693300  0.98456100  1
  O  O40  1  0.24259800  0.39017600  0.05793600  1
  O  O41  1  0.75740200  0.60982400  0.94206400  1
  O  O42  1  0.74259800  0.10982400  0.94206400  1
  O  O43  1  0.25740200  0.60982400  0.55793600  1
  O  O44  1  0.25740200  0.89017600  0.05793600  1
  O  O45  1  0.74259800  0.39017600  0.44206400  1
  O  O46  1  0.75740200  0.89017600  0.44206400  1
  O  O47  1  0.24259800  0.10982400  0.55793600  1
  O  O48  1  0.08020400  0.10454000  0.03841900  1
  O  O49  1  0.91979600  0.89546000  0.96158100  1
  O  O50  1  0.58020400  0.39546000  0.96158100  1
  O  O51  1  0.41979600  0.89546000  0.53841900  1
  O  O52  1  0.41979600  0.60454000  0.03841900  1
  O  O53  1  0.58020400  0.10454000  0.46158100  1
  O  O54  1  0.91979600  0.60454000  0.46158100  1
  O  O55  1  0.08020400  0.39546000  0.53841900  1
  O  O56  1  0.11382800  0.01325100  0.24263300  1
  O  O57  1  0.88617200  0.98674900  0.75736700  1
  O  O58  1  0.61382800  0.48674900  0.75736700  1
  O  O59  1  0.38617200  0.98674900  0.74263300  1
  O  O60  1  0.38617200  0.51325100  0.24263300  1
  O  O61  1  0.61382800  0.01325100  0.25736700  1
  O  O62  1  0.88617200  0.51325100  0.25736700  1
  O  O63  1  0.11382800  0.48674900  0.74263300  1
  O  O64  1  0.32436100  0.21155500  0.19223400  1
  O  O65  1  0.67563900  0.78844500  0.80776600  1
  O  O66  1  0.82436100  0.28844500  0.80776600  1
  O  O67  1  0.17563900  0.78844500  0.69223400  1
  O  O68  1  0.17563900  0.71155500  0.19223400  1
  O  O69  1  0.82436100  0.21155500  0.30776600  1
  O  O70  1  0.67563900  0.71155500  0.30776600  1
  O  O71  1  0.32436100  0.28844500  0.69223400  1
  O  O72  1  0.04845200  0.29631000  0.20380200  1
  O  O73  1  0.95154800  0.70369000  0.79619800  1
  O  O74  1  0.54845200  0.20369000  0.79619800  1
  O  O75  1  0.45154800  0.70369000  0.70380200  1
  O  O76  1  0.45154800  0.79631000  0.20380200  1
  O  O77  1  0.54845200  0.29631000  0.29619800  1
  O  O78  1  0.95154800  0.79631000  0.29619800  1
  O  O79  1  0.04845200  0.20369000  0.70380200  1
  O  O80  1  0.34999500  0.03028500  0.35880900  1
  O  O81  1  0.65000500  0.96971500  0.64119100  1
  O  O82  1  0.84999500  0.46971500  0.64119100  1
  O  O83  1  0.15000500  0.96971500  0.85880900  1
  O  O84  1  0.15000500  0.53028500  0.35880900  1
  O  O85  1  0.84999500  0.03028500  0.14119100  1
  O  O86  1  0.65000500  0.53028500  0.14119100  1
  O  O87  1  0.34999500  0.46971500  0.85880900  1
  O  O88  1  0.15129700  0.24447500  0.37924900  1
  O  O89  1  0.84870300  0.75552500  0.62075100  1
  O  O90  1  0.65129700  0.25552500  0.62075100  1
  O  O91  1  0.34870300  0.75552500  0.87924900  1
  O  O92  1  0.34870300  0.74447500  0.37924900  1
  O  O93  1  0.65129700  0.24447500  0.12075100  1
  O  O94  1  0.84870300  0.74447500  0.12075100  1
  O  O95  1  0.15129700  0.25552500  0.87924900  1
