# generated using pymatgen
data_CsMn2(PO3)6
_symmetry_space_group_name_H-M   'P 1'
_cell_length_a   5.28409468
_cell_length_b   9.21866731
_cell_length_c   9.21632565
_cell_angle_alpha   89.21312425
_cell_angle_beta   74.44993463
_cell_angle_gamma   74.14349492
_symmetry_Int_Tables_number   1
_chemical_formula_structural   CsMn2(PO3)6
_chemical_formula_sum   'Cs1 Mn2 P6 O18'
_cell_volume   415.19900685
_cell_formula_units_Z   1
loop_
 _symmetry_equiv_pos_site_id
 _symmetry_equiv_pos_as_xyz
  1  'x, y, z'
loop_
 _atom_site_type_symbol
 _atom_site_label
 _atom_site_symmetry_multiplicity
 _atom_site_fract_x
 _atom_site_fract_y
 _atom_site_fract_z
 _atom_site_occupancy
  Cs  Cs0  1  0.00008600  0.99993700  0.00011000  1
  Mn  Mn1  1  0.50010100  0.00009300  0.49988400  1
  Mn  Mn2  1  0.49995300  0.49990200  0.99989300  1
  P  P3  1  0.06743300  0.78305700  0.54838100  1
  P  P4  1  0.93254500  0.21699900  0.45166000  1
  P  P5  1  0.93304100  0.45111900  0.21787500  1
  P  P6  1  0.06695400  0.54890000  0.78215500  1
  P  P7  1  0.50023800  0.25299900  0.74623900  1
  P  P8  1  0.49973700  0.74694300  0.25374200  1
  O  O9  1  0.16966500  0.90097400  0.60651000  1
  O  O10  1  0.83027700  0.09913000  0.39346800  1
  O  O11  1  0.83053300  0.39293600  0.09993400  1
  O  O12  1  0.16946100  0.60710000  0.90008900  1
  O  O13  1  0.14807600  0.62824700  0.62733200  1
  O  O14  1  0.85192700  0.37179300  0.37272500  1
  O  O15  1  0.24135000  0.72132200  0.37834500  1
  O  O16  1  0.75862400  0.27872700  0.62169000  1
  O  O17  1  0.75666400  0.62127000  0.28058000  1
  O  O18  1  0.24330700  0.37873400  0.71948500  1
  O  O19  1  0.23119300  0.18116700  0.44605500  1
  O  O20  1  0.76880500  0.81880800  0.55393000  1
  O  O21  1  0.76965900  0.55425000  0.81688900  1
  O  O22  1  0.23036300  0.44575100  0.18313800  1
  O  O23  1  0.45948000  0.10188300  0.71514200  1
  O  O24  1  0.54057100  0.89808700  0.28473000  1
  O  O25  1  0.54076600  0.28204700  0.89769000  1
  O  O26  1  0.45919000  0.71782600  0.10232900  1
