# generated using pymatgen
data_Nd2(N4O9)3
_symmetry_space_group_name_H-M   'P 1'
_cell_length_a   13.41544533
_cell_length_b   13.41544533
_cell_length_c   13.41544533
_cell_angle_alpha   90.00000000
_cell_angle_beta   90.00000000
_cell_angle_gamma   90.00000000
_symmetry_Int_Tables_number   1
_chemical_formula_structural   Nd2(N4O9)3
_chemical_formula_sum   'Nd8 N48 O108'
_cell_volume   2414.43368409
_cell_formula_units_Z   4
loop_
 _symmetry_equiv_pos_site_id
 _symmetry_equiv_pos_as_xyz
  1  'x, y, z'
loop_
 _atom_site_type_symbol
 _atom_site_label
 _atom_site_symmetry_multiplicity
 _atom_site_fract_x
 _atom_site_fract_y
 _atom_site_fract_z
 _atom_site_occupancy
  Nd  Nd0  1  0.04786520  0.04786520  0.04786520  1
  Nd  Nd1  1  0.45213480  0.95213480  0.54786520  1
  Nd  Nd2  1  0.95213480  0.54786520  0.45213480  1
  Nd  Nd3  1  0.79786520  0.29786520  0.20213480  1
  Nd  Nd4  1  0.54786520  0.45213480  0.95213480  1
  Nd  Nd5  1  0.70213480  0.70213480  0.70213480  1
  Nd  Nd6  1  0.29786520  0.20213480  0.79786520  1
  Nd  Nd7  1  0.20213480  0.79786520  0.29786520  1
  N  N8  1  0.09313700  0.38303755  0.38656641  1
  N  N9  1  0.40686300  0.61696245  0.88656641  1
  N  N10  1  0.90686300  0.88303755  0.11343359  1
  N  N11  1  0.38656641  0.09313700  0.38303755  1
  N  N12  1  0.13303755  0.34313700  0.86343359  1
  N  N13  1  0.59313700  0.11696245  0.61343359  1
  N  N14  1  0.88656641  0.40686300  0.61696245  1
  N  N15  1  0.36696245  0.65686300  0.36343359  1
  N  N16  1  0.11343359  0.90686300  0.88303755  1
  N  N17  1  0.63303755  0.15686300  0.13656641  1
  N  N18  1  0.61343359  0.59313700  0.11696245  1
  N  N19  1  0.86696245  0.84313700  0.63656641  1
  N  N20  1  0.38303755  0.38656641  0.09313700  1
  N  N21  1  0.84313700  0.63656641  0.86696245  1
  N  N22  1  0.88303755  0.11343359  0.90686300  1
  N  N23  1  0.65686300  0.36343359  0.36696245  1
  N  N24  1  0.11696245  0.61343359  0.59313700  1
  N  N25  1  0.34313700  0.86343359  0.13303755  1
  N  N26  1  0.61696245  0.88656641  0.40686300  1
  N  N27  1  0.15686300  0.13656641  0.63303755  1
  N  N28  1  0.86343359  0.13303755  0.34313700  1
  N  N29  1  0.36343359  0.36696245  0.65686300  1
  N  N30  1  0.63656641  0.86696245  0.84313700  1
  N  N31  1  0.13656641  0.63303755  0.15686300  1
  N  N32  1  0.12500000  0.20537417  0.45537417  1
  N  N33  1  0.37500000  0.79462583  0.95537417  1
  N  N34  1  0.87500000  0.70537417  0.04462583  1
  N  N35  1  0.45537417  0.12500000  0.20537417  1
  N  N36  1  0.95537417  0.37500000  0.79462583  1
  N  N37  1  0.62500000  0.29462583  0.54462583  1
  N  N38  1  0.54462583  0.62500000  0.29462583  1
  N  N39  1  0.04462583  0.87500000  0.70537417  1
  N  N40  1  0.20537417  0.45537417  0.12500000  1
  N  N41  1  0.70537417  0.04462583  0.87500000  1
  N  N42  1  0.29462583  0.54462583  0.62500000  1
  N  N43  1  0.79462583  0.95537417  0.37500000  1
  N  N44  1  0.12500000  0.00940812  0.25940812  1
  N  N45  1  0.37500000  0.99059188  0.75940812  1
  N  N46  1  0.87500000  0.50940812  0.24059188  1
  N  N47  1  0.25940812  0.12500000  0.00940812  1
  N  N48  1  0.75940812  0.37500000  0.99059188  1
  N  N49  1  0.62500000  0.49059188  0.74059188  1
  N  N50  1  0.74059188  0.62500000  0.49059188  1
  N  N51  1  0.24059188  0.87500000  0.50940812  1
  N  N52  1  0.00940812  0.25940812  0.12500000  1
  N  N53  1  0.50940812  0.24059188  0.87500000  1
  N  N54  1  0.49059188  0.74059188  0.62500000  1
  N  N55  1  0.99059188  0.75940812  0.37500000  1
  O  O56  1  0.12500000  0.94035849  0.19035849  1
  O  O57  1  0.37500000  0.05964151  0.69035849  1
  O  O58  1  0.87500000  0.44035849  0.30964151  1
  O  O59  1  0.19035849  0.12500000  0.94035849  1
  O  O60  1  0.69035849  0.37500000  0.05964151  1
  O  O61  1  0.62500000  0.55964151  0.80964151  1
  O  O62  1  0.80964151  0.62500000  0.55964151  1
  O  O63  1  0.30964151  0.87500000  0.44035849  1
  O  O64  1  0.94035849  0.19035849  0.12500000  1
  O  O65  1  0.44035849  0.30964151  0.87500000  1
  O  O66  1  0.55964151  0.80964151  0.62500000  1
  O  O67  1  0.05964151  0.69035849  0.37500000  1
  O  O68  1  0.02961268  0.37350199  0.45562258  1
  O  O69  1  0.47038732  0.62649801  0.95562258  1
  O  O70  1  0.97038732  0.87350199  0.04437742  1
  O  O71  1  0.45562258  0.02961268  0.37350199  1
  O  O72  1  0.12350199  0.27961268  0.79437742  1
  O  O73  1  0.52961268  0.12649801  0.54437742  1
  O  O74  1  0.95562258  0.47038732  0.62649801  1
  O  O75  1  0.37649801  0.72038732  0.29437742  1
  O  O76  1  0.04437742  0.97038732  0.87350199  1
  O  O77  1  0.62350199  0.22038732  0.20562258  1
  O  O78  1  0.54437742  0.52961268  0.12649801  1
  O  O79  1  0.87649801  0.77961268  0.70562258  1
  O  O80  1  0.37350199  0.45562258  0.02961268  1
  O  O81  1  0.77961268  0.70562258  0.87649801  1
  O  O82  1  0.87350199  0.04437742  0.97038732  1
  O  O83  1  0.72038732  0.29437742  0.37649801  1
  O  O84  1  0.12649801  0.54437742  0.52961268  1
  O  O85  1  0.27961268  0.79437742  0.12350199  1
  O  O86  1  0.62649801  0.95562258  0.47038732  1
  O  O87  1  0.22038732  0.20562258  0.62350199  1
  O  O88  1  0.79437742  0.12350199  0.27961268  1
  O  O89  1  0.29437742  0.37649801  0.72038732  1
  O  O90  1  0.70562258  0.87649801  0.77961268  1
  O  O91  1  0.20562258  0.62350199  0.22038732  1
  O  O92  1  0.09729282  0.46264077  0.33758181  1
  O  O93  1  0.40270718  0.53735923  0.83758181  1
  O  O94  1  0.90270718  0.96264077  0.16241819  1
  O  O95  1  0.33758181  0.09729282  0.46264077  1
  O  O96  1  0.21264077  0.34729282  0.91241819  1
  O  O97  1  0.59729282  0.03735923  0.66241819  1
  O  O98  1  0.83758181  0.40270718  0.53735923  1
  O  O99  1  0.28735923  0.65270718  0.41241819  1
  O  O100  1  0.16241819  0.90270718  0.96264077  1
  O  O101  1  0.71264077  0.15270718  0.08758181  1
  O  O102  1  0.66241819  0.59729282  0.03735923  1
  O  O103  1  0.78735923  0.84729282  0.58758181  1
  O  O104  1  0.46264077  0.33758181  0.09729282  1
  O  O105  1  0.84729282  0.58758181  0.78735923  1
  O  O106  1  0.96264077  0.16241819  0.90270718  1
  O  O107  1  0.65270718  0.41241819  0.28735923  1
  O  O108  1  0.03735923  0.66241819  0.59729282  1
  O  O109  1  0.34729282  0.91241819  0.21264077  1
  O  O110  1  0.53735923  0.83758181  0.40270718  1
  O  O111  1  0.15270718  0.08758181  0.71264077  1
  O  O112  1  0.91241819  0.21264077  0.34729282  1
  O  O113  1  0.41241819  0.28735923  0.65270718  1
  O  O114  1  0.58758181  0.78735923  0.84729282  1
  O  O115  1  0.08758181  0.71264077  0.15270718  1
  O  O116  1  0.15311766  0.31119055  0.36570063  1
  O  O117  1  0.34688234  0.68880945  0.86570063  1
  O  O118  1  0.84688234  0.81119055  0.13429937  1
  O  O119  1  0.36570063  0.15311766  0.31119055  1
  O  O120  1  0.06119055  0.40311766  0.88429937  1
  O  O121  1  0.65311766  0.18880945  0.63429937  1
  O  O122  1  0.86570063  0.34688234  0.68880945  1
  O  O123  1  0.43880945  0.59688234  0.38429937  1
  O  O124  1  0.13429937  0.84688234  0.81119055  1
  O  O125  1  0.56119055  0.09688234  0.11570063  1
  O  O126  1  0.63429937  0.65311766  0.18880945  1
  O  O127  1  0.93880945  0.90311766  0.61570063  1
  O  O128  1  0.31119055  0.36570063  0.15311766  1
  O  O129  1  0.90311766  0.61570063  0.93880945  1
  O  O130  1  0.81119055  0.13429937  0.84688234  1
  O  O131  1  0.59688234  0.38429937  0.43880945  1
  O  O132  1  0.18880945  0.63429937  0.65311766  1
  O  O133  1  0.40311766  0.88429937  0.06119055  1
  O  O134  1  0.68880945  0.86570063  0.34688234  1
  O  O135  1  0.09688234  0.11570063  0.56119055  1
  O  O136  1  0.88429937  0.06119055  0.40311766  1
  O  O137  1  0.38429937  0.43880945  0.59688234  1
  O  O138  1  0.61570063  0.93880945  0.90311766  1
  O  O139  1  0.11570063  0.56119055  0.09688234  1
  O  O140  1  0.08500532  0.09083945  0.23945057  1
  O  O141  1  0.41499468  0.90916055  0.73945057  1
  O  O142  1  0.91499468  0.59083945  0.26054943  1
  O  O143  1  0.23945057  0.08500532  0.09083945  1
  O  O144  1  0.84083945  0.33500532  0.01054943  1
  O  O145  1  0.58500532  0.40916055  0.76054943  1
  O  O146  1  0.73945057  0.41499468  0.90916055  1
  O  O147  1  0.65916055  0.66499468  0.51054943  1
  O  O148  1  0.26054943  0.91499468  0.59083945  1
  O  O149  1  0.34083945  0.16499468  0.98945057  1
  O  O150  1  0.76054943  0.58500532  0.40916055  1
  O  O151  1  0.15916055  0.83500532  0.48945057  1
  O  O152  1  0.09083945  0.23945057  0.08500532  1
  O  O153  1  0.83500532  0.48945057  0.15916055  1
  O  O154  1  0.59083945  0.26054943  0.91499468  1
  O  O155  1  0.66499468  0.51054943  0.65916055  1
  O  O156  1  0.40916055  0.76054943  0.58500532  1
  O  O157  1  0.33500532  0.01054943  0.84083945  1
  O  O158  1  0.90916055  0.73945057  0.41499468  1
  O  O159  1  0.16499468  0.98945057  0.34083945  1
  O  O160  1  0.01054943  0.84083945  0.33500532  1
  O  O161  1  0.51054943  0.65916055  0.66499468  1
  O  O162  1  0.48945057  0.15916055  0.83500532  1
  O  O163  1  0.98945057  0.34083945  0.16499468  1
