# generated using pymatgen
data_CaZn2Si2HO7
_symmetry_space_group_name_H-M   'P 1'
_cell_length_a   5.35681615
_cell_length_b   5.35681615
_cell_length_c   12.65620100
_cell_angle_alpha   90.00000000
_cell_angle_beta   90.00000000
_cell_angle_gamma   108.48321003
_symmetry_Int_Tables_number   1
_chemical_formula_structural   CaZn2Si2HO7
_chemical_formula_sum   'Ca2 Zn4 Si4 H2 O14'
_cell_volume   344.44191227
_cell_formula_units_Z   2
loop_
 _symmetry_equiv_pos_site_id
 _symmetry_equiv_pos_as_xyz
  1  'x, y, z'
loop_
 _atom_site_type_symbol
 _atom_site_label
 _atom_site_symmetry_multiplicity
 _atom_site_fract_x
 _atom_site_fract_y
 _atom_site_fract_z
 _atom_site_occupancy
  Ca  Ca0  1  0.14694800  0.34258600  0.75000000  1
  Ca  Ca1  1  0.65741400  0.85305200  0.25000000  1
  Zn  Zn2  1  0.50055800  0.49944200  0.00000000  1
  Zn  Zn3  1  0.50055800  0.49944200  0.50000000  1
  Zn  Zn4  1  0.00315700  0.99684300  0.00000000  1
  Zn  Zn5  1  0.00315700  0.99684300  0.50000000  1
  Si  Si6  1  0.51171200  0.98135300  0.86794900  1
  Si  Si7  1  0.01864700  0.48828800  0.13205100  1
  Si  Si8  1  0.01864700  0.48828800  0.36794900  1
  Si  Si9  1  0.51171200  0.98135300  0.63205100  1
  H  H10  1  0.88418300  0.66583500  0.75000000  1
  H  H11  1  0.33416500  0.11581700  0.25000000  1
  O  O12  1  0.42298200  0.07472100  0.75000000  1
  O  O13  1  0.92527900  0.57701800  0.25000000  1
  O  O14  1  0.37564700  0.12649700  0.95533500  1
  O  O15  1  0.87350300  0.62435300  0.04466500  1
  O  O16  1  0.87350300  0.62435300  0.45533500  1
  O  O17  1  0.37564700  0.12649700  0.54466500  1
  O  O18  1  0.83240600  0.09012200  0.87376600  1
  O  O19  1  0.90987800  0.16759400  0.12623400  1
  O  O20  1  0.90987800  0.16759400  0.37376600  1
  O  O21  1  0.83240600  0.09012200  0.62623400  1
  O  O22  1  0.38989100  0.66098600  0.87456100  1
  O  O23  1  0.33901400  0.61010900  0.12543900  1
  O  O24  1  0.33901400  0.61010900  0.37456100  1
  O  O25  1  0.38989100  0.66098600  0.62543900  1
