# generated using pymatgen
data_Fe6CuP4(H4O7)4
_symmetry_space_group_name_H-M   'P 1'
_cell_length_a   7.78390159
_cell_length_b   7.97546176
_cell_length_c   10.34723148
_cell_angle_alpha   67.20855382
_cell_angle_beta   69.18479627
_cell_angle_gamma   65.42834349
_symmetry_Int_Tables_number   1
_chemical_formula_structural   Fe6CuP4(H4O7)4
_chemical_formula_sum   'Fe6 Cu1 P4 H16 O28'
_cell_volume   523.91775541
_cell_formula_units_Z   1
loop_
 _symmetry_equiv_pos_site_id
 _symmetry_equiv_pos_as_xyz
  1  'x, y, z'
loop_
 _atom_site_type_symbol
 _atom_site_label
 _atom_site_symmetry_multiplicity
 _atom_site_fract_x
 _atom_site_fract_y
 _atom_site_fract_z
 _atom_site_occupancy
  Fe  Fe0  1  0.71677900  0.31723400  0.24601500  1
  Fe  Fe1  1  0.28322100  0.68276600  0.75398500  1
  Fe  Fe2  1  0.24077000  0.31626300  0.72435700  1
  Fe  Fe3  1  0.75923000  0.68373700  0.27564300  1
  Fe  Fe4  1  0.24622500  0.00095600  0.24164100  1
  Fe  Fe5  1  0.75377500  0.99904400  0.75835900  1
  Cu  Cu6  1  0.00000000  0.50000000  0.00000000  1
  P  P7  1  0.65300400  0.11654800  0.05154200  1
  P  P8  1  0.34699600  0.88345200  0.94845800  1
  P  P9  1  0.16011100  0.11825000  0.53589200  1
  P  P10  1  0.83988900  0.88175000  0.46410800  1
  H  H11  1  0.15536300  0.63665600  0.18186000  1
  H  H12  1  0.84463700  0.36334400  0.81814000  1
  H  H13  1  0.65835900  0.67743100  0.04657600  1
  H  H14  1  0.34164100  0.32256900  0.95342400  1
  H  H15  1  0.13022800  0.42765700  0.26156400  1
  H  H16  1  0.86977200  0.57234300  0.73843600  1
  H  H17  1  0.40911200  0.57547500  0.33146100  1
  H  H18  1  0.59088800  0.42452500  0.66853900  1
  H  H19  1  0.16241500  0.67950600  0.54887100  1
  H  H20  1  0.83758500  0.32049400  0.45112900  1
  H  H21  1  0.35389700  0.37949400  0.40437700  1
  H  H22  1  0.64610300  0.62050600  0.59562300  1
  H  H23  1  0.57563100  0.20791200  0.56828500  1
  H  H24  1  0.42436800  0.79208800  0.43171500  1
  H  H25  1  0.01723500  0.16458200  0.07613800  1
  H  H26  1  0.98276500  0.83541800  0.92386200  1
  O  O27  1  0.19473300  0.16247800  0.37012100  1
  O  O28  1  0.80526700  0.83752200  0.62988000  1
  O  O29  1  0.21795100  0.08328900  0.87427500  1
  O  O30  1  0.78204900  0.91671100  0.12572500  1
  O  O31  1  0.53854300  0.21810700  0.66727100  1
  O  O32  1  0.46145700  0.78189300  0.33272900  1
  O  O33  1  0.27190400  0.84952000  0.11414300  1
  O  O34  1  0.72809600  0.15048000  0.88585700  1
  O  O35  1  0.42290100  0.45546000  0.31387600  1
  O  O36  1  0.57709900  0.54454000  0.68612400  1
  O  O37  1  0.67679100  0.27331700  0.08875900  1
  O  O38  1  0.32320900  0.72668300  0.91124100  1
  O  O39  1  0.07012600  0.56027500  0.20454600  1
  O  O40  1  0.92987400  0.43972500  0.79545400  1
  O  O41  1  0.23316200  0.58516700  0.62362300  1
  O  O42  1  0.76683800  0.41483300  0.37637700  1
  O  O43  1  0.21697000  0.27067400  0.55725000  1
  O  O44  1  0.78303000  0.72932600  0.44275000  1
  O  O45  1  0.01640800  0.22608900  0.14257300  1
  O  O46  1  0.98359200  0.77391100  0.85742700  1
  O  O47  1  0.43447000  0.13457300  0.09403600  1
  O  O48  1  0.56553100  0.86542700  0.90596400  1
  O  O49  1  0.05594600  0.86137900  0.39178800  1
  O  O50  1  0.94405400  0.13862100  0.60821200  1
  O  O51  1  0.70421600  0.08527100  0.40310200  1
  O  O52  1  0.29578400  0.91472900  0.59689800  1
  O  O53  1  0.74179200  0.58451300  0.11623800  1
  O  O54  1  0.25820700  0.41548700  0.88376200  1
