# generated using pymatgen
data_CsNd(MoO4)2
_symmetry_space_group_name_H-M   'P 1'
_cell_length_a   5.16498800
_cell_length_b   8.53845700
_cell_length_c   9.72117500
_cell_angle_alpha   90.00000000
_cell_angle_beta   90.00000000
_cell_angle_gamma   90.00000000
_symmetry_Int_Tables_number   1
_chemical_formula_structural   CsNd(MoO4)2
_chemical_formula_sum   'Cs2 Nd2 Mo4 O16'
_cell_volume   428.71381032
_cell_formula_units_Z   2
loop_
 _symmetry_equiv_pos_site_id
 _symmetry_equiv_pos_as_xyz
  1  'x, y, z'
loop_
 _atom_site_type_symbol
 _atom_site_label
 _atom_site_symmetry_multiplicity
 _atom_site_fract_x
 _atom_site_fract_y
 _atom_site_fract_z
 _atom_site_occupancy
  Cs  Cs0  1  0.00000000  0.25000000  0.50000000  1
  Cs  Cs1  1  0.00000000  0.75000000  0.50000000  1
  Nd  Nd2  1  0.00000000  0.25000000  0.00000000  1
  Nd  Nd3  1  0.00000000  0.75000000  0.00000000  1
  Mo  Mo4  1  0.52119700  0.00000000  0.19899000  1
  Mo  Mo5  1  0.47880300  0.00000000  0.80101000  1
  Mo  Mo6  1  0.47880300  0.50000000  0.19899000  1
  Mo  Mo7  1  0.52119700  0.50000000  0.80101000  1
  O  O8  1  0.25403300  0.00000000  0.07112400  1
  O  O9  1  0.74596700  0.00000000  0.92887600  1
  O  O10  1  0.74596700  0.50000000  0.07112400  1
  O  O11  1  0.25403300  0.50000000  0.92887600  1
  O  O12  1  0.26554700  0.33235400  0.18803200  1
  O  O13  1  0.73445300  0.66764600  0.81196800  1
  O  O14  1  0.73445300  0.33235400  0.81196800  1
  O  O15  1  0.73445300  0.16764600  0.18803200  1
  O  O16  1  0.26554700  0.66764600  0.18803200  1
  O  O17  1  0.26554700  0.83235400  0.81196800  1
  O  O18  1  0.26554700  0.16764600  0.81196800  1
  O  O19  1  0.73445300  0.83235400  0.18803200  1
  O  O20  1  0.37646300  0.00000000  0.36175800  1
  O  O21  1  0.62353700  0.00000000  0.63824200  1
  O  O22  1  0.62353700  0.50000000  0.36175800  1
  O  O23  1  0.37646300  0.50000000  0.63824200  1
