# generated using pymatgen
data_Ca3V3(CoO6)2
_symmetry_space_group_name_H-M   'P 1'
_cell_length_a   10.89507763
_cell_length_b   10.89507763
_cell_length_c   10.89507763
_cell_angle_alpha   109.47122063
_cell_angle_beta   109.47122063
_cell_angle_gamma   109.47122063
_symmetry_Int_Tables_number   1
_chemical_formula_structural   Ca3V3(CoO6)2
_chemical_formula_sum   'Ca12 V12 Co8 O48'
_cell_volume   995.56379805
_cell_formula_units_Z   4
loop_
 _symmetry_equiv_pos_site_id
 _symmetry_equiv_pos_as_xyz
  1  'x, y, z'
loop_
 _atom_site_type_symbol
 _atom_site_label
 _atom_site_symmetry_multiplicity
 _atom_site_fract_x
 _atom_site_fract_y
 _atom_site_fract_z
 _atom_site_occupancy
  Ca  Ca0  1  0.25000000  0.37500000  0.12500000  1
  Ca  Ca1  1  0.75000000  0.62500000  0.87500000  1
  Ca  Ca2  1  0.75000000  0.12500000  0.37500000  1
  Ca  Ca3  1  0.12500000  0.25000000  0.37500000  1
  Ca  Ca4  1  0.37500000  0.75000000  0.12500000  1
  Ca  Ca5  1  0.25000000  0.87500000  0.62500000  1
  Ca  Ca6  1  0.87500000  0.75000000  0.62500000  1
  Ca  Ca7  1  0.62500000  0.25000000  0.87500000  1
  Ca  Ca8  1  0.37500000  0.12500000  0.25000000  1
  Ca  Ca9  1  0.62500000  0.87500000  0.75000000  1
  Ca  Ca10  1  0.12500000  0.37500000  0.75000000  1
  Ca  Ca11  1  0.87500000  0.62500000  0.25000000  1
  V  V12  1  0.25000000  0.62500000  0.37500000  1
  V  V13  1  0.75000000  0.37500000  0.62500000  1
  V  V14  1  0.75000000  0.87500000  0.12500000  1
  V  V15  1  0.37500000  0.25000000  0.62500000  1
  V  V16  1  0.62500000  0.75000000  0.37500000  1
  V  V17  1  0.25000000  0.12500000  0.87500000  1
  V  V18  1  0.12500000  0.75000000  0.87500000  1
  V  V19  1  0.87500000  0.25000000  0.12500000  1
  V  V20  1  0.62500000  0.37500000  0.25000000  1
  V  V21  1  0.37500000  0.62500000  0.75000000  1
  V  V22  1  0.87500000  0.12500000  0.75000000  1
  V  V23  1  0.12500000  0.87500000  0.25000000  1
  Co  Co24  1  0.00000000  0.00000000  0.00000000  1
  Co  Co25  1  0.50000000  0.00000000  0.50000000  1
  Co  Co26  1  0.00000000  0.50000000  0.50000000  1
  Co  Co27  1  0.50000000  0.00000000  0.00000000  1
  Co  Co28  1  0.50000000  0.50000000  0.00000000  1
  Co  Co29  1  0.50000000  0.50000000  0.50000000  1
  Co  Co30  1  0.00000000  0.00000000  0.50000000  1
  Co  Co31  1  0.00000000  0.50000000  0.00000000  1
  O  O32  1  0.48268700  0.37971900  0.29084800  1
  O  O33  1  0.51731300  0.62028100  0.70915200  1
  O  O34  1  0.58887100  0.19183900  0.20915200  1
  O  O35  1  0.91112900  0.12028100  0.60296800  1
  O  O36  1  0.29084800  0.48268700  0.37971900  1
  O  O37  1  0.30816100  0.91112900  0.29084800  1
  O  O38  1  0.41112900  0.80816100  0.79084800  1
  O  O39  1  0.08887100  0.87971900  0.39703200  1
  O  O40  1  0.70915200  0.51731300  0.62028100  1
  O  O41  1  0.69183900  0.08887100  0.70915200  1
  O  O42  1  0.01731300  0.30816100  0.89703200  1
  O  O43  1  0.20915200  0.58887100  0.19183900  1
  O  O44  1  0.12028100  0.01731300  0.20915200  1
  O  O45  1  0.98268700  0.69183900  0.10296800  1
  O  O46  1  0.79084800  0.41112900  0.80816100  1
  O  O47  1  0.87971900  0.98268700  0.79084800  1
  O  O48  1  0.60296800  0.91112900  0.12028100  1
  O  O49  1  0.19183900  0.48268700  0.60296800  1
  O  O50  1  0.39703200  0.08887100  0.87971900  1
  O  O51  1  0.80816100  0.51731300  0.39703200  1
  O  O52  1  0.89703200  0.01731300  0.30816100  1
  O  O53  1  0.37971900  0.58887100  0.89703200  1
  O  O54  1  0.10296800  0.98268700  0.69183900  1
  O  O55  1  0.62028100  0.41112900  0.10296800  1
  O  O56  1  0.37971900  0.29084800  0.48268700  1
  O  O57  1  0.58887100  0.89703200  0.37971900  1
  O  O58  1  0.62028100  0.70915200  0.51731300  1
  O  O59  1  0.41112900  0.10296800  0.62028100  1
  O  O60  1  0.12028100  0.60296800  0.91112900  1
  O  O61  1  0.01731300  0.20915200  0.12028100  1
  O  O62  1  0.87971900  0.39703200  0.08887100  1
  O  O63  1  0.98268700  0.79084800  0.87971900  1
  O  O64  1  0.30816100  0.89703200  0.01731300  1
  O  O65  1  0.91112900  0.29084800  0.30816100  1
  O  O66  1  0.69183900  0.10296800  0.98268700  1
  O  O67  1  0.08887100  0.70915200  0.69183900  1
  O  O68  1  0.19183900  0.20915200  0.58887100  1
  O  O69  1  0.48268700  0.60296800  0.19183900  1
  O  O70  1  0.80816100  0.79084800  0.41112900  1
  O  O71  1  0.51731300  0.39703200  0.80816100  1
  O  O72  1  0.29084800  0.30816100  0.91112900  1
  O  O73  1  0.70915200  0.69183900  0.08887100  1
  O  O74  1  0.20915200  0.12028100  0.01731300  1
  O  O75  1  0.79084800  0.87971900  0.98268700  1
  O  O76  1  0.89703200  0.37971900  0.58887100  1
  O  O77  1  0.10296800  0.62028100  0.41112900  1
  O  O78  1  0.60296800  0.19183900  0.48268700  1
  O  O79  1  0.39703200  0.80816100  0.51731300  1
