# generated using pymatgen
data_Ca6Si2O13
_symmetry_space_group_name_H-M   'P 1'
_cell_length_a   10.18053841
_cell_length_b   10.18053841
_cell_length_c   7.58039900
_cell_angle_alpha   90.00000000
_cell_angle_beta   90.00000000
_cell_angle_gamma   120.00000263
_symmetry_Int_Tables_number   1
_chemical_formula_structural   Ca6Si2O13
_chemical_formula_sum   'Ca12 Si4 O26'
_cell_volume   680.39980268
_cell_formula_units_Z   2
loop_
 _symmetry_equiv_pos_site_id
 _symmetry_equiv_pos_as_xyz
  1  'x, y, z'
loop_
 _atom_site_type_symbol
 _atom_site_label
 _atom_site_symmetry_multiplicity
 _atom_site_fract_x
 _atom_site_fract_y
 _atom_site_fract_z
 _atom_site_occupancy
  Ca  Ca0  1  0.66606700  0.62094000  0.62168100  1
  Ca  Ca1  1  0.95487300  0.33393300  0.62168100  1
  Ca  Ca2  1  0.37906000  0.04512700  0.62168100  1
  Ca  Ca3  1  0.33393300  0.37906000  0.37831900  1
  Ca  Ca4  1  0.04512700  0.66606700  0.37831900  1
  Ca  Ca5  1  0.62094000  0.95487300  0.37831900  1
  Ca  Ca6  1  0.33468200  0.38206200  0.87008700  1
  Ca  Ca7  1  0.04738100  0.66531800  0.87008700  1
  Ca  Ca8  1  0.61793800  0.95261900  0.87008700  1
  Ca  Ca9  1  0.38206200  0.04738100  0.12991300  1
  Ca  Ca10  1  0.66531800  0.61793800  0.12991300  1
  Ca  Ca11  1  0.95261900  0.33468200  0.12991300  1
  Si  Si12  1  0.33333300  0.66666700  0.65556000  1
  Si  Si13  1  0.66666700  0.33333300  0.34444000  1
  Si  Si14  1  0.33333300  0.66666700  0.09446400  1
  Si  Si15  1  0.66666700  0.33333300  0.90553600  1
  O  O16  1  0.41215800  0.56534700  0.14727600  1
  O  O17  1  0.15318900  0.58784200  0.14727600  1
  O  O18  1  0.43465300  0.84681100  0.14727600  1
  O  O19  1  0.58648300  0.43305800  0.39661800  1
  O  O20  1  0.84657500  0.41351700  0.39661800  1
  O  O21  1  0.56694200  0.15342500  0.39661800  1
  O  O22  1  0.41351700  0.56694200  0.60338200  1
  O  O23  1  0.15342500  0.58648300  0.60338200  1
  O  O24  1  0.43305800  0.84657500  0.60338200  1
  O  O25  1  0.23571700  0.91741900  0.88074200  1
  O  O26  1  0.68170200  0.76428300  0.88074200  1
  O  O27  1  0.08258100  0.31829800  0.88074200  1
  O  O28  1  0.22861300  0.92801600  0.36925500  1
  O  O29  1  0.69940300  0.77138700  0.36925500  1
  O  O30  1  0.07198400  0.30059700  0.36925500  1
  O  O31  1  0.31829800  0.23571700  0.11925800  1
  O  O32  1  0.91741900  0.68170200  0.11925800  1
  O  O33  1  0.76428300  0.08258100  0.11925800  1
  O  O34  1  0.33333300  0.66666700  0.87482600  1
  O  O35  1  0.66666700  0.33333300  0.12517400  1
  O  O36  1  0.30059700  0.22861300  0.63074500  1
  O  O37  1  0.92801600  0.69940300  0.63074500  1
  O  O38  1  0.77138700  0.07198400  0.63074500  1
  O  O39  1  0.58784200  0.43465300  0.85272400  1
  O  O40  1  0.84681100  0.41215800  0.85272400  1
  O  O41  1  0.56534700  0.15318900  0.85272400  1
