# generated using pymatgen
data_Ca3Ga2(SnO4)3
_symmetry_space_group_name_H-M   'P 1'
_cell_length_a   11.19148521
_cell_length_b   11.19148521
_cell_length_c   11.19148521
_cell_angle_alpha   109.47122063
_cell_angle_beta   109.47122063
_cell_angle_gamma   109.47122063
_symmetry_Int_Tables_number   1
_chemical_formula_structural   Ca3Ga2(SnO4)3
_chemical_formula_sum   'Ca12 Ga8 Sn12 O48'
_cell_volume   1079.04929381
_cell_formula_units_Z   4
loop_
 _symmetry_equiv_pos_site_id
 _symmetry_equiv_pos_as_xyz
  1  'x, y, z'
loop_
 _atom_site_type_symbol
 _atom_site_label
 _atom_site_symmetry_multiplicity
 _atom_site_fract_x
 _atom_site_fract_y
 _atom_site_fract_z
 _atom_site_occupancy
  Ca  Ca0  1  0.25000000  0.37500000  0.12500000  1
  Ca  Ca1  1  0.75000000  0.62500000  0.87500000  1
  Ca  Ca2  1  0.75000000  0.12500000  0.37500000  1
  Ca  Ca3  1  0.12500000  0.25000000  0.37500000  1
  Ca  Ca4  1  0.37500000  0.75000000  0.12500000  1
  Ca  Ca5  1  0.25000000  0.87500000  0.62500000  1
  Ca  Ca6  1  0.87500000  0.75000000  0.62500000  1
  Ca  Ca7  1  0.62500000  0.25000000  0.87500000  1
  Ca  Ca8  1  0.37500000  0.12500000  0.25000000  1
  Ca  Ca9  1  0.62500000  0.87500000  0.75000000  1
  Ca  Ca10  1  0.12500000  0.37500000  0.75000000  1
  Ca  Ca11  1  0.87500000  0.62500000  0.25000000  1
  Ga  Ga12  1  0.00000000  0.00000000  0.00000000  1
  Ga  Ga13  1  0.50000000  0.00000000  0.50000000  1
  Ga  Ga14  1  0.00000000  0.50000000  0.50000000  1
  Ga  Ga15  1  0.50000000  0.00000000  0.00000000  1
  Ga  Ga16  1  0.50000000  0.50000000  0.00000000  1
  Ga  Ga17  1  0.50000000  0.50000000  0.50000000  1
  Ga  Ga18  1  0.00000000  0.00000000  0.50000000  1
  Ga  Ga19  1  0.00000000  0.50000000  0.00000000  1
  Sn  Sn20  1  0.25000000  0.62500000  0.37500000  1
  Sn  Sn21  1  0.75000000  0.37500000  0.62500000  1
  Sn  Sn22  1  0.75000000  0.87500000  0.12500000  1
  Sn  Sn23  1  0.37500000  0.25000000  0.62500000  1
  Sn  Sn24  1  0.62500000  0.75000000  0.37500000  1
  Sn  Sn25  1  0.25000000  0.12500000  0.87500000  1
  Sn  Sn26  1  0.12500000  0.75000000  0.87500000  1
  Sn  Sn27  1  0.87500000  0.25000000  0.12500000  1
  Sn  Sn28  1  0.62500000  0.37500000  0.25000000  1
  Sn  Sn29  1  0.37500000  0.62500000  0.75000000  1
  Sn  Sn30  1  0.87500000  0.12500000  0.75000000  1
  Sn  Sn31  1  0.12500000  0.87500000  0.25000000  1
  O  O32  1  0.47388700  0.37874400  0.30283800  1
  O  O33  1  0.52611300  0.62125600  0.69716200  1
  O  O34  1  0.57590600  0.17105000  0.19716200  1
  O  O35  1  0.92409400  0.12125600  0.59514300  1
  O  O36  1  0.30283800  0.47388700  0.37874400  1
  O  O37  1  0.32895000  0.92409400  0.30283800  1
  O  O38  1  0.42409400  0.82895000  0.80283800  1
  O  O39  1  0.07590600  0.87874400  0.40485700  1
  O  O40  1  0.69716200  0.52611300  0.62125600  1
  O  O41  1  0.67105000  0.07590600  0.69716200  1
  O  O42  1  0.02611300  0.32895000  0.90485700  1
  O  O43  1  0.19716200  0.57590600  0.17105000  1
  O  O44  1  0.12125600  0.02611300  0.19716200  1
  O  O45  1  0.97388700  0.67105000  0.09514300  1
  O  O46  1  0.80283800  0.42409400  0.82895000  1
  O  O47  1  0.87874400  0.97388700  0.80283800  1
  O  O48  1  0.59514300  0.92409400  0.12125600  1
  O  O49  1  0.17105000  0.47388700  0.59514300  1
  O  O50  1  0.40485700  0.07590600  0.87874400  1
  O  O51  1  0.82895000  0.52611300  0.40485700  1
  O  O52  1  0.90485700  0.02611300  0.32895000  1
  O  O53  1  0.37874400  0.57590600  0.90485700  1
  O  O54  1  0.09514300  0.97388700  0.67105000  1
  O  O55  1  0.62125600  0.42409400  0.09514300  1
  O  O56  1  0.37874400  0.30283800  0.47388700  1
  O  O57  1  0.57590600  0.90485700  0.37874400  1
  O  O58  1  0.62125600  0.69716200  0.52611300  1
  O  O59  1  0.42409400  0.09514300  0.62125600  1
  O  O60  1  0.12125600  0.59514300  0.92409400  1
  O  O61  1  0.02611300  0.19716200  0.12125600  1
  O  O62  1  0.87874400  0.40485700  0.07590600  1
  O  O63  1  0.97388700  0.80283800  0.87874400  1
  O  O64  1  0.32895000  0.90485700  0.02611300  1
  O  O65  1  0.92409400  0.30283800  0.32895000  1
  O  O66  1  0.67105000  0.09514300  0.97388700  1
  O  O67  1  0.07590600  0.69716200  0.67105000  1
  O  O68  1  0.17105000  0.19716200  0.57590600  1
  O  O69  1  0.47388700  0.59514300  0.17105000  1
  O  O70  1  0.82895000  0.80283800  0.42409400  1
  O  O71  1  0.52611300  0.40485700  0.82895000  1
  O  O72  1  0.30283800  0.32895000  0.92409400  1
  O  O73  1  0.69716200  0.67105000  0.07590600  1
  O  O74  1  0.19716200  0.12125600  0.02611300  1
  O  O75  1  0.80283800  0.87874400  0.97388700  1
  O  O76  1  0.90485700  0.37874400  0.57590600  1
  O  O77  1  0.09514300  0.62125600  0.42409400  1
  O  O78  1  0.59514300  0.17105000  0.47388700  1
  O  O79  1  0.40485700  0.82895000  0.52611300  1
