# generated using pymatgen
data_Ca2AsH4F13
_symmetry_space_group_name_H-M   'P 1'
_cell_length_a   7.31816200
_cell_length_b   7.31816200
_cell_length_c   17.75092800
_cell_angle_alpha   90.00000000
_cell_angle_beta   90.00000000
_cell_angle_gamma   90.00000000
_symmetry_Int_Tables_number   1
_chemical_formula_structural   Ca2AsH4F13
_chemical_formula_sum   'Ca8 As4 H16 F52'
_cell_volume   950.65973678
_cell_formula_units_Z   4
loop_
 _symmetry_equiv_pos_site_id
 _symmetry_equiv_pos_as_xyz
  1  'x, y, z'
loop_
 _atom_site_type_symbol
 _atom_site_label
 _atom_site_symmetry_multiplicity
 _atom_site_fract_x
 _atom_site_fract_y
 _atom_site_fract_z
 _atom_site_occupancy
  Ca  Ca0  1  0.24304000  0.22136100  0.03509800  1
  Ca  Ca1  1  0.75696000  0.77863900  0.53509800  1
  Ca  Ca2  1  0.77863900  0.24304000  0.28509800  1
  Ca  Ca3  1  0.75696000  0.22136100  0.96490200  1
  Ca  Ca4  1  0.22136100  0.75696000  0.78509800  1
  Ca  Ca5  1  0.24304000  0.77863900  0.46490200  1
  Ca  Ca6  1  0.22136100  0.24304000  0.71490200  1
  Ca  Ca7  1  0.77863900  0.75696000  0.21490200  1
  As  As8  1  0.50000000  0.71683400  0.00000000  1
  As  As9  1  0.50000000  0.28316600  0.50000000  1
  As  As10  1  0.28316600  0.50000000  0.25000000  1
  As  As11  1  0.71683400  0.50000000  0.75000000  1
  H  H12  1  0.11634600  0.03453800  0.18932100  1
  H  H13  1  0.88365400  0.96546200  0.68932100  1
  H  H14  1  0.96546200  0.11634600  0.43932100  1
  H  H15  1  0.88365400  0.03453800  0.81067900  1
  H  H16  1  0.03453800  0.88365400  0.93932100  1
  H  H17  1  0.11634600  0.96546200  0.31067900  1
  H  H18  1  0.03453800  0.11634600  0.56067900  1
  H  H19  1  0.96546200  0.88365400  0.06067900  1
  H  H20  1  0.61277600  0.12839000  0.12767600  1
  H  H21  1  0.38722400  0.87161000  0.62767600  1
  H  H22  1  0.87161000  0.61277600  0.37767600  1
  H  H23  1  0.38722400  0.12839000  0.87232400  1
  H  H24  1  0.12839000  0.38722400  0.87767600  1
  H  H25  1  0.61277600  0.87161000  0.37232400  1
  H  H26  1  0.12839000  0.61277600  0.62232400  1
  H  H27  1  0.87161000  0.38722400  0.12232400  1
  F  F28  1  0.11331300  0.33296700  0.26680800  1
  F  F29  1  0.88668700  0.66703300  0.76680800  1
  F  F30  1  0.66703300  0.11331300  0.51680800  1
  F  F31  1  0.88668700  0.33296700  0.73319200  1
  F  F32  1  0.33296700  0.88668700  0.01680800  1
  F  F33  1  0.11331300  0.66703300  0.23319200  1
  F  F34  1  0.33296700  0.11331300  0.48319200  1
  F  F35  1  0.66703300  0.88668700  0.98319200  1
  F  F36  1  0.00000000  0.00606600  0.00000000  1
  F  F37  1  0.00000000  0.99393400  0.50000000  1
  F  F38  1  0.99393400  0.00000000  0.25000000  1
  F  F39  1  0.00606600  0.00000000  0.75000000  1
  F  F40  1  0.67178200  0.06374800  0.17992300  1
  F  F41  1  0.32821800  0.93625200  0.67992300  1
  F  F42  1  0.93625200  0.67178200  0.42992300  1
  F  F43  1  0.32821800  0.06374800  0.82007700  1
  F  F44  1  0.06374800  0.32821800  0.92992300  1
  F  F45  1  0.67178200  0.93625200  0.32007700  1
  F  F46  1  0.06374800  0.67178200  0.57007700  1
  F  F47  1  0.93625200  0.32821800  0.07007700  1
  F  F48  1  0.55795100  0.19683200  0.07152600  1
  F  F49  1  0.44204900  0.80316800  0.57152600  1
  F  F50  1  0.80316800  0.55795100  0.32152600  1
  F  F51  1  0.44204900  0.19683200  0.92847400  1
  F  F52  1  0.19683200  0.44204900  0.82152600  1
  F  F53  1  0.55795100  0.80316800  0.42847400  1
  F  F54  1  0.19683200  0.55795100  0.67847400  1
  F  F55  1  0.80316800  0.44204900  0.17847400  1
  F  F56  1  0.45607100  0.33262200  0.26426900  1
  F  F57  1  0.54392900  0.66737800  0.76426900  1
  F  F58  1  0.66737800  0.45607100  0.51426900  1
  F  F59  1  0.54392900  0.33262200  0.73573100  1
  F  F60  1  0.33262200  0.54392900  0.01426900  1
  F  F61  1  0.45607100  0.66737800  0.23573100  1
  F  F62  1  0.33262200  0.45607100  0.48573100  1
  F  F63  1  0.66737800  0.54392900  0.98573100  1
  F  F64  1  0.28189700  0.44527600  0.15321200  1
  F  F65  1  0.71810300  0.55472400  0.65321200  1
  F  F66  1  0.55472400  0.28189700  0.40321200  1
  F  F67  1  0.71810300  0.44527600  0.84678800  1
  F  F68  1  0.44527600  0.71810300  0.90321200  1
  F  F69  1  0.28189700  0.55472400  0.34678800  1
  F  F70  1  0.44527600  0.28189700  0.59678800  1
  F  F71  1  0.55472400  0.71810300  0.09678800  1
  F  F72  1  0.20481600  0.06212600  0.14810500  1
  F  F73  1  0.79518400  0.93787400  0.64810500  1
  F  F74  1  0.93787400  0.20481600  0.39810500  1
  F  F75  1  0.79518400  0.06212600  0.85189500  1
  F  F76  1  0.06212600  0.79518400  0.89810500  1
  F  F77  1  0.20481600  0.93787400  0.35189500  1
  F  F78  1  0.06212600  0.20481600  0.60189500  1
  F  F79  1  0.93787400  0.79518400  0.10189500  1
