# generated using pymatgen
data_Al3Bi(BO3)4
_symmetry_space_group_name_H-M   'P 1'
_cell_length_a   5.96973543
_cell_length_b   5.96973543
_cell_length_c   5.96973603
_cell_angle_alpha   104.27298733
_cell_angle_beta   104.27298733
_cell_angle_gamma   104.27298789
_symmetry_Int_Tables_number   1
_chemical_formula_structural   Al3Bi(BO3)4
_chemical_formula_sum   'Al3 Bi1 B4 O12'
_cell_volume   188.81658714
_cell_formula_units_Z   1
loop_
 _symmetry_equiv_pos_site_id
 _symmetry_equiv_pos_as_xyz
  1  'x, y, z'
loop_
 _atom_site_type_symbol
 _atom_site_label
 _atom_site_symmetry_multiplicity
 _atom_site_fract_x
 _atom_site_fract_y
 _atom_site_fract_z
 _atom_site_occupancy
  Al  Al0  1  0.05590900  0.94409100  0.50000000  1
  Al  Al1  1  0.94409100  0.50000000  0.05590900  1
  Al  Al2  1  0.50000000  0.05590900  0.94409100  1
  Bi  Bi3  1  0.50000000  0.50000000  0.50000000  1
  B  B4  1  0.44347900  0.55652100  0.00000000  1
  B  B5  1  0.55652100  0.00000000  0.44347900  1
  B  B6  1  0.00000000  0.44347900  0.55652100  1
  B  B7  1  0.00000000  0.00000000  0.00000000  1
  O  O8  1  0.59110900  0.40889100  0.00000000  1
  O  O9  1  0.40889100  0.00000000  0.59110900  1
  O  O10  1  0.00000000  0.59110900  0.40889100  1
  O  O11  1  0.27543100  0.52924200  0.12145200  1
  O  O12  1  0.52924200  0.12145200  0.27543100  1
  O  O13  1  0.72456900  0.87854800  0.47075800  1
  O  O14  1  0.12145200  0.27543100  0.52924200  1
  O  O15  1  0.47075800  0.72456900  0.87854800  1
  O  O16  1  0.87854800  0.47075800  0.72456900  1
  O  O17  1  0.85162400  0.14837600  0.00000000  1
  O  O18  1  0.14837600  0.00000000  0.85162400  1
  O  O19  1  0.00000000  0.85162400  0.14837600  1
