# generated using pymatgen
data_Ba2Sr5B4S13
_symmetry_space_group_name_H-M   'P 1'
_cell_length_a   12.82849506
_cell_length_b   12.82849506
_cell_length_c   9.90723012
_cell_angle_alpha   89.93537862
_cell_angle_beta   89.93537862
_cell_angle_gamma   134.49206365
_symmetry_Int_Tables_number   1
_chemical_formula_structural   Ba2Sr5B4S13
_chemical_formula_sum   'Ba4 Sr10 B8 S26'
_cell_volume   1163.06232592
_cell_formula_units_Z   2
loop_
 _symmetry_equiv_pos_site_id
 _symmetry_equiv_pos_as_xyz
  1  'x, y, z'
loop_
 _atom_site_type_symbol
 _atom_site_label
 _atom_site_symmetry_multiplicity
 _atom_site_fract_x
 _atom_site_fract_y
 _atom_site_fract_z
 _atom_site_occupancy
  Ba  Ba0  1  0.83041100  0.16958900  0.25000000  1
  Ba  Ba1  1  0.16958900  0.83041100  0.75000000  1
  Ba  Ba2  1  0.50878200  0.49121800  0.25000000  1
  Ba  Ba3  1  0.49121800  0.50878200  0.75000000  1
  Sr  Sr4  1  0.00234300  0.99765700  0.25000000  1
  Sr  Sr5  1  0.99765700  0.00234300  0.75000000  1
  Sr  Sr6  1  0.43422500  0.77750700  0.02437700  1
  Sr  Sr7  1  0.56577500  0.22249300  0.97562300  1
  Sr  Sr8  1  0.22249300  0.56577500  0.47562300  1
  Sr  Sr9  1  0.77750700  0.43422500  0.52437700  1
  Sr  Sr10  1  0.39914700  0.05243500  0.35583300  1
  Sr  Sr11  1  0.60085300  0.94756500  0.64416700  1
  Sr  Sr12  1  0.94756500  0.60085300  0.14416700  1
  Sr  Sr13  1  0.05243500  0.39914700  0.85583300  1
  B  B14  1  0.21629900  0.98093300  0.07092400  1
  B  B15  1  0.78370100  0.01906700  0.92907600  1
  B  B16  1  0.01906700  0.78370100  0.42907600  1
  B  B17  1  0.98093300  0.21629900  0.57092400  1
  B  B18  1  0.56433600  0.79415700  0.34923000  1
  B  B19  1  0.43566400  0.20584300  0.65077000  1
  B  B20  1  0.20584300  0.43566400  0.15077000  1
  B  B21  1  0.79415700  0.56433600  0.84923000  1
  S  S22  1  0.29850000  0.90665200  0.06665000  1
  S  S23  1  0.70150000  0.09334800  0.93335000  1
  S  S24  1  0.09334800  0.70150000  0.43335000  1
  S  S25  1  0.90665200  0.29850000  0.56665000  1
  S  S26  1  0.13046200  0.96719200  0.49433400  1
  S  S27  1  0.86953800  0.03280800  0.50566600  1
  S  S28  1  0.03280800  0.86953800  0.00566600  1
  S  S29  1  0.96719200  0.13046200  0.99433400  1
  S  S30  1  0.66665000  0.82548500  0.20115000  1
  S  S31  1  0.33335000  0.17451500  0.79885000  1
  S  S32  1  0.17451500  0.33335000  0.29885000  1
  S  S33  1  0.82548500  0.66665000  0.70115000  1
  S  S34  1  0.31360100  0.15368400  0.15567200  1
  S  S35  1  0.68639900  0.84631600  0.84432800  1
  S  S36  1  0.84631600  0.68639900  0.34432800  1
  S  S37  1  0.15368400  0.31360100  0.65567200  1
  S  S38  1  0.51675200  0.67285500  0.48632100  1
  S  S39  1  0.48324800  0.32714500  0.51367900  1
  S  S40  1  0.32714500  0.48324800  0.01367900  1
  S  S41  1  0.67285500  0.51675200  0.98632100  1
  S  S42  1  0.48863800  0.87524600  0.35137800  1
  S  S43  1  0.51136200  0.12475400  0.64862200  1
  S  S44  1  0.12475400  0.51136200  0.14862200  1
  S  S45  1  0.87524600  0.48863800  0.85137800  1
  S  S46  1  0.70035000  0.29965000  0.25000000  1
  S  S47  1  0.29965000  0.70035000  0.75000000  1
