data_image0
_chemical_formula_structural       Cs2O4Sb2
_chemical_formula_sum              "Cs2 O4 Sb2"
_cell_length_a       5.61606
_cell_length_b       6.30615
_cell_length_c       6.30615
_cell_angle_alpha    100.15
_cell_angle_beta     109.914
_cell_angle_gamma    109.914

_space_group_name_H-M_alt    "P 1"
_space_group_IT_number       1

loop_
  _space_group_symop_operation_xyz
  'x, y, z'

loop_
  _atom_site_type_symbol
  _atom_site_label
  _atom_site_symmetry_multiplicity
  _atom_site_fract_x
  _atom_site_fract_y
  _atom_site_fract_z
  _atom_site_occupancy
  Cs  Cs1       1.0  0.25000  0.64800  0.35200  1.0000
  Cs  Cs2       1.0  0.75000  0.35200  0.64800  1.0000
  O   O1        1.0  0.70400  0.21900  0.12900  1.0000
  O   O2        1.0  0.20400  0.12900  0.21900  1.0000
  O   O3        1.0  0.79600  0.87100  0.78100  1.0000
  O   O4        1.0  0.29600  0.78100  0.87100  1.0000
  Sb  Sb1       1.0  0.75000  0.91700  0.08350  1.0000
  Sb  Sb2       1.0  0.25000  0.08350  0.91700  1.0000
