# generated using pymatgen
data_Ba2NdV3O11
_symmetry_space_group_name_H-M   'P 1'
_cell_length_a   7.85824900
_cell_length_b   12.55076473
_cell_length_c   11.44512251
_cell_angle_alpha   103.14948449
_cell_angle_beta   90.00000000
_cell_angle_gamma   90.00000000
_symmetry_Int_Tables_number   1
_chemical_formula_structural   Ba2NdV3O11
_chemical_formula_sum   'Ba8 Nd4 V12 O44'
_cell_volume   1099.20122870
_cell_formula_units_Z   4
loop_
 _symmetry_equiv_pos_site_id
 _symmetry_equiv_pos_as_xyz
  1  'x, y, z'
loop_
 _atom_site_type_symbol
 _atom_site_label
 _atom_site_symmetry_multiplicity
 _atom_site_fract_x
 _atom_site_fract_y
 _atom_site_fract_z
 _atom_site_occupancy
  Ba  Ba0  1  0.27399600  0.76518300  0.94132200  1
  Ba  Ba1  1  0.72600400  0.23481700  0.05867800  1
  Ba  Ba2  1  0.77399600  0.23481700  0.55867800  1
  Ba  Ba3  1  0.22600400  0.76518300  0.44132200  1
  Ba  Ba4  1  0.74741400  0.55396000  0.88929000  1
  Ba  Ba5  1  0.25258600  0.44604000  0.11071000  1
  Ba  Ba6  1  0.24741400  0.44604000  0.61071000  1
  Ba  Ba7  1  0.75258600  0.55396000  0.38929000  1
  Nd  Nd8  1  0.50070200  0.99765700  0.71132000  1
  Nd  Nd9  1  0.49929800  0.00234300  0.28868000  1
  Nd  Nd10  1  0.00070200  0.00234300  0.78868000  1
  Nd  Nd11  1  0.99929800  0.99765700  0.21132000  1
  V  V12  1  0.75115200  0.90384200  0.97554200  1
  V  V13  1  0.24884800  0.09615800  0.02445800  1
  V  V14  1  0.25115200  0.09615800  0.52445800  1
  V  V15  1  0.74884800  0.90384200  0.47554200  1
  V  V16  1  0.51978700  0.68264900  0.67354300  1
  V  V17  1  0.48021300  0.31735100  0.32645700  1
  V  V18  1  0.01978700  0.31735100  0.82645700  1
  V  V19  1  0.98021300  0.68264900  0.17354300  1
  V  V20  1  0.98069900  0.68606700  0.67022500  1
  V  V21  1  0.01930100  0.31393300  0.32977500  1
  V  V22  1  0.48069900  0.31393300  0.82977500  1
  V  V23  1  0.51930100  0.68606700  0.17022500  1
  O  O24  1  0.44241400  0.81496400  0.71941200  1
  O  O25  1  0.55758600  0.18503600  0.28058800  1
  O  O26  1  0.94241400  0.18503600  0.78058800  1
  O  O27  1  0.05758600  0.81496400  0.21941200  1
  O  O28  1  0.55203600  0.18057100  0.80968800  1
  O  O29  1  0.44796400  0.81942900  0.19031200  1
  O  O30  1  0.05203600  0.81942900  0.69031200  1
  O  O31  1  0.94796400  0.18057100  0.30968800  1
  O  O32  1  0.75030900  0.66680800  0.66740600  1
  O  O33  1  0.24969100  0.33319200  0.33259400  1
  O  O34  1  0.25030900  0.33319200  0.83259400  1
  O  O35  1  0.74969100  0.66680800  0.16740600  1
  O  O36  1  0.94523100  0.37568400  0.96597500  1
  O  O37  1  0.05476900  0.62431600  0.03402500  1
  O  O38  1  0.44523100  0.62431600  0.53402500  1
  O  O39  1  0.55476900  0.37568400  0.46597500  1
  O  O40  1  0.94220200  0.39349400  0.73190400  1
  O  O41  1  0.05779800  0.60650600  0.26809600  1
  O  O42  1  0.44220200  0.60650600  0.76809600  1
  O  O43  1  0.55779800  0.39349400  0.23190400  1
  O  O44  1  0.78529200  0.98589200  0.62178100  1
  O  O45  1  0.21470800  0.01410800  0.37821900  1
  O  O46  1  0.28529200  0.01410800  0.87821900  1
  O  O47  1  0.71470800  0.98589200  0.12178100  1
  O  O48  1  0.96954800  0.88209100  0.97312300  1
  O  O49  1  0.03045200  0.11790900  0.02687700  1
  O  O50  1  0.46954800  0.11790900  0.52687700  1
  O  O51  1  0.53045200  0.88209100  0.47312300  1
  O  O52  1  0.63773300  0.78541600  0.94646500  1
  O  O53  1  0.36226700  0.21458400  0.05353500  1
  O  O54  1  0.13773300  0.21458400  0.55353500  1
  O  O55  1  0.86226700  0.78541600  0.44646500  1
  O  O56  1  0.71722500  0.98259400  0.86651000  1
  O  O57  1  0.28277500  0.01740600  0.13349000  1
  O  O58  1  0.21722500  0.01740600  0.63349000  1
  O  O59  1  0.78277500  0.98259400  0.36651000  1
  O  O60  1  0.55847400  0.37059200  0.71935800  1
  O  O61  1  0.44152600  0.62940800  0.28064200  1
  O  O62  1  0.05847400  0.62940800  0.78064200  1
  O  O63  1  0.94152600  0.37059200  0.21935800  1
  O  O64  1  0.56209800  0.38868400  0.96185900  1
  O  O65  1  0.43790200  0.61131600  0.03814100  1
  O  O66  1  0.06209800  0.61131600  0.53814100  1
  O  O67  1  0.93790200  0.38868400  0.46185900  1
