# generated using pymatgen
data_Ba2TmCl7
_symmetry_space_group_name_H-M   'P 1'
_cell_length_a   15.73731400
_cell_length_b   6.91818900
_cell_length_c   10.66926325
_cell_angle_alpha   89.29213424
_cell_angle_beta   90.00000000
_cell_angle_gamma   90.00000000
_symmetry_Int_Tables_number   1
_chemical_formula_structural   Ba2TmCl7
_chemical_formula_sum   'Ba8 Tm4 Cl28'
_cell_volume   1161.51365036
_cell_formula_units_Z   4
loop_
 _symmetry_equiv_pos_site_id
 _symmetry_equiv_pos_as_xyz
  1  'x, y, z'
loop_
 _atom_site_type_symbol
 _atom_site_label
 _atom_site_symmetry_multiplicity
 _atom_site_fract_x
 _atom_site_fract_y
 _atom_site_fract_z
 _atom_site_occupancy
  Ba  Ba0  1  0.27975600  0.23477800  0.54902700  1
  Ba  Ba1  1  0.72024400  0.76522200  0.45097300  1
  Ba  Ba2  1  0.77975600  0.76522200  0.95097300  1
  Ba  Ba3  1  0.22024400  0.23477800  0.04902700  1
  Ba  Ba4  1  0.43920100  0.76574100  0.82386700  1
  Ba  Ba5  1  0.56079900  0.23425900  0.17613300  1
  Ba  Ba6  1  0.93920100  0.23425900  0.67613300  1
  Ba  Ba7  1  0.06079900  0.76574100  0.32386700  1
  Tm  Tm8  1  0.12685800  0.71590500  0.78196400  1
  Tm  Tm9  1  0.87314200  0.28409500  0.21803600  1
  Tm  Tm10  1  0.62685800  0.28409500  0.71803600  1
  Tm  Tm11  1  0.37314200  0.71590500  0.28196400  1
  Cl  Cl12  1  0.07117400  0.37376800  0.87553100  1
  Cl  Cl13  1  0.92882600  0.62623200  0.12446900  1
  Cl  Cl14  1  0.57117400  0.62623200  0.62446900  1
  Cl  Cl15  1  0.42882600  0.37376800  0.37553100  1
  Cl  Cl16  1  0.10517000  0.98475900  0.58759800  1
  Cl  Cl17  1  0.89483000  0.01524100  0.41240200  1
  Cl  Cl18  1  0.60517000  0.01524100  0.91240200  1
  Cl  Cl19  1  0.39483000  0.98475900  0.08759800  1
  Cl  Cl20  1  0.96159800  0.79364400  0.78713500  1
  Cl  Cl21  1  0.03840200  0.20635600  0.21286500  1
  Cl  Cl22  1  0.46159800  0.20635600  0.71286500  1
  Cl  Cl23  1  0.53840200  0.79364400  0.28713500  1
  Cl  Cl24  1  0.36073100  0.79001800  0.52567000  1
  Cl  Cl25  1  0.63926900  0.20998200  0.47433000  1
  Cl  Cl26  1  0.86073100  0.20998200  0.97433000  1
  Cl  Cl27  1  0.13926900  0.79001800  0.02567000  1
  Cl  Cl28  1  0.25624800  0.98637300  0.80141400  1
  Cl  Cl29  1  0.74375200  0.01362700  0.19858600  1
  Cl  Cl30  1  0.75624800  0.01362700  0.69858600  1
  Cl  Cl31  1  0.24375200  0.98637300  0.30141400  1
  Cl  Cl32  1  0.27102300  0.50297800  0.79455000  1
  Cl  Cl33  1  0.72897700  0.49702200  0.20545000  1
  Cl  Cl34  1  0.77102300  0.49702200  0.70545000  1
  Cl  Cl35  1  0.22897700  0.50297800  0.29455000  1
  Cl  Cl36  1  0.10463400  0.50138300  0.57274800  1
  Cl  Cl37  1  0.89536600  0.49861700  0.42725200  1
  Cl  Cl38  1  0.60463400  0.49861700  0.92725200  1
  Cl  Cl39  1  0.39536600  0.50138300  0.07274800  1
