# generated using pymatgen
data_Bi2(Pb2S3)3
_symmetry_space_group_name_H-M   'P 1'
_cell_length_a   7.20924429
_cell_length_b   7.20924429
_cell_length_c   32.19815000
_cell_angle_alpha   90.00000000
_cell_angle_beta   90.00000000
_cell_angle_gamma   146.55559222
_symmetry_Int_Tables_number   1
_chemical_formula_structural   Bi2(Pb2S3)3
_chemical_formula_sum   'Bi4 Pb12 S18'
_cell_volume   922.27957366
_cell_formula_units_Z   2
loop_
 _symmetry_equiv_pos_site_id
 _symmetry_equiv_pos_as_xyz
  1  'x, y, z'
loop_
 _atom_site_type_symbol
 _atom_site_label
 _atom_site_symmetry_multiplicity
 _atom_site_fract_x
 _atom_site_fract_y
 _atom_site_fract_z
 _atom_site_occupancy
  Bi  Bi0  1  0.54303100  0.45696900  0.11622600  1
  Bi  Bi1  1  0.45696900  0.54303100  0.88377400  1
  Bi  Bi2  1  0.45696900  0.54303100  0.61622600  1
  Bi  Bi3  1  0.54303100  0.45696900  0.38377400  1
  Pb  Pb4  1  0.72934900  0.27065100  0.55740500  1
  Pb  Pb5  1  0.27065100  0.72934900  0.44259500  1
  Pb  Pb6  1  0.27065100  0.72934900  0.05740500  1
  Pb  Pb7  1  0.72934900  0.27065100  0.94259500  1
  Pb  Pb8  1  0.07355400  0.92644600  0.25000000  1
  Pb  Pb9  1  0.92644600  0.07355400  0.75000000  1
  Pb  Pb10  1  0.00000000  0.00000000  0.00000000  1
  Pb  Pb11  1  0.00000000  0.00000000  0.50000000  1
  Pb  Pb12  1  0.81654500  0.18345500  0.17461700  1
  Pb  Pb13  1  0.18345500  0.81654500  0.82538300  1
  Pb  Pb14  1  0.18345500  0.81654500  0.67461700  1
  Pb  Pb15  1  0.81654500  0.18345500  0.32538300  1
  S  S16  1  0.63755000  0.36245000  0.02912300  1
  S  S17  1  0.36245000  0.63755000  0.97087700  1
  S  S18  1  0.36245000  0.63755000  0.52912300  1
  S  S19  1  0.63755000  0.36245000  0.47087700  1
  S  S20  1  0.91565700  0.08434300  0.08514800  1
  S  S21  1  0.08434300  0.91565700  0.91485200  1
  S  S22  1  0.08434300  0.91565700  0.58514800  1
  S  S23  1  0.91565700  0.08434300  0.41485200  1
  S  S24  1  0.71448800  0.28551200  0.25000000  1
  S  S25  1  0.28551200  0.71448800  0.75000000  1
  S  S26  1  0.45865300  0.54134700  0.19104700  1
  S  S27  1  0.54134700  0.45865300  0.80895300  1
  S  S28  1  0.54134700  0.45865300  0.69104700  1
  S  S29  1  0.45865300  0.54134700  0.30895300  1
  S  S30  1  0.82781100  0.17218900  0.63792800  1
  S  S31  1  0.17218900  0.82781100  0.36207200  1
  S  S32  1  0.17218900  0.82781100  0.13792800  1
  S  S33  1  0.82781100  0.17218900  0.86207200  1
