# generated using pymatgen
data_Ba3VO5
_symmetry_space_group_name_H-M   'P 1'
_cell_length_a   7.92862348
_cell_length_b   7.92862348
_cell_length_c   7.92862348
_cell_angle_alpha   124.18845904
_cell_angle_beta   124.18845904
_cell_angle_gamma   82.88660088
_symmetry_Int_Tables_number   1
_chemical_formula_structural   Ba3VO5
_chemical_formula_sum   'Ba6 V2 O10'
_cell_volume   327.35275778
_cell_formula_units_Z   2
loop_
 _symmetry_equiv_pos_site_id
 _symmetry_equiv_pos_as_xyz
  1  'x, y, z'
loop_
 _atom_site_type_symbol
 _atom_site_label
 _atom_site_symmetry_multiplicity
 _atom_site_fract_x
 _atom_site_fract_y
 _atom_site_fract_z
 _atom_site_occupancy
  Ba  Ba0  1  0.25000000  0.25000000  0.00000000  1
  Ba  Ba1  1  0.75000000  0.75000000  0.00000000  1
  Ba  Ba2  1  0.18061000  0.68061000  0.86122000  1
  Ba  Ba3  1  0.81939000  0.31939000  0.13878000  1
  Ba  Ba4  1  0.68061000  0.81939000  0.50000000  1
  Ba  Ba5  1  0.31939000  0.18061000  0.50000000  1
  V  V6  1  0.75000000  0.25000000  0.50000000  1
  V  V7  1  0.25000000  0.75000000  0.50000000  1
  O  O8  1  0.79774800  0.29774800  0.77834800  1
  O  O9  1  0.20225200  0.70225200  0.22165200  1
  O  O10  1  0.51940100  0.01940100  0.22165200  1
  O  O11  1  0.29774800  0.51940100  0.50000000  1
  O  O12  1  0.98059900  0.20225200  0.50000000  1
  O  O13  1  0.48059900  0.98059900  0.77834800  1
  O  O14  1  0.70225200  0.48059900  0.50000000  1
  O  O15  1  0.01940100  0.79774800  0.50000000  1
  O  O16  1  0.00000000  0.00000000  0.00000000  1
  O  O17  1  0.50000000  0.50000000  0.00000000  1
