# generated using pymatgen
data_CI2
_symmetry_space_group_name_H-M   'P 1'
_cell_length_a   5.04242900
_cell_length_b   15.62854550
_cell_length_c   13.36378629
_cell_angle_alpha   109.01112538
_cell_angle_beta   90.00000000
_cell_angle_gamma   90.00000000
_symmetry_Int_Tables_number   1
_chemical_formula_structural   CI2
_chemical_formula_sum   'C8 I16'
_cell_volume   995.70088838
_cell_formula_units_Z   8
loop_
 _symmetry_equiv_pos_site_id
 _symmetry_equiv_pos_as_xyz
  1  'x, y, z'
loop_
 _atom_site_type_symbol
 _atom_site_label
 _atom_site_symmetry_multiplicity
 _atom_site_fract_x
 _atom_site_fract_y
 _atom_site_fract_z
 _atom_site_occupancy
  C  C0  1  0.97604700  0.54366800  0.50554300  1
  C  C1  1  0.02395300  0.45633200  0.49445700  1
  C  C2  1  0.47604700  0.45633200  0.99445700  1
  C  C3  1  0.52395300  0.54366800  0.00554300  1
  C  C4  1  0.98381400  0.95597400  0.97193600  1
  C  C5  1  0.01618600  0.04402600  0.02806400  1
  C  C6  1  0.48381400  0.04402600  0.52806400  1
  C  C7  1  0.51618600  0.95597400  0.47193600  1
  I  I8  1  0.78828800  0.91075600  0.82518900  1
  I  I9  1  0.21171200  0.08924400  0.17481100  1
  I  I10  1  0.28828800  0.08924400  0.67481100  1
  I  I11  1  0.71171200  0.91075600  0.32518900  1
  I  I12  1  0.37750900  0.85051900  0.52408200  1
  I  I13  1  0.62249100  0.14948100  0.47591800  1
  I  I14  1  0.87750900  0.14948100  0.97591800  1
  I  I15  1  0.12249100  0.85051900  0.02408200  1
  I  I16  1  0.71528000  0.58602000  0.89058200  1
  I  I17  1  0.28472000  0.41398000  0.10941800  1
  I  I18  1  0.21528000  0.41398000  0.60941800  1
  I  I19  1  0.78472000  0.58602000  0.39058200  1
  I  I20  1  0.58878500  0.34878200  0.85855300  1
  I  I21  1  0.41121500  0.65121800  0.14144700  1
  I  I22  1  0.08878500  0.65121800  0.64144700  1
  I  I23  1  0.91121500  0.34878200  0.35855300  1
