# generated using pymatgen
data_CaV2(PO4)3
_symmetry_space_group_name_H-M   'P 1'
_cell_length_a   20.16318500
_cell_length_b   6.44262500
_cell_length_c   9.00805129
_cell_angle_alpha   46.56522347
_cell_angle_beta   90.00000000
_cell_angle_gamma   90.00000000
_symmetry_Int_Tables_number   1
_chemical_formula_structural   CaV2(PO4)3
_chemical_formula_sum   'Ca4 V8 P12 O48'
_cell_volume   849.73531049
_cell_formula_units_Z   4
loop_
 _symmetry_equiv_pos_site_id
 _symmetry_equiv_pos_as_xyz
  1  'x, y, z'
loop_
 _atom_site_type_symbol
 _atom_site_label
 _atom_site_symmetry_multiplicity
 _atom_site_fract_x
 _atom_site_fract_y
 _atom_site_fract_z
 _atom_site_occupancy
  Ca  Ca0  1  0.92458900  0.29853800  0.06355300  1
  Ca  Ca1  1  0.07541100  0.70146200  0.93644700  1
  Ca  Ca2  1  0.42458900  0.70146200  0.43644700  1
  Ca  Ca3  1  0.57541100  0.29853800  0.56355300  1
  V  V4  1  0.78824200  0.83752600  0.09562000  1
  V  V5  1  0.21175800  0.16247400  0.90438000  1
  V  V6  1  0.28824200  0.16247400  0.40438000  1
  V  V7  1  0.71175800  0.83752600  0.59562000  1
  V  V8  1  0.59546300  0.17594400  0.22920200  1
  V  V9  1  0.40453700  0.82405600  0.77079800  1
  V  V10  1  0.09546300  0.82405600  0.27079800  1
  V  V11  1  0.90453700  0.17594400  0.72920200  1
  P  P12  1  0.75114300  0.35115900  0.08497200  1
  P  P13  1  0.24885700  0.64884100  0.91502800  1
  P  P14  1  0.25114300  0.64884100  0.41502800  1
  P  P15  1  0.74885700  0.35115900  0.58497200  1
  P  P16  1  0.94766800  0.65770500  0.22182700  1
  P  P17  1  0.05233200  0.34229500  0.77817300  1
  P  P18  1  0.44766800  0.34229500  0.27817300  1
  P  P19  1  0.55233200  0.65770500  0.72182700  1
  P  P20  1  0.62062100  0.80191200  0.10507100  1
  P  P21  1  0.37937900  0.19808800  0.89492900  1
  P  P22  1  0.12062100  0.19808800  0.39492900  1
  P  P23  1  0.87937900  0.80191200  0.60507100  1
  O  O24  1  0.78971400  0.57448200  0.38798200  1
  O  O25  1  0.21028600  0.42551800  0.61201800  1
  O  O26  1  0.28971400  0.42551800  0.11201800  1
  O  O27  1  0.71028600  0.57448200  0.88798200  1
  O  O28  1  0.91828800  0.43119000  0.43346500  1
  O  O29  1  0.08171200  0.56881000  0.56653500  1
  O  O30  1  0.41828800  0.56881000  0.06653500  1
  O  O31  1  0.58171200  0.43119000  0.93346500  1
  O  O32  1  0.90993900  0.98561400  0.39952100  1
  O  O33  1  0.09006100  0.01438600  0.60047900  1
  O  O34  1  0.40993900  0.01438600  0.10047900  1
  O  O35  1  0.59006100  0.98561400  0.89952100  1
  O  O36  1  0.99789200  0.85279700  0.20930800  1
  O  O37  1  0.00210800  0.14720300  0.79069200  1
  O  O38  1  0.49789200  0.14720300  0.29069200  1
  O  O39  1  0.50210800  0.85279700  0.70930800  1
  O  O40  1  0.61015300  0.47815600  0.23824800  1
  O  O41  1  0.38984700  0.52184400  0.76175200  1
  O  O42  1  0.11015300  0.52184400  0.26175200  1
  O  O43  1  0.88984700  0.47815600  0.73824800  1
  O  O44  1  0.19984700  0.85191900  0.23627300  1
  O  O45  1  0.80015300  0.14808100  0.76372700  1
  O  O46  1  0.69984700  0.14808100  0.26372700  1
  O  O47  1  0.30015300  0.85191900  0.73627300  1
  O  O48  1  0.97620700  0.54294000  0.13388100  1
  O  O49  1  0.02379300  0.45706000  0.86611900  1
  O  O50  1  0.47620700  0.45706000  0.36611900  1
  O  O51  1  0.52379300  0.54294000  0.63388100  1
  O  O52  1  0.29716900  0.82859500  0.42642100  1
  O  O53  1  0.70283100  0.17140500  0.57357900  1
  O  O54  1  0.79716900  0.17140500  0.07357900  1
  O  O55  1  0.20283100  0.82859500  0.92642100  1
  O  O56  1  0.88791400  0.87499900  0.06862200  1
  O  O57  1  0.11208600  0.12500100  0.93137800  1
  O  O58  1  0.38791400  0.12500100  0.43137800  1
  O  O59  1  0.61208600  0.87499900  0.56862200  1
  O  O60  1  0.79673500  0.51015100  0.11713100  1
  O  O61  1  0.20326500  0.48984900  0.88286900  1
  O  O62  1  0.29673500  0.48984900  0.38286900  1
  O  O63  1  0.70326500  0.51015100  0.61713100  1
  O  O64  1  0.69996600  0.86108900  0.07234500  1
  O  O65  1  0.30003400  0.13891100  0.92765500  1
  O  O66  1  0.19996600  0.13891100  0.42765500  1
  O  O67  1  0.80003400  0.86108900  0.57234500  1
  O  O68  1  0.60028900  0.84426300  0.24891500  1
  O  O69  1  0.39971100  0.15573700  0.75108500  1
  O  O70  1  0.10028900  0.15573700  0.25108500  1
  O  O71  1  0.89971100  0.84426300  0.74891500  1
