# generated using pymatgen
data_C3S3O2
_symmetry_space_group_name_H-M   'P 1'
_cell_length_a   5.88825500
_cell_length_b   6.54843700
_cell_length_c   17.67929275
_cell_angle_alpha   73.51655612
_cell_angle_beta   90.00000000
_cell_angle_gamma   90.00000000
_symmetry_Int_Tables_number   1
_chemical_formula_structural   C3S3O2
_chemical_formula_sum   'C12 S12 O8'
_cell_volume   653.67709582
_cell_formula_units_Z   4
loop_
 _symmetry_equiv_pos_site_id
 _symmetry_equiv_pos_as_xyz
  1  'x, y, z'
loop_
 _atom_site_type_symbol
 _atom_site_label
 _atom_site_symmetry_multiplicity
 _atom_site_fract_x
 _atom_site_fract_y
 _atom_site_fract_z
 _atom_site_occupancy
  C  C0  1  0.90815400  0.61006500  0.11532900  1
  C  C1  1  0.09184600  0.38993500  0.88467100  1
  C  C2  1  0.40815400  0.38993500  0.38467100  1
  C  C3  1  0.59184600  0.61006500  0.61532900  1
  C  C4  1  0.16915600  0.94328400  0.11595100  1
  C  C5  1  0.83084400  0.05671600  0.88404900  1
  C  C6  1  0.66915600  0.05671600  0.38404900  1
  C  C7  1  0.33084400  0.94328400  0.61595100  1
  C  C8  1  0.81271100  0.70421600  0.18064600  1
  C  C9  1  0.18728900  0.29578400  0.81935400  1
  C  C10  1  0.31271100  0.29578400  0.31935400  1
  C  C11  1  0.68728900  0.70421600  0.68064600  1
  S  S12  1  0.15810100  0.74136000  0.06921600  1
  S  S13  1  0.84189900  0.25864000  0.93078400  1
  S  S14  1  0.65810100  0.25864000  0.43078400  1
  S  S15  1  0.34189900  0.74136000  0.56921600  1
  S  S16  1  0.96246500  0.93371600  0.18783200  1
  S  S17  1  0.03753500  0.06628400  0.81216800  1
  S  S18  1  0.46246500  0.06628400  0.31216800  1
  S  S19  1  0.53753500  0.93371600  0.68783200  1
  S  S20  1  0.86017600  0.86910100  0.40586500  1
  S  S21  1  0.13982400  0.13089900  0.59413500  1
  S  S22  1  0.36017600  0.13089900  0.09413500  1
  S  S23  1  0.63982400  0.86910100  0.90586500  1
  O  O24  1  0.64923700  0.62798700  0.22053900  1
  O  O25  1  0.35076300  0.37201300  0.77946100  1
  O  O26  1  0.14923700  0.37201300  0.27946100  1
  O  O27  1  0.85076300  0.62798700  0.72053900  1
  O  O28  1  0.81689200  0.46376300  0.09800700  1
  O  O29  1  0.18310800  0.53623700  0.90199300  1
  O  O30  1  0.31689200  0.53623700  0.40199300  1
  O  O31  1  0.68310800  0.46376300  0.59800700  1
