# generated using pymatgen
data_Ba5Lu8Ni4O21
_symmetry_space_group_name_H-M   'P 1'
_cell_length_a   10.02898497
_cell_length_b   10.02898497
_cell_length_c   10.02898497
_cell_angle_alpha   94.56017871
_cell_angle_beta   94.56017871
_cell_angle_gamma   147.24456973
_symmetry_Int_Tables_number   1
_chemical_formula_structural   Ba5Lu8Ni4O21
_chemical_formula_sum   'Ba5 Lu8 Ni4 O21'
_cell_volume   523.62713839
_cell_formula_units_Z   1
loop_
 _symmetry_equiv_pos_site_id
 _symmetry_equiv_pos_as_xyz
  1  'x, y, z'
loop_
 _atom_site_type_symbol
 _atom_site_label
 _atom_site_symmetry_multiplicity
 _atom_site_fract_x
 _atom_site_fract_y
 _atom_site_fract_z
 _atom_site_occupancy
  Ba  Ba0  1  0.13939200  0.53808500  0.67747700  1
  Ba  Ba1  1  0.86060800  0.46191500  0.32252300  1
  Ba  Ba2  1  0.53808500  0.86060800  0.39869300  1
  Ba  Ba3  1  0.46191500  0.13939200  0.60130700  1
  Ba  Ba4  1  0.00000000  0.00000000  0.00000000  1
  Lu  Lu5  1  0.41108500  0.64194700  0.05303200  1
  Lu  Lu6  1  0.58891500  0.35805300  0.94696800  1
  Lu  Lu7  1  0.64194700  0.58891500  0.23086100  1
  Lu  Lu8  1  0.35805300  0.41108500  0.76913900  1
  Lu  Lu9  1  0.25019800  0.83243000  0.08262800  1
  Lu  Lu10  1  0.74980200  0.16757000  0.91737200  1
  Lu  Lu11  1  0.83243000  0.74980200  0.58223200  1
  Lu  Lu12  1  0.16757000  0.25019800  0.41776800  1
  Ni  Ni13  1  0.04092000  0.75627300  0.79719300  1
  Ni  Ni14  1  0.95908000  0.24372700  0.20280700  1
  Ni  Ni15  1  0.75627300  0.95908000  0.71535400  1
  Ni  Ni16  1  0.24372700  0.04092000  0.28464600  1
  O  O17  1  0.92628800  0.69991700  0.12895000  1
  O  O18  1  0.07371200  0.30008300  0.87105000  1
  O  O19  1  0.57096600  0.79733800  0.87105000  1
  O  O20  1  0.69991700  0.57096600  0.77362800  1
  O  O21  1  0.42903400  0.20266200  0.12895000  1
  O  O22  1  0.30008300  0.42903400  0.22637200  1
  O  O23  1  0.79733800  0.92628800  0.22637200  1
  O  O24  1  0.20266200  0.07371200  0.77362800  1
  O  O25  1  0.89965200  0.49460400  0.89157600  1
  O  O26  1  0.10034800  0.50539600  0.10842400  1
  O  O27  1  0.60302800  0.00807600  0.10842400  1
  O  O28  1  0.49460400  0.60302800  0.59495200  1
  O  O29  1  0.39697200  0.99192400  0.89157600  1
  O  O30  1  0.50539600  0.39697200  0.40504800  1
  O  O31  1  0.00807600  0.89965200  0.40504800  1
  O  O32  1  0.99192400  0.10034800  0.59495200  1
  O  O33  1  0.50000000  0.50000000  0.00000000  1
  O  O34  1  0.36720900  0.95990000  0.32710900  1
  O  O35  1  0.63279100  0.04010000  0.67289100  1
  O  O36  1  0.95990000  0.63279100  0.59269200  1
  O  O37  1  0.04010000  0.36720900  0.40730800  1
