# generated using pymatgen
data_YbDyS3
_symmetry_space_group_name_H-M   'P 1'
_cell_length_a   3.93886200
_cell_length_b   10.34271700
_cell_length_c   10.74247700
_cell_angle_alpha   90.00000000
_cell_angle_beta   90.00000000
_cell_angle_gamma   90.00000000
_symmetry_Int_Tables_number   1
_chemical_formula_structural   YbDyS3
_chemical_formula_sum   'Yb4 Dy4 S12'
_cell_volume   437.63277491
_cell_formula_units_Z   4
loop_
 _symmetry_equiv_pos_site_id
 _symmetry_equiv_pos_as_xyz
  1  'x, y, z'
loop_
 _atom_site_type_symbol
 _atom_site_label
 _atom_site_symmetry_multiplicity
 _atom_site_fract_x
 _atom_site_fract_y
 _atom_site_fract_z
 _atom_site_occupancy
  Yb  Yb0  1  0.75000000  0.49948100  0.68795200  1
  Yb  Yb1  1  0.75000000  0.00051900  0.18795200  1
  Yb  Yb2  1  0.25000000  0.50051900  0.31204800  1
  Yb  Yb3  1  0.25000000  0.99948100  0.81204800  1
  Dy  Dy4  1  0.25000000  0.18863300  0.49565400  1
  Dy  Dy5  1  0.25000000  0.31136700  0.99565400  1
  Dy  Dy6  1  0.75000000  0.81136700  0.50434600  1
  Dy  Dy7  1  0.75000000  0.68863300  0.00434600  1
  S  S8  1  0.25000000  0.29776500  0.73446300  1
  S  S9  1  0.25000000  0.20223500  0.23446300  1
  S  S10  1  0.75000000  0.70223500  0.26553700  1
  S  S11  1  0.75000000  0.79776500  0.76553700  1
  S  S12  1  0.75000000  0.05748200  0.62107300  1
  S  S13  1  0.75000000  0.44251800  0.12107300  1
  S  S14  1  0.25000000  0.94251800  0.37892700  1
  S  S15  1  0.25000000  0.55748200  0.87892700  1
  S  S16  1  0.25000000  0.63272900  0.54554800  1
  S  S17  1  0.25000000  0.86727100  0.04554800  1
  S  S18  1  0.75000000  0.36727100  0.45445200  1
  S  S19  1  0.75000000  0.13272900  0.95445200  1
