# generated using pymatgen
data_AgC2S2N4Cl
_symmetry_space_group_name_H-M   'P 1'
_cell_length_a   8.92962600
_cell_length_b   5.45456500
_cell_length_c   35.98970027
_cell_angle_alpha   85.78866587
_cell_angle_beta   90.00000000
_cell_angle_gamma   90.00000000
_symmetry_Int_Tables_number   1
_chemical_formula_structural   AgC2S2N4Cl
_chemical_formula_sum   'Ag8 C16 S16 N32 Cl8'
_cell_volume   1748.22540430
_cell_formula_units_Z   8
loop_
 _symmetry_equiv_pos_site_id
 _symmetry_equiv_pos_as_xyz
  1  'x, y, z'
loop_
 _atom_site_type_symbol
 _atom_site_label
 _atom_site_symmetry_multiplicity
 _atom_site_fract_x
 _atom_site_fract_y
 _atom_site_fract_z
 _atom_site_occupancy
  Ag  Ag0  1  0.83169400  0.15900000  0.10257100  1
  Ag  Ag1  1  0.16830600  0.84100000  0.89742900  1
  Ag  Ag2  1  0.33169400  0.84100000  0.39742900  1
  Ag  Ag3  1  0.66830600  0.15900000  0.60257100  1
  Ag  Ag4  1  0.20923000  0.17119500  0.32006800  1
  Ag  Ag5  1  0.79077000  0.82880500  0.67993200  1
  Ag  Ag6  1  0.70923000  0.82880500  0.17993200  1
  Ag  Ag7  1  0.29077000  0.17119500  0.82006800  1
  C  C8  1  0.09553600  0.47367800  0.14160100  1
  C  C9  1  0.90446400  0.52632200  0.85839900  1
  C  C10  1  0.59553600  0.52632200  0.35839900  1
  C  C11  1  0.40446400  0.47367800  0.64160100  1
  C  C12  1  0.37602600  0.15210300  0.25403500  1
  C  C13  1  0.62397400  0.84789700  0.74596500  1
  C  C14  1  0.87602600  0.84789700  0.24596500  1
  C  C15  1  0.12397400  0.15210300  0.75403500  1
  C  C16  1  0.15721900  0.38004400  0.02610100  1
  C  C17  1  0.84278100  0.61995600  0.97389900  1
  C  C18  1  0.65721900  0.61995600  0.47389900  1
  C  C19  1  0.34278100  0.38004400  0.52610100  1
  C  C20  1  0.00037100  0.14893800  0.40934300  1
  C  C21  1  0.99962900  0.85106200  0.59065700  1
  C  C22  1  0.50037100  0.85106200  0.09065700  1
  C  C23  1  0.49962900  0.14893800  0.90934300  1
  S  S24  1  0.83601600  0.12887200  0.22071800  1
  S  S25  1  0.16398400  0.87112800  0.77928200  1
  S  S26  1  0.33601600  0.87112800  0.27928200  1
  S  S27  1  0.66398400  0.12887200  0.72071800  1
  S  S28  1  0.58196600  0.05168500  0.12649300  1
  S  S29  1  0.41803400  0.94831500  0.87350700  1
  S  S30  1  0.08196600  0.94831500  0.37350700  1
  S  S31  1  0.91803400  0.05168500  0.62649300  1
  S  S32  1  0.11408900  0.16102300  0.09282300  1
  S  S33  1  0.88591100  0.83897700  0.90717700  1
  S  S34  1  0.61408900  0.83897700  0.40717700  1
  S  S35  1  0.38591100  0.16102300  0.59282300  1
  S  S36  1  0.40623300  0.35864500  0.36793300  1
  S  S37  1  0.59376700  0.64135500  0.63206700  1
  S  S38  1  0.90623300  0.64135500  0.13206700  1
  S  S39  1  0.09376700  0.35864500  0.86793300  1
  N  N40  1  0.16731100  0.29121900  0.13010700  1
  N  N41  1  0.83268900  0.70878100  0.86989300  1
  N  N42  1  0.66731100  0.70878100  0.36989300  1
  N  N43  1  0.33268900  0.29121900  0.63010700  1
  N  N44  1  0.12417200  0.40077300  0.05894700  1
  N  N45  1  0.87582800  0.59922700  0.94105300  1
  N  N46  1  0.62417200  0.59922700  0.44105300  1
  N  N47  1  0.37582800  0.40077300  0.55894700  1
  N  N48  1  0.45290700  0.98206000  0.06123300  1
  N  N49  1  0.54709300  0.01794000  0.93876700  1
  N  N50  1  0.95290700  0.01794000  0.43876700  1
  N  N51  1  0.04709300  0.98206000  0.56123300  1
  N  N52  1  0.07579000  0.65564100  0.16105300  1
  N  N53  1  0.92421000  0.34435900  0.83894700  1
  N  N54  1  0.57579000  0.34435900  0.33894700  1
  N  N55  1  0.42421000  0.65564100  0.66105300  1
  N  N56  1  0.31530000  0.32380200  0.27235000  1
  N  N57  1  0.68470000  0.67619800  0.72765000  1
  N  N58  1  0.81530000  0.67619800  0.22765000  1
  N  N59  1  0.18470000  0.32380200  0.77235000  1
  N  N60  1  0.50082600  0.61821000  0.10051700  1
  N  N61  1  0.49917400  0.38179000  0.89948300  1
  N  N62  1  0.00082600  0.38179000  0.39948300  1
  N  N63  1  0.99917400  0.61821000  0.60051700  1
  N  N64  1  0.45266400  0.15761500  0.22155600  1
  N  N65  1  0.54733600  0.84238500  0.77844400  1
  N  N66  1  0.95266400  0.84238500  0.27844400  1
  N  N67  1  0.04733600  0.15761500  0.72155600  1
  N  N68  1  0.15741300  0.38126300  0.99172800  1
  N  N69  1  0.84258700  0.61873700  0.00827200  1
  N  N70  1  0.65741300  0.61873700  0.50827200  1
  N  N71  1  0.34258700  0.38126300  0.49172800  1
  Cl  Cl72  1  0.94940500  0.55747300  0.30182300  1
  Cl  Cl73  1  0.05059500  0.44252700  0.69817700  1
  Cl  Cl74  1  0.44940500  0.44252700  0.19817700  1
  Cl  Cl75  1  0.55059500  0.55747300  0.80182300  1
  Cl  Cl76  1  0.68410600  0.53950200  0.03352100  1
  Cl  Cl77  1  0.31589400  0.46049800  0.96647900  1
  Cl  Cl78  1  0.18410600  0.46049800  0.46647900  1
  Cl  Cl79  1  0.81589400  0.53950200  0.53352100  1
