# generated using pymatgen
data_Yb4Sc4Sb4O
_symmetry_space_group_name_H-M   'P 1'
_cell_length_a   4.47494400
_cell_length_b   4.47494400
_cell_length_c   16.12574600
_cell_angle_alpha   90.00000000
_cell_angle_beta   90.00000000
_cell_angle_gamma   90.00000000
_symmetry_Int_Tables_number   1
_chemical_formula_structural   Yb4Sc4Sb4O
_chemical_formula_sum   'Yb4 Sc4 Sb4 O1'
_cell_volume   322.92006007
_cell_formula_units_Z   1
loop_
 _symmetry_equiv_pos_site_id
 _symmetry_equiv_pos_as_xyz
  1  'x, y, z'
loop_
 _atom_site_type_symbol
 _atom_site_label
 _atom_site_symmetry_multiplicity
 _atom_site_fract_x
 _atom_site_fract_y
 _atom_site_fract_z
 _atom_site_occupancy
  Yb  Yb0  1  0.50000000  0.50000000  0.33210000  1
  Yb  Yb1  1  0.00000000  0.00000000  0.83417700  1
  Yb  Yb2  1  0.00000000  0.00000000  0.16582300  1
  Yb  Yb3  1  0.50000000  0.50000000  0.66790000  1
  Sc  Sc4  1  0.50000000  0.00000000  0.00000000  1
  Sc  Sc5  1  0.00000000  0.50000000  0.50000000  1
  Sc  Sc6  1  0.00000000  0.50000000  0.00000000  1
  Sc  Sc7  1  0.50000000  0.00000000  0.50000000  1
  Sb  Sb8  1  0.50000000  0.50000000  0.13114500  1
  Sb  Sb9  1  0.00000000  0.00000000  0.63085700  1
  Sb  Sb10  1  0.00000000  0.00000000  0.36914300  1
  Sb  Sb11  1  0.50000000  0.50000000  0.86885500  1
  O  O12  1  0.00000000  0.00000000  0.00000000  1
