# generated using pymatgen
data_Zn2Cr3GaSe8
_symmetry_space_group_name_H-M   'P 1'
_cell_length_a   7.54274038
_cell_length_b   7.54274038
_cell_length_c   7.54274034
_cell_angle_alpha   59.90957100
_cell_angle_beta   59.90957100
_cell_angle_gamma   59.90956784
_symmetry_Int_Tables_number   1
_chemical_formula_structural   Zn2Cr3GaSe8
_chemical_formula_sum   'Zn2 Cr3 Ga1 Se8'
_cell_volume   302.81726695
_cell_formula_units_Z   1
loop_
 _symmetry_equiv_pos_site_id
 _symmetry_equiv_pos_as_xyz
  1  'x, y, z'
loop_
 _atom_site_type_symbol
 _atom_site_label
 _atom_site_symmetry_multiplicity
 _atom_site_fract_x
 _atom_site_fract_y
 _atom_site_fract_z
 _atom_site_occupancy
  Zn  Zn0  1  0.12445100  0.12445100  0.12445100  1
  Zn  Zn1  1  0.87554900  0.87554900  0.87554900  1
  Cr  Cr2  1  0.00000000  0.50000000  0.50000000  1
  Cr  Cr3  1  0.50000000  0.50000000  0.00000000  1
  Cr  Cr4  1  0.50000000  0.00000000  0.50000000  1
  Ga  Ga5  1  0.50000000  0.50000000  0.50000000  1
  Se  Se6  1  0.26047000  0.26047000  0.26047000  1
  Se  Se7  1  0.72027300  0.25663600  0.25663600  1
  Se  Se8  1  0.25663600  0.25663600  0.72027300  1
  Se  Se9  1  0.25663600  0.72027300  0.25663600  1
  Se  Se10  1  0.73953000  0.73953000  0.73953000  1
  Se  Se11  1  0.27972700  0.74336400  0.74336400  1
  Se  Se12  1  0.74336400  0.74336400  0.27972700  1
  Se  Se13  1  0.74336400  0.27972700  0.74336400  1
