# generated using pymatgen
data_ZrTiC2
_symmetry_space_group_name_H-M   'P 1'
_cell_length_a   5.53701538
_cell_length_b   5.53701538
_cell_length_c   5.53701581
_cell_angle_alpha   33.80608330
_cell_angle_beta   33.80608330
_cell_angle_gamma   33.80608844
_symmetry_Int_Tables_number   1
_chemical_formula_structural   ZrTiC2
_chemical_formula_sum   'Zr1 Ti1 C2'
_cell_volume   46.82712395
_cell_formula_units_Z   1
loop_
 _symmetry_equiv_pos_site_id
 _symmetry_equiv_pos_as_xyz
  1  'x, y, z'
loop_
 _atom_site_type_symbol
 _atom_site_label
 _atom_site_symmetry_multiplicity
 _atom_site_fract_x
 _atom_site_fract_y
 _atom_site_fract_z
 _atom_site_occupancy
  Zr  Zr0  1  0.00000000  0.00000000  0.00000000  1
  Ti  Ti1  1  0.50000000  0.50000000  0.50000000  1
  C  C2  1  0.24435100  0.24435100  0.24435100  1
  C  C3  1  0.75564900  0.75564900  0.75564900  1
