# generated using pymatgen
data_Ba3RhF12
_symmetry_space_group_name_H-M   'P 1'
_cell_length_a   6.67656518
_cell_length_b   8.05906208
_cell_length_c   8.50649057
_cell_angle_alpha   118.27479202
_cell_angle_beta   100.06555551
_cell_angle_gamma   68.34874417
_symmetry_Int_Tables_number   1
_chemical_formula_structural   Ba3RhF12
_chemical_formula_sum   'Ba3 Rh1 F12'
_cell_volume   374.65675942
_cell_formula_units_Z   1
loop_
 _symmetry_equiv_pos_site_id
 _symmetry_equiv_pos_as_xyz
  1  'x, y, z'
loop_
 _atom_site_type_symbol
 _atom_site_label
 _atom_site_symmetry_multiplicity
 _atom_site_fract_x
 _atom_site_fract_y
 _atom_site_fract_z
 _atom_site_occupancy
  Ba  Ba0  1  0.50000000  0.00000000  0.00000000  1
  Ba  Ba1  1  0.00000000  0.50000000  0.50000000  1
  Ba  Ba2  1  0.00000000  0.00000000  0.50000000  1
  Rh  Rh3  1  0.00000000  0.00000000  0.00000000  1
  F  F4  1  0.89142100  0.76522400  0.84542300  1
  F  F5  1  0.10857900  0.23477600  0.15457700  1
  F  F6  1  0.75380900  0.79350400  0.45077400  1
  F  F7  1  0.10857900  0.08019900  0.84542300  1
  F  F8  1  0.24619100  0.20649600  0.54922600  1
  F  F9  1  0.89142100  0.91980100  0.15457700  1
  F  F10  1  0.24362000  0.76563500  0.84219100  1
  F  F11  1  0.24619100  0.65727000  0.45077400  1
  F  F12  1  0.75638000  0.23436500  0.15780900  1
  F  F13  1  0.75380900  0.34273000  0.54922600  1
  F  F14  1  0.75638000  0.07655600  0.84219100  1
  F  F15  1  0.24362000  0.92344400  0.15780900  1
