# generated using pymatgen
data_YbGaCuO4
_symmetry_space_group_name_H-M   'P 1'
_cell_length_a   8.31836314
_cell_length_b   8.31836314
_cell_length_c   8.31836381
_cell_angle_alpha   24.41904878
_cell_angle_beta   24.41904878
_cell_angle_gamma   24.41904989
_symmetry_Int_Tables_number   1
_chemical_formula_structural   YbGaCuO4
_chemical_formula_sum   'Yb1 Ga1 Cu1 O4'
_cell_volume   86.48102004
_cell_formula_units_Z   1
loop_
 _symmetry_equiv_pos_site_id
 _symmetry_equiv_pos_as_xyz
  1  'x, y, z'
loop_
 _atom_site_type_symbol
 _atom_site_label
 _atom_site_symmetry_multiplicity
 _atom_site_fract_x
 _atom_site_fract_y
 _atom_site_fract_z
 _atom_site_occupancy
  Yb  Yb0  1  0.99676100  0.99676100  0.99676100  1
  Ga  Ga1  1  0.78555400  0.78555400  0.78555400  1
  Cu  Cu2  1  0.21158400  0.21158400  0.21158400  1
  O  O3  1  0.28512100  0.28512100  0.28512100  1
  O  O4  1  0.71164500  0.71164500  0.71164500  1
  O  O5  1  0.13234200  0.13234200  0.13234200  1
  O  O6  1  0.86835300  0.86835300  0.86835300  1
