# generated using pymatgen
data_ZnInSnAs3
_symmetry_space_group_name_H-M   'P 1'
_cell_length_a   4.26396844
_cell_length_b   6.01884300
_cell_length_c   7.39532633
_cell_angle_alpha   114.00847542
_cell_angle_beta   73.24450809
_cell_angle_gamma   90.00000000
_symmetry_Int_Tables_number   1
_chemical_formula_structural   ZnInSnAs3
_chemical_formula_sum   'Zn1 In1 Sn1 As3'
_cell_volume   164.51448559
_cell_formula_units_Z   1
loop_
 _symmetry_equiv_pos_site_id
 _symmetry_equiv_pos_as_xyz
  1  'x, y, z'
loop_
 _atom_site_type_symbol
 _atom_site_label
 _atom_site_symmetry_multiplicity
 _atom_site_fract_x
 _atom_site_fract_y
 _atom_site_fract_z
 _atom_site_occupancy
  Zn  Zn0  1  0.99913100  0.99011800  0.00173800  1
  In  In1  1  0.33667400  0.66496300  0.32665100  1
  Sn  Sn2  1  0.66438500  0.34575100  0.67123000  1
  As  As3  1  0.50034900  0.77567800  0.99930100  1
  As  As4  1  0.84181800  0.39331200  0.31636200  1
  As  As5  1  0.15764200  0.08018000  0.68471700  1
