# generated using pymatgen
data_YbAl7Fe5
_symmetry_space_group_name_H-M   'P 1'
_cell_length_a   5.01762700
_cell_length_b   6.58505686
_cell_length_c   6.58505686
_cell_angle_alpha   98.25042122
_cell_angle_beta   112.39475728
_cell_angle_gamma   67.60524272
_symmetry_Int_Tables_number   1
_chemical_formula_structural   YbAl7Fe5
_chemical_formula_sum   'Yb1 Al7 Fe5'
_cell_volume   185.99722159
_cell_formula_units_Z   1
loop_
 _symmetry_equiv_pos_site_id
 _symmetry_equiv_pos_as_xyz
  1  'x, y, z'
loop_
 _atom_site_type_symbol
 _atom_site_label
 _atom_site_symmetry_multiplicity
 _atom_site_fract_x
 _atom_site_fract_y
 _atom_site_fract_z
 _atom_site_occupancy
  Yb  Yb0  1  0.00498800  0.99501200  0.00498800  1
  Al  Al1  1  0.66337600  0.33662400  0.66337600  1
  Al  Al2  1  0.33603300  0.66396700  0.33603300  1
  Al  Al3  1  0.99168500  0.34889600  0.33226500  1
  Al  Al4  1  0.99168500  0.66773500  0.65110400  1
  Al  Al5  1  0.27279000  0.22721000  0.77279000  1
  Al  Al6  1  0.50463600  0.78383500  0.79310700  1
  Al  Al7  1  0.50463600  0.20689300  0.21616500  1
  Fe  Fe8  1  0.49524200  0.00192700  0.49836400  1
  Fe  Fe9  1  0.00119600  0.00192700  0.49836400  1
  Fe  Fe10  1  0.49524200  0.50163600  0.99807300  1
  Fe  Fe11  1  0.00119600  0.50163600  0.99807300  1
  Fe  Fe12  1  0.73729700  0.76270300  0.23729700  1
