# generated using pymatgen
data_Ba3CrF12
_symmetry_space_group_name_H-M   'P 1'
_cell_length_a   7.07393278
_cell_length_b   8.05558228
_cell_length_c   8.22104812
_cell_angle_alpha   119.33639701
_cell_angle_beta   98.50481639
_cell_angle_gamma   72.43060950
_symmetry_Int_Tables_number   1
_chemical_formula_structural   Ba3CrF12
_chemical_formula_sum   'Ba3 Cr1 F12'
_cell_volume   389.34483675
_cell_formula_units_Z   1
loop_
 _symmetry_equiv_pos_site_id
 _symmetry_equiv_pos_as_xyz
  1  'x, y, z'
loop_
 _atom_site_type_symbol
 _atom_site_label
 _atom_site_symmetry_multiplicity
 _atom_site_fract_x
 _atom_site_fract_y
 _atom_site_fract_z
 _atom_site_occupancy
  Ba  Ba0  1  0.50000000  0.00000000  0.00000000  1
  Ba  Ba1  1  0.00000000  0.50000000  0.50000000  1
  Ba  Ba2  1  0.00000000  0.00000000  0.50000000  1
  Cr  Cr3  1  0.00000000  0.00000000  0.00000000  1
  F  F4  1  0.77061600  0.35918300  0.59562100  1
  F  F5  1  0.22938400  0.64081700  0.40437900  1
  F  F6  1  0.77368500  0.89109600  0.20445100  1
  F  F7  1  0.22938400  0.23643800  0.59562100  1
  F  F8  1  0.22631500  0.10890400  0.79554900  1
  F  F9  1  0.77061600  0.76356200  0.40437900  1
  F  F10  1  0.17871700  0.79226400  0.81884100  1
  F  F11  1  0.22631500  0.31335400  0.20445100  1
  F  F12  1  0.82128300  0.20773600  0.18115900  1
  F  F13  1  0.77368500  0.68664600  0.79554900  1
  F  F14  1  0.82128300  0.02657700  0.81884100  1
  F  F15  1  0.17871700  0.97342300  0.18115900  1
