# generated using pymatgen
data_Cs2MgCr2(H6O7)2
_symmetry_space_group_name_H-M   'P 1'
_cell_length_a   6.57245094
_cell_length_b   9.73560691
_cell_length_c   12.90548000
_cell_angle_alpha   90.00000000
_cell_angle_beta   90.00000000
_cell_angle_gamma   106.84323236
_symmetry_Int_Tables_number   1
_chemical_formula_structural   Cs2MgCr2(H6O7)2
_chemical_formula_sum   'Cs4 Mg2 Cr4 H24 O28'
_cell_volume   790.35531433
_cell_formula_units_Z   2
loop_
 _symmetry_equiv_pos_site_id
 _symmetry_equiv_pos_as_xyz
  1  'x, y, z'
loop_
 _atom_site_type_symbol
 _atom_site_label
 _atom_site_symmetry_multiplicity
 _atom_site_fract_x
 _atom_site_fract_y
 _atom_site_fract_z
 _atom_site_occupancy
  Cs  Cs0  1  0.84409200  0.60743500  0.14718000  1
  Cs  Cs1  1  0.15590800  0.39256500  0.85282000  1
  Cs  Cs2  1  0.15590800  0.89256500  0.64718000  1
  Cs  Cs3  1  0.84409200  0.10743500  0.35282000  1
  Mg  Mg4  1  0.50000000  0.00000000  0.00000000  1
  Mg  Mg5  1  0.50000000  0.50000000  0.50000000  1
  Cr  Cr6  1  0.76191000  0.60733500  0.84924200  1
  Cr  Cr7  1  0.23809000  0.39266500  0.15075800  1
  Cr  Cr8  1  0.23809000  0.89266500  0.34924200  1
  Cr  Cr9  1  0.76191000  0.10733500  0.65075800  1
  H  H10  1  0.56956700  0.76715400  0.59267000  1
  H  H11  1  0.43043300  0.23284600  0.40733000  1
  H  H12  1  0.43043300  0.73284600  0.09267000  1
  H  H13  1  0.56956700  0.26715400  0.90733000  1
  H  H14  1  0.80153400  0.70560300  0.40345000  1
  H  H15  1  0.19846600  0.29439700  0.59655000  1
  H  H16  1  0.19846600  0.79439700  0.90345000  1
  H  H17  1  0.80153400  0.20560300  0.09655000  1
  H  H18  1  0.51130400  0.65420400  0.68329700  1
  H  H19  1  0.48869600  0.34579600  0.31670300  1
  H  H20  1  0.48869600  0.84579600  0.18329700  1
  H  H21  1  0.51130400  0.15420400  0.81670300  1
  H  H22  1  0.83594500  0.52191100  0.62487800  1
  H  H23  1  0.16405500  0.47808900  0.37512200  1
  H  H24  1  0.16405500  0.97808900  0.12487800  1
  H  H25  1  0.83594500  0.02191100  0.87512200  1
  H  H26  1  0.42156500  0.77250900  0.86494300  1
  H  H27  1  0.57843500  0.22749100  0.13505700  1
  H  H28  1  0.57843500  0.72749100  0.36494300  1
  H  H29  1  0.42156500  0.27250900  0.63505700  1
  H  H30  1  0.84908100  0.91023200  0.96174000  1
  H  H31  1  0.15091900  0.08976800  0.03826000  1
  H  H32  1  0.15091900  0.58976800  0.46174000  1
  H  H33  1  0.84908100  0.41023200  0.53826000  1
  O  O34  1  0.92020800  0.73248200  0.92496100  1
  O  O35  1  0.07979200  0.26751800  0.07503900  1
  O  O36  1  0.07979200  0.76751800  0.42496100  1
  O  O37  1  0.92020800  0.23248200  0.57503900  1
  O  O38  1  0.68687000  0.95309100  0.58638400  1
  O  O39  1  0.31313000  0.04690900  0.41361600  1
  O  O40  1  0.31313000  0.54690900  0.08638400  1
  O  O41  1  0.68687000  0.45309100  0.91361600  1
  O  O42  1  0.35026200  0.84482700  0.88780600  1
  O  O43  1  0.64973800  0.15517300  0.11219400  1
  O  O44  1  0.64973800  0.65517300  0.38780600  1
  O  O45  1  0.35026200  0.34482700  0.61219400  1
  O  O46  1  0.54538300  0.65497700  0.81371400  1
  O  O47  1  0.45461700  0.34502300  0.18628600  1
  O  O48  1  0.45461700  0.84502300  0.31371400  1
  O  O49  1  0.54538300  0.15497700  0.68628600  1
  O  O50  1  0.49441300  0.66458000  0.60699100  1
  O  O51  1  0.50558700  0.33542000  0.39300900  1
  O  O52  1  0.50558700  0.83542000  0.10699100  1
  O  O53  1  0.49441300  0.16458000  0.89300900  1
  O  O54  1  0.79582100  0.99306900  0.94834400  1
  O  O55  1  0.20417900  0.00693100  0.05165600  1
  O  O56  1  0.20417900  0.50693100  0.44834400  1
  O  O57  1  0.79582100  0.49306900  0.55165600  1
  O  O58  1  0.89842100  0.58873900  0.74459000  1
  O  O59  1  0.10157900  0.41126100  0.25541000  1
  O  O60  1  0.10157900  0.91126100  0.24459000  1
  O  O61  1  0.89842100  0.08873900  0.75541000  1
