# generated using pymatgen
data_Ag12SI
_symmetry_space_group_name_H-M   'P 1'
_cell_length_a   19.38649127
_cell_length_b   19.38649127
_cell_length_c   19.38649127
_cell_angle_alpha   90.00000000
_cell_angle_beta   90.00000000
_cell_angle_gamma   90.00000000
_symmetry_Int_Tables_number   1
_chemical_formula_structural   Ag12SI
_chemical_formula_sum   'Ag12 S1 I1'
_cell_volume   7286.14218134
_cell_formula_units_Z   1
loop_
 _symmetry_equiv_pos_site_id
 _symmetry_equiv_pos_as_xyz
  1  'x, y, z'
loop_
 _atom_site_type_symbol
 _atom_site_label
 _atom_site_symmetry_multiplicity
 _atom_site_fract_x
 _atom_site_fract_y
 _atom_site_fract_z
 _atom_site_occupancy
  Ag  Ag0  1  0.09793705  0.50000000  0.00000000  1
  Ag  Ag1  1  0.90206295  0.50000000  0.00000000  1
  Ag  Ag2  1  -0.00000000  0.09793705  0.50000000  1
  Ag  Ag3  1  0.50000000  0.09793705  0.00000000  1
  Ag  Ag4  1  0.00000000  0.90206295  0.50000000  1
  Ag  Ag5  1  0.50000000  0.90206295  0.00000000  1
  Ag  Ag6  1  0.50000000  0.00000000  0.09793705  1
  Ag  Ag7  1  0.09793705  0.00000000  0.50000000  1
  Ag  Ag8  1  0.50000000  0.00000000  0.90206295  1
  Ag  Ag9  1  0.90206295  0.00000000  0.50000000  1
  Ag  Ag10  1  -0.00000000  0.50000000  0.09793705  1
  Ag  Ag11  1  0.00000000  0.50000000  0.90206295  1
  S  S12  1  0.00000000  0.00000000  0.00000000  1
  I  I13  1  0.50000000  0.50000000  0.50000000  1
