# generated using pymatgen
data_Ba2H14C12S4N4O15
_symmetry_space_group_name_H-M   'P 1'
_cell_length_a   8.13776957
_cell_length_b   8.13776957
_cell_length_c   22.49299196
_cell_angle_alpha   81.69932533
_cell_angle_beta   81.69932533
_cell_angle_gamma   58.29988903
_symmetry_Int_Tables_number   1
_chemical_formula_structural   Ba2H14C12S4N4O15
_chemical_formula_sum   'Ba4 H28 C24 S8 N8 O30'
_cell_volume   1249.89757725
_cell_formula_units_Z   2
loop_
 _symmetry_equiv_pos_site_id
 _symmetry_equiv_pos_as_xyz
  1  'x, y, z'
loop_
 _atom_site_type_symbol
 _atom_site_label
 _atom_site_symmetry_multiplicity
 _atom_site_fract_x
 _atom_site_fract_y
 _atom_site_fract_z
 _atom_site_occupancy
  Ba  Ba0  1  0.70698700  0.96842400  0.73435300  1
  Ba  Ba1  1  0.29301300  0.03157600  0.26564700  1
  Ba  Ba2  1  0.03157600  0.29301300  0.76564700  1
  Ba  Ba3  1  0.96842400  0.70698700  0.23435300  1
  H  H4  1  0.66913500  0.21614300  0.85588400  1
  H  H5  1  0.33086500  0.78385700  0.14411600  1
  H  H6  1  0.78385700  0.33086500  0.64411600  1
  H  H7  1  0.21614300  0.66913500  0.35588400  1
  H  H8  1  0.57112600  0.62108700  0.72480000  1
  H  H9  1  0.42887400  0.37891300  0.27520000  1
  H  H10  1  0.37891300  0.42887400  0.77520000  1
  H  H11  1  0.62108700  0.57112600  0.22480000  1
  H  H12  1  0.39846400  0.43778500  0.70478800  1
  H  H13  1  0.60153600  0.56221500  0.29521200  1
  H  H14  1  0.56221500  0.60153600  0.79521200  1
  H  H15  1  0.43778500  0.39846400  0.20478800  1
  H  H16  1  0.19912100  0.83997700  0.71565900  1
  H  H17  1  0.80087900  0.16002300  0.28434100  1
  H  H18  1  0.16002300  0.80087900  0.78434100  1
  H  H19  1  0.83997700  0.19912100  0.21565900  1
  H  H20  1  0.29582300  0.21992100  0.64888400  1
  H  H21  1  0.70417700  0.78007900  0.35111600  1
  H  H22  1  0.78007900  0.70417700  0.85111600  1
  H  H23  1  0.21992100  0.29582300  0.14888400  1
  H  H24  1  0.35254500  0.99784200  0.65979400  1
  H  H25  1  0.64745500  0.00215800  0.34020600  1
  H  H26  1  0.00215800  0.64745500  0.84020600  1
  H  H27  1  0.99784200  0.35254500  0.15979400  1
  H  H28  1  0.86966700  0.01737300  0.85538900  1
  H  H29  1  0.13033300  0.98262700  0.14461100  1
  H  H30  1  0.98262700  0.13033300  0.64461100  1
  H  H31  1  0.01737300  0.86966700  0.35538900  1
  C  C32  1  0.24979200  0.07059500  0.91799100  1
  C  C33  1  0.75020800  0.92940500  0.08200900  1
  C  C34  1  0.92940500  0.75020800  0.58200900  1
  C  C35  1  0.07059500  0.24979200  0.41799100  1
  C  C36  1  0.16195800  0.07453000  0.51511300  1
  C  C37  1  0.83804200  0.92547000  0.48488700  1
  C  C38  1  0.92547000  0.83804200  0.98488700  1
  C  C39  1  0.07453000  0.16195800  0.01511300  1
  C  C40  1  0.48296500  0.66378700  0.61282500  1
  C  C41  1  0.51703500  0.33621300  0.38717500  1
  C  C42  1  0.33621300  0.51703500  0.88717500  1
  C  C43  1  0.66378700  0.48296500  0.11282500  1
  C  C44  1  0.37457200  0.80894700  0.56269700  1
  C  C45  1  0.62542800  0.19105300  0.43730300  1
  C  C46  1  0.19105300  0.62542800  0.93730300  1
  C  C47  1  0.80894700  0.37457200  0.06269700  1
  C  C48  1  0.28069800  0.97962000  0.46433300  1
  C  C49  1  0.71930200  0.02038000  0.53566700  1
  C  C50  1  0.02038000  0.71930200  0.03566700  1
  C  C51  1  0.97962000  0.28069800  0.96433300  1
  C  C52  1  0.40816100  0.96966200  0.86975700  1
  C  C53  1  0.59183900  0.03033800  0.13024300  1
  C  C54  1  0.03033800  0.59183900  0.63024300  1
  C  C55  1  0.96966200  0.40816100  0.36975700  1
  S  S56  1  0.75656000  0.46963000  0.98860700  1
  S  S57  1  0.24344000  0.53037000  0.01139300  1
  S  S58  1  0.53037000  0.24344000  0.51139300  1
  S  S59  1  0.46963000  0.75656000  0.48860700  1
  S  S60  1  0.29999300  0.97630900  0.99197500  1
  S  S61  1  0.70000700  0.02369100  0.00802500  1
  S  S62  1  0.02369100  0.70000700  0.50802500  1
  S  S63  1  0.97630900  0.29999300  0.49197500  1
  N  N64  1  0.22817000  0.07819500  0.40945800  1
  N  N65  1  0.77183000  0.92180500  0.59054200  1
  N  N66  1  0.92180500  0.77183000  0.09054200  1
  N  N67  1  0.07819500  0.22817000  0.90945800  1
  N  N68  1  0.21365900  0.97899500  0.57018900  1
  N  N69  1  0.78634100  0.02100500  0.42981100  1
  N  N70  1  0.02100500  0.78634100  0.92981100  1
  N  N71  1  0.97899500  0.21365900  0.07018900  1
  O  O72  1  0.78244100  0.12734400  0.82866300  1
  O  O73  1  0.21755900  0.87265600  0.17133700  1
  O  O74  1  0.87265600  0.21755900  0.67133700  1
  O  O75  1  0.12734400  0.78244100  0.32866300  1
  O  O76  1  0.10244200  0.89755800  0.75000000  1
  O  O77  1  0.89755800  0.10244200  0.25000000  1
  O  O78  1  0.41512100  0.70909400  0.66708800  1
  O  O79  1  0.58487900  0.29090600  0.33291200  1
  O  O80  1  0.29090600  0.58487900  0.83291200  1
  O  O81  1  0.70909400  0.41512100  0.16708800  1
  O  O82  1  0.48997300  0.36556200  0.90266600  1
  O  O83  1  0.51002700  0.63443800  0.09733400  1
  O  O84  1  0.63443800  0.51002700  0.59733400  1
  O  O85  1  0.36556200  0.48997300  0.40266600  1
  O  O86  1  0.56164200  0.82191600  0.88838900  1
  O  O87  1  0.43835800  0.17808400  0.11161100  1
  O  O88  1  0.17808400  0.43835800  0.61161100  1
  O  O89  1  0.82191600  0.56164200  0.38838900  1
  O  O90  1  0.40162800  0.35335700  0.74070200  1
  O  O91  1  0.59837200  0.64664300  0.25929800  1
  O  O92  1  0.64664300  0.59837200  0.75929800  1
  O  O93  1  0.35335700  0.40162800  0.24070200  1
  O  O94  1  0.35220600  0.10051100  0.67774800  1
  O  O95  1  0.64779400  0.89948900  0.32225200  1
  O  O96  1  0.89948900  0.64779400  0.82225200  1
  O  O97  1  0.10051100  0.35220600  0.17774800  1
  O  O98  1  0.37742600  0.04084200  0.81549300  1
  O  O99  1  0.62257400  0.95915800  0.18450700  1
  O  O100  1  0.95915800  0.62257400  0.68450700  1
  O  O101  1  0.04084200  0.37742600  0.31549300  1
