# generated using pymatgen
data_Zr4ZnAg
_symmetry_space_group_name_H-M   'P 1'
_cell_length_a   8.95639551
_cell_length_b   8.95639551
_cell_length_c   8.95639551
_cell_angle_alpha   60.00000000
_cell_angle_beta   120.00000000
_cell_angle_gamma   120.00000000
_symmetry_Int_Tables_number   1
_chemical_formula_structural   Zr4ZnAg
_chemical_formula_sum   'Zr16 Zn4 Ag4'
_cell_volume   508.02465879
_cell_formula_units_Z   4
loop_
 _symmetry_equiv_pos_site_id
 _symmetry_equiv_pos_as_xyz
  1  'x, y, z'
loop_
 _atom_site_type_symbol
 _atom_site_label
 _atom_site_symmetry_multiplicity
 _atom_site_fract_x
 _atom_site_fract_y
 _atom_site_fract_z
 _atom_site_occupancy
  Zr  Zr0  1  0.50496100  0.51488200  0.99503900  1
  Zr  Zr1  1  0.50496100  0.99503900  0.99503900  1
  Zr  Zr2  1  0.50496100  0.99503900  0.51488200  1
  Zr  Zr3  1  0.98511800  0.99503900  0.99503900  1
  Zr  Zr4  1  0.06135500  0.81135500  0.43864500  1
  Zr  Zr5  1  0.68864500  0.43864500  0.81135500  1
  Zr  Zr6  1  0.06135500  0.81135500  0.81135500  1
  Zr  Zr7  1  0.68864500  0.43864500  0.43864500  1
  Zr  Zr8  1  0.06135500  0.43864500  0.81135500  1
  Zr  Zr9  1  0.68864500  0.81135500  0.43864500  1
  Zr  Zr10  1  0.93676400  0.18676400  0.56323600  1
  Zr  Zr11  1  0.31323600  0.56323600  0.18676400  1
  Zr  Zr12  1  0.93676400  0.18676400  0.18676400  1
  Zr  Zr13  1  0.31323600  0.56323600  0.56323600  1
  Zr  Zr14  1  0.93676400  0.56323600  0.18676400  1
  Zr  Zr15  1  0.31323600  0.18676400  0.56323600  1
  Zn  Zn16  1  0.71841900  0.15525800  0.78158100  1
  Zn  Zn17  1  0.71841900  0.78158100  0.78158100  1
  Zn  Zn18  1  0.71841900  0.78158100  0.15525800  1
  Zn  Zn19  1  0.34474200  0.78158100  0.78158100  1
  Ag  Ag20  1  0.29126400  0.87379200  0.20873600  1
  Ag  Ag21  1  0.29126400  0.20873600  0.20873600  1
  Ag  Ag22  1  0.29126400  0.20873600  0.87379200  1
  Ag  Ag23  1  0.62620800  0.20873600  0.20873600  1
