# generated using pymatgen
data_ZnSnP2
_symmetry_space_group_name_H-M   'P 1'
_cell_length_a   4.02771900
_cell_length_b   4.02771900
_cell_length_c   5.70841900
_cell_angle_alpha   90.00000000
_cell_angle_beta   90.00000000
_cell_angle_gamma   90.00000000
_symmetry_Int_Tables_number   1
_chemical_formula_structural   ZnSnP2
_chemical_formula_sum   'Zn1 Sn1 P2'
_cell_volume   92.60494335
_cell_formula_units_Z   1
loop_
 _symmetry_equiv_pos_site_id
 _symmetry_equiv_pos_as_xyz
  1  'x, y, z'
loop_
 _atom_site_type_symbol
 _atom_site_label
 _atom_site_symmetry_multiplicity
 _atom_site_fract_x
 _atom_site_fract_y
 _atom_site_fract_z
 _atom_site_occupancy
  Zn  Zn0  1  0.00000000  0.00000000  0.00000000  1
  Sn  Sn1  1  0.50000000  0.50000000  0.50000000  1
  P  P2  1  0.00000000  0.50000000  0.22709200  1
  P  P3  1  0.50000000  0.00000000  0.77290800  1
