# generated using pymatgen
data_Y9Al(GeS7)3
_symmetry_space_group_name_H-M   'P 1'
_cell_length_a   11.43009713
_cell_length_b   11.43009713
_cell_length_c   11.43009768
_cell_angle_alpha   95.95449296
_cell_angle_beta   95.95449296
_cell_angle_gamma   95.95449937
_symmetry_Int_Tables_number   1
_chemical_formula_structural   Y9Al(GeS7)3
_chemical_formula_sum   'Y18 Al2 Ge6 S42'
_cell_volume   1467.31008236
_cell_formula_units_Z   2
loop_
 _symmetry_equiv_pos_site_id
 _symmetry_equiv_pos_as_xyz
  1  'x, y, z'
loop_
 _atom_site_type_symbol
 _atom_site_label
 _atom_site_symmetry_multiplicity
 _atom_site_fract_x
 _atom_site_fract_y
 _atom_site_fract_z
 _atom_site_occupancy
  Y  Y0  1  0.09460200  0.30664600  0.96181300  1
  Y  Y1  1  0.43449500  0.65975800  0.29574900  1
  Y  Y2  1  0.76155200  0.98239600  0.61875700  1
  Y  Y3  1  0.29574900  0.43449500  0.65975800  1
  Y  Y4  1  0.61875700  0.76155200  0.98239600  1
  Y  Y5  1  0.96181300  0.09460200  0.30664600  1
  Y  Y6  1  0.98239600  0.61875700  0.76155200  1
  Y  Y7  1  0.30664600  0.96181300  0.09460200  1
  Y  Y8  1  0.65975800  0.29574900  0.43449500  1
  Y  Y9  1  0.31601500  0.09243100  0.45608700  1
  Y  Y10  1  0.64672300  0.43589800  0.78027900  1
  Y  Y11  1  0.99008800  0.76683800  0.13131200  1
  Y  Y12  1  0.13131200  0.99008800  0.76683800  1
  Y  Y13  1  0.45608700  0.31601500  0.09243100  1
  Y  Y14  1  0.78027900  0.64672300  0.43589800  1
  Y  Y15  1  0.43589800  0.78027900  0.64672300  1
  Y  Y16  1  0.76683800  0.13131200  0.99008800  1
  Y  Y17  1  0.09243100  0.45608700  0.31601500  1
  Al  Al18  1  0.89087900  0.89087900  0.89087900  1
  Al  Al19  1  0.39095700  0.39095700  0.39095700  1
  Ge  Ge20  1  0.76620200  0.43199500  0.09757800  1
  Ge  Ge21  1  0.09757800  0.76620200  0.43199500  1
  Ge  Ge22  1  0.43199500  0.09757800  0.76620200  1
  Ge  Ge23  1  0.93241800  0.26461600  0.59860500  1
  Ge  Ge24  1  0.26461600  0.59860500  0.93241800  1
  Ge  Ge25  1  0.59860500  0.93241800  0.26461600  1
  S  S26  1  0.83819800  0.36537800  0.93170800  1
  S  S27  1  0.17354600  0.69084500  0.27087100  1
  S  S28  1  0.50651400  0.02232600  0.60498800  1
  S  S29  1  0.60498800  0.50651400  0.02232600  1
  S  S30  1  0.93170800  0.83819800  0.36537800  1
  S  S31  1  0.27087100  0.17354600  0.69084500  1
  S  S32  1  0.69084500  0.27087100  0.17354600  1
  S  S33  1  0.02232600  0.60498800  0.50651400  1
  S  S34  1  0.36537800  0.93170800  0.83819800  1
  S  S35  1  0.75076300  0.22802500  0.65407700  1
  S  S36  1  0.08476300  0.55868200  0.98977900  1
  S  S37  1  0.41596600  0.90353700  0.31832200  1
  S  S38  1  0.98977900  0.08476300  0.55868200  1
  S  S39  1  0.31832200  0.41596600  0.90353700  1
  S  S40  1  0.65407700  0.75076300  0.22802500  1
  S  S41  1  0.90353700  0.31832200  0.41596600  1
  S  S42  1  0.22802500  0.65407700  0.75076300  1
  S  S43  1  0.55868200  0.98977900  0.08476300  1
  S  S44  1  0.00012800  0.26198700  0.15795900  1
  S  S45  1  0.33869000  0.58201900  0.48803800  1
  S  S46  1  0.69146500  0.92920000  0.83292800  1
  S  S47  1  0.83292800  0.69146500  0.92920000  1
  S  S48  1  0.15795900  0.00012800  0.26198700  1
  S  S49  1  0.48803800  0.33869000  0.58201900  1
  S  S50  1  0.58201900  0.48803800  0.33869000  1
  S  S51  1  0.92920000  0.83292800  0.69146500  1
  S  S52  1  0.26198700  0.15795900  0.00012800  1
  S  S53  1  0.77979000  0.51822000  0.62171500  1
  S  S54  1  0.10010200  0.85618500  0.95188200  1
  S  S55  1  0.44453600  0.20692900  0.30292400  1
  S  S56  1  0.95188200  0.10010200  0.85618500  1
  S  S57  1  0.30292400  0.44453600  0.20692900  1
  S  S58  1  0.62171500  0.77979000  0.51822000  1
  S  S59  1  0.20692900  0.30292400  0.44453600  1
  S  S60  1  0.51822000  0.62171500  0.77979000  1
  S  S61  1  0.85618500  0.95188200  0.10010200  1
  S  S62  1  0.72753200  0.05832400  0.38588400  1
  S  S63  1  0.05832400  0.38588400  0.72753200  1
  S  S64  1  0.38588400  0.72753200  0.05832400  1
  S  S65  1  0.88562000  0.55917900  0.22700500  1
  S  S66  1  0.22700500  0.88562000  0.55917900  1
  S  S67  1  0.55917900  0.22700500  0.88562000  1
