# generated using pymatgen
data_Nd2Mg
_symmetry_space_group_name_H-M   'P 1'
_cell_length_a   7.01510589
_cell_length_b   7.01510589
_cell_length_c   7.68048693
_cell_angle_alpha   74.65182815
_cell_angle_beta   74.65182815
_cell_angle_gamma   31.44135683
_symmetry_Int_Tables_number   1
_chemical_formula_structural   Nd2Mg
_chemical_formula_sum   'Nd4 Mg2'
_cell_volume   189.55889188
_cell_formula_units_Z   2
loop_
 _symmetry_equiv_pos_site_id
 _symmetry_equiv_pos_as_xyz
  1  'x, y, z'
loop_
 _atom_site_type_symbol
 _atom_site_label
 _atom_site_symmetry_multiplicity
 _atom_site_fract_x
 _atom_site_fract_y
 _atom_site_fract_z
 _atom_site_occupancy
  Nd  Nd0  1  0.85262000  0.85262000  0.56097700  1
  Nd  Nd1  1  0.14738000  0.14738000  0.43902300  1
  Nd  Nd2  1  0.83321700  0.83321700  0.09546100  1
  Nd  Nd3  1  0.16678300  0.16678300  0.90453900  1
  Mg  Mg4  1  0.49035600  0.49035600  0.77438900  1
  Mg  Mg5  1  0.50964400  0.50964400  0.22561100  1
