# generated using pymatgen
data_Tm2Mn3Sb3O14
_symmetry_space_group_name_H-M   'P 1'
_cell_length_a   7.15203595
_cell_length_b   7.15203595
_cell_length_c   7.25780850
_cell_angle_alpha   61.48976910
_cell_angle_beta   61.48976910
_cell_angle_gamma   61.59214761
_symmetry_Int_Tables_number   1
_chemical_formula_structural   Tm2Mn3Sb3O14
_chemical_formula_sum   'Tm2 Mn3 Sb3 O14'
_cell_volume   271.49028535
_cell_formula_units_Z   1
loop_
 _symmetry_equiv_pos_site_id
 _symmetry_equiv_pos_as_xyz
  1  'x, y, z'
loop_
 _atom_site_type_symbol
 _atom_site_label
 _atom_site_symmetry_multiplicity
 _atom_site_fract_x
 _atom_site_fract_y
 _atom_site_fract_z
 _atom_site_occupancy
  Tm  Tm0  1  0.50000000  0.00000000  0.00000000  1
  Tm  Tm1  1  0.00000000  0.50000000  0.00000000  1
  Mn  Mn2  1  0.50000000  0.50000000  0.50000000  1
  Mn  Mn3  1  0.00000000  0.00000000  0.00000000  1
  Mn  Mn4  1  0.00000000  0.00000000  0.50000000  1
  Sb  Sb5  1  0.50000000  0.50000000  0.00000000  1
  Sb  Sb6  1  0.00000000  0.50000000  0.50000000  1
  Sb  Sb7  1  0.50000000  0.00000000  0.50000000  1
  O  O8  1  0.87904100  0.87904100  0.87485000  1
  O  O9  1  0.12095900  0.12095900  0.12515000  1
  O  O10  1  0.59443500  0.59443500  0.14442100  1
  O  O11  1  0.16993300  0.16993300  0.57127200  1
  O  O12  1  0.17186400  0.57089100  0.59190700  1
  O  O13  1  0.57971900  0.16989600  0.17445100  1
  O  O14  1  0.16989600  0.57971900  0.17445100  1
  O  O15  1  0.57089100  0.17186400  0.59190700  1
  O  O16  1  0.40556500  0.40556500  0.85557900  1
  O  O17  1  0.83006700  0.83006700  0.42872800  1
  O  O18  1  0.82813600  0.42910900  0.40809300  1
  O  O19  1  0.42028100  0.83010400  0.82554900  1
  O  O20  1  0.83010400  0.42028100  0.82554900  1
  O  O21  1  0.42910900  0.82813600  0.40809300  1
