# generated using pymatgen
data_Y3Ga(FeO3)4
_symmetry_space_group_name_H-M   'P 1'
_cell_length_a   10.84081452
_cell_length_b   10.84081452
_cell_length_c   10.84081452
_cell_angle_alpha   109.48494516
_cell_angle_beta   109.48494516
_cell_angle_gamma   109.44377507
_symmetry_Int_Tables_number   1
_chemical_formula_structural   Y3Ga(FeO3)4
_chemical_formula_sum   'Y12 Ga4 Fe16 O48'
_cell_volume   980.76232839
_cell_formula_units_Z   4
loop_
 _symmetry_equiv_pos_site_id
 _symmetry_equiv_pos_as_xyz
  1  'x, y, z'
loop_
 _atom_site_type_symbol
 _atom_site_label
 _atom_site_symmetry_multiplicity
 _atom_site_fract_x
 _atom_site_fract_y
 _atom_site_fract_z
 _atom_site_occupancy
  Y  Y0  1  0.37500000  0.50019900  0.62519900  1
  Y  Y1  1  0.87500000  0.74980100  0.37480100  1
  Y  Y2  1  0.74958500  0.62500000  0.62458500  1
  Y  Y3  1  0.00041500  0.12500000  0.37541500  1
  Y  Y4  1  0.99958000  0.49958000  0.50000000  1
  Y  Y5  1  0.75042000  0.75042000  0.00000000  1
  Y  Y6  1  0.87500000  0.25041500  0.87541500  1
  Y  Y7  1  0.37500000  0.99958500  0.12458500  1
  Y  Y8  1  0.49980100  0.12500000  0.87480100  1
  Y  Y9  1  0.25019900  0.62500000  0.12519900  1
  Y  Y10  1  0.24958000  0.24958000  0.00000000  1
  Y  Y11  1  0.50042000  0.00042000  0.50000000  1
  Ga  Ga12  1  0.37500000  0.24981500  0.37481500  1
  Ga  Ga13  1  0.87500000  0.00018500  0.62518500  1
  Ga  Ga14  1  0.99981500  0.62500000  0.87481500  1
  Ga  Ga15  1  0.75018500  0.12500000  0.12518500  1
  Fe  Fe16  1  0.62612400  0.87582100  0.75073200  1
  Fe  Fe17  1  0.12387600  0.37460800  0.74969700  1
  Fe  Fe18  1  0.62491100  0.37417900  0.25030300  1
  Fe  Fe19  1  0.12508900  0.87539200  0.24926800  1
  Fe  Fe20  1  0.62539200  0.37508900  0.74926800  1
  Fe  Fe21  1  0.12417900  0.87491100  0.75030300  1
  Fe  Fe22  1  0.12460800  0.37387600  0.24969700  1
  Fe  Fe23  1  0.62582100  0.87612400  0.25073200  1
  Fe  Fe24  1  0.25000000  0.75000000  0.50000000  1
  Fe  Fe25  1  0.50000000  0.50000000  0.00000000  1
  Fe  Fe26  1  0.87500000  0.50010700  0.12510700  1
  Fe  Fe27  1  0.37500000  0.74989300  0.87489300  1
  Fe  Fe28  1  0.25010700  0.12500000  0.62510700  1
  Fe  Fe29  1  0.49989300  0.62500000  0.37489300  1
  Fe  Fe30  1  0.00000000  0.00000000  0.00000000  1
  Fe  Fe31  1  0.75000000  0.25000000  0.50000000  1
  O  O32  1  0.53236000  0.75020400  0.83414700  1
  O  O33  1  0.21764000  0.55178700  0.71784400  1
  O  O34  1  0.83394300  0.49979600  0.28215600  1
  O  O35  1  0.91605700  0.69821300  0.16585300  1
  O  O36  1  0.65726100  0.58399900  0.37478000  1
  O  O37  1  0.54078100  0.66600100  0.57326200  1
  O  O38  1  0.20921900  0.28248100  0.62522000  1
  O  O39  1  0.09273900  0.96751900  0.42673800  1
  O  O40  1  0.94811000  0.29081400  0.54089000  1
  O  O41  1  0.74992400  0.40722100  0.45911000  1
  O  O42  1  0.80189000  0.84277900  0.84270300  1
  O  O43  1  0.00007600  0.95918600  0.15729700  1
  O  O44  1  0.71990400  0.99863800  0.66574800  1
  O  O45  1  0.03009600  0.19584400  0.77873400  1
  O  O46  1  0.41711000  0.25136200  0.22126600  1
  O  O47  1  0.33289000  0.05415600  0.33425200  1
  O  O48  1  0.59631500  0.16676000  0.12676600  1
  O  O49  1  0.71000600  0.08324000  0.92955400  1
  O  O50  1  0.03999400  0.46954800  0.87323400  1
  O  O51  1  0.15368500  0.78045200  0.07044600  1
  O  O52  1  0.30095200  0.45834600  0.95793800  1
  O  O53  1  0.50040700  0.34301400  0.04206200  1
  O  O54  1  0.44904800  0.90698600  0.65739300  1
  O  O55  1  0.24959300  0.79165400  0.34260700  1
  O  O56  1  0.44821300  0.16605700  0.66585300  1
  O  O57  1  0.24979600  0.08394300  0.78215600  1
  O  O58  1  0.30178700  0.46764000  0.21784400  1
  O  O59  1  0.50020400  0.78236000  0.33414700  1
  O  O60  1  0.03248100  0.45921900  0.12522000  1
  O  O61  1  0.71751900  0.34273900  0.92673800  1
  O  O62  1  0.33399900  0.90726100  0.87478000  1
  O  O63  1  0.41600100  0.79078100  0.07326200  1
  O  O64  1  0.15722100  0.99992400  0.95911000  1
  O  O65  1  0.04081400  0.19811000  0.04089000  1
  O  O66  1  0.70918600  0.25007600  0.65729700  1
  O  O67  1  0.59277900  0.05189000  0.34270300  1
  O  O68  1  0.80415600  0.58289000  0.83425200  1
  O  O69  1  0.00136200  0.66711000  0.72126600  1
  O  O70  1  0.94584400  0.28009600  0.27873400  1
  O  O71  1  0.74863800  0.96990400  0.16574800  1
  O  O72  1  0.21954800  0.28999400  0.37323400  1
  O  O73  1  0.53045200  0.40368500  0.57044600  1
  O  O74  1  0.91676000  0.84631500  0.62676600  1
  O  O75  1  0.83324000  0.96000600  0.42955400  1
  O  O76  1  0.09301400  0.75040700  0.54206200  1
  O  O77  1  0.20834600  0.55095200  0.45793800  1
  O  O78  1  0.54165400  0.49959300  0.84260700  1
  O  O79  1  0.65698600  0.69904800  0.15739300  1
