# generated using pymatgen
data_VZn6P3O16
_symmetry_space_group_name_H-M   'P 1'
_cell_length_a   5.40817294
_cell_length_b   8.43761680
_cell_length_c   8.53919216
_cell_angle_alpha   106.09473223
_cell_angle_beta   71.80118151
_cell_angle_gamma   90.30208080
_symmetry_Int_Tables_number   1
_chemical_formula_structural   VZn6P3O16
_chemical_formula_sum   'V1 Zn6 P3 O16'
_cell_volume   354.24679034
_cell_formula_units_Z   1
loop_
 _symmetry_equiv_pos_site_id
 _symmetry_equiv_pos_as_xyz
  1  'x, y, z'
loop_
 _atom_site_type_symbol
 _atom_site_label
 _atom_site_symmetry_multiplicity
 _atom_site_fract_x
 _atom_site_fract_y
 _atom_site_fract_z
 _atom_site_occupancy
  V  V0  1  0.58664300  0.02859600  0.24139300  1
  Zn  Zn1  1  0.95883600  0.25623000  0.99432000  1
  Zn  Zn2  1  0.06444500  0.74484500  0.99601000  1
  Zn  Zn3  1  0.01754900  0.22671500  0.37654500  1
  Zn  Zn4  1  0.39288700  0.28885300  0.63614700  1
  Zn  Zn5  1  0.97358700  0.78503900  0.62926700  1
  Zn  Zn6  1  0.60473300  0.70983800  0.37343800  1
  P  P7  1  0.83676400  0.46808800  0.75672000  1
  P  P8  1  0.40824200  0.96473000  0.75575200  1
  P  P9  1  0.16513100  0.53457500  0.24399700  1
  O  O10  1  0.40626800  0.52925700  0.30000100  1
  O  O11  1  0.70545600  0.96678100  0.70211500  1
  O  O12  1  0.59232300  0.47225800  0.70368000  1
  O  O13  1  0.25362400  0.02841900  0.30127300  1
  O  O14  1  0.06606300  0.35266300  0.59832500  1
  O  O15  1  0.65826200  0.16305300  0.42116100  1
  O  O16  1  0.93739700  0.64816600  0.40492000  1
  O  O17  1  0.33879400  0.84969200  0.59451500  1
  O  O18  1  0.80259700  0.40956900  0.91476100  1
  O  O19  1  0.72207400  0.09994600  0.06872400  1
  O  O20  1  0.20314800  0.59029700  0.08405900  1
  O  O21  1  0.28270400  0.90683200  0.91420200  1
  O  O22  1  0.73863500  0.82800600  0.19796900  1
  O  O23  1  0.93101800  0.64798900  0.79248800  1
  O  O24  1  0.28157300  0.14552500  0.79291800  1
  O  O25  1  0.07124700  0.35404000  0.20529800  1
