# generated using pymatgen
data_VCu3Te3Se
_symmetry_space_group_name_H-M   'P 1'
_cell_length_a   5.83944370
_cell_length_b   5.83944370
_cell_length_c   5.83944372
_cell_angle_alpha   89.63248954
_cell_angle_beta   89.63248954
_cell_angle_gamma   89.63247806
_symmetry_Int_Tables_number   1
_chemical_formula_structural   VCu3Te3Se
_chemical_formula_sum   'V1 Cu3 Te3 Se1'
_cell_volume   199.10755470
_cell_formula_units_Z   1
loop_
 _symmetry_equiv_pos_site_id
 _symmetry_equiv_pos_as_xyz
  1  'x, y, z'
loop_
 _atom_site_type_symbol
 _atom_site_label
 _atom_site_symmetry_multiplicity
 _atom_site_fract_x
 _atom_site_fract_y
 _atom_site_fract_z
 _atom_site_occupancy
  V  V0  1  0.00335400  0.00335400  0.00335400  1
  Cu  Cu1  1  0.00663100  0.49509000  0.00663100  1
  Cu  Cu2  1  0.00663100  0.00663100  0.49509000  1
  Cu  Cu3  1  0.49509000  0.00663100  0.00663100  1
  Te  Te4  1  0.25704300  0.74746600  0.74746600  1
  Te  Te5  1  0.74746600  0.74746600  0.25704300  1
  Te  Te6  1  0.74746600  0.25704300  0.74746600  1
  Se  Se7  1  0.23632000  0.23632000  0.23632000  1
