# generated using pymatgen
data_Tm4CdSe7
_symmetry_space_group_name_H-M   'P 1'
_cell_length_a   6.88814338
_cell_length_b   6.88814338
_cell_length_c   12.06462874
_cell_angle_alpha   75.84824049
_cell_angle_beta   75.84824049
_cell_angle_gamma   33.33467416
_symmetry_Int_Tables_number   1
_chemical_formula_structural   Tm4CdSe7
_chemical_formula_sum   'Tm4 Cd1 Se7'
_cell_volume   304.14680172
_cell_formula_units_Z   1
loop_
 _symmetry_equiv_pos_site_id
 _symmetry_equiv_pos_as_xyz
  1  'x, y, z'
loop_
 _atom_site_type_symbol
 _atom_site_label
 _atom_site_symmetry_multiplicity
 _atom_site_fract_x
 _atom_site_fract_y
 _atom_site_fract_z
 _atom_site_occupancy
  Tm  Tm0  1  0.69460700  0.69460700  0.19775200  1
  Tm  Tm1  1  0.30610800  0.30610800  0.80508500  1
  Tm  Tm2  1  0.00011200  0.00011200  0.00192800  1
  Tm  Tm3  1  0.11533000  0.11533000  0.57215000  1
  Cd  Cd4  1  0.88414800  0.88414800  0.42122200  1
  Se  Se5  1  0.74174900  0.74174900  0.64784300  1
  Se  Se6  1  0.25632400  0.25632400  0.35118600  1
  Se  Se7  1  0.34016600  0.34016600  0.04862000  1
  Se  Se8  1  0.66017100  0.66017100  0.94923200  1
  Se  Se9  1  0.03892000  0.03892000  0.21654600  1
  Se  Se10  1  0.96142900  0.96142900  0.78543000  1
  Se  Se11  1  0.50093600  0.50093600  0.50300800  1
