# generated using pymatgen
data_Zn9Si2Te3P4(Pb3O14)3
_symmetry_space_group_name_H-M   'P 1'
_cell_length_a   8.55782091
_cell_length_b   10.05105029
_cell_length_c   13.56051661
_cell_angle_alpha   82.45308842
_cell_angle_beta   108.39352660
_cell_angle_gamma   115.19609805
_symmetry_Int_Tables_number   1
_chemical_formula_structural   Zn9Si2Te3P4(Pb3O14)3
_chemical_formula_sum   'Zn9 Si2 Te3 P4 Pb9 O42'
_cell_volume   1001.50590628
_cell_formula_units_Z   1
loop_
 _symmetry_equiv_pos_site_id
 _symmetry_equiv_pos_as_xyz
  1  'x, y, z'
loop_
 _atom_site_type_symbol
 _atom_site_label
 _atom_site_symmetry_multiplicity
 _atom_site_fract_x
 _atom_site_fract_y
 _atom_site_fract_z
 _atom_site_occupancy
  Zn  Zn0  1  0.99977800  0.66659200  0.08210400  1
  Zn  Zn1  1  0.00045100  0.33156400  0.41732000  1
  Zn  Zn2  1  0.99970900  0.99892000  0.74916900  1
  Zn  Zn3  1  0.74829300  0.16737000  0.83242000  1
  Zn  Zn4  1  0.74912900  0.83333300  0.16666700  1
  Zn  Zn5  1  0.74850300  0.49929700  0.50091300  1
  Zn  Zn6  1  0.25156700  0.33510200  0.91601400  1
  Zn  Zn7  1  0.25108100  0.00007500  0.25122900  1
  Zn  Zn8  1  0.25162000  0.66774700  0.58416400  1
  Si  Si9  1  0.66697300  0.40475500  0.92938300  1
  Si  Si10  1  0.33283500  0.26191200  0.40395000  1
  Te  Te11  1  0.99996600  0.33333300  0.66666700  1
  Te  Te12  1  0.00019400  0.00031100  0.00011000  1
  Te  Te13  1  0.99977300  0.66635600  0.33322300  1
  P  P14  1  0.66639100  0.07050100  0.26272200  1
  P  P15  1  0.66667500  0.73693400  0.59587000  1
  P  P16  1  0.33316700  0.59616600  0.07061100  1
  P  P17  1  0.33387200  0.92973200  0.73746400  1
  Pb  Pb18  1  0.59233000  0.06888400  0.53029700  1
  Pb  Pb19  1  0.59858600  0.72512500  0.86660000  1
  Pb  Pb20  1  0.59642700  0.39702500  0.19870700  1
  Pb  Pb21  1  0.00686100  0.94154100  0.46673400  1
  Pb  Pb22  1  0.99314900  0.59778300  0.80303600  1
  Pb  Pb23  1  0.00069500  0.26964200  0.13462600  1
  Pb  Pb24  1  0.40636500  0.00439500  0.00042500  1
  Pb  Pb25  1  0.40154500  0.66227200  0.33290800  1
  Pb  Pb26  1  0.40414400  0.33333300  0.66666700  1
  O  O27  1  0.66636500  0.63932500  0.69355700  1
  O  O28  1  0.66708900  0.29967800  0.03415800  1
  O  O29  1  0.66613300  0.97297000  0.35997900  1
  O  O30  1  0.33348300  0.02734200  0.63977600  1
  O  O31  1  0.33318500  0.69369700  0.97335400  1
  O  O32  1  0.33325200  0.36698800  0.29917600  1
  O  O33  1  0.47567500  0.73612600  0.53872400  1
  O  O34  1  0.46682000  0.40416400  0.86911800  1
  O  O35  1  0.47552400  0.06973400  0.20467900  1
  O  O36  1  0.80007700  0.90143900  0.62204400  1
  O  O37  1  0.80614000  0.57853400  0.95536400  1
  O  O38  1  0.79866300  0.23590600  0.28815900  1
  O  O39  1  0.72342600  0.68591700  0.51340000  1
  O  O40  1  0.72745300  0.35144100  0.84261500  1
  O  O41  1  0.72538100  0.02024900  0.18059500  1
  O  O42  1  0.20082500  0.93054100  0.79460900  1
  O  O43  1  0.20111000  0.59693200  0.12865500  1
  O  O44  1  0.19353800  0.26250300  0.46421500  1
  O  O45  1  0.52410900  0.98074900  0.81993400  1
  O  O46  1  0.52453700  0.64641800  0.15273800  1
  O  O47  1  0.53339700  0.31522600  0.49071800  1
  O  O48  1  0.27659300  0.76522700  0.71129000  1
  O  O49  1  0.27459700  0.43076100  0.04517400  1
  O  O50  1  0.27224200  0.08813300  0.37796900  1
  O  O51  1  0.12259600  0.20050400  0.70536200  1
  O  O52  1  0.12639100  0.87023700  0.04126600  1
  O  O53  1  0.12208800  0.53350300  0.37239400  1
  O  O54  1  0.78486600  0.17887800  0.69565300  1
  O  O55  1  0.78469000  0.84805500  0.02969800  1
  O  O56  1  0.78317100  0.51405800  0.36250300  1
  O  O57  1  0.09263100  0.73964300  0.47556400  1
  O  O58  1  0.09024800  0.40561300  0.80902600  1
  O  O59  1  0.09286700  0.07432900  0.14250400  1
  O  O60  1  0.21673100  0.46616300  0.62797100  1
  O  O61  1  0.21619100  0.13316300  0.96094000  1
  O  O62  1  0.21488800  0.79643000  0.29206700  1
  O  O63  1  0.87742300  0.92702400  0.85776900  1
  O  O64  1  0.87603400  0.59233800  0.19082900  1
  O  O65  1  0.87560900  0.26105300  0.52430800  1
  O  O66  1  0.91033500  0.48778900  0.63768000  1
  O  O67  1  0.90661000  0.15260900  0.97083000  1
  O  O68  1  0.90693700  0.81861100  0.30363600  1
