# generated using pymatgen
data_Y2AlFe3
_symmetry_space_group_name_H-M   'P 1'
_cell_length_a   5.22882028
_cell_length_b   5.22882028
_cell_length_c   5.22881982
_cell_angle_alpha   59.97680848
_cell_angle_beta   59.97680848
_cell_angle_gamma   59.97681784
_symmetry_Int_Tables_number   1
_chemical_formula_structural   Y2AlFe3
_chemical_formula_sum   'Y2 Al1 Fe3'
_cell_volume   101.03403306
_cell_formula_units_Z   1
loop_
 _symmetry_equiv_pos_site_id
 _symmetry_equiv_pos_as_xyz
  1  'x, y, z'
loop_
 _atom_site_type_symbol
 _atom_site_label
 _atom_site_symmetry_multiplicity
 _atom_site_fract_x
 _atom_site_fract_y
 _atom_site_fract_z
 _atom_site_occupancy
  Y  Y0  1  0.12207300  0.12207300  0.12207300  1
  Y  Y1  1  0.87792700  0.87792700  0.87792700  1
  Al  Al2  1  0.50000000  0.50000000  0.50000000  1
  Fe  Fe3  1  0.50000000  0.00000000  0.50000000  1
  Fe  Fe4  1  0.00000000  0.50000000  0.50000000  1
  Fe  Fe5  1  0.50000000  0.50000000  0.00000000  1
