# generated using pymatgen
data_TlV2Cr3S8
_symmetry_space_group_name_H-M   'P 1'
_cell_length_a   8.97632751
_cell_length_b   8.97632751
_cell_length_c   8.72541179
_cell_angle_alpha   76.79653181
_cell_angle_beta   76.79653181
_cell_angle_gamma   22.37427030
_symmetry_Int_Tables_number   1
_chemical_formula_structural   TlV2Cr3S8
_chemical_formula_sum   'Tl1 V2 Cr3 S8'
_cell_volume   260.26274617
_cell_formula_units_Z   1
loop_
 _symmetry_equiv_pos_site_id
 _symmetry_equiv_pos_as_xyz
  1  'x, y, z'
loop_
 _atom_site_type_symbol
 _atom_site_label
 _atom_site_symmetry_multiplicity
 _atom_site_fract_x
 _atom_site_fract_y
 _atom_site_fract_z
 _atom_site_occupancy
  Tl  Tl0  1  0.00217900  0.00217900  0.99621300  1
  V  V1  1  0.85072100  0.85072100  0.48020800  1
  V  V2  1  0.49209300  0.49209300  0.49716600  1
  Cr  Cr3  1  0.79363200  0.79363200  0.83624000  1
  Cr  Cr4  1  0.20329700  0.20329700  0.16703100  1
  Cr  Cr5  1  0.15864100  0.15864100  0.52181600  1
  S  S6  1  0.58651500  0.58651500  0.66423200  1
  S  S7  1  0.41272800  0.41272800  0.31747200  1
  S  S8  1  0.26342700  0.26342700  0.65554700  1
  S  S9  1  0.73904500  0.73904500  0.34741800  1
  S  S10  1  0.66987300  0.66987300  0.01337200  1
  S  S11  1  0.32793200  0.32793200  0.98910500  1
  S  S12  1  0.92636300  0.92636300  0.66661900  1
  S  S13  1  0.07355300  0.07355300  0.34756100  1
