# generated using pymatgen
data_UCrFe
_symmetry_space_group_name_H-M   'P 1'
_cell_length_a   5.08658101
_cell_length_b   5.08658101
_cell_length_c   5.08658101
_cell_angle_alpha   128.34690243
_cell_angle_beta   118.71380348
_cell_angle_gamma   84.21153249
_symmetry_Int_Tables_number   1
_chemical_formula_structural   UCrFe
_chemical_formula_sum   'U2 Cr2 Fe2'
_cell_volume   86.72197006
_cell_formula_units_Z   2
loop_
 _symmetry_equiv_pos_site_id
 _symmetry_equiv_pos_as_xyz
  1  'x, y, z'
loop_
 _atom_site_type_symbol
 _atom_site_label
 _atom_site_symmetry_multiplicity
 _atom_site_fract_x
 _atom_site_fract_y
 _atom_site_fract_z
 _atom_site_occupancy
  U  U0  1  0.11154300  0.86154300  0.25000000  1
  U  U1  1  0.88845700  0.13845700  0.75000000  1
  Cr  Cr2  1  0.50000000  0.50000000  0.50000000  1
  Cr  Cr3  1  0.50000000  0.00000000  0.00000000  1
  Fe  Fe4  1  0.50000000  0.50000000  0.00000000  1
  Fe  Fe5  1  0.00000000  0.50000000  0.50000000  1
