# generated using pymatgen
data_YLuTh2(BRh)16
_symmetry_space_group_name_H-M   'P 1'
_cell_length_a   5.35784800
_cell_length_b   5.35954900
_cell_length_c   15.04919600
_cell_angle_alpha   90.00000000
_cell_angle_beta   90.00000000
_cell_angle_gamma   90.00000000
_symmetry_Int_Tables_number   1
_chemical_formula_structural   YLuTh2(BRh)16
_chemical_formula_sum   'Y1 Lu1 Th2 B16 Rh16'
_cell_volume   432.14742842
_cell_formula_units_Z   1
loop_
 _symmetry_equiv_pos_site_id
 _symmetry_equiv_pos_as_xyz
  1  'x, y, z'
loop_
 _atom_site_type_symbol
 _atom_site_label
 _atom_site_symmetry_multiplicity
 _atom_site_fract_x
 _atom_site_fract_y
 _atom_site_fract_z
 _atom_site_occupancy
  Y  Y0  1  0.00000000  0.50000000  0.87515600  1
  Lu  Lu1  1  0.50000000  0.00000000  0.12488200  1
  Th  Th2  1  0.50000000  0.00000000  0.62500100  1
  Th  Th3  1  0.00000000  0.50000000  0.37496000  1
  B  B4  1  0.33125300  0.50000000  0.19822700  1
  B  B5  1  0.33323800  0.50000000  0.70210600  1
  B  B6  1  0.66874700  0.50000000  0.19822700  1
  B  B7  1  0.66676200  0.50000000  0.70210600  1
  B  B8  1  0.50000000  0.33450400  0.45004300  1
  B  B9  1  0.50000000  0.33124700  0.95137500  1
  B  B10  1  0.50000000  0.66549600  0.45004300  1
  B  B11  1  0.50000000  0.66875300  0.95137500  1
  B  B12  1  0.16661900  0.00000000  0.29785100  1
  B  B13  1  0.16860200  0.00000000  0.80147300  1
  B  B14  1  0.83338100  0.00000000  0.29785100  1
  B  B15  1  0.83139800  0.00000000  0.80147300  1
  B  B16  1  0.00000000  0.16916300  0.04932200  1
  B  B17  1  0.00000000  0.16552500  0.54963100  1
  B  B18  1  0.00000000  0.83083700  0.04932200  1
  B  B19  1  0.00000000  0.83447500  0.54963100  1
  Rh  Rh20  1  0.75142400  0.50000000  0.05288400  1
  Rh  Rh21  1  0.75061900  0.50000000  0.55341400  1
  Rh  Rh22  1  0.24857600  0.50000000  0.05288400  1
  Rh  Rh23  1  0.24938100  0.50000000  0.55341400  1
  Rh  Rh24  1  0.50000000  0.75191000  0.29942700  1
  Rh  Rh25  1  0.50000000  0.75076100  0.80448600  1
  Rh  Rh26  1  0.50000000  0.24809000  0.29942700  1
  Rh  Rh27  1  0.50000000  0.24923900  0.80448600  1
  Rh  Rh28  1  0.74949300  0.00000000  0.44629100  1
  Rh  Rh29  1  0.74744200  0.00000000  0.94892800  1
  Rh  Rh30  1  0.25050700  0.00000000  0.44629100  1
  Rh  Rh31  1  0.25255800  0.00000000  0.94892800  1
  Rh  Rh32  1  0.00000000  0.74971600  0.19529600  1
  Rh  Rh33  1  0.00000000  0.74868300  0.69924700  1
  Rh  Rh34  1  0.00000000  0.25028400  0.19529600  1
  Rh  Rh35  1  0.00000000  0.25131700  0.69924700  1
