# generated using pymatgen
data_Y2Mn3Sb3O14
_symmetry_space_group_name_H-M   'P 1'
_cell_length_a   7.18186185
_cell_length_b   12.79331786
_cell_length_c   7.18406673
_cell_angle_alpha   106.27970595
_cell_angle_beta   118.42610832
_cell_angle_gamma   90.81573743
_symmetry_Int_Tables_number   1
_chemical_formula_structural   Y2Mn3Sb3O14
_chemical_formula_sum   'Y4 Mn6 Sb6 O28'
_cell_volume   548.61973516
_cell_formula_units_Z   2
loop_
 _symmetry_equiv_pos_site_id
 _symmetry_equiv_pos_as_xyz
  1  'x, y, z'
loop_
 _atom_site_type_symbol
 _atom_site_label
 _atom_site_symmetry_multiplicity
 _atom_site_fract_x
 _atom_site_fract_y
 _atom_site_fract_z
 _atom_site_occupancy
  Y  Y0  1  0.49989100  0.00002800  0.50017200  1
  Y  Y1  1  0.00000600  0.49999500  0.49991600  1
  Y  Y2  1  0.99994200  0.00000200  0.00007000  1
  Y  Y3  1  0.50004600  0.49996100  0.99990700  1
  Mn  Mn4  1  0.50017300  0.00021700  0.00073700  1
  Mn  Mn5  1  0.00014400  0.49974700  0.99951400  1
  Mn  Mn6  1  0.74993900  0.25003400  0.99990500  1
  Mn  Mn7  1  0.75001000  0.75005700  0.49993800  1
  Mn  Mn8  1  0.25004000  0.25003200  0.49994000  1
  Mn  Mn9  1  0.25024300  0.75004400  0.00035300  1
  Sb  Sb10  1  0.00001200  0.99995600  0.50003300  1
  Sb  Sb11  1  0.49997200  0.50005300  0.49997000  1
  Sb  Sb12  1  0.24999900  0.24998100  0.99996300  1
  Sb  Sb13  1  0.74998000  0.74998200  0.99993700  1
  Sb  Sb14  1  0.75001000  0.24999300  0.49997100  1
  Sb  Sb15  1  0.24996400  0.74999900  0.49999500  1
  O  O16  1  0.31786600  0.93566100  0.11717000  1
  O  O17  1  0.81782100  0.43563900  0.11714500  1
  O  O18  1  0.68218100  0.06435800  0.88285300  1
  O  O19  1  0.18214700  0.56433900  0.88285200  1
  O  O20  1  0.16504700  0.07370900  0.40784000  1
  O  O21  1  0.66511100  0.57368200  0.40776200  1
  O  O22  1  0.83489400  0.92635500  0.59226700  1
  O  O23  1  0.33495600  0.42630300  0.59216400  1
  O  O24  1  0.45489600  0.78332800  0.82826500  1
  O  O25  1  0.95481100  0.28368400  0.82869600  1
  O  O26  1  0.54516500  0.21625900  0.17123800  1
  O  O27  1  0.04508500  0.71666800  0.17171200  1
  O  O28  1  0.36505000  0.29387900  0.82679100  1
  O  O29  1  0.86514500  0.79389100  0.82680100  1
  O  O30  1  0.96806300  0.29414000  0.42965800  1
  O  O31  1  0.46755700  0.79401200  0.42920400  1
  O  O32  1  0.63484600  0.70612600  0.17311400  1
  O  O33  1  0.13495300  0.20611900  0.17318000  1
  O  O34  1  0.03238100  0.70598200  0.57074800  1
  O  O35  1  0.53194500  0.20586400  0.57032300  1
  O  O36  1  0.75687800  0.08711800  0.41889100  1
  O  O37  1  0.25680000  0.58710100  0.41877000  1
  O  O38  1  0.16884100  0.08707300  0.82999000  1
  O  O39  1  0.66889500  0.58704700  0.82997900  1
  O  O40  1  0.24307700  0.91287300  0.58121800  1
  O  O41  1  0.74305500  0.41285300  0.58107500  1
  O  O42  1  0.83103100  0.91293600  0.16998600  1
  O  O43  1  0.33113500  0.41291700  0.16999000  1
