# generated using pymatgen
data_Y6Cr(GeS7)2
_symmetry_space_group_name_H-M   'P 1'
_cell_length_a   5.79200300
_cell_length_b   9.82957785
_cell_length_c   9.87866494
_cell_angle_alpha   60.38328225
_cell_angle_beta   89.73398426
_cell_angle_gamma   89.82885696
_symmetry_Int_Tables_number   1
_chemical_formula_structural   Y6Cr(GeS7)2
_chemical_formula_sum   'Y6 Cr1 Ge2 S14'
_cell_volume   488.93612345
_cell_formula_units_Z   1
loop_
 _symmetry_equiv_pos_site_id
 _symmetry_equiv_pos_as_xyz
  1  'x, y, z'
loop_
 _atom_site_type_symbol
 _atom_site_label
 _atom_site_symmetry_multiplicity
 _atom_site_fract_x
 _atom_site_fract_y
 _atom_site_fract_z
 _atom_site_occupancy
  Y  Y0  1  0.74536900  0.22887700  0.63977100  1
  Y  Y1  1  0.74831800  0.64305600  0.13201400  1
  Y  Y2  1  0.74769200  0.12779700  0.22810300  1
  Y  Y3  1  0.24444000  0.77374500  0.35885600  1
  Y  Y4  1  0.24950100  0.35333200  0.87051400  1
  Y  Y5  1  0.24684000  0.87079500  0.77452400  1
  Cr  Cr6  1  0.53309200  0.00088300  0.99653600  1
  Ge  Ge7  1  0.17021200  0.33192800  0.33391000  1
  Ge  Ge8  1  0.66427600  0.66746300  0.66599600  1
  S  S9  1  0.28776800  0.15775800  0.74666200  1
  S  S10  1  0.30175400  0.75982100  0.09181300  1
  S  S11  1  0.29944700  0.09106500  0.15137800  1
  S  S12  1  0.78100300  0.83946700  0.25509700  1
  S  S13  1  0.76347400  0.24354500  0.91100500  1
  S  S14  1  0.76729600  0.91047400  0.84494700  1
  S  S15  1  0.55040600  0.33447500  0.33213600  1
  S  S16  1  0.04478300  0.66477100  0.66907600  1
  S  S17  1  0.00684200  0.09648000  0.48298600  1
  S  S18  1  0.00738500  0.48632000  0.41456400  1
  S  S19  1  0.01063500  0.41688700  0.09916900  1
  S  S20  1  0.50213900  0.90278500  0.51823500  1
  S  S21  1  0.50198000  0.51616200  0.58180700  1
  S  S22  1  0.50235000  0.58211600  0.90090300  1
