# generated using pymatgen
data_U2SbTe
_symmetry_space_group_name_H-M   'P 1'
_cell_length_a   7.18030800
_cell_length_b   7.18030800
_cell_length_c   7.18030858
_cell_angle_alpha   36.70828172
_cell_angle_beta   36.70828172
_cell_angle_gamma   36.70827626
_symmetry_Int_Tables_number   1
_chemical_formula_structural   U2SbTe
_chemical_formula_sum   'U2 Sb1 Te1'
_cell_volume   118.45247112
_cell_formula_units_Z   1
loop_
 _symmetry_equiv_pos_site_id
 _symmetry_equiv_pos_as_xyz
  1  'x, y, z'
loop_
 _atom_site_type_symbol
 _atom_site_label
 _atom_site_symmetry_multiplicity
 _atom_site_fract_x
 _atom_site_fract_y
 _atom_site_fract_z
 _atom_site_occupancy
  U  U0  1  0.25044800  0.25044800  0.25044800  1
  U  U1  1  0.74955200  0.74955200  0.74955200  1
  Sb  Sb2  1  0.00000000  0.00000000  0.00000000  1
  Te  Te3  1  0.50000000  0.50000000  0.50000000  1
