# generated using pymatgen
data_V9GaSiGe
_symmetry_space_group_name_H-M   'P 1'
_cell_length_a   4.76455300
_cell_length_b   4.76905000
_cell_length_c   14.19323400
_cell_angle_alpha   90.00000000
_cell_angle_beta   90.00000000
_cell_angle_gamma   90.00000000
_symmetry_Int_Tables_number   1
_chemical_formula_structural   V9GaSiGe
_chemical_formula_sum   'V18 Ga2 Si2 Ge2'
_cell_volume   322.50421938
_cell_formula_units_Z   2
loop_
 _symmetry_equiv_pos_site_id
 _symmetry_equiv_pos_as_xyz
  1  'x, y, z'
loop_
 _atom_site_type_symbol
 _atom_site_label
 _atom_site_symmetry_multiplicity
 _atom_site_fract_x
 _atom_site_fract_y
 _atom_site_fract_z
 _atom_site_occupancy
  V  V0  1  0.50000000  0.00000000  0.75053600  1
  V  V1  1  0.50000000  0.00000000  0.41627300  1
  V  V2  1  0.50000000  0.00000000  0.08248000  1
  V  V3  1  0.24317600  0.50000000  0.00349300  1
  V  V4  1  0.24594700  0.50000000  0.66664900  1
  V  V5  1  0.24955900  0.50000000  0.32974800  1
  V  V6  1  0.00000000  0.75192700  0.83637100  1
  V  V7  1  0.00000000  0.74959600  0.49976400  1
  V  V8  1  0.00000000  0.74503900  0.16402400  1
  V  V9  1  0.50000000  0.00000000  0.91855000  1
  V  V10  1  0.50000000  0.00000000  0.58349500  1
  V  V11  1  0.50000000  0.00000000  0.24866100  1
  V  V12  1  0.75682400  0.50000000  0.00349300  1
  V  V13  1  0.75405300  0.50000000  0.66664900  1
  V  V14  1  0.75044100  0.50000000  0.32974800  1
  V  V15  1  0.00000000  0.24807300  0.83637100  1
  V  V16  1  0.00000000  0.25040400  0.49976400  1
  V  V17  1  0.00000000  0.25496100  0.16402400  1
  Ga  Ga18  1  0.50000000  0.50000000  0.83447500  1
  Ga  Ga19  1  0.50000000  0.50000000  0.49902200  1
  Si  Si20  1  0.50000000  0.50000000  0.16647200  1
  Si  Si21  1  0.00000000  0.00000000  0.00067200  1
  Ge  Ge22  1  0.00000000  0.00000000  0.66724100  1
  Ge  Ge23  1  0.00000000  0.00000000  0.33202300  1
