# generated using pymatgen
data_Tm9B5S21
_symmetry_space_group_name_H-M   'P 1'
_cell_length_a   11.08006946
_cell_length_b   11.08006946
_cell_length_c   11.08006969
_cell_angle_alpha   93.83373365
_cell_angle_beta   93.83373365
_cell_angle_gamma   93.83373256
_symmetry_Int_Tables_number   1
_chemical_formula_structural   Tm9B5S21
_chemical_formula_sum   'Tm18 B10 S42'
_cell_volume   1350.71557214
_cell_formula_units_Z   2
loop_
 _symmetry_equiv_pos_site_id
 _symmetry_equiv_pos_as_xyz
  1  'x, y, z'
loop_
 _atom_site_type_symbol
 _atom_site_label
 _atom_site_symmetry_multiplicity
 _atom_site_fract_x
 _atom_site_fract_y
 _atom_site_fract_z
 _atom_site_occupancy
  Tm  Tm0  1  0.76122400  0.92267500  0.53242300  1
  Tm  Tm1  1  0.41595400  0.55520900  0.19769900  1
  Tm  Tm2  1  0.08437800  0.23987400  0.85024600  1
  Tm  Tm3  1  0.55520900  0.19769900  0.41595400  1
  Tm  Tm4  1  0.23987400  0.85024600  0.08437800  1
  Tm  Tm5  1  0.92267500  0.53242300  0.76122400  1
  Tm  Tm6  1  0.85024600  0.08437800  0.23987400  1
  Tm  Tm7  1  0.53242300  0.76122400  0.92267500  1
  Tm  Tm8  1  0.19769900  0.41595400  0.55520900  1
  Tm  Tm9  1  0.86611500  0.72234600  0.08031800  1
  Tm  Tm10  1  0.53327800  0.37618500  0.76620500  1
  Tm  Tm11  1  0.21152300  0.05690400  0.44654600  1
  Tm  Tm12  1  0.05690400  0.44654600  0.21152300  1
  Tm  Tm13  1  0.72234600  0.08031800  0.86611500  1
  Tm  Tm14  1  0.37618500  0.76620500  0.53327800  1
  Tm  Tm15  1  0.76620500  0.53327800  0.37618500  1
  Tm  Tm16  1  0.44654600  0.21152300  0.05690400  1
  Tm  Tm17  1  0.08031800  0.86611500  0.72234600  1
  B  B18  1  0.08505100  0.76013900  0.42198000  1
  B  B19  1  0.76013900  0.42198000  0.08505100  1
  B  B20  1  0.42198000  0.08505100  0.76013900  1
  B  B21  1  0.26106000  0.58595900  0.92038900  1
  B  B22  1  0.92038900  0.26106000  0.58595900  1
  B  B23  1  0.58595900  0.92038900  0.26106000  1
  B  B24  1  0.02130700  0.02130700  0.02130700  1
  B  B25  1  0.69543400  0.69543400  0.69543400  1
  B  B26  1  0.19500200  0.19500200  0.19500200  1
  B  B27  1  0.52157400  0.52157400  0.52157400  1
  S  S28  1  0.14090900  0.68357700  0.56760200  1
  S  S29  1  0.81968900  0.34643000  0.22917600  1
  S  S30  1  0.47932600  0.01135700  0.90494400  1
  S  S31  1  0.01135700  0.90494400  0.47932600  1
  S  S32  1  0.68357700  0.56760200  0.14090900  1
  S  S33  1  0.34643000  0.22917600  0.81968900  1
  S  S34  1  0.22917600  0.81968900  0.34643000  1
  S  S35  1  0.90494500  0.47932600  0.01135700  1
  S  S36  1  0.56760200  0.14090900  0.68357700  1
  S  S37  1  0.28942900  0.74588100  0.86171400  1
  S  S38  1  0.95013400  0.42077100  0.52548800  1
  S  S39  1  0.60987100  0.08034300  0.19959100  1
  S  S40  1  0.42077100  0.52548800  0.95013400  1
  S  S41  1  0.08034300  0.19959100  0.60987100  1
  S  S42  1  0.74588100  0.86171400  0.28942900  1
  S  S43  1  0.19959100  0.60987100  0.08034300  1
  S  S44  1  0.86171400  0.28942900  0.74588100  1
  S  S45  1  0.52548800  0.95013400  0.42077100  1
  S  S46  1  0.30895800  0.97213300  0.65553400  1
  S  S47  1  0.97213300  0.65553400  0.30895800  1
  S  S48  1  0.65553400  0.30895800  0.97213300  1
  S  S49  1  0.15659100  0.47337900  0.80684500  1
  S  S50  1  0.80684500  0.15659100  0.47337900  1
  S  S51  1  0.47337900  0.80684500  0.15659100  1
  S  S52  1  0.24956400  0.50844700  0.35340900  1
  S  S53  1  0.92583100  0.14941800  0.01762700  1
  S  S54  1  0.59400100  0.81843000  0.68768900  1
  S  S55  1  0.81843000  0.68768900  0.59400100  1
  S  S56  1  0.50844700  0.35340900  0.24956400  1
  S  S57  1  0.14941800  0.01762700  0.92583100  1
  S  S58  1  0.01762700  0.92583100  0.14941800  1
  S  S59  1  0.68768900  0.59400100  0.81843000  1
  S  S60  1  0.35340900  0.24956400  0.50844700  1
  S  S61  1  0.99255400  0.73373100  0.88604900  1
  S  S62  1  0.63614700  0.41253000  0.54450500  1
  S  S63  1  0.30513900  0.08089900  0.21306500  1
  S  S64  1  0.41253000  0.54450500  0.63614700  1
  S  S65  1  0.08089900  0.21306500  0.30513900  1
  S  S66  1  0.73373100  0.88604900  0.99255400  1
  S  S67  1  0.21306500  0.30513900  0.08089900  1
  S  S68  1  0.88604900  0.99255400  0.73373100  1
  S  S69  1  0.54450500  0.63614700  0.41253000  1
