# generated using pymatgen
data_Y(BrO6)3
_symmetry_space_group_name_H-M   'P 1'
_cell_length_a   6.35053600
_cell_length_b   12.53910900
_cell_length_c   12.77869713
_cell_angle_alpha   65.81760823
_cell_angle_beta   90.00000000
_cell_angle_gamma   90.00000000
_symmetry_Int_Tables_number   1
_chemical_formula_structural   Y(BrO6)3
_chemical_formula_sum   'Y2 Br6 O36'
_cell_volume   928.27280880
_cell_formula_units_Z   2
loop_
 _symmetry_equiv_pos_site_id
 _symmetry_equiv_pos_as_xyz
  1  'x, y, z'
loop_
 _atom_site_type_symbol
 _atom_site_label
 _atom_site_symmetry_multiplicity
 _atom_site_fract_x
 _atom_site_fract_y
 _atom_site_fract_z
 _atom_site_occupancy
  Y  Y0  1  0.94340300  0.85317600  0.55294600  1
  Y  Y1  1  0.44340300  0.14682400  0.44705400  1
  Br  Br2  1  0.77234400  0.70585500  0.14299500  1
  Br  Br3  1  0.63724100  0.15631700  0.15746600  1
  Br  Br4  1  0.69368000  0.16377600  0.70575500  1
  Br  Br5  1  0.27234400  0.29414500  0.85700500  1
  Br  Br6  1  0.13724100  0.84368300  0.84253400  1
  Br  Br7  1  0.19368000  0.83622400  0.29424500  1
  O  O8  1  0.82086800  0.41304500  0.82683100  1
  O  O9  1  0.67514800  0.72901400  0.81102800  1
  O  O10  1  0.73191900  0.75214600  0.44335900  1
  O  O11  1  0.32086800  0.58695500  0.17316900  1
  O  O12  1  0.17514800  0.27098600  0.18897200  1
  O  O13  1  0.23191900  0.24785400  0.55664100  1
  O  O14  1  0.89291700  0.49432900  0.84468500  1
  O  O15  1  0.12522900  0.04420200  0.49172300  1
  O  O16  1  0.90267500  0.64341900  0.60040900  1
  O  O17  1  0.06803800  0.36058600  0.15381100  1
  O  O18  1  0.06179000  0.15271700  0.42984700  1
  O  O19  1  0.28071000  0.35310000  0.48527700  1
  O  O20  1  0.39291700  0.50567100  0.15531500  1
  O  O21  1  0.62522900  0.95579800  0.50827700  1
  O  O22  1  0.40267500  0.35658100  0.39959100  1
  O  O23  1  0.56803800  0.63941400  0.84618900  1
  O  O24  1  0.56179000  0.84728300  0.57015300  1
  O  O25  1  0.78071000  0.64690000  0.51472300  1
  O  O26  1  0.80139900  0.63319500  0.05980200  1
  O  O27  1  0.59527900  0.16291900  0.29429300  1
  O  O28  1  0.75132300  0.30399500  0.65097900  1
  O  O29  1  0.81506700  0.62076900  0.28031800  1
  O  O30  1  0.66026500  0.13463700  0.57983800  1
  O  O31  1  0.68696800  0.29392200  0.07216400  1
  O  O32  1  0.30139900  0.36680500  0.94019800  1
  O  O33  1  0.09527900  0.83708100  0.70570700  1
  O  O34  1  0.25132300  0.69600500  0.34902100  1
  O  O35  1  0.31506700  0.37923100  0.71968200  1
  O  O36  1  0.16026500  0.86536300  0.42016200  1
  O  O37  1  0.18696800  0.70607800  0.92783600  1
  O  O38  1  0.93427000  0.82139800  0.09790700  1
  O  O39  1  0.85746900  0.08092800  0.17677900  1
  O  O40  1  0.90699900  0.08737000  0.76500800  1
  O  O41  1  0.43427000  0.17860200  0.90209300  1
  O  O42  1  0.35746900  0.91907200  0.82322100  1
  O  O43  1  0.40699900  0.91263000  0.23499200  1
