# generated using pymatgen
data_Ti(Nb2B3)4
_symmetry_space_group_name_H-M   'P 1'
_cell_length_a   3.14131300
_cell_length_b   3.32202400
_cell_length_c   21.28297351
_cell_angle_alpha   94.47615338
_cell_angle_beta   85.76779781
_cell_angle_gamma   90.00000000
_symmetry_Int_Tables_number   1
_chemical_formula_structural   Ti(Nb2B3)4
_chemical_formula_sum   'Ti1 Nb8 B12'
_cell_volume   220.81392597
_cell_formula_units_Z   1
loop_
 _symmetry_equiv_pos_site_id
 _symmetry_equiv_pos_as_xyz
  1  'x, y, z'
loop_
 _atom_site_type_symbol
 _atom_site_label
 _atom_site_symmetry_multiplicity
 _atom_site_fract_x
 _atom_site_fract_y
 _atom_site_fract_z
 _atom_site_occupancy
  Ti  Ti0  1  0.50000000  0.00000000  0.00000000  1
  Nb  Nb1  1  0.93911900  0.06088100  0.12176200  1
  Nb  Nb2  1  0.27169600  0.72830400  0.45660600  1
  Nb  Nb3  1  0.60446400  0.39553600  0.79107400  1
  Nb  Nb4  1  0.39553600  0.60446400  0.20892600  1
  Nb  Nb5  1  0.72830400  0.27169600  0.54339400  1
  Nb  Nb6  1  0.06088100  0.93911900  0.87823800  1
  Nb  Nb7  1  0.83355300  0.66644700  0.33289400  1
  Nb  Nb8  1  0.16644700  0.33355300  0.66710600  1
  B  B9  1  0.35501600  0.14498400  0.28996700  1
  B  B10  1  0.68803700  0.81196300  0.62392600  1
  B  B11  1  0.02058700  0.47941300  0.95882600  1
  B  B12  1  0.97941300  0.52058700  0.04117400  1
  B  B13  1  0.31196300  0.18803700  0.37607400  1
  B  B14  1  0.64498400  0.85501600  0.71003300  1
  B  B15  1  0.87758300  0.12241700  0.24483500  1
  B  B16  1  0.21065100  0.78934900  0.57869800  1
  B  B17  1  0.54292300  0.45707700  0.91415200  1
  B  B18  1  0.45707700  0.54292300  0.08584800  1
  B  B19  1  0.78934900  0.21065100  0.42130200  1
  B  B20  1  0.12241700  0.87758300  0.75516500  1
