# generated using pymatgen
data_V4(CrS2)5
_symmetry_space_group_name_H-M   'P 1'
_cell_length_a   5.87253600
_cell_length_b   6.67529144
_cell_length_c   8.19451867
_cell_angle_alpha   106.22459062
_cell_angle_beta   110.94376624
_cell_angle_gamma   89.93393461
_symmetry_Int_Tables_number   1
_chemical_formula_structural   V4(CrS2)5
_chemical_formula_sum   'V4 Cr5 S10'
_cell_volume   286.31005106
_cell_formula_units_Z   1
loop_
 _symmetry_equiv_pos_site_id
 _symmetry_equiv_pos_as_xyz
  1  'x, y, z'
loop_
 _atom_site_type_symbol
 _atom_site_label
 _atom_site_symmetry_multiplicity
 _atom_site_fract_x
 _atom_site_fract_y
 _atom_site_fract_z
 _atom_site_occupancy
  V  V0  1  0.21410300  0.40377500  0.40473200  1
  V  V1  1  0.39600700  0.77825600  0.78187400  1
  V  V2  1  0.60399300  0.22174400  0.21812600  1
  V  V3  1  0.78589700  0.59622500  0.59526800  1
  Cr  Cr4  1  0.09854800  0.71443800  0.18920500  1
  Cr  Cr5  1  0.28516700  0.09839900  0.60078100  1
  Cr  Cr6  1  0.50000000  0.50000000  0.00000000  1
  Cr  Cr7  1  0.71483300  0.90160100  0.39921900  1
  Cr  Cr8  1  0.90145200  0.28556200  0.81079500  1
  S  S9  1  0.60937600  0.14450200  0.90235500  1
  S  S10  1  0.41164700  0.75481900  0.48635300  1
  S  S11  1  0.01196300  0.94334900  0.70164300  1
  S  S12  1  0.82889800  0.55912900  0.30138700  1
  S  S13  1  0.21629700  0.36178800  0.10345500  1
  S  S14  1  0.78370300  0.63821200  0.89654500  1
  S  S15  1  0.58835300  0.24518100  0.51364700  1
  S  S16  1  0.17110200  0.44087100  0.69861300  1
  S  S17  1  0.98803700  0.05665100  0.29835700  1
  S  S18  1  0.39062400  0.85549800  0.09764500  1
