# generated using pymatgen
data_U(GeRh)2
_symmetry_space_group_name_H-M   'P 1'
_cell_length_a   5.03140600
_cell_length_b   5.03140600
_cell_length_c   7.61293400
_cell_angle_alpha   90.00000000
_cell_angle_beta   90.00000000
_cell_angle_gamma   90.00000000
_symmetry_Int_Tables_number   1
_chemical_formula_structural   U(GeRh)2
_chemical_formula_sum   'U2 Ge4 Rh4'
_cell_volume   192.72177697
_cell_formula_units_Z   2
loop_
 _symmetry_equiv_pos_site_id
 _symmetry_equiv_pos_as_xyz
  1  'x, y, z'
loop_
 _atom_site_type_symbol
 _atom_site_label
 _atom_site_symmetry_multiplicity
 _atom_site_fract_x
 _atom_site_fract_y
 _atom_site_fract_z
 _atom_site_occupancy
  U  U0  1  0.00000000  0.00000000  0.90742300  1
  U  U1  1  0.50000000  0.50000000  0.54999600  1
  Ge  Ge2  1  0.50000000  0.00000000  0.36667500  1
  Ge  Ge3  1  0.00000000  0.50000000  0.36667500  1
  Ge  Ge4  1  0.50000000  0.50000000  0.89874500  1
  Ge  Ge5  1  0.50000000  0.50000000  0.20375100  1
  Rh  Rh6  1  0.00000000  0.00000000  0.57124500  1
  Rh  Rh7  1  0.00000000  0.00000000  0.20255200  1
  Rh  Rh8  1  0.50000000  0.00000000  0.71646900  1
  Rh  Rh9  1  0.00000000  0.50000000  0.71646900  1
