# generated using pymatgen
data_Ta12Ga3(TeSe2)8
_symmetry_space_group_name_H-M   'P 1'
_cell_length_a   7.62784200
_cell_length_b   7.71515231
_cell_length_c   18.78829990
_cell_angle_alpha   90.62298632
_cell_angle_beta   89.99075683
_cell_angle_gamma   119.56678307
_symmetry_Int_Tables_number   1
_chemical_formula_structural   Ta12Ga3(TeSe2)8
_chemical_formula_sum   'Ta12 Ga3 Te8 Se16'
_cell_volume   961.63490384
_cell_formula_units_Z   1
loop_
 _symmetry_equiv_pos_site_id
 _symmetry_equiv_pos_as_xyz
  1  'x, y, z'
loop_
 _atom_site_type_symbol
 _atom_site_label
 _atom_site_symmetry_multiplicity
 _atom_site_fract_x
 _atom_site_fract_y
 _atom_site_fract_z
 _atom_site_occupancy
  Ta  Ta0  1  0.20857400  0.79824100  0.19701400  1
  Ta  Ta1  1  0.54412300  0.47117200  0.86697900  1
  Ta  Ta2  1  0.87380300  0.13121300  0.53207300  1
  Ta  Ta3  1  0.59327400  0.80571700  0.19828800  1
  Ta  Ta4  1  0.92626400  0.47204000  0.86639100  1
  Ta  Ta5  1  0.25907400  0.13867000  0.53253300  1
  Ta  Ta6  1  0.34042300  0.68146200  0.06593900  1
  Ta  Ta7  1  0.66903700  0.34537100  0.73709000  1
  Ta  Ta8  1  0.00149400  0.01186400  0.40148700  1
  Ta  Ta9  1  0.19110400  0.39693900  0.20251300  1
  Ta  Ta10  1  0.52804600  0.05903600  0.87221200  1
  Ta  Ta11  1  0.85652100  0.72924000  0.53719300  1
  Ga  Ga12  1  0.68106200  0.32781900  0.33008700  1
  Ga  Ga13  1  0.99039700  0.98355000  0.99359600  1
  Ga  Ga14  1  0.34853200  0.66152800  0.66400300  1
  Te  Te15  1  0.97183900  0.48291300  0.62218800  1
  Te  Te16  1  0.30476300  0.14918700  0.28719800  1
  Te  Te17  1  0.33380300  0.66384600  0.80329500  1
  Te  Te18  1  0.66623400  0.33025700  0.46933100  1
  Te  Te19  1  0.99766600  0.99572200  0.13384400  1
  Te  Te20  1  0.18011500  0.36074500  0.95412500  1
  Te  Te21  1  0.51560500  0.03117300  0.62180600  1
  Te  Te22  1  0.84966600  0.69695900  0.28681200  1
  Se  Se23  1  0.49793000  0.49073400  0.12405000  1
  Se  Se24  1  0.83183100  0.15619200  0.79241500  1
  Se  Se25  1  0.16268600  0.82330400  0.45832700  1
  Se  Se26  1  0.98642200  0.48927900  0.12019500  1
  Se  Se27  1  0.31860400  0.15493100  0.79329100  1
  Se  Se28  1  0.64807900  0.82026800  0.45593200  1
  Se  Se29  1  0.33260800  0.66445900  0.29900200  1
  Se  Se30  1  0.66617000  0.33126200  0.96717800  1
  Se  Se31  1  0.99948300  0.99762400  0.63343900  1
  Se  Se32  1  0.51550800  0.03082500  0.12065900  1
  Se  Se33  1  0.84777700  0.69873700  0.78932200  1
  Se  Se34  1  0.17970900  0.36280400  0.45507400  1
  Se  Se35  1  0.18072400  0.81383900  0.95364400  1
  Se  Se36  1  0.51782600  0.48006300  0.62112900  1
  Se  Se37  1  0.85149300  0.14753100  0.28658800  1
  Se  Se38  1  0.63173200  0.81348600  0.95375600  1
