# generated using pymatgen
data_Ti4FeBiPb4O15
_symmetry_space_group_name_H-M   'P 1'
_cell_length_a   13.84915025
_cell_length_b   13.84915025
_cell_length_c   4.73323700
_cell_angle_alpha   90.00000000
_cell_angle_beta   90.00000000
_cell_angle_gamma   157.30208397
_symmetry_Int_Tables_number   1
_chemical_formula_structural   Ti4FeBiPb4O15
_chemical_formula_sum   'Ti4 Fe1 Bi1 Pb4 O15'
_cell_volume   350.30659964
_cell_formula_units_Z   1
loop_
 _symmetry_equiv_pos_site_id
 _symmetry_equiv_pos_as_xyz
  1  'x, y, z'
loop_
 _atom_site_type_symbol
 _atom_site_label
 _atom_site_symmetry_multiplicity
 _atom_site_fract_x
 _atom_site_fract_y
 _atom_site_fract_z
 _atom_site_occupancy
  Ti  Ti0  1  0.89776000  0.10224000  0.52657500  1
  Ti  Ti1  1  0.30010300  0.69989700  0.52819500  1
  Ti  Ti2  1  0.69989700  0.30010300  0.52819500  1
  Ti  Ti3  1  0.10224000  0.89776000  0.52657500  1
  Fe  Fe4  1  0.50000000  0.50000000  0.52543400  1
  Bi  Bi5  1  0.00000000  0.00000000  0.92607200  1
  Pb  Pb6  1  0.40506000  0.59494000  0.98803700  1
  Pb  Pb7  1  0.79922100  0.20077900  0.97541300  1
  Pb  Pb8  1  0.20077900  0.79922100  0.97541300  1
  Pb  Pb9  1  0.59494000  0.40506000  0.98803700  1
  O  O10  1  0.89897100  0.59931400  0.63047100  1
  O  O11  1  0.10102900  0.40068600  0.63047100  1
  O  O12  1  0.50000000  0.00000000  0.64376100  1
  O  O13  1  0.29049400  0.19112900  0.65238800  1
  O  O14  1  0.70950600  0.80887100  0.65238800  1
  O  O15  1  0.80887100  0.70950600  0.65238800  1
  O  O16  1  0.00000000  0.50000000  0.64376100  1
  O  O17  1  0.40068600  0.10102900  0.63047100  1
  O  O18  1  0.19112900  0.29049400  0.65238800  1
  O  O19  1  0.59931400  0.89897100  0.63047100  1
  O  O20  1  0.09797900  0.90202100  0.15649600  1
  O  O21  1  0.29790000  0.70210000  0.15901500  1
  O  O22  1  0.70210000  0.29790000  0.15901500  1
  O  O23  1  0.50000000  0.50000000  0.13207300  1
  O  O24  1  0.90202100  0.09797900  0.15649600  1
