# generated using pymatgen
data_Ti6FeO16
_symmetry_space_group_name_H-M   'P 1'
_cell_length_a   4.68819500
_cell_length_b   7.55759082
_cell_length_c   7.68261373
_cell_angle_alpha   82.44556741
_cell_angle_beta   89.81453787
_cell_angle_gamma   89.95047187
_symmetry_Int_Tables_number   1
_chemical_formula_structural   Ti6FeO16
_chemical_formula_sum   'Ti6 Fe1 O16'
_cell_volume   269.84213909
_cell_formula_units_Z   1
loop_
 _symmetry_equiv_pos_site_id
 _symmetry_equiv_pos_as_xyz
  1  'x, y, z'
loop_
 _atom_site_type_symbol
 _atom_site_label
 _atom_site_symmetry_multiplicity
 _atom_site_fract_x
 _atom_site_fract_y
 _atom_site_fract_z
 _atom_site_occupancy
  Ti  Ti0  1  0.50248600  0.58728100  0.31233500  1
  Ti  Ti1  1  0.00593900  0.93826600  0.16084400  1
  Ti  Ti2  1  0.49129200  0.40400700  0.69462100  1
  Ti  Ti3  1  0.51240600  0.72489200  0.92266600  1
  Ti  Ti4  1  0.49115600  0.27078900  0.08046200  1
  Ti  Ti5  1  0.98197200  0.23268800  0.43647100  1
  Fe  Fe6  1  0.99230800  0.78491400  0.56753300  1
  O  O7  1  0.72502700  0.74358300  0.15019400  1
  O  O8  1  0.21603700  0.75669600  0.35700400  1
  O  O9  1  0.29554500  0.26769000  0.86385900  1
  O  O10  1  0.77104100  0.25042600  0.63405300  1
  O  O11  1  0.82437300  0.97554700  0.40877100  1
  O  O12  1  0.33006800  0.52364200  0.09861900  1
  O  O13  1  0.19310300  0.99917700  0.57295600  1
  O  O14  1  0.68644700  0.48695500  0.90000700  1
  O  O15  1  0.76201200  0.83272300  0.75667200  1
  O  O16  1  0.27109600  0.64900600  0.72055700  1
  O  O17  1  0.22797200  0.14661000  0.23271100  1
  O  O18  1  0.73440800  0.35716500  0.27699900  1
  O  O19  1  0.75645500  0.10169300  0.04945100  1
  O  O20  1  0.27365300  0.39826100  0.47663300  1
  O  O21  1  0.24127500  0.88357800  0.98728000  1
  O  O22  1  0.73292800  0.60641200  0.52230200  1
