# generated using pymatgen
data_Ta10Al6B
_symmetry_space_group_name_H-M   'P 1'
_cell_length_a   7.84188781
_cell_length_b   7.84188781
_cell_length_c   5.29210600
_cell_angle_alpha   90.00000000
_cell_angle_beta   90.00000000
_cell_angle_gamma   119.99999838
_symmetry_Int_Tables_number   1
_chemical_formula_structural   Ta10Al6B
_chemical_formula_sum   'Ta10 Al6 B1'
_cell_volume   281.83856735
_cell_formula_units_Z   1
loop_
 _symmetry_equiv_pos_site_id
 _symmetry_equiv_pos_as_xyz
  1  'x, y, z'
loop_
 _atom_site_type_symbol
 _atom_site_label
 _atom_site_symmetry_multiplicity
 _atom_site_fract_x
 _atom_site_fract_y
 _atom_site_fract_z
 _atom_site_occupancy
  Ta  Ta0  1  0.33333300  0.66666700  0.50000000  1
  Ta  Ta1  1  0.66666700  0.33333300  0.50000000  1
  Ta  Ta2  1  0.66666700  0.33333300  0.00000000  1
  Ta  Ta3  1  0.33333300  0.66666700  0.00000000  1
  Ta  Ta4  1  0.00000000  0.76128400  0.24216500  1
  Ta  Ta5  1  0.23871600  0.23871600  0.24216500  1
  Ta  Ta6  1  0.76128400  0.00000000  0.24216500  1
  Ta  Ta7  1  0.00000000  0.23871600  0.75783500  1
  Ta  Ta8  1  0.76128400  0.76128400  0.75783500  1
  Ta  Ta9  1  0.23871600  0.00000000  0.75783500  1
  Al  Al10  1  0.00000000  0.40121100  0.25218100  1
  Al  Al11  1  0.59878900  0.59878900  0.25218100  1
  Al  Al12  1  0.40121100  0.00000000  0.25218100  1
  Al  Al13  1  0.00000000  0.59878900  0.74781900  1
  Al  Al14  1  0.40121100  0.40121100  0.74781900  1
  Al  Al15  1  0.59878900  0.00000000  0.74781900  1
  B  B16  1  0.00000000  0.00000000  0.50000000  1
