# generated using pymatgen
data_Tb3SmFe34
_symmetry_space_group_name_H-M   'P 1'
_cell_length_a   6.42464728
_cell_length_b   6.42464728
_cell_length_c   12.85035392
_cell_angle_alpha   83.03394130
_cell_angle_beta   83.03394130
_cell_angle_gamma   83.00535621
_symmetry_Int_Tables_number   1
_chemical_formula_structural   Tb3SmFe34
_chemical_formula_sum   'Tb3 Sm1 Fe34'
_cell_volume   519.51575562
_cell_formula_units_Z   1
loop_
 _symmetry_equiv_pos_site_id
 _symmetry_equiv_pos_as_xyz
  1  'x, y, z'
loop_
 _atom_site_type_symbol
 _atom_site_label
 _atom_site_symmetry_multiplicity
 _atom_site_fract_x
 _atom_site_fract_y
 _atom_site_fract_z
 _atom_site_occupancy
  Tb  Tb0  1  0.65865600  0.65865600  0.82931200  1
  Tb  Tb1  1  0.34086400  0.34086400  0.17052000  1
  Tb  Tb2  1  0.34136200  0.34136200  0.67069000  1
  Sm  Sm3  1  0.65823800  0.65823800  0.32912300  1
  Fe  Fe4  1  0.00036300  0.00036300  0.24983600  1
  Fe  Fe5  1  0.00005000  0.00005000  0.75006100  1
  Fe  Fe6  1  0.00031600  0.49968000  0.50035500  1
  Fe  Fe7  1  0.00004600  0.50002300  0.99983200  1
  Fe  Fe8  1  0.50002300  0.00004600  0.99983200  1
  Fe  Fe9  1  0.49968000  0.00031600  0.50035500  1
  Fe  Fe10  1  0.29292500  0.70718300  0.99977100  1
  Fe  Fe11  1  0.29169500  0.70783600  0.50047000  1
  Fe  Fe12  1  0.70788100  0.00074800  0.14568800  1
  Fe  Fe13  1  0.70730800  0.99995000  0.64655000  1
  Fe  Fe14  1  0.00044700  0.29163800  0.35395900  1
  Fe  Fe15  1  0.00003100  0.29270500  0.85361200  1
  Fe  Fe16  1  0.29163800  0.00044700  0.35395900  1
  Fe  Fe17  1  0.29270500  0.00003100  0.85361200  1
  Fe  Fe18  1  0.00074800  0.70788100  0.14568800  1
  Fe  Fe19  1  0.99995000  0.70730800  0.64655000  1
  Fe  Fe20  1  0.70718300  0.29292500  0.99977100  1
  Fe  Fe21  1  0.70783600  0.29169500  0.50047000  1
  Fe  Fe22  1  0.90296300  0.90296300  0.45163100  1
  Fe  Fe23  1  0.90258100  0.90258100  0.95116500  1
  Fe  Fe24  1  0.09759700  0.09759700  0.04849200  1
  Fe  Fe25  1  0.09751300  0.09751300  0.54897300  1
  Fe  Fe26  1  0.34326200  0.34326200  0.42278000  1
  Fe  Fe27  1  0.34404600  0.34404600  0.92251900  1
  Fe  Fe28  1  0.34333500  0.84549600  0.17151700  1
  Fe  Fe29  1  0.34389500  0.84506300  0.67215900  1
  Fe  Fe30  1  0.84549600  0.34333500  0.17151700  1
  Fe  Fe31  1  0.84506300  0.34389500  0.67215900  1
  Fe  Fe32  1  0.65593300  0.65593300  0.07685600  1
  Fe  Fe33  1  0.65616100  0.65616100  0.57813400  1
  Fe  Fe34  1  0.65607500  0.15511500  0.32808300  1
  Fe  Fe35  1  0.65601200  0.15500800  0.82795800  1
  Fe  Fe36  1  0.15511500  0.65607500  0.32808300  1
  Fe  Fe37  1  0.15500800  0.65601200  0.82795800  1
