# generated using pymatgen
data_Ti3Sn5S12
_symmetry_space_group_name_H-M   'P 1'
_cell_length_a   3.64459400
_cell_length_b   9.13356900
_cell_length_c   13.64580899
_cell_angle_alpha   88.99791795
_cell_angle_beta   90.00000000
_cell_angle_gamma   90.00000000
_symmetry_Int_Tables_number   1
_chemical_formula_structural   Ti3Sn5S12
_chemical_formula_sum   'Ti3 Sn5 S12'
_cell_volume   454.17427508
_cell_formula_units_Z   1
loop_
 _symmetry_equiv_pos_site_id
 _symmetry_equiv_pos_as_xyz
  1  'x, y, z'
loop_
 _atom_site_type_symbol
 _atom_site_label
 _atom_site_symmetry_multiplicity
 _atom_site_fract_x
 _atom_site_fract_y
 _atom_site_fract_z
 _atom_site_occupancy
  Ti  Ti0  1  0.00000000  0.15778400  0.95280400  1
  Ti  Ti1  1  0.50000000  0.32949900  0.44483200  1
  Ti  Ti2  1  0.50000000  0.84403600  0.04665200  1
  Sn  Sn3  1  0.50000000  0.96960700  0.67544400  1
  Sn  Sn4  1  0.50000000  0.45741700  0.83347900  1
  Sn  Sn5  1  0.00000000  0.03902200  0.32970800  1
  Sn  Sn6  1  0.00000000  0.54523100  0.17033400  1
  Sn  Sn7  1  0.00000000  0.65716800  0.54903700  1
  S  S8  1  0.50000000  0.83613200  0.49053400  1
  S  S9  1  0.50000000  0.31506200  0.00959600  1
  S  S10  1  0.00000000  0.17642200  0.50671200  1
  S  S11  1  0.00000000  0.68487800  0.99220200  1
  S  S12  1  0.00000000  0.77244000  0.71871100  1
  S  S13  1  0.00000000  0.26428600  0.79002200  1
  S  S14  1  0.50000000  0.23699000  0.28454700  1
  S  S15  1  0.50000000  0.73757700  0.21134000  1
  S  S16  1  0.50000000  0.47316200  0.60283300  1
  S  S17  1  0.50000000  0.99095100  0.89628500  1
  S  S18  1  0.00000000  0.50341000  0.39109800  1
  S  S19  1  0.00000000  0.00892600  0.10383000  1
