# generated using pymatgen
data_U2MnFeSe6
_symmetry_space_group_name_H-M   'P 1'
_cell_length_a   3.89132200
_cell_length_b   6.29357752
_cell_length_c   9.34328999
_cell_angle_alpha   90.17611824
_cell_angle_beta   90.00000000
_cell_angle_gamma   71.99197254
_symmetry_Int_Tables_number   1
_chemical_formula_structural   U2MnFeSe6
_chemical_formula_sum   'U2 Mn1 Fe1 Se6'
_cell_volume   217.61000838
_cell_formula_units_Z   1
loop_
 _symmetry_equiv_pos_site_id
 _symmetry_equiv_pos_as_xyz
  1  'x, y, z'
loop_
 _atom_site_type_symbol
 _atom_site_label
 _atom_site_symmetry_multiplicity
 _atom_site_fract_x
 _atom_site_fract_y
 _atom_site_fract_z
 _atom_site_occupancy
  U  U0  1  0.73722300  0.52555500  0.25596900  1
  U  U1  1  0.26277700  0.47444500  0.74403100  1
  Mn  Mn2  1  0.50000000  0.00000000  0.00000000  1
  Fe  Fe3  1  0.50000000  0.00000000  0.50000000  1
  Se  Se4  1  0.14424100  0.71151800  0.05355100  1
  Se  Se5  1  0.85575900  0.28848200  0.94644900  1
  Se  Se6  1  0.13655800  0.72688400  0.44939100  1
  Se  Se7  1  0.86344200  0.27311600  0.55060900  1
  Se  Se8  1  0.41669800  0.16660400  0.25265300  1
  Se  Se9  1  0.58330200  0.83339600  0.74734700  1
