# generated using pymatgen
data_TaMoS4
_symmetry_space_group_name_H-M   'P 1'
_cell_length_a   3.27977400
_cell_length_b   5.68555000
_cell_length_c   6.57839963
_cell_angle_alpha   73.17806953
_cell_angle_beta   90.00000000
_cell_angle_gamma   90.00000000
_symmetry_Int_Tables_number   1
_chemical_formula_structural   TaMoS4
_chemical_formula_sum   'Ta1 Mo1 S4'
_cell_volume   117.42034072
_cell_formula_units_Z   1
loop_
 _symmetry_equiv_pos_site_id
 _symmetry_equiv_pos_as_xyz
  1  'x, y, z'
loop_
 _atom_site_type_symbol
 _atom_site_label
 _atom_site_symmetry_multiplicity
 _atom_site_fract_x
 _atom_site_fract_y
 _atom_site_fract_z
 _atom_site_occupancy
  Ta  Ta0  1  0.50000000  0.66347700  0.50024300  1
  Mo  Mo1  1  0.00000000  0.16825700  0.49993200  1
  S  S2  1  0.00000000  0.41338500  0.74807800  1
  S  S3  1  0.50000000  0.92273500  0.74398100  1
  S  S4  1  0.00000000  0.57970000  0.25167500  1
  S  S5  1  0.50000000  0.08584500  0.25589100  1
