# generated using pymatgen
data_TaVH4
_symmetry_space_group_name_H-M   'P 1'
_cell_length_a   5.37630732
_cell_length_b   5.37630732
_cell_length_c   5.37630699
_cell_angle_alpha   33.62769472
_cell_angle_beta   33.62769472
_cell_angle_gamma   33.62770319
_symmetry_Int_Tables_number   1
_chemical_formula_structural   TaVH4
_chemical_formula_sum   'Ta1 V1 H4'
_cell_volume   42.45630323
_cell_formula_units_Z   1
loop_
 _symmetry_equiv_pos_site_id
 _symmetry_equiv_pos_as_xyz
  1  'x, y, z'
loop_
 _atom_site_type_symbol
 _atom_site_label
 _atom_site_symmetry_multiplicity
 _atom_site_fract_x
 _atom_site_fract_y
 _atom_site_fract_z
 _atom_site_occupancy
  Ta  Ta0  1  0.00000000  0.00000000  0.00000000  1
  V  V1  1  0.50000000  0.50000000  0.50000000  1
  H  H2  1  0.61930700  0.61930700  0.61930700  1
  H  H3  1  0.12980000  0.12980000  0.12980000  1
  H  H4  1  0.87020000  0.87020000  0.87020000  1
  H  H5  1  0.38069300  0.38069300  0.38069300  1
