# generated using pymatgen
data_SrLa2Mn3O9
_symmetry_space_group_name_H-M   'P 1'
_cell_length_a   5.53647300
_cell_length_b   9.60299300
_cell_length_c   13.64001263
_cell_angle_alpha   89.05795532
_cell_angle_beta   90.00000000
_cell_angle_gamma   90.00000000
_symmetry_Int_Tables_number   1
_chemical_formula_structural   SrLa2Mn3O9
_chemical_formula_sum   'Sr4 La8 Mn12 O36'
_cell_volume   725.09659612
_cell_formula_units_Z   4
loop_
 _symmetry_equiv_pos_site_id
 _symmetry_equiv_pos_as_xyz
  1  'x, y, z'
loop_
 _atom_site_type_symbol
 _atom_site_label
 _atom_site_symmetry_multiplicity
 _atom_site_fract_x
 _atom_site_fract_y
 _atom_site_fract_z
 _atom_site_occupancy
  Sr  Sr0  1  0.49226500  0.49629800  0.75021600  1
  Sr  Sr1  1  0.99226500  0.00370200  0.24978400  1
  Sr  Sr2  1  0.50773500  0.50370200  0.24978400  1
  Sr  Sr3  1  0.00773500  0.99629800  0.75021600  1
  La  La4  1  0.49071300  0.16978800  0.41714300  1
  La  La5  1  0.49154400  0.83697600  0.08454400  1
  La  La6  1  0.99154400  0.66302400  0.91545600  1
  La  La7  1  0.99071300  0.33021200  0.58285700  1
  La  La8  1  0.50928700  0.83021200  0.58285700  1
  La  La9  1  0.50845600  0.16302400  0.91545600  1
  La  La10  1  0.00928700  0.66978800  0.41714300  1
  La  La11  1  0.00845600  0.33697600  0.08454400  1
  Mn  Mn12  1  0.50000000  0.50000000  0.00000000  1
  Mn  Mn13  1  0.49929400  0.16550400  0.66799300  1
  Mn  Mn14  1  0.50070600  0.83449600  0.33200700  1
  Mn  Mn15  1  0.00000000  0.00000000  0.00000000  1
  Mn  Mn16  1  0.00070600  0.66550400  0.66799300  1
  Mn  Mn17  1  0.99929400  0.33449600  0.33200700  1
  Mn  Mn18  1  0.49947200  0.83267600  0.83282000  1
  Mn  Mn19  1  0.50000000  0.50000000  0.50000000  1
  Mn  Mn20  1  0.50052800  0.16732400  0.16718000  1
  Mn  Mn21  1  0.99947200  0.66732400  0.16718000  1
  Mn  Mn22  1  0.00052800  0.33267600  0.83282000  1
  Mn  Mn23  1  0.00000000  0.00000000  0.50000000  1
  O  O24  1  0.50347200  0.02332000  0.27243200  1
  O  O25  1  0.50190800  0.68920300  0.94030200  1
  O  O26  1  0.50245000  0.34923300  0.59962100  1
  O  O27  1  0.00190800  0.81079700  0.05969800  1
  O  O28  1  0.00347200  0.47668000  0.72756800  1
  O  O29  1  0.00245000  0.15076700  0.40037900  1
  O  O30  1  0.49652800  0.97668000  0.72756800  1
  O  O31  1  0.49755000  0.65076700  0.40037900  1
  O  O32  1  0.49809200  0.31079700  0.05969800  1
  O  O33  1  0.99809200  0.18920300  0.94030200  1
  O  O34  1  0.99755000  0.84923300  0.59962100  1
  O  O35  1  0.99652800  0.52332000  0.27243200  1
  O  O36  1  0.73630200  0.76779400  0.23421500  1
  O  O37  1  0.74519500  0.43592600  0.90619700  1
  O  O38  1  0.73456900  0.09991800  0.56641500  1
  O  O39  1  0.24519500  0.06407400  0.09380300  1
  O  O40  1  0.23630200  0.73220600  0.76578500  1
  O  O41  1  0.23456900  0.40008200  0.43358500  1
  O  O42  1  0.26583900  0.94259100  0.91394800  1
  O  O43  1  0.26226700  0.60973000  0.57310000  1
  O  O44  1  0.25803100  0.27326200  0.24176100  1
  O  O45  1  0.75803100  0.22673800  0.75823900  1
  O  O46  1  0.76226700  0.89027000  0.42690000  1
  O  O47  1  0.76583900  0.55740900  0.08605200  1
  O  O48  1  0.26369800  0.23220600  0.76578500  1
  O  O49  1  0.26543100  0.90008200  0.43358500  1
  O  O50  1  0.25480500  0.56407400  0.09380300  1
  O  O51  1  0.75480500  0.93592600  0.90619700  1
  O  O52  1  0.76543100  0.59991800  0.56641500  1
  O  O53  1  0.76369800  0.26779400  0.23421500  1
  O  O54  1  0.73416100  0.05740900  0.08605200  1
  O  O55  1  0.74196900  0.72673800  0.75823900  1
  O  O56  1  0.73773300  0.39027000  0.42690000  1
  O  O57  1  0.24196900  0.77326200  0.24176100  1
  O  O58  1  0.23416100  0.44259100  0.91394800  1
  O  O59  1  0.23773300  0.10973000  0.57310000  1
