# generated using pymatgen
data_Sr6Y3Fe(Cu4O11)2
_symmetry_space_group_name_H-M   'P 1'
_cell_length_a   3.77269900
_cell_length_b   11.65099000
_cell_length_c   12.16286729
_cell_angle_alpha   71.38282544
_cell_angle_beta   90.00000000
_cell_angle_gamma   90.00000000
_symmetry_Int_Tables_number   1
_chemical_formula_structural   Sr6Y3Fe(Cu4O11)2
_chemical_formula_sum   'Sr6 Y3 Fe1 Cu8 O22'
_cell_volume   506.65152181
_cell_formula_units_Z   1
loop_
 _symmetry_equiv_pos_site_id
 _symmetry_equiv_pos_as_xyz
  1  'x, y, z'
loop_
 _atom_site_type_symbol
 _atom_site_label
 _atom_site_symmetry_multiplicity
 _atom_site_fract_x
 _atom_site_fract_y
 _atom_site_fract_z
 _atom_site_occupancy
  Sr  Sr0  1  0.50000000  0.10580100  0.17231100  1
  Sr  Sr1  1  0.50000000  0.77946800  0.17211600  1
  Sr  Sr2  1  0.50000000  0.43978300  0.18043500  1
  Sr  Sr3  1  0.50000000  0.89419900  0.82768900  1
  Sr  Sr4  1  0.50000000  0.56021700  0.81956500  1
  Sr  Sr5  1  0.50000000  0.22053200  0.82788400  1
  Y  Y6  1  0.50000000  0.00000000  0.50000000  1
  Y  Y7  1  0.50000000  0.66664100  0.49933100  1
  Y  Y8  1  0.50000000  0.33335900  0.50066900  1
  Fe  Fe9  1  0.00000000  0.00000000  0.00000000  1
  Cu  Cu10  1  0.00000000  0.21774300  0.34613500  1
  Cu  Cu11  1  0.00000000  0.88415100  0.34799800  1
  Cu  Cu12  1  0.00000000  0.55138700  0.34612000  1
  Cu  Cu13  1  0.00000000  0.11584900  0.65200200  1
  Cu  Cu14  1  0.00000000  0.78225700  0.65386500  1
  Cu  Cu15  1  0.00000000  0.44861300  0.65388000  1
  Cu  Cu16  1  0.00000000  0.33668400  0.00001800  1
  Cu  Cu17  1  0.00000000  0.66331600  0.99998200  1
  O  O18  1  0.00000000  0.04286200  0.37316600  1
  O  O19  1  0.00000000  0.70832600  0.37334900  1
  O  O20  1  0.00000000  0.37605000  0.37190900  1
  O  O21  1  0.50000000  0.20864000  0.37669400  1
  O  O22  1  0.50000000  0.87384100  0.37846000  1
  O  O23  1  0.50000000  0.54028500  0.37678200  1
  O  O24  1  0.00000000  0.95713800  0.62683400  1
  O  O25  1  0.00000000  0.62395000  0.62809100  1
  O  O26  1  0.00000000  0.29167400  0.62665100  1
  O  O27  1  0.50000000  0.12615900  0.62154000  1
  O  O28  1  0.50000000  0.79136000  0.62330600  1
  O  O29  1  0.50000000  0.45971500  0.62321800  1
  O  O30  1  0.00000000  0.28055600  0.16352500  1
  O  O31  1  0.00000000  0.94376500  0.16861800  1
  O  O32  1  0.00000000  0.61046900  0.16346900  1
  O  O33  1  0.00000000  0.05623500  0.83138200  1
  O  O34  1  0.00000000  0.71944400  0.83647500  1
  O  O35  1  0.00000000  0.38953100  0.83653100  1
  O  O36  1  0.50000000  0.00000000  0.00000000  1
  O  O37  1  0.00000000  0.17712500  0.00003100  1
  O  O38  1  0.00000000  0.50000000  0.00000000  1
  O  O39  1  0.00000000  0.82287500  0.99996900  1
