# generated using pymatgen
data_SrLaZnRuO6
_symmetry_space_group_name_H-M   'P 1'
_cell_length_a   5.69529300
_cell_length_b   5.64275400
_cell_length_c   9.74237995
_cell_angle_alpha   54.77327733
_cell_angle_beta   90.00000000
_cell_angle_gamma   90.00000000
_symmetry_Int_Tables_number   1
_chemical_formula_structural   SrLaZnRuO6
_chemical_formula_sum   'Sr2 La2 Zn2 Ru2 O12'
_cell_volume   255.75749442
_cell_formula_units_Z   2
loop_
 _symmetry_equiv_pos_site_id
 _symmetry_equiv_pos_as_xyz
  1  'x, y, z'
loop_
 _atom_site_type_symbol
 _atom_site_label
 _atom_site_symmetry_multiplicity
 _atom_site_fract_x
 _atom_site_fract_y
 _atom_site_fract_z
 _atom_site_occupancy
  Sr  Sr0  1  0.21715800  0.24398200  0.25064500  1
  Sr  Sr1  1  0.78284200  0.24398200  0.75064500  1
  La  La2  1  0.29163500  0.75820000  0.75162800  1
  La  La3  1  0.70836500  0.75820000  0.25162800  1
  Zn  Zn4  1  0.75584400  0.49965800  0.00132200  1
  Zn  Zn5  1  0.24415600  0.49965800  0.50132200  1
  Ru  Ru6  1  0.75102100  0.00025800  0.49983900  1
  Ru  Ru7  1  0.24897900  0.00025800  0.99983900  1
  O  O8  1  0.76360100  0.32939800  0.25818800  1
  O  O9  1  0.23639900  0.32939800  0.75818800  1
  O  O10  1  0.72714800  0.68958400  0.74184400  1
  O  O11  1  0.27285200  0.68958400  0.24184400  1
  O  O12  1  0.95149800  0.76203300  0.45597400  1
  O  O13  1  0.04850200  0.76203300  0.95597400  1
  O  O14  1  0.53768500  0.23366900  0.53813100  1
  O  O15  1  0.46231500  0.23366900  0.03813100  1
  O  O16  1  0.03507900  0.15351500  0.54384100  1
  O  O17  1  0.96492100  0.15351500  0.04384100  1
  O  O18  1  0.47832000  0.82970200  0.45858800  1
  O  O19  1  0.52168000  0.82970200  0.95858800  1
