# generated using pymatgen
data_Sr4N3
_symmetry_space_group_name_H-M   'P 1'
_cell_length_a   3.85797795
_cell_length_b   3.85797795
_cell_length_c   13.32932414
_cell_angle_alpha   80.28233113
_cell_angle_beta   80.28233113
_cell_angle_gamma   59.84160964
_symmetry_Int_Tables_number   1
_chemical_formula_structural   Sr4N3
_chemical_formula_sum   'Sr4 N3'
_cell_volume   168.25450969
_cell_formula_units_Z   1
loop_
 _symmetry_equiv_pos_site_id
 _symmetry_equiv_pos_as_xyz
  1  'x, y, z'
loop_
 _atom_site_type_symbol
 _atom_site_label
 _atom_site_symmetry_multiplicity
 _atom_site_fract_x
 _atom_site_fract_y
 _atom_site_fract_z
 _atom_site_occupancy
  Sr  Sr0  1  0.38330100  0.38330100  0.37945300  1
  Sr  Sr1  1  0.61669900  0.61669900  0.62054700  1
  Sr  Sr2  1  0.13523800  0.13523800  0.16033600  1
  Sr  Sr3  1  0.86476200  0.86476200  0.83966400  1
  N  N4  1  0.76854400  0.76854400  0.24582500  1
  N  N5  1  0.23145600  0.23145600  0.75417500  1
  N  N6  1  0.00000000  0.00000000  0.50000000  1
