# generated using pymatgen
data_TaAgWO7
_symmetry_space_group_name_H-M   'P 1'
_cell_length_a   7.42240350
_cell_length_b   7.42240350
_cell_length_c   7.42240350
_cell_angle_alpha   121.22999449
_cell_angle_beta   119.22079428
_cell_angle_gamma   89.61891384
_symmetry_Int_Tables_number   1
_chemical_formula_structural   TaAgWO7
_chemical_formula_sum   'Ta2 Ag2 W2 O14'
_cell_volume   288.04335453
_cell_formula_units_Z   2
loop_
 _symmetry_equiv_pos_site_id
 _symmetry_equiv_pos_as_xyz
  1  'x, y, z'
loop_
 _atom_site_type_symbol
 _atom_site_label
 _atom_site_symmetry_multiplicity
 _atom_site_fract_x
 _atom_site_fract_y
 _atom_site_fract_z
 _atom_site_occupancy
  Ta  Ta0  1  0.00000000  0.50000000  0.50000000  1
  Ta  Ta1  1  0.50000000  0.50000000  0.00000000  1
  Ag  Ag2  1  0.50000000  0.00000000  0.00000000  1
  Ag  Ag3  1  0.50000000  0.50000000  0.50000000  1
  W  W4  1  0.00000000  0.50000000  0.00000000  1
  W  W5  1  0.00000000  0.00000000  0.50000000  1
  O  O6  1  0.57850300  0.82850300  0.75000000  1
  O  O7  1  0.42149700  0.17149700  0.25000000  1
  O  O8  1  0.94191400  0.19191400  0.75000000  1
  O  O9  1  0.31681300  0.56681300  0.75000000  1
  O  O10  1  0.93916800  0.55974800  0.75398900  1
  O  O11  1  0.30575900  0.18517900  0.74601100  1
  O  O12  1  0.93916800  0.18517900  0.37942000  1
  O  O13  1  0.30575900  0.55974800  0.12058000  1
  O  O14  1  0.05808600  0.80808600  0.25000000  1
  O  O15  1  0.68318700  0.43318700  0.25000000  1
  O  O16  1  0.06083200  0.44025200  0.24601100  1
  O  O17  1  0.69424100  0.81482100  0.25398900  1
  O  O18  1  0.06083200  0.81482100  0.62058000  1
  O  O19  1  0.69424100  0.44025200  0.87942000  1
