# generated using pymatgen
data_Nd3Tm
_symmetry_space_group_name_H-M   'P 1'
_cell_length_a   7.32411915
_cell_length_b   7.32411915
_cell_length_c   5.95008800
_cell_angle_alpha   90.00000000
_cell_angle_beta   90.00000000
_cell_angle_gamma   119.99999233
_symmetry_Int_Tables_number   1
_chemical_formula_structural   Nd3Tm
_chemical_formula_sum   'Nd6 Tm2'
_cell_volume   276.41706796
_cell_formula_units_Z   2
loop_
 _symmetry_equiv_pos_site_id
 _symmetry_equiv_pos_as_xyz
  1  'x, y, z'
loop_
 _atom_site_type_symbol
 _atom_site_label
 _atom_site_symmetry_multiplicity
 _atom_site_fract_x
 _atom_site_fract_y
 _atom_site_fract_z
 _atom_site_occupancy
  Nd  Nd0  1  0.16800600  0.33601300  0.25000000  1
  Nd  Nd1  1  0.66398700  0.83199400  0.25000000  1
  Nd  Nd2  1  0.16800600  0.83199400  0.25000000  1
  Nd  Nd3  1  0.83199400  0.66398700  0.75000000  1
  Nd  Nd4  1  0.33601300  0.16800600  0.75000000  1
  Nd  Nd5  1  0.83199400  0.16800600  0.75000000  1
  Tm  Tm6  1  0.33333300  0.66666700  0.75000000  1
  Tm  Tm7  1  0.66666700  0.33333300  0.25000000  1
