# generated using pymatgen
data_TaCrCo
_symmetry_space_group_name_H-M   'P 1'
_cell_length_a   4.75735381
_cell_length_b   4.75735381
_cell_length_c   8.00214400
_cell_angle_alpha   90.00000000
_cell_angle_beta   90.00000000
_cell_angle_gamma   119.16608434
_symmetry_Int_Tables_number   1
_chemical_formula_structural   TaCrCo
_chemical_formula_sum   'Ta4 Cr4 Co4'
_cell_volume   158.14531066
_cell_formula_units_Z   4
loop_
 _symmetry_equiv_pos_site_id
 _symmetry_equiv_pos_as_xyz
  1  'x, y, z'
loop_
 _atom_site_type_symbol
 _atom_site_label
 _atom_site_symmetry_multiplicity
 _atom_site_fract_x
 _atom_site_fract_y
 _atom_site_fract_z
 _atom_site_occupancy
  Ta  Ta0  1  0.66910500  0.33089500  0.31637300  1
  Ta  Ta1  1  0.33558000  0.66442000  0.18936200  1
  Ta  Ta2  1  0.33558000  0.66442000  0.81063800  1
  Ta  Ta3  1  0.66910500  0.33089500  0.68362700  1
  Cr  Cr4  1  0.16966700  0.83033300  0.50000000  1
  Cr  Cr5  1  0.34244200  0.17062700  0.00000000  1
  Cr  Cr6  1  0.82937300  0.65755800  0.00000000  1
  Cr  Cr7  1  0.82765500  0.17234500  0.00000000  1
  Co  Co8  1  0.99941400  0.00058600  0.25558300  1
  Co  Co9  1  0.99941400  0.00058600  0.74441700  1
  Co  Co10  1  0.65812100  0.83526400  0.50000000  1
  Co  Co11  1  0.16473600  0.34187900  0.50000000  1
