# generated using pymatgen
data_Sr6Fe5Ag3(Se2O5)2
_symmetry_space_group_name_H-M   'P 1'
_cell_length_a   14.69295988
_cell_length_b   14.69295988
_cell_length_c   5.73032900
_cell_angle_alpha   90.00000000
_cell_angle_beta   90.00000000
_cell_angle_gamma   157.51792543
_symmetry_Int_Tables_number   1
_chemical_formula_structural   Sr6Fe5Ag3(Se2O5)2
_chemical_formula_sum   'Sr6 Fe5 Ag3 Se4 O10'
_cell_volume   473.05281728
_cell_formula_units_Z   1
loop_
 _symmetry_equiv_pos_site_id
 _symmetry_equiv_pos_as_xyz
  1  'x, y, z'
loop_
 _atom_site_type_symbol
 _atom_site_label
 _atom_site_symmetry_multiplicity
 _atom_site_fract_x
 _atom_site_fract_y
 _atom_site_fract_z
 _atom_site_occupancy
  Sr  Sr0  1  0.50000000  0.00000000  0.75214900  1
  Sr  Sr1  1  0.00000000  0.50000000  0.24785100  1
  Sr  Sr2  1  0.13014400  0.37381900  0.25125600  1
  Sr  Sr3  1  0.62618100  0.86985600  0.74874400  1
  Sr  Sr4  1  0.37381900  0.13014400  0.74874400  1
  Sr  Sr5  1  0.86985600  0.62618100  0.25125600  1
  Fe  Fe6  1  0.06633900  0.43194700  0.75000500  1
  Fe  Fe7  1  0.56805300  0.93366100  0.24999500  1
  Fe  Fe8  1  0.43194700  0.06633900  0.24999500  1
  Fe  Fe9  1  0.93366100  0.56805300  0.75000500  1
  Fe  Fe10  1  0.00000000  0.00000000  0.00000000  1
  Ag  Ag11  1  0.50000000  0.50000000  0.50000000  1
  Ag  Ag12  1  0.50000000  0.50000000  0.00000000  1
  Ag  Ag13  1  0.00000000  0.00000000  0.50000000  1
  Se  Se14  1  0.17370900  0.29884600  0.76320800  1
  Se  Se15  1  0.70115400  0.82629100  0.23679200  1
  Se  Se16  1  0.29884600  0.17370900  0.23679200  1
  Se  Se17  1  0.82629100  0.70115400  0.76320800  1
  O  O18  1  0.50000000  0.00000000  0.24720500  1
  O  O19  1  0.00000000  0.50000000  0.75279500  1
  O  O20  1  0.32771100  0.67228900  0.50000000  1
  O  O21  1  0.82760500  0.17239500  0.00000000  1
  O  O22  1  0.82788600  0.17211400  0.50000000  1
  O  O23  1  0.32772700  0.67227300  0.00000000  1
  O  O24  1  0.17211400  0.82788600  0.50000000  1
  O  O25  1  0.67227300  0.32772700  0.00000000  1
  O  O26  1  0.67228900  0.32771100  0.50000000  1
  O  O27  1  0.17239500  0.82760500  0.00000000  1
