# generated using pymatgen
data_Sr5Cd5P6(O12F)2
_symmetry_space_group_name_H-M   'P 1'
_cell_length_a   7.07598300
_cell_length_b   9.65511000
_cell_length_c   9.70506578
_cell_angle_alpha   60.17536199
_cell_angle_beta   90.00000000
_cell_angle_gamma   90.00000000
_symmetry_Int_Tables_number   1
_chemical_formula_structural   Sr5Cd5P6(O12F)2
_chemical_formula_sum   'Sr5 Cd5 P6 O24 F2'
_cell_volume   575.22511429
_cell_formula_units_Z   1
loop_
 _symmetry_equiv_pos_site_id
 _symmetry_equiv_pos_as_xyz
  1  'x, y, z'
loop_
 _atom_site_type_symbol
 _atom_site_label
 _atom_site_symmetry_multiplicity
 _atom_site_fract_x
 _atom_site_fract_y
 _atom_site_fract_z
 _atom_site_occupancy
  Sr  Sr0  1  0.50000000  0.74956300  0.23970100  1
  Sr  Sr1  1  0.50000000  0.01064300  0.75003100  1
  Sr  Sr2  1  0.50000000  0.24437700  0.00935700  1
  Sr  Sr3  1  0.00000000  0.24523000  0.76018100  1
  Sr  Sr4  1  0.00000000  0.98911100  0.24761200  1
  Cd  Cd5  1  0.00000000  0.73851900  0.01088300  1
  Cd  Cd6  1  0.74944800  0.33104400  0.33555500  1
  Cd  Cd7  1  0.24863800  0.66824000  0.66739600  1
  Cd  Cd8  1  0.75136200  0.66824000  0.66739600  1
  Cd  Cd9  1  0.25055200  0.33104400  0.33555500  1
  P  P10  1  0.50000000  0.97330300  0.40076300  1
  P  P11  1  0.50000000  0.62860700  0.97618800  1
  P  P12  1  0.50000000  0.40142200  0.62618900  1
  P  P13  1  0.00000000  0.02673900  0.59920500  1
  P  P14  1  0.00000000  0.37721700  0.02336300  1
  P  P15  1  0.00000000  0.59976900  0.37179600  1
  O  O16  1  0.50000000  0.86859700  0.58684400  1
  O  O17  1  0.50000000  0.54960600  0.86844600  1
  O  O18  1  0.50000000  0.58838400  0.54532800  1
  O  O19  1  0.00000000  0.13057900  0.41200300  1
  O  O20  1  0.00000000  0.46368800  0.12456100  1
  O  O21  1  0.00000000  0.41281900  0.45329300  1
  O  O22  1  0.50000000  0.15621000  0.34726900  1
  O  O23  1  0.50000000  0.49703300  0.15664700  1
  O  O24  1  0.50000000  0.34839500  0.49704100  1
  O  O25  1  0.00000000  0.84358100  0.65389400  1
  O  O26  1  0.00000000  0.50080100  0.84072100  1
  O  O27  1  0.00000000  0.65525800  0.49890400  1
  O  O28  1  0.67534300  0.93191500  0.33431600  1
  O  O29  1  0.67750900  0.73695700  0.93660200  1
  O  O30  1  0.67523000  0.33466700  0.73400600  1
  O  O31  1  0.17617900  0.07222800  0.66115500  1
  O  O32  1  0.17460300  0.26756100  0.06888800  1
  O  O33  1  0.17475000  0.66617300  0.26297700  1
  O  O34  1  0.82382100  0.07222800  0.66115500  1
  O  O35  1  0.82539700  0.26756100  0.06888800  1
  O  O36  1  0.82525000  0.66617300  0.26297700  1
  O  O37  1  0.32465700  0.93191500  0.33431600  1
  O  O38  1  0.32249100  0.73695700  0.93660200  1
  O  O39  1  0.32477000  0.33466700  0.73400600  1
  F  F40  1  0.50000000  0.00244800  0.00051600  1
  F  F41  1  0.00000000  0.98053000  0.99747200  1
