# generated using pymatgen
data_SrGe12Pb2O27
_symmetry_space_group_name_H-M   'P 1'
_cell_length_a   11.54844864
_cell_length_b   11.54844864
_cell_length_c   4.82519161
_cell_angle_alpha   89.93932355
_cell_angle_beta   89.93932355
_cell_angle_gamma   60.02019736
_symmetry_Int_Tables_number   1
_chemical_formula_structural   SrGe12Pb2O27
_chemical_formula_sum   'Sr1 Ge12 Pb2 O27'
_cell_volume   557.41739499
_cell_formula_units_Z   1
loop_
 _symmetry_equiv_pos_site_id
 _symmetry_equiv_pos_as_xyz
  1  'x, y, z'
loop_
 _atom_site_type_symbol
 _atom_site_label
 _atom_site_symmetry_multiplicity
 _atom_site_fract_x
 _atom_site_fract_y
 _atom_site_fract_z
 _atom_site_occupancy
  Sr  Sr0  1  0.67271100  0.32728900  0.00000000  1
  Ge  Ge1  1  0.99989400  0.18017600  0.50009900  1
  Ge  Ge2  1  0.81982400  0.00010600  0.49990100  1
  Ge  Ge3  1  0.18016400  0.81983600  0.50000000  1
  Ge  Ge4  1  0.99935600  0.00064400  0.00000000  1
  Ge  Ge5  1  0.51008000  0.14934800  0.59943300  1
  Ge  Ge6  1  0.34075800  0.50960900  0.60047200  1
  Ge  Ge7  1  0.14950000  0.34072500  0.59993600  1
  Ge  Ge8  1  0.85065200  0.48992000  0.40056700  1
  Ge  Ge9  1  0.65927500  0.85050000  0.40006400  1
  Ge  Ge10  1  0.49039100  0.65924200  0.39952800  1
  Ge  Ge11  1  0.33352900  0.33346000  0.10774900  1
  Ge  Ge12  1  0.66654000  0.66647100  0.89225100  1
  Pb  Pb13  1  0.00000400  0.67392700  0.00008700  1
  Pb  Pb14  1  0.32607300  0.99999600  0.99991300  1
  O  O15  1  0.67530900  0.11061700  0.70604400  1
  O  O16  1  0.21533400  0.67516000  0.70648400  1
  O  O17  1  0.10943600  0.21511900  0.70623900  1
  O  O18  1  0.88938300  0.32469100  0.29395600  1
  O  O19  1  0.78488100  0.89056400  0.29376100  1
  O  O20  1  0.32484000  0.78466600  0.29351600  1
  O  O21  1  0.49012600  0.26056600  0.32802500  1
  O  O22  1  0.25015000  0.48941700  0.32901600  1
  O  O23  1  0.26075500  0.24996100  0.32880200  1
  O  O24  1  0.73943400  0.50987400  0.67197500  1
  O  O25  1  0.75003900  0.73924500  0.67119800  1
  O  O26  1  0.51058300  0.74985000  0.67098400  1
  O  O27  1  0.84501700  0.09393400  0.23697500  1
  O  O28  1  0.06099400  0.84555100  0.23705300  1
  O  O29  1  0.09343100  0.06095200  0.23705800  1
  O  O30  1  0.90606600  0.15498300  0.76302500  1
  O  O31  1  0.93904800  0.90656900  0.76294200  1
  O  O32  1  0.15444900  0.93900600  0.76294700  1
  O  O33  1  0.99999800  0.48732300  0.50000200  1
  O  O34  1  0.51267700  0.00000200  0.49999800  1
  O  O35  1  0.48816000  0.51184000  0.50000000  1
  O  O36  1  0.39933100  0.17965600  0.87871000  1
  O  O37  1  0.42210900  0.39910000  0.87924100  1
  O  O38  1  0.17963600  0.42118200  0.87880500  1
  O  O39  1  0.82034400  0.60066900  0.12128900  1
  O  O40  1  0.57881800  0.82036400  0.12119500  1
  O  O41  1  0.60090000  0.57789100  0.12075900  1
