# generated using pymatgen
data_SrNdScO4
_symmetry_space_group_name_H-M   'P 1'
_cell_length_a   6.80719348
_cell_length_b   6.80719348
_cell_length_c   5.87691600
_cell_angle_alpha   90.00000000
_cell_angle_beta   90.00000000
_cell_angle_gamma   130.37408297
_symmetry_Int_Tables_number   1
_chemical_formula_structural   SrNdScO4
_chemical_formula_sum   'Sr2 Nd2 Sc2 O8'
_cell_volume   207.46485697
_cell_formula_units_Z   2
loop_
 _symmetry_equiv_pos_site_id
 _symmetry_equiv_pos_as_xyz
  1  'x, y, z'
loop_
 _atom_site_type_symbol
 _atom_site_label
 _atom_site_symmetry_multiplicity
 _atom_site_fract_x
 _atom_site_fract_y
 _atom_site_fract_z
 _atom_site_occupancy
  Sr  Sr0  1  0.89561000  0.10439000  0.48662900  1
  Sr  Sr1  1  0.10439000  0.89561000  0.98662900  1
  Nd  Nd2  1  0.60827500  0.39172500  0.51422600  1
  Nd  Nd3  1  0.39172500  0.60827500  0.01422600  1
  Sc  Sc4  1  0.24632500  0.75367500  0.50479800  1
  Sc  Sc5  1  0.75367500  0.24632500  0.00479800  1
  O  O6  1  0.91648000  0.08352000  0.06556000  1
  O  O7  1  0.56905200  0.43094800  0.90739300  1
  O  O8  1  0.08352000  0.91648000  0.56556000  1
  O  O9  1  0.43094800  0.56905200  0.40739300  1
  O  O10  1  0.97001500  0.51694500  0.26069700  1
  O  O11  1  0.02998500  0.48305500  0.76069700  1
  O  O12  1  0.51694500  0.97001500  0.76069700  1
  O  O13  1  0.48305500  0.02998500  0.26069700  1
