# generated using pymatgen
data_Sr4NbCoO8
_symmetry_space_group_name_H-M   'P 1'
_cell_length_a   7.01279883
_cell_length_b   7.01279883
_cell_length_c   5.57825000
_cell_angle_alpha   90.00000000
_cell_angle_beta   90.00000000
_cell_angle_gamma   132.65167332
_symmetry_Int_Tables_number   1
_chemical_formula_structural   Sr4NbCoO8
_chemical_formula_sum   'Sr4 Nb1 Co1 O8'
_cell_volume   201.76941925
_cell_formula_units_Z   1
loop_
 _symmetry_equiv_pos_site_id
 _symmetry_equiv_pos_as_xyz
  1  'x, y, z'
loop_
 _atom_site_type_symbol
 _atom_site_label
 _atom_site_symmetry_multiplicity
 _atom_site_fract_x
 _atom_site_fract_y
 _atom_site_fract_z
 _atom_site_occupancy
  Sr  Sr0  1  0.64890300  0.35109700  0.00000000  1
  Sr  Sr1  1  0.14496600  0.85503400  0.50000000  1
  Sr  Sr2  1  0.85503400  0.14496600  0.50000000  1
  Sr  Sr3  1  0.35109700  0.64890300  0.00000000  1
  Nb  Nb4  1  0.50000000  0.50000000  0.50000000  1
  Co  Co5  1  0.00000000  0.00000000  0.00000000  1
  O  O6  1  0.83714100  0.16285900  0.00000000  1
  O  O7  1  0.33991200  0.66008800  0.50000000  1
  O  O8  1  0.66008800  0.33991200  0.50000000  1
  O  O9  1  0.16285900  0.83714100  0.00000000  1
  O  O10  1  0.74986700  0.74986700  0.75075800  1
  O  O11  1  0.25013300  0.25013300  0.24924200  1
  O  O12  1  0.25013300  0.25013300  0.75075800  1
  O  O13  1  0.74986700  0.74986700  0.24924200  1
