# generated using pymatgen
data_Sr2Nd2TlNi2O9
_symmetry_space_group_name_H-M   'P 1'
_cell_length_a   15.19873935
_cell_length_b   15.19508187
_cell_length_c   3.82846062
_cell_angle_alpha   82.81800197
_cell_angle_beta   82.70940004
_cell_angle_gamma   14.47259798
_symmetry_Int_Tables_number   1
_chemical_formula_structural   Sr2Nd2TlNi2O9
_chemical_formula_sum   'Sr2 Nd2 Tl1 Ni2 O9'
_cell_volume   219.17388709
_cell_formula_units_Z   1
loop_
 _symmetry_equiv_pos_site_id
 _symmetry_equiv_pos_as_xyz
  1  'x, y, z'
loop_
 _atom_site_type_symbol
 _atom_site_label
 _atom_site_symmetry_multiplicity
 _atom_site_fract_x
 _atom_site_fract_y
 _atom_site_fract_z
 _atom_site_occupancy
  Sr  Sr0  1  0.59306100  0.57591000  0.42409000  1
  Sr  Sr1  1  0.42409000  0.40693900  0.59306100  1
  Nd  Nd2  1  0.70447800  0.70069600  0.29930400  1
  Nd  Nd3  1  0.29930400  0.29552200  0.70447800  1
  Tl  Tl4  1  0.04365800  0.95634200  0.04365800  1
  Ni  Ni5  1  0.14950500  0.14395800  0.85604200  1
  Ni  Ni6  1  0.85604200  0.85049500  0.14950500  1
  O  O7  1  0.06967200  0.07178000  0.92822000  1
  O  O8  1  0.92822000  0.93032800  0.06967200  1
  O  O9  1  0.65173600  0.64671700  0.85356400  1
  O  O10  1  0.15201800  0.14643600  0.35328300  1
  O  O11  1  0.35328300  0.34826400  0.15201800  1
  O  O12  1  0.85356400  0.84798200  0.65173600  1
  O  O13  1  0.22055700  0.21815100  0.78184900  1
  O  O14  1  0.78184900  0.77944300  0.22055700  1
  O  O15  1  0.47296300  0.52703700  0.47296300  1
