# generated using pymatgen
data_Ta2O5
_symmetry_space_group_name_H-M   'P 1'
_cell_length_a   3.86888907
_cell_length_b   3.83412609
_cell_length_c   21.21964444
_cell_angle_alpha   84.83366075
_cell_angle_beta   92.31015337
_cell_angle_gamma   89.98917934
_symmetry_Int_Tables_number   1
_chemical_formula_structural   Ta2O5
_chemical_formula_sum   'Ta6 O15'
_cell_volume   313.23229967
_cell_formula_units_Z   3
loop_
 _symmetry_equiv_pos_site_id
 _symmetry_equiv_pos_as_xyz
  1  'x, y, z'
loop_
 _atom_site_type_symbol
 _atom_site_label
 _atom_site_symmetry_multiplicity
 _atom_site_fract_x
 _atom_site_fract_y
 _atom_site_fract_z
 _atom_site_occupancy
  Ta  Ta0  1  0.90768400  0.69574000  0.59756500  1
  Ta  Ta1  1  0.08008900  0.29284500  0.40249800  1
  Ta  Ta2  1  0.97535100  0.04914000  0.90945300  1
  Ta  Ta3  1  0.00991500  0.95804900  0.09049300  1
  Ta  Ta4  1  0.95812500  0.61696000  0.77827400  1
  Ta  Ta5  1  0.03077000  0.39563000  0.22175800  1
  O  O6  1  0.45391600  0.63773900  0.78114100  1
  O  O7  1  0.53301200  0.41738800  0.21905300  1
  O  O8  1  0.90584000  0.20720400  0.57724600  1
  O  O9  1  0.08165000  0.78322800  0.42269600  1
  O  O10  1  0.97254800  0.57100500  0.88370600  1
  O  O11  1  0.01381000  0.45427100  0.11615200  1
  O  O12  1  0.95830300  0.11109900  0.80392800  1
  O  O13  1  0.02765800  0.91487300  0.19601200  1
  O  O14  1  0.92778800  0.64938300  0.68762600  1
  O  O15  1  0.05897100  0.33858500  0.31254000  1
  O  O16  1  0.47686500  0.07837900  0.90793700  1
  O  O17  1  0.50952900  0.98423600  0.09181500  1
  O  O18  1  0.99387200  0.97854000  0.99985000  1
  O  O19  1  0.40542600  0.70588200  0.58214600  1
  O  O20  1  0.58287600  0.28590300  0.41811100  1
