# generated using pymatgen
data_Sr3Ca3(Ru2O7)2
_symmetry_space_group_name_H-M   'P 1'
_cell_length_a   5.57483600
_cell_length_b   5.59300028
_cell_length_c   10.45299266
_cell_angle_alpha   105.47295460
_cell_angle_beta   90.28028089
_cell_angle_gamma   90.03874354
_symmetry_Int_Tables_number   1
_chemical_formula_structural   Sr3Ca3(Ru2O7)2
_chemical_formula_sum   'Sr3 Ca3 Ru4 O14'
_cell_volume   314.10784559
_cell_formula_units_Z   1
loop_
 _symmetry_equiv_pos_site_id
 _symmetry_equiv_pos_as_xyz
  1  'x, y, z'
loop_
 _atom_site_type_symbol
 _atom_site_label
 _atom_site_symmetry_multiplicity
 _atom_site_fract_x
 _atom_site_fract_y
 _atom_site_fract_z
 _atom_site_occupancy
  Sr  Sr0  1  0.27065200  0.25610500  0.00127100  1
  Sr  Sr1  1  0.76635300  0.74568700  0.99711400  1
  Sr  Sr2  1  0.21958400  0.07065500  0.62278300  1
  Ca  Ca3  1  0.20187100  0.45589800  0.37535800  1
  Ca  Ca4  1  0.70231500  0.91551300  0.37440500  1
  Ca  Ca5  1  0.70193200  0.54152500  0.62267700  1
  Ru  Ru6  1  0.73946900  0.14848900  0.80011500  1
  Ru  Ru7  1  0.74026800  0.34874100  0.20148300  1
  Ru  Ru8  1  0.23834700  0.85040200  0.19907900  1
  Ru  Ru9  1  0.23720400  0.65188300  0.79967100  1
  O  O10  1  0.26270600  0.88299200  0.39160300  1
  O  O11  1  0.26097200  0.51432700  0.59962100  1
  O  O12  1  0.73581400  0.10581200  0.60047700  1
  O  O13  1  0.75912200  0.50852700  0.39952300  1
  O  O14  1  0.73989200  0.19651000  0.00167300  1
  O  O15  1  0.22662200  0.80428500  0.00008700  1
  O  O16  1  0.53778200  0.63491000  0.17446200  1
  O  O17  1  0.52685700  0.44876000  0.82229700  1
  O  O18  1  0.02635800  0.37383300  0.82345700  1
  O  O19  1  0.03472700  0.54315400  0.17766500  1
  O  O20  1  0.44284900  0.16321700  0.22898800  1
  O  O21  1  0.45456900  0.92658300  0.78560000  1
  O  O22  1  0.94555100  0.84139900  0.76802900  1
  O  O23  1  0.94458500  0.07079300  0.23256200  1
