# generated using pymatgen
data_Sr2Y4Fe2Cu2O13
_symmetry_space_group_name_H-M   'P 1'
_cell_length_a   11.87343191
_cell_length_b   11.87343191
_cell_length_c   10.79944684
_cell_angle_alpha   63.49742360
_cell_angle_beta   63.49742360
_cell_angle_gamma   26.56877321
_symmetry_Int_Tables_number   1
_chemical_formula_structural   Sr2Y4Fe2Cu2O13
_chemical_formula_sum   'Sr4 Y8 Fe4 Cu4 O26'
_cell_volume   605.16826224
_cell_formula_units_Z   2
loop_
 _symmetry_equiv_pos_site_id
 _symmetry_equiv_pos_as_xyz
  1  'x, y, z'
loop_
 _atom_site_type_symbol
 _atom_site_label
 _atom_site_symmetry_multiplicity
 _atom_site_fract_x
 _atom_site_fract_y
 _atom_site_fract_z
 _atom_site_occupancy
  Sr  Sr0  1  0.70686100  0.79288700  0.13398900  1
  Sr  Sr1  1  0.29313900  0.20711300  0.86601100  1
  Sr  Sr2  1  0.79288700  0.70686100  0.63398900  1
  Sr  Sr3  1  0.20711300  0.29313900  0.36601100  1
  Y  Y4  1  0.88977000  0.97846300  0.95406000  1
  Y  Y5  1  0.47456600  0.39423100  0.67599400  1
  Y  Y6  1  0.60576900  0.52543400  0.82400600  1
  Y  Y7  1  0.02153700  0.11023000  0.54594000  1
  Y  Y8  1  0.11023000  0.02153700  0.04594000  1
  Y  Y9  1  0.52543400  0.60576900  0.32400600  1
  Y  Y10  1  0.39423100  0.47456600  0.17599400  1
  Y  Y11  1  0.97846300  0.88977000  0.45406000  1
  Fe  Fe12  1  0.87878800  0.80982000  0.78970400  1
  Fe  Fe13  1  0.19018000  0.12121200  0.71029600  1
  Fe  Fe14  1  0.12121200  0.19018000  0.21029600  1
  Fe  Fe15  1  0.80982000  0.87878800  0.28970400  1
  Cu  Cu16  1  0.31937100  0.38592600  0.01404400  1
  Cu  Cu17  1  0.61407400  0.68062900  0.48595600  1
  Cu  Cu18  1  0.68062900  0.61407400  0.98595600  1
  Cu  Cu19  1  0.38592600  0.31937100  0.51404400  1
  O  O20  1  0.06267900  0.65554700  0.13960300  1
  O  O21  1  0.14895400  0.56560900  0.64665400  1
  O  O22  1  0.43439100  0.85104600  0.85334600  1
  O  O23  1  0.34445300  0.93732100  0.36039700  1
  O  O24  1  0.93732100  0.34445300  0.86039700  1
  O  O25  1  0.85104600  0.43439100  0.35334600  1
  O  O26  1  0.56560900  0.14895400  0.14665400  1
  O  O27  1  0.65554700  0.06267900  0.63960300  1
  O  O28  1  0.60721200  0.10391300  0.89422300  1
  O  O29  1  0.89608700  0.39278800  0.60577700  1
  O  O30  1  0.39278800  0.89608700  0.10577700  1
  O  O31  1  0.10391300  0.60721200  0.39422300  1
  O  O32  1  0.24989400  0.75038400  0.97218500  1
  O  O33  1  0.24961600  0.75010600  0.52781500  1
  O  O34  1  0.75010600  0.24961600  0.02781500  1
  O  O35  1  0.75038400  0.24989400  0.47218500  1
  O  O36  1  0.75006200  0.24993800  0.75000000  1
  O  O37  1  0.24993800  0.75006200  0.25000000  1
  O  O38  1  0.86085300  0.34806100  0.14884100  1
  O  O39  1  0.65193900  0.13914700  0.35115900  1
  O  O40  1  0.13914700  0.65193900  0.85115900  1
  O  O41  1  0.34806100  0.86085300  0.64884100  1
  O  O42  1  0.69788100  0.80964700  0.38710800  1
  O  O43  1  0.30211900  0.19035300  0.61289200  1
  O  O44  1  0.80964700  0.69788100  0.88710800  1
  O  O45  1  0.19035300  0.30211900  0.11289200  1
