# generated using pymatgen
data_Sr2Nd2CrNiO8
_symmetry_space_group_name_H-M   'P 1'
_cell_length_a   6.82645232
_cell_length_b   6.82645232
_cell_length_c   5.45457200
_cell_angle_alpha   90.00000000
_cell_angle_beta   90.00000000
_cell_angle_gamma   133.06858761
_symmetry_Int_Tables_number   1
_chemical_formula_structural   Sr2Nd2CrNiO8
_chemical_formula_sum   'Sr2 Nd2 Cr1 Ni1 O8'
_cell_volume   185.69186668
_cell_formula_units_Z   1
loop_
 _symmetry_equiv_pos_site_id
 _symmetry_equiv_pos_as_xyz
  1  'x, y, z'
loop_
 _atom_site_type_symbol
 _atom_site_label
 _atom_site_symmetry_multiplicity
 _atom_site_fract_x
 _atom_site_fract_y
 _atom_site_fract_z
 _atom_site_occupancy
  Sr  Sr0  1  0.85395800  0.14604200  0.50000000  1
  Sr  Sr1  1  0.64513500  0.35486500  0.00000000  1
  Nd  Nd2  1  0.36242800  0.63757200  0.00000000  1
  Nd  Nd3  1  0.13747100  0.86252900  0.50000000  1
  Cr  Cr4  1  0.50019000  0.49981000  0.50000000  1
  Ni  Ni5  1  0.99765700  0.00234300  0.00000000  1
  O  O6  1  0.17913800  0.82086200  0.00000000  1
  O  O7  1  0.66025400  0.33974600  0.50000000  1
  O  O8  1  0.32677300  0.67322700  0.50000000  1
  O  O9  1  0.83574600  0.16425400  0.00000000  1
  O  O10  1  0.24661000  0.24598500  0.75229000  1
  O  O11  1  0.75401500  0.75339000  0.24771000  1
  O  O12  1  0.24661000  0.24598500  0.24771000  1
  O  O13  1  0.75401500  0.75339000  0.75229000  1
