# generated using pymatgen
data_Ta3NbV4O20
_symmetry_space_group_name_H-M   'P 1'
_cell_length_a   5.62817600
_cell_length_b   7.07111000
_cell_length_c   12.06098924
_cell_angle_alpha   89.92179243
_cell_angle_beta   90.00000000
_cell_angle_gamma   90.00000000
_symmetry_Int_Tables_number   1
_chemical_formula_structural   Ta3NbV4O20
_chemical_formula_sum   'Ta3 Nb1 V4 O20'
_cell_volume   479.99618815
_cell_formula_units_Z   1
loop_
 _symmetry_equiv_pos_site_id
 _symmetry_equiv_pos_as_xyz
  1  'x, y, z'
loop_
 _atom_site_type_symbol
 _atom_site_label
 _atom_site_symmetry_multiplicity
 _atom_site_fract_x
 _atom_site_fract_y
 _atom_site_fract_z
 _atom_site_occupancy
  Ta  Ta0  1  0.00000000  0.65782100  0.94281200  1
  Ta  Ta1  1  0.50000000  0.16104700  0.55859200  1
  Ta  Ta2  1  0.50000000  0.34316700  0.05742000  1
  Nb  Nb3  1  0.00000000  0.84588300  0.44307500  1
  V  V4  1  0.00000000  0.03232200  0.15481400  1
  V  V5  1  0.00000000  0.46790500  0.65614400  1
  V  V6  1  0.50000000  0.96772300  0.84453800  1
  V  V7  1  0.50000000  0.53112100  0.34401800  1
  O  O8  1  0.00000000  0.97417700  0.29647400  1
  O  O9  1  0.00000000  0.52663700  0.79754400  1
  O  O10  1  0.50000000  0.02664000  0.70286100  1
  O  O11  1  0.50000000  0.47233000  0.20166100  1
  O  O12  1  0.24929800  0.65837100  0.37434600  1
  O  O13  1  0.75182700  0.83976900  0.87517000  1
  O  O14  1  0.74813900  0.33964800  0.62526100  1
  O  O15  1  0.25181500  0.16001600  0.12437500  1
  O  O16  1  0.25186100  0.33964800  0.62526100  1
  O  O17  1  0.74818500  0.16001600  0.12437500  1
  O  O18  1  0.75070200  0.65837100  0.37434600  1
  O  O19  1  0.24817300  0.83976900  0.87517000  1
  O  O20  1  0.25078100  0.00025800  0.50051700  1
  O  O21  1  0.75011300  0.49992200  0.99964700  1
  O  O22  1  0.74921900  0.00025800  0.50051700  1
  O  O23  1  0.24988700  0.49992200  0.99964700  1
  O  O24  1  0.00000000  0.82435300  0.07593100  1
  O  O25  1  0.00000000  0.67461700  0.57740500  1
  O  O26  1  0.50000000  0.17519000  0.92386500  1
  O  O27  1  0.50000000  0.32309800  0.42421400  1
