# generated using pymatgen
data_SrNdCoRuO6
_symmetry_space_group_name_H-M   'P 1'
_cell_length_a   5.63323800
_cell_length_b   5.54872000
_cell_length_c   9.65993140
_cell_angle_alpha   54.82751706
_cell_angle_beta   90.00000000
_cell_angle_gamma   90.00000000
_symmetry_Int_Tables_number   1
_chemical_formula_structural   SrNdCoRuO6
_chemical_formula_sum   'Sr2 Nd2 Co2 Ru2 O12'
_cell_volume   246.81473574
_cell_formula_units_Z   2
loop_
 _symmetry_equiv_pos_site_id
 _symmetry_equiv_pos_as_xyz
  1  'x, y, z'
loop_
 _atom_site_type_symbol
 _atom_site_label
 _atom_site_symmetry_multiplicity
 _atom_site_fract_x
 _atom_site_fract_y
 _atom_site_fract_z
 _atom_site_occupancy
  Sr  Sr0  1  0.21315900  0.24442800  0.24982400  1
  Sr  Sr1  1  0.78684100  0.24442800  0.74982400  1
  Nd  Nd2  1  0.30365000  0.76201600  0.75105000  1
  Nd  Nd3  1  0.69635000  0.76201600  0.25105000  1
  Co  Co4  1  0.75540200  0.50022400  0.00001700  1
  Co  Co5  1  0.24459800  0.50022400  0.50001700  1
  Ru  Ru6  1  0.75212900  0.00015100  0.49961700  1
  Ru  Ru7  1  0.24787100  0.00015100  0.99961700  1
  O  O8  1  0.76238400  0.33625500  0.25442300  1
  O  O9  1  0.23761600  0.33625500  0.75442300  1
  O  O10  1  0.72660400  0.68880300  0.74584100  1
  O  O11  1  0.27339600  0.68880300  0.24584100  1
  O  O12  1  0.95398000  0.75085700  0.45581100  1
  O  O13  1  0.04602000  0.75085700  0.95581100  1
  O  O14  1  0.53081300  0.24152100  0.53754700  1
  O  O15  1  0.46918700  0.24152100  0.03754700  1
  O  O16  1  0.04307300  0.15228100  0.54587900  1
  O  O17  1  0.95692700  0.15228100  0.04587900  1
  O  O18  1  0.47207500  0.82346500  0.45999100  1
  O  O19  1  0.52792500  0.82346500  0.95999100  1
