# generated using pymatgen
data_SrAlIn
_symmetry_space_group_name_H-M   'P 1'
_cell_length_a   6.25934620
_cell_length_b   6.25934620
_cell_length_c   8.03494216
_cell_angle_alpha   50.91878054
_cell_angle_beta   50.91878054
_cell_angle_gamma   46.75964566
_symmetry_Int_Tables_number   1
_chemical_formula_structural   SrAlIn
_chemical_formula_sum   'Sr2 Al2 In2'
_cell_volume   166.68544939
_cell_formula_units_Z   2
loop_
 _symmetry_equiv_pos_site_id
 _symmetry_equiv_pos_as_xyz
  1  'x, y, z'
loop_
 _atom_site_type_symbol
 _atom_site_label
 _atom_site_symmetry_multiplicity
 _atom_site_fract_x
 _atom_site_fract_y
 _atom_site_fract_z
 _atom_site_occupancy
  Sr  Sr0  1  0.45401200  0.45401200  0.29672900  1
  Sr  Sr1  1  0.54598800  0.54598800  0.70327100  1
  Al  Al2  1  0.15237500  0.15237500  0.90723800  1
  Al  Al3  1  0.84762500  0.84762500  0.09276200  1
  In  In4  1  0.83097400  0.83097400  0.73708700  1
  In  In5  1  0.16902600  0.16902600  0.26291300  1
