# generated using pymatgen
data_Sr3Ga3B4HO14
_symmetry_space_group_name_H-M   'P 1'
_cell_length_a   4.95427037
_cell_length_b   9.13139478
_cell_length_c   13.90920300
_cell_angle_alpha   90.00000000
_cell_angle_beta   90.00000000
_cell_angle_gamma   105.23107499
_symmetry_Int_Tables_number   1
_chemical_formula_structural   Sr3Ga3B4HO14
_chemical_formula_sum   'Sr6 Ga6 B8 H2 O28'
_cell_volume   607.14124955
_cell_formula_units_Z   2
loop_
 _symmetry_equiv_pos_site_id
 _symmetry_equiv_pos_as_xyz
  1  'x, y, z'
loop_
 _atom_site_type_symbol
 _atom_site_label
 _atom_site_symmetry_multiplicity
 _atom_site_fract_x
 _atom_site_fract_y
 _atom_site_fract_z
 _atom_site_occupancy
  Sr  Sr0  1  0.61504400  0.70564900  0.94868100  1
  Sr  Sr1  1  0.38495600  0.29435100  0.44868100  1
  Sr  Sr2  1  0.38243300  0.29773800  0.04744000  1
  Sr  Sr3  1  0.61756700  0.70226200  0.54744000  1
  Sr  Sr4  1  0.47444800  0.38223800  0.74882000  1
  Sr  Sr5  1  0.52555200  0.61776200  0.24882000  1
  Ga  Ga6  1  0.07679700  0.69018500  0.75028300  1
  Ga  Ga7  1  0.92320300  0.30981500  0.25028300  1
  Ga  Ga8  1  0.83298300  0.12903700  0.87054500  1
  Ga  Ga9  1  0.16701700  0.87096300  0.37054500  1
  Ga  Ga10  1  0.16660300  0.87133200  0.12923100  1
  Ga  Ga11  1  0.83339700  0.12866800  0.62923100  1
  B  B12  1  0.99495300  0.43532300  0.89639400  1
  B  B13  1  0.00504700  0.56467700  0.39639400  1
  B  B14  1  0.00492100  0.56519800  0.10296200  1
  B  B15  1  0.99507900  0.43480200  0.60296200  1
  B  B16  1  0.25079700  0.96561000  0.87831300  1
  B  B17  1  0.74920300  0.03439000  0.37831300  1
  B  B18  1  0.75006900  0.03559400  0.12270400  1
  B  B19  1  0.24993100  0.96440600  0.62270400  1
  H  H20  1  0.55904900  0.79324500  0.73800200  1
  H  H21  1  0.44095100  0.20675500  0.23800200  1
  O  O22  1  0.53000300  0.96213000  0.88529300  1
  O  O23  1  0.46999700  0.03787000  0.38529300  1
  O  O24  1  0.47034100  0.04028800  0.11776300  1
  O  O25  1  0.52965900  0.95971200  0.61776300  1
  O  O26  1  0.17877800  0.09769600  0.90495100  1
  O  O27  1  0.82122200  0.90230400  0.40495100  1
  O  O28  1  0.82056800  0.90362600  0.09513600  1
  O  O29  1  0.17943200  0.09637400  0.59513600  1
  O  O30  1  0.05100300  0.84022400  0.84881600  1
  O  O31  1  0.94899700  0.15977600  0.34881600  1
  O  O32  1  0.95178500  0.16056500  0.15191100  1
  O  O33  1  0.04821500  0.83943500  0.65191100  1
  O  O34  1  0.88424600  0.53810100  0.84631700  1
  O  O35  1  0.11575400  0.46189900  0.34631700  1
  O  O36  1  0.11471700  0.46223300  0.15333300  1
  O  O37  1  0.88528300  0.53776700  0.65333300  1
  O  O38  1  0.80051600  0.30467300  0.93533300  1
  O  O39  1  0.19948400  0.69532700  0.43533300  1
  O  O40  1  0.20184700  0.69609300  0.06495600  1
  O  O41  1  0.79815300  0.30390700  0.56495600  1
  O  O42  1  0.45988900  0.68745000  0.74986800  1
  O  O43  1  0.54011100  0.31255000  0.24986800  1
  O  O44  1  0.27376800  0.45198000  0.90747600  1
  O  O45  1  0.72623200  0.54802000  0.40747600  1
  O  O46  1  0.72686900  0.54913000  0.09057700  1
  O  O47  1  0.27313100  0.45087000  0.59057700  1
  O  O48  1  0.86689400  0.21362400  0.74989500  1
  O  O49  1  0.13310600  0.78637600  0.24989500  1
