# generated using pymatgen
data_Sr4LaMn5O15
_symmetry_space_group_name_H-M   'P 1'
_cell_length_a   5.51658226
_cell_length_b   13.42986382
_cell_length_c   8.61547253
_cell_angle_alpha   104.25001400
_cell_angle_beta   108.63989096
_cell_angle_gamma   89.98748683
_symmetry_Int_Tables_number   1
_chemical_formula_structural   Sr4LaMn5O15
_chemical_formula_sum   'Sr8 La2 Mn10 O30'
_cell_volume   584.06048591
_cell_formula_units_Z   2
loop_
 _symmetry_equiv_pos_site_id
 _symmetry_equiv_pos_as_xyz
  1  'x, y, z'
loop_
 _atom_site_type_symbol
 _atom_site_label
 _atom_site_symmetry_multiplicity
 _atom_site_fract_x
 _atom_site_fract_y
 _atom_site_fract_z
 _atom_site_occupancy
  Sr  Sr0  1  0.60038200  0.20036500  0.20076000  1
  Sr  Sr1  1  0.60038300  0.70036300  0.20075700  1
  Sr  Sr2  1  0.39961900  0.29964200  0.79923800  1
  Sr  Sr3  1  0.39962400  0.79964900  0.79925900  1
  Sr  Sr4  1  0.20021500  0.39983200  0.40034200  1
  Sr  Sr5  1  0.20019400  0.89983500  0.40032900  1
  Sr  Sr6  1  0.79978500  0.10016800  0.59965500  1
  Sr  Sr7  1  0.79979000  0.60015800  0.59966100  1
  La  La8  1  0.00000000  0.99999100  0.00000600  1
  La  La9  1  0.00000200  0.49999600  0.00000200  1
  Mn  Mn10  1  0.00000200  0.24999000  0.99999400  1
  Mn  Mn11  1  0.79886800  0.84890200  0.59803600  1
  Mn  Mn12  1  0.20113500  0.65109600  0.40196800  1
  Mn  Mn13  1  0.60111600  0.45035300  0.20203900  1
  Mn  Mn14  1  0.39889600  0.04964100  0.79800000  1
  Mn  Mn15  1  0.00000200  0.74998800  0.99999500  1
  Mn  Mn16  1  0.79888300  0.34889400  0.59802200  1
  Mn  Mn17  1  0.20112300  0.15112000  0.40196600  1
  Mn  Mn18  1  0.60109800  0.95035300  0.20199900  1
  Mn  Mn19  1  0.39888700  0.54964800  0.79795900  1
  O  O20  1  0.50000200  0.00000400  0.00000100  1
  O  O21  1  0.50000300  0.50000300  0.00000400  1
  O  O22  1  0.00000800  0.24999700  0.49999700  1
  O  O23  1  0.99999800  0.75000100  0.50000000  1
  O  O24  1  0.49999400  0.24999700  0.49999700  1
  O  O25  1  0.49999400  0.75000000  0.50000000  1
  O  O26  1  0.90161400  0.30294800  0.80309800  1
  O  O27  1  0.90161400  0.80294100  0.80311200  1
  O  O28  1  0.09837900  0.19704800  0.19688700  1
  O  O29  1  0.09838200  0.69705800  0.19688800  1
  O  O30  1  0.70088300  0.40180700  0.40197500  1
  O  O31  1  0.70086500  0.90180300  0.40195700  1
  O  O32  1  0.29911900  0.09819800  0.59802600  1
  O  O33  1  0.29913800  0.59819700  0.59806000  1
  O  O34  1  0.60749500  0.45222400  0.70985900  1
  O  O35  1  0.60749300  0.95221900  0.70984700  1
  O  O36  1  0.39250500  0.04778000  0.29015100  1
  O  O37  1  0.39250100  0.54778400  0.29015400  1
  O  O38  1  0.89755400  0.04767400  0.29012100  1
  O  O39  1  0.89755600  0.54767800  0.29012200  1
  O  O40  1  0.10245800  0.45232900  0.70989500  1
  O  O41  1  0.10244700  0.95232400  0.70987600  1
  O  O42  1  0.19592200  0.14763500  0.90307700  1
  O  O43  1  0.19592700  0.64763800  0.90308800  1
  O  O44  1  0.80408000  0.35236400  0.09691200  1
  O  O45  1  0.80408200  0.85236200  0.09691300  1
  O  O46  1  0.29244800  0.35239400  0.09692200  1
  O  O47  1  0.29244800  0.85239300  0.09691800  1
  O  O48  1  0.70754200  0.14760700  0.90307200  1
  O  O49  1  0.70755000  0.64760600  0.90308400  1
