# generated using pymatgen
data_SrPrScO4
_symmetry_space_group_name_H-M   'P 1'
_cell_length_a   6.92509332
_cell_length_b   6.92509332
_cell_length_c   6.92509332
_cell_angle_alpha   146.04909229
_cell_angle_beta   146.04909229
_cell_angle_gamma   48.77385017
_symmetry_Int_Tables_number   1
_chemical_formula_structural   SrPrScO4
_chemical_formula_sum   'Sr1 Pr1 Sc1 O4'
_cell_volume   103.13402991
_cell_formula_units_Z   1
loop_
 _symmetry_equiv_pos_site_id
 _symmetry_equiv_pos_as_xyz
  1  'x, y, z'
loop_
 _atom_site_type_symbol
 _atom_site_label
 _atom_site_symmetry_multiplicity
 _atom_site_fract_x
 _atom_site_fract_y
 _atom_site_fract_z
 _atom_site_occupancy
  Sr  Sr0  1  0.64679300  0.64679300  0.00000000  1
  Pr  Pr1  1  0.36108600  0.36108600  0.00000000  1
  Sc  Sc2  1  0.00491300  0.00491300  0.00000000  1
  O  O3  1  0.48999300  0.98999300  0.50000000  1
  O  O4  1  0.98999300  0.48999300  0.50000000  1
  O  O5  1  0.83122100  0.83122100  0.00000000  1
  O  O6  1  0.17600000  0.17600000  0.00000000  1
