# generated using pymatgen
data_PtBr3N2
_symmetry_space_group_name_H-M   'P 1'
_cell_length_a   6.32119803
_cell_length_b   6.32119803
_cell_length_c   6.32119803
_cell_angle_alpha   121.41593066
_cell_angle_beta   110.08741900
_cell_angle_gamma   97.77594378
_symmetry_Int_Tables_number   1
_chemical_formula_structural   PtBr3N2
_chemical_formula_sum   'Pt1 Br3 N2'
_cell_volume   186.22352981
_cell_formula_units_Z   1
loop_
 _symmetry_equiv_pos_site_id
 _symmetry_equiv_pos_as_xyz
  1  'x, y, z'
loop_
 _atom_site_type_symbol
 _atom_site_label
 _atom_site_symmetry_multiplicity
 _atom_site_fract_x
 _atom_site_fract_y
 _atom_site_fract_z
 _atom_site_occupancy
  Pt  Pt0  1  0.00000000  0.08412900  0.08412900  1
  Br  Br1  1  0.30765200  0.35009500  0.04244300  1
  Br  Br2  1  0.69234800  0.73479100  0.04244300  1
  Br  Br3  1  0.00000000  0.47353000  0.47353000  1
  N  N4  1  0.21815800  0.95472800  0.17288500  1
  N  N5  1  0.78184200  0.95472800  0.73657000  1
