# generated using pymatgen
data_Sb2C6(Br3N)3
_symmetry_space_group_name_H-M   'P 1'
_cell_length_a   7.95118100
_cell_length_b   9.96719627
_cell_length_c   15.19997879
_cell_angle_alpha   92.78195234
_cell_angle_beta   90.00000000
_cell_angle_gamma   90.00000000
_symmetry_Int_Tables_number   1
_chemical_formula_structural   Sb2C6(Br3N)3
_chemical_formula_sum   'Sb4 C12 Br18 N6'
_cell_volume   1203.19357253
_cell_formula_units_Z   2
loop_
 _symmetry_equiv_pos_site_id
 _symmetry_equiv_pos_as_xyz
  1  'x, y, z'
loop_
 _atom_site_type_symbol
 _atom_site_label
 _atom_site_symmetry_multiplicity
 _atom_site_fract_x
 _atom_site_fract_y
 _atom_site_fract_z
 _atom_site_occupancy
  Sb  Sb0  1  0.50523500  0.84493200  0.14668700  1
  Sb  Sb1  1  0.00523500  0.15506800  0.35331300  1
  Sb  Sb2  1  0.46134700  0.17668500  0.85495700  1
  Sb  Sb3  1  0.96134700  0.82331500  0.64504300  1
  C  C4  1  0.00565400  0.87274600  0.05359700  1
  C  C5  1  0.50565400  0.12725400  0.44640300  1
  C  C6  1  0.91523700  0.05885300  0.95772200  1
  C  C7  1  0.41523700  0.94114700  0.54227800  1
  C  C8  1  0.28244600  0.60533500  0.37171900  1
  C  C9  1  0.78244600  0.39466500  0.12828100  1
  C  C10  1  0.71116700  0.37416700  0.62741100  1
  C  C11  1  0.21116700  0.62583300  0.87258900  1
  C  C12  1  0.01849300  0.66942100  0.29323800  1
  C  C13  1  0.51849300  0.33057900  0.20676200  1
  C  C14  1  0.98498100  0.34056000  0.70537600  1
  C  C15  1  0.48498100  0.65944000  0.79462400  1
  Br  Br16  1  0.33551200  0.65080600  0.08115600  1
  Br  Br17  1  0.83551200  0.34919400  0.41884400  1
  Br  Br18  1  0.67861900  0.35879700  0.92156200  1
  Br  Br19  1  0.17861900  0.64120300  0.57843800  1
  Br  Br20  1  0.86075900  0.71612900  0.05205600  1
  Br  Br21  1  0.36075900  0.28387100  0.44794400  1
  Br  Br22  1  0.21506200  0.31527100  0.92113500  1
  Br  Br23  1  0.71506200  0.68472900  0.57886500  1
  Br  Br24  1  0.49456500  0.67693700  0.33463800  1
  Br  Br25  1  0.99456500  0.32306300  0.16536200  1
  Br  Br26  1  0.50022100  0.32658500  0.68169500  1
  Br  Br27  1  0.00022100  0.67341500  0.81830500  1
  Br  Br28  1  0.79535900  0.00964800  0.26235800  1
  Br  Br29  1  0.29535900  0.99035200  0.23764200  1
  Br  Br30  1  0.22651100  0.01168500  0.75816900  1
  Br  Br31  1  0.72651100  0.98831500  0.74183100  1
  Br  Br32  1  0.49824900  0.99572300  0.00885800  1
  Br  Br33  1  0.99824900  0.00427700  0.49114200  1
  N  N34  1  0.15453900  0.65467900  0.32682200  1
  N  N35  1  0.65453900  0.34532100  0.17317800  1
  N  N36  1  0.84341600  0.35140600  0.67718000  1
  N  N37  1  0.34341600  0.64859400  0.82282000  1
  N  N38  1  0.94602800  0.96143800  0.99965900  1
  N  N39  1  0.44602800  0.03856200  0.50034100  1
