# generated using pymatgen
data_SbXeO2F7
_symmetry_space_group_name_H-M   'P 1'
_cell_length_a   9.22714500
_cell_length_b   9.23484100
_cell_length_c   9.24449296
_cell_angle_alpha   92.57681349
_cell_angle_beta   92.67328122
_cell_angle_gamma   92.48551719
_symmetry_Int_Tables_number   1
_chemical_formula_structural   SbXeO2F7
_chemical_formula_sum   'Sb4 Xe4 O8 F28'
_cell_volume   785.26533467
_cell_formula_units_Z   4
loop_
 _symmetry_equiv_pos_site_id
 _symmetry_equiv_pos_as_xyz
  1  'x, y, z'
loop_
 _atom_site_type_symbol
 _atom_site_label
 _atom_site_symmetry_multiplicity
 _atom_site_fract_x
 _atom_site_fract_y
 _atom_site_fract_z
 _atom_site_occupancy
  Sb  Sb0  1  0.82824900  0.82829400  0.82823600  1
  Sb  Sb1  1  0.23696000  0.77245700  0.45083200  1
  Sb  Sb2  1  0.77031200  0.45017400  0.23717700  1
  Sb  Sb3  1  0.45038600  0.23718100  0.77055500  1
  Xe  Xe4  1  0.69340000  0.92648500  0.35956300  1
  Xe  Xe5  1  0.92545700  0.35982600  0.69293300  1
  Xe  Xe6  1  0.36020300  0.69262400  0.92617400  1
  Xe  Xe7  1  0.29296300  0.31097900  0.30104700  1
  O  O8  1  0.65471500  0.10151600  0.44937200  1
  O  O9  1  0.10118800  0.44970700  0.65498200  1
  O  O10  1  0.45003300  0.65489200  0.10210200  1
  O  O11  1  0.62674500  0.93267600  0.16871800  1
  O  O12  1  0.93269200  0.16939300  0.62687000  1
  O  O13  1  0.16940500  0.62655200  0.93295400  1
  O  O14  1  0.11751600  0.24939700  0.37007100  1
  O  O15  1  0.25707700  0.36537600  0.11381000  1
  F  F16  1  0.28149100  0.56936300  0.40005300  1
  F  F17  1  0.56982800  0.39978700  0.28122200  1
  F  F18  1  0.39993200  0.28154200  0.57015600  1
  F  F19  1  0.04434200  0.71002400  0.48671400  1
  F  F20  1  0.71056400  0.48746300  0.04403000  1
  F  F21  1  0.48715700  0.04401000  0.71036600  1
  F  F22  1  0.62476700  0.77093800  0.85341200  1
  F  F23  1  0.77082200  0.85341300  0.62494100  1
  F  F24  1  0.85364400  0.62489500  0.77098500  1
  F  F25  1  0.19395800  0.80025100  0.25204300  1
  F  F26  1  0.80155700  0.25188200  0.19433500  1
  F  F27  1  0.25177000  0.19467600  0.80143700  1
  F  F28  1  0.78900400  0.02401400  0.87601400  1
  F  F29  1  0.02419200  0.87572100  0.78909300  1
  F  F30  1  0.87630400  0.78896500  0.02397400  1
  F  F31  1  0.21075700  0.96854800  0.50660300  1
  F  F32  1  0.96740200  0.50597600  0.21207500  1
  F  F33  1  0.50672000  0.21139500  0.96693200  1
  F  F34  1  0.30150900  0.72946900  0.64649700  1
  F  F35  1  0.73011100  0.64732800  0.30147000  1
  F  F36  1  0.64746600  0.30155700  0.73032100  1
  F  F37  1  0.44333400  0.81696700  0.42014700  1
  F  F38  1  0.81862500  0.42006700  0.44373000  1
  F  F39  1  0.41985400  0.44414800  0.81813400  1
  F  F40  1  0.36821000  0.11164000  0.25180900  1
  F  F41  1  0.90895300  0.96558400  0.33410100  1
  F  F42  1  0.96568700  0.33426300  0.90794300  1
  F  F43  1  0.33398100  0.90772200  0.96530700  1
