data_image0
_chemical_formula_structural       AgO2Sc
_chemical_formula_sum              "Ag1 O2 Sc1"
_cell_length_a       3.1884
_cell_length_b       3.1884
_cell_length_c       6.52022
_cell_angle_alpha    75.8476
_cell_angle_beta     104.152
_cell_angle_gamma    120

_space_group_name_H-M_alt    "P 1"
_space_group_IT_number       1

loop_
  _space_group_symop_operation_xyz
  'x, y, z'

loop_
  _atom_site_type_symbol
  _atom_site_label
  _atom_site_symmetry_multiplicity
  _atom_site_fract_x
  _atom_site_fract_y
  _atom_site_fract_z
  _atom_site_occupancy
  Ag  Ag1       1.0  0.00000  0.00000  0.00000  1.0000
  O   O1        1.0  0.11100  0.88900  0.33300  1.0000
  O   O2        1.0  0.88900  0.11100  0.66700  1.0000
  Sc  Sc1       1.0  0.50000  0.50000  0.50000  1.0000
