# generated using pymatgen
data_SmBiRu2O7
_symmetry_space_group_name_H-M   'P 1'
_cell_length_a   7.33851555
_cell_length_b   7.33851555
_cell_length_c   7.33851555
_cell_angle_alpha   89.95617105
_cell_angle_beta   59.60046841
_cell_angle_gamma   119.55167468
_symmetry_Int_Tables_number   1
_chemical_formula_structural   SmBiRu2O7
_chemical_formula_sum   'Sm2 Bi2 Ru4 O14'
_cell_volume   279.53741781
_cell_formula_units_Z   2
loop_
 _symmetry_equiv_pos_site_id
 _symmetry_equiv_pos_as_xyz
  1  'x, y, z'
loop_
 _atom_site_type_symbol
 _atom_site_label
 _atom_site_symmetry_multiplicity
 _atom_site_fract_x
 _atom_site_fract_y
 _atom_site_fract_z
 _atom_site_occupancy
  Sm  Sm0  1  0.25000000  0.87500000  0.37500000  1
  Sm  Sm1  1  0.75000000  0.37500000  0.37500000  1
  Bi  Bi2  1  0.75000000  0.37500000  0.87500000  1
  Bi  Bi3  1  0.25000000  0.37500000  0.37500000  1
  Ru  Ru4  1  0.75000000  0.87500000  0.37500000  1
  Ru  Ru5  1  0.25000000  0.87500000  0.87500000  1
  Ru  Ru6  1  0.25000000  0.37500000  0.87500000  1
  Ru  Ru7  1  0.75000000  0.87500000  0.87500000  1
  O  O8  1  0.90709000  0.95582500  0.54667200  1
  O  O9  1  0.49750300  0.54623800  0.54667200  1
  O  O10  1  0.50000000  0.95492400  0.54507600  1
  O  O11  1  0.09291000  0.54623800  0.95126500  1
  O  O12  1  0.50249700  0.95582500  0.95126500  1
  O  O13  1  0.50000000  0.54671700  0.95328300  1
  O  O14  1  0.59291000  0.79417500  0.20332800  1
  O  O15  1  0.00249700  0.20376200  0.20332800  1
  O  O16  1  0.00000000  0.79507600  0.20492400  1
  O  O17  1  0.40709000  0.20376200  0.79873500  1
  O  O18  1  0.99750300  0.79417500  0.79873500  1
  O  O19  1  0.00000000  0.20328300  0.79671700  1
  O  O20  1  0.50000000  0.24571500  0.25428500  1
  O  O21  1  0.00000000  0.50428500  0.49571500  1
