# generated using pymatgen
data_PrTi6Bi7O24
_symmetry_space_group_name_H-M   'P 1'
_cell_length_a   5.43663000
_cell_length_b   5.47671811
_cell_length_c   16.97783053
_cell_angle_alpha   89.99735104
_cell_angle_beta   98.84899534
_cell_angle_gamma   90.41420322
_symmetry_Int_Tables_number   1
_chemical_formula_structural   PrTi6Bi7O24
_chemical_formula_sum   'Pr1 Ti6 Bi7 O24'
_cell_volume   499.48267135
_cell_formula_units_Z   1
loop_
 _symmetry_equiv_pos_site_id
 _symmetry_equiv_pos_as_xyz
  1  'x, y, z'
loop_
 _atom_site_type_symbol
 _atom_site_label
 _atom_site_symmetry_multiplicity
 _atom_site_fract_x
 _atom_site_fract_y
 _atom_site_fract_z
 _atom_site_occupancy
  Pr  Pr0  1  0.10599100  0.00681400  0.12778400  1
  Ti  Ti1  1  0.04041700  0.50118000  0.00127300  1
  Ti  Ti2  1  0.54208000  0.99970400  0.00186100  1
  Ti  Ti3  1  0.15609800  0.50076700  0.25735900  1
  Ti  Ti4  1  0.89660900  0.49972500  0.74201500  1
  Ti  Ti5  1  0.66347100  0.00067300  0.25685600  1
  Ti  Ti6  1  0.39713800  0.00177500  0.74236700  1
  Bi  Bi7  1  0.29801200  0.52628300  0.57672500  1
  Bi  Bi8  1  0.72447900  0.47444800  0.42309200  1
  Bi  Bi9  1  0.79850500  0.97487600  0.57655000  1
  Bi  Bi10  1  0.22447400  0.02616800  0.42288500  1
  Bi  Bi11  1  0.43418300  0.49720000  0.86710700  1
  Bi  Bi12  1  0.58103700  0.51003400  0.13593700  1
  Bi  Bi13  1  0.93627500  0.00527000  0.86799000  1
  O  O14  1  0.82214300  0.76403000  0.98442300  1
  O  O15  1  0.82877900  0.24495000  0.02181500  1
  O  O16  1  0.31721500  0.73550800  0.97814700  1
  O  O17  1  0.32075900  0.24307200  0.02308900  1
  O  O18  1  0.22615900  0.44069200  0.36152800  1
  O  O19  1  0.86643300  0.55812500  0.63796500  1
  O  O20  1  0.72723600  0.05934100  0.36132000  1
  O  O21  1  0.36683500  0.94139600  0.63828900  1
  O  O22  1  0.69757800  0.77573100  0.77623400  1
  O  O23  1  0.91384900  0.23088000  0.22155500  1
  O  O24  1  0.19713900  0.72420200  0.77638300  1
  O  O25  1  0.41019400  0.26457700  0.22120900  1
  O  O26  1  0.52087500  0.74581500  0.49761700  1
  O  O27  1  0.02210800  0.25424000  0.50162400  1
  O  O28  1  0.02120400  0.75413700  0.49802000  1
  O  O29  1  0.52245300  0.24556000  0.50210800  1
  O  O30  1  0.14045700  0.57214900  0.11503800  1
  O  O31  1  0.02047300  0.42661300  0.88508500  1
  O  O32  1  0.60177400  0.92785100  0.11594400  1
  O  O33  1  0.52338100  0.07130400  0.88513000  1
  O  O34  1  0.87479700  0.71920800  0.24375800  1
  O  O35  1  0.62387200  0.28640600  0.75336200  1
  O  O36  1  0.38006900  0.77547200  0.24637400  1
  O  O37  1  0.12424900  0.21382500  0.75418000  1
