# generated using pymatgen
data_Sc(CuS)3
_symmetry_space_group_name_H-M   'P 1'
_cell_length_a   7.22330834
_cell_length_b   7.22330834
_cell_length_c   7.22330816
_cell_angle_alpha   54.08983888
_cell_angle_beta   54.08983888
_cell_angle_gamma   54.08983636
_symmetry_Int_Tables_number   1
_chemical_formula_structural   Sc(CuS)3
_chemical_formula_sum   'Sc2 Cu6 S6'
_cell_volume   229.72074057
_cell_formula_units_Z   2
loop_
 _symmetry_equiv_pos_site_id
 _symmetry_equiv_pos_as_xyz
  1  'x, y, z'
loop_
 _atom_site_type_symbol
 _atom_site_label
 _atom_site_symmetry_multiplicity
 _atom_site_fract_x
 _atom_site_fract_y
 _atom_site_fract_z
 _atom_site_occupancy
  Sc  Sc0  1  0.66661200  0.66661200  0.66661200  1
  Sc  Sc1  1  0.33338800  0.33338800  0.33338800  1
  Cu  Cu2  1  0.87701200  0.54201900  0.21237400  1
  Cu  Cu3  1  0.54201900  0.21237400  0.87701200  1
  Cu  Cu4  1  0.21237400  0.87701200  0.54201900  1
  Cu  Cu5  1  0.78762600  0.12298800  0.45798100  1
  Cu  Cu6  1  0.45798100  0.78762600  0.12298800  1
  Cu  Cu7  1  0.12298800  0.45798100  0.78762600  1
  S  S8  1  0.07795500  0.74299600  0.41678400  1
  S  S9  1  0.41678400  0.07795500  0.74299600  1
  S  S10  1  0.74299600  0.41678400  0.07795500  1
  S  S11  1  0.25700400  0.58321600  0.92204500  1
  S  S12  1  0.58321600  0.92204500  0.25700400  1
  S  S13  1  0.92204500  0.25700400  0.58321600  1
