# generated using pymatgen
data_Sc3(MnNi2)2
_symmetry_space_group_name_H-M   'P 1'
_cell_length_a   4.91727388
_cell_length_b   4.84608337
_cell_length_c   12.24479315
_cell_angle_alpha   90.81293851
_cell_angle_beta   89.33172362
_cell_angle_gamma   118.32219274
_symmetry_Int_Tables_number   1
_chemical_formula_structural   Sc3(MnNi2)2
_chemical_formula_sum   'Sc6 Mn4 Ni8'
_cell_volume   256.82882813
_cell_formula_units_Z   2
loop_
 _symmetry_equiv_pos_site_id
 _symmetry_equiv_pos_as_xyz
  1  'x, y, z'
loop_
 _atom_site_type_symbol
 _atom_site_label
 _atom_site_symmetry_multiplicity
 _atom_site_fract_x
 _atom_site_fract_y
 _atom_site_fract_z
 _atom_site_occupancy
  Sc  Sc0  1  0.33452300  0.66276200  0.91612700  1
  Sc  Sc1  1  0.00420000  0.00551200  0.24946600  1
  Sc  Sc2  1  0.66891700  0.33289700  0.58282000  1
  Sc  Sc3  1  0.33108300  0.66710300  0.66718000  1
  Sc  Sc4  1  0.99580000  0.99448800  0.00053400  1
  Sc  Sc5  1  0.66547700  0.33723800  0.33387300  1
  Mn  Mn6  1  0.50000000  0.50000000  0.12500000  1
  Mn  Mn7  1  0.16710800  0.83305900  0.45861900  1
  Mn  Mn8  1  0.83289200  0.16694100  0.79138100  1
  Mn  Mn9  1  0.50000000  0.00000000  0.12500000  1
  Ni  Ni10  1  0.16654400  0.33297800  0.45919700  1
  Ni  Ni11  1  0.83345600  0.66702200  0.79080300  1
  Ni  Ni12  1  0.33800900  0.67372600  0.29130800  1
  Ni  Ni13  1  0.00000000  0.00000000  0.62500000  1
  Ni  Ni14  1  0.66199100  0.32627400  0.95869200  1
  Ni  Ni15  1  0.00000000  0.50000000  0.12500000  1
  Ni  Ni16  1  0.66616400  0.83259900  0.45883500  1
  Ni  Ni17  1  0.33383600  0.16740100  0.79116500  1
