# generated using pymatgen
data_Sm2(CoCu)5
_symmetry_space_group_name_H-M   'P 1'
_cell_length_a   4.05662100
_cell_length_b   5.03176000
_cell_length_c   8.56305700
_cell_angle_alpha   90.00000000
_cell_angle_beta   90.00000000
_cell_angle_gamma   90.00000000
_symmetry_Int_Tables_number   1
_chemical_formula_structural   Sm2(CoCu)5
_chemical_formula_sum   'Sm2 Co5 Cu5'
_cell_volume   174.78863381
_cell_formula_units_Z   1
loop_
 _symmetry_equiv_pos_site_id
 _symmetry_equiv_pos_as_xyz
  1  'x, y, z'
loop_
 _atom_site_type_symbol
 _atom_site_label
 _atom_site_symmetry_multiplicity
 _atom_site_fract_x
 _atom_site_fract_y
 _atom_site_fract_z
 _atom_site_occupancy
  Sm  Sm0  1  0.00000000  0.50000000  0.00000000  1
  Sm  Sm1  1  0.00000000  0.00000000  0.50000000  1
  Co  Co2  1  0.00000000  0.50000000  0.34747200  1
  Co  Co3  1  0.00000000  0.00000000  0.83597000  1
  Co  Co4  1  0.00000000  0.00000000  0.16403000  1
  Co  Co5  1  0.00000000  0.50000000  0.65252800  1
  Co  Co6  1  0.50000000  0.50000000  0.50000000  1
  Cu  Cu7  1  0.50000000  0.00000000  0.00000000  1
  Cu  Cu8  1  0.50000000  0.75034000  0.25198000  1
  Cu  Cu9  1  0.50000000  0.24966000  0.74802000  1
  Cu  Cu10  1  0.50000000  0.24966000  0.25198000  1
  Cu  Cu11  1  0.50000000  0.75034000  0.74802000  1
