# generated using pymatgen
data_SmY3Fe34
_symmetry_space_group_name_H-M   'P 1'
_cell_length_a   8.26837500
_cell_length_b   8.52270100
_cell_length_c   8.52378071
_cell_angle_alpha   60.00418625
_cell_angle_beta   90.00000000
_cell_angle_gamma   90.00000000
_symmetry_Int_Tables_number   1
_chemical_formula_structural   SmY3Fe34
_chemical_formula_sum   'Sm1 Y3 Fe34'
_cell_volume   520.20992754
_cell_formula_units_Z   1
loop_
 _symmetry_equiv_pos_site_id
 _symmetry_equiv_pos_as_xyz
  1  'x, y, z'
loop_
 _atom_site_type_symbol
 _atom_site_label
 _atom_site_symmetry_multiplicity
 _atom_site_fract_x
 _atom_site_fract_y
 _atom_site_fract_z
 _atom_site_occupancy
  Sm  Sm0  1  0.25000000  0.66667900  0.66664100  1
  Y  Y1  1  0.75000000  0.33335600  0.33328900  1
  Y  Y2  1  0.75000000  0.99998800  0.00002300  1
  Y  Y3  1  0.25000000  0.99995300  0.00009500  1
  Fe  Fe4  1  0.60745800  0.66667300  0.66665300  1
  Fe  Fe5  1  0.39293000  0.33332200  0.33335600  1
  Fe  Fe6  1  0.10707000  0.33332200  0.33335600  1
  Fe  Fe7  1  0.89254200  0.66667300  0.66665300  1
  Fe  Fe8  1  0.48637300  0.83431600  0.83436200  1
  Fe  Fe9  1  0.48633100  0.83434500  0.33131100  1
  Fe  Fe10  1  0.48637300  0.33132200  0.83436200  1
  Fe  Fe11  1  0.51510700  0.16618500  0.16613700  1
  Fe  Fe12  1  0.51506600  0.16615300  0.66769300  1
  Fe  Fe13  1  0.51510700  0.66767800  0.16613700  1
  Fe  Fe14  1  0.98489300  0.16618500  0.16613700  1
  Fe  Fe15  1  0.98493400  0.16615300  0.66769300  1
  Fe  Fe16  1  0.98489300  0.66767800  0.16613700  1
  Fe  Fe17  1  0.01362700  0.83431600  0.83436200  1
  Fe  Fe18  1  0.01366900  0.83434500  0.33131100  1
  Fe  Fe19  1  0.01362700  0.33132200  0.83436200  1
  Fe  Fe20  1  0.50063900  0.49950300  0.49950000  1
  Fe  Fe21  1  0.50063800  0.49949700  0.00100600  1
  Fe  Fe22  1  0.50063900  0.00099700  0.49950000  1
  Fe  Fe23  1  0.99936100  0.49950300  0.49950000  1
  Fe  Fe24  1  0.99936200  0.49949700  0.00100600  1
  Fe  Fe25  1  0.99936100  0.00099700  0.49950000  1
  Fe  Fe26  1  0.75000000  0.67069800  0.36827700  1
  Fe  Fe27  1  0.75000000  0.36830200  0.96098900  1
  Fe  Fe28  1  0.75000000  0.96109500  0.67072500  1
  Fe  Fe29  1  0.75000000  0.36818000  0.67072500  1
  Fe  Fe30  1  0.75000000  0.96102500  0.36827700  1
  Fe  Fe31  1  0.75000000  0.67070800  0.96098900  1
  Fe  Fe32  1  0.25000000  0.32869700  0.63156400  1
  Fe  Fe33  1  0.25000000  0.63154700  0.03974500  1
  Fe  Fe34  1  0.25000000  0.03984700  0.32865900  1
  Fe  Fe35  1  0.25000000  0.63149400  0.32865900  1
  Fe  Fe36  1  0.25000000  0.03974000  0.63156400  1
  Fe  Fe37  1  0.25000000  0.32870800  0.03974500  1
