# generated using pymatgen
data_Sr2EuFeO5
_symmetry_space_group_name_H-M   'P 1'
_cell_length_a   6.83904477
_cell_length_b   6.83904477
_cell_length_c   7.50638614
_cell_angle_alpha   63.00849854
_cell_angle_beta   63.00849854
_cell_angle_gamma   90.21256029
_symmetry_Int_Tables_number   1
_chemical_formula_structural   Sr2EuFeO5
_chemical_formula_sum   'Sr4 Eu2 Fe2 O10'
_cell_volume   268.87445405
_cell_formula_units_Z   2
loop_
 _symmetry_equiv_pos_site_id
 _symmetry_equiv_pos_as_xyz
  1  'x, y, z'
loop_
 _atom_site_type_symbol
 _atom_site_label
 _atom_site_symmetry_multiplicity
 _atom_site_fract_x
 _atom_site_fract_y
 _atom_site_fract_z
 _atom_site_occupancy
  Sr  Sr0  1  0.25000000  0.25000000  0.50000000  1
  Sr  Sr1  1  0.75000000  0.75000000  0.50000000  1
  Sr  Sr2  1  0.32688500  0.82688500  0.00000000  1
  Sr  Sr3  1  0.67311500  0.17311500  0.00000000  1
  Eu  Eu4  1  0.18009600  0.31990400  0.00000000  1
  Eu  Eu5  1  0.81990400  0.68009600  0.00000000  1
  Fe  Fe6  1  0.25182600  0.75182600  0.49634700  1
  Fe  Fe7  1  0.74817400  0.24817400  0.50365300  1
  O  O8  1  0.00079100  0.50079100  0.28600800  1
  O  O9  1  0.71320100  0.21320100  0.28600800  1
  O  O10  1  0.20646400  0.00790200  0.28563300  1
  O  O11  1  0.50790200  0.70646400  0.28563300  1
  O  O12  1  0.99920900  0.49920900  0.71399200  1
  O  O13  1  0.28679900  0.78679900  0.71399200  1
  O  O14  1  0.79353600  0.99209800  0.71436700  1
  O  O15  1  0.49209800  0.29353600  0.71436700  1
  O  O16  1  0.50000000  0.50000000  0.00000000  1
  O  O17  1  0.00000000  0.00000000  0.00000000  1
