# generated using pymatgen
data_Sr8Cu(WO6)3
_symmetry_space_group_name_H-M   'P 1'
_cell_length_a   5.96010900
_cell_length_b   10.41704140
_cell_length_c   15.81446166
_cell_angle_alpha   109.16933925
_cell_angle_beta   100.79198310
_cell_angle_gamma   90.01595607
_symmetry_Int_Tables_number   1
_chemical_formula_structural   Sr8Cu(WO6)3
_chemical_formula_sum   'Sr16 Cu2 W6 O36'
_cell_volume   909.00187276
_cell_formula_units_Z   2
loop_
 _symmetry_equiv_pos_site_id
 _symmetry_equiv_pos_as_xyz
  1  'x, y, z'
loop_
 _atom_site_type_symbol
 _atom_site_label
 _atom_site_symmetry_multiplicity
 _atom_site_fract_x
 _atom_site_fract_y
 _atom_site_fract_z
 _atom_site_occupancy
  Sr  Sr0  1  0.53582400  0.84531400  0.06644300  1
  Sr  Sr1  1  0.87477100  0.85628800  0.74606400  1
  Sr  Sr2  1  0.20377700  0.84907800  0.41996200  1
  Sr  Sr3  1  0.45335800  0.05604600  0.90020200  1
  Sr  Sr4  1  0.78446300  0.04321400  0.56563800  1
  Sr  Sr5  1  0.11539900  0.08697900  0.24037600  1
  Sr  Sr6  1  0.96126600  0.64222300  0.90741000  1
  Sr  Sr7  1  0.29444100  0.65115800  0.59374600  1
  Sr  Sr8  1  0.62453900  0.65223100  0.26633100  1
  Sr  Sr9  1  0.04406200  0.33877600  0.07325400  1
  Sr  Sr10  1  0.36196200  0.33789200  0.74040700  1
  Sr  Sr11  1  0.71080300  0.34481900  0.41273600  1
  Sr  Sr12  1  0.07932000  0.73571700  0.16162700  1
  Sr  Sr13  1  0.25272300  0.24786600  0.50096600  1
  Sr  Sr14  1  0.58356600  0.25247500  0.16560300  1
  Sr  Sr15  1  0.91450000  0.25260300  0.83400900  1
  Cu  Cu16  1  0.40578000  0.67489100  0.81555900  1
  Cu  Cu17  1  0.73570400  0.67436800  0.48809600  1
  W  W18  1  0.50765800  0.50234100  0.99840200  1
  W  W19  1  0.82990500  0.50681000  0.66834700  1
  W  W20  1  0.16485900  0.50317600  0.33808800  1
  W  W21  1  0.66352300  0.00327000  0.33284800  1
  W  W22  1  0.00298000  0.99951000  0.99881500  1
  W  W23  1  0.33563200  0.99567600  0.66660300  1
  O  O24  1  0.41108200  0.63675200  0.10469100  1
  O  O25  1  0.68267100  0.64228600  0.76700100  1
  O  O26  1  0.02207300  0.62162800  0.44470800  1
  O  O27  1  0.78310100  0.62559600  0.03177600  1
  O  O28  1  0.11468500  0.64221800  0.72776600  1
  O  O29  1  0.45176100  0.63698700  0.39629000  1
  O  O30  1  0.37981300  0.63244200  0.92232500  1
  O  O31  1  0.73323400  0.63904200  0.60141100  1
  O  O32  1  0.04808700  0.63682500  0.27965000  1
  O  O33  1  0.60690800  0.39159700  0.89071600  1
  O  O34  1  0.97044200  0.40855400  0.57129700  1
  O  O35  1  0.30110400  0.41434400  0.23527600  1
  O  O36  1  0.20332300  0.41427400  0.96082300  1
  O  O37  1  0.54160200  0.40877500  0.62552600  1
  O  O38  1  0.88784900  0.39191400  0.29242200  1
  O  O39  1  0.63756400  0.39904400  0.07196000  1
  O  O40  1  0.95422700  0.41565900  0.75082100  1
  O  O41  1  0.30160300  0.40059600  0.41253700  1
  O  O42  1  0.56291600  0.12210300  0.44261600  1
  O  O43  1  0.88773000  0.12445400  0.10474600  1
  O  O44  1  0.21535000  0.11802300  0.77059200  1
  O  O45  1  0.94741700  0.12386100  0.37635100  1
  O  O46  1  0.28442400  0.12438100  0.04155900  1
  O  O47  1  0.61612500  0.11884800  0.70711900  1
  O  O48  1  0.20241700  0.11349400  0.59534100  1
  O  O49  1  0.53377300  0.12947100  0.26953800  1
  O  O50  1  0.87461000  0.11944300  0.93025400  1
  O  O51  1  0.13783100  0.88796100  0.90030300  1
  O  O52  1  0.46956300  0.88097400  0.56674900  1
  O  O53  1  0.78795600  0.89567900  0.22725000  1
  O  O54  1  0.72100100  0.88800500  0.95127200  1
  O  O55  1  0.05219400  0.88111000  0.61784600  1
  O  O56  1  0.37187800  0.89348600  0.29000800  1
  O  O57  1  0.45268500  0.88764400  0.74127100  1
  O  O58  1  0.78438900  0.88479600  0.40066000  1
  O  O59  1  0.12579400  0.89501300  0.07799600  1
