# generated using pymatgen
data_Na7Fe7P6(O8F)3
_symmetry_space_group_name_H-M   'P 1'
_cell_length_a   13.76538379
_cell_length_b   13.76538379
_cell_length_c   6.79719700
_cell_angle_alpha   90.00000000
_cell_angle_beta   90.00000000
_cell_angle_gamma   119.99999901
_symmetry_Int_Tables_number   1
_chemical_formula_structural   Na7Fe7P6(O8F)3
_chemical_formula_sum   'Na14 Fe14 P12 O48 F6'
_cell_volume   1115.41669918
_cell_formula_units_Z   2
loop_
 _symmetry_equiv_pos_site_id
 _symmetry_equiv_pos_as_xyz
  1  'x, y, z'
loop_
 _atom_site_type_symbol
 _atom_site_label
 _atom_site_symmetry_multiplicity
 _atom_site_fract_x
 _atom_site_fract_y
 _atom_site_fract_z
 _atom_site_occupancy
  Na  Na0  1  0.05990000  0.24900900  0.25731600  1
  Na  Na1  1  0.18910900  0.94010000  0.25731600  1
  Na  Na2  1  0.75099100  0.81089100  0.25731600  1
  Na  Na3  1  0.94010000  0.75099100  0.75731600  1
  Na  Na4  1  0.81089100  0.05990000  0.75731600  1
  Na  Na5  1  0.24900900  0.18910900  0.75731600  1
  Na  Na6  1  0.33333300  0.66666700  0.99028200  1
  Na  Na7  1  0.66666700  0.33333300  0.49028200  1
  Na  Na8  1  0.61143200  0.11397400  0.25899400  1
  Na  Na9  1  0.50254300  0.38856800  0.25899400  1
  Na  Na10  1  0.88602600  0.49745700  0.25899400  1
  Na  Na11  1  0.38856800  0.88602600  0.75899400  1
  Na  Na12  1  0.49745700  0.61143200  0.75899400  1
  Na  Na13  1  0.11397400  0.50254300  0.75899400  1
  Fe  Fe14  1  0.86754100  0.29314900  0.00562300  1
  Fe  Fe15  1  0.42560800  0.13245900  0.00562300  1
  Fe  Fe16  1  0.70685100  0.57439200  0.00562300  1
  Fe  Fe17  1  0.13245900  0.70685100  0.50562300  1
  Fe  Fe18  1  0.57439200  0.86754100  0.50562300  1
  Fe  Fe19  1  0.29314900  0.42560800  0.50562300  1
  Fe  Fe20  1  0.87398400  0.29249300  0.51268300  1
  Fe  Fe21  1  0.41850800  0.12601600  0.51268300  1
  Fe  Fe22  1  0.70750700  0.58149200  0.51268300  1
  Fe  Fe23  1  0.12601600  0.70750700  0.01268300  1
  Fe  Fe24  1  0.58149200  0.87398400  0.01268300  1
  Fe  Fe25  1  0.29249300  0.41850800  0.01268300  1
  Fe  Fe26  1  0.00000000  0.00000000  0.00416900  1
  Fe  Fe27  1  0.00000000  0.00000000  0.50416900  1
  P  P28  1  0.81738700  0.06499700  0.25540500  1
  P  P29  1  0.24761000  0.18261300  0.25540500  1
  P  P30  1  0.93500300  0.75239000  0.25540500  1
  P  P31  1  0.18261300  0.93500300  0.75540500  1
  P  P32  1  0.75239000  0.81738700  0.75540500  1
  P  P33  1  0.06499700  0.24761000  0.75540500  1
  P  P34  1  0.50886200  0.62383200  0.26040600  1
  P  P35  1  0.11497000  0.49113800  0.26040600  1
  P  P36  1  0.37616800  0.88503000  0.26040600  1
  P  P37  1  0.49113800  0.37616800  0.76040600  1
  P  P38  1  0.88503000  0.50886200  0.76040600  1
  P  P39  1  0.62383200  0.11497000  0.76040600  1
  O  O40  1  0.44401500  0.56184700  0.44659900  1
  O  O41  1  0.11783200  0.55598500  0.44659900  1
  O  O42  1  0.43815300  0.88216800  0.44659900  1
  O  O43  1  0.55598500  0.43815300  0.94659900  1
  O  O44  1  0.88216800  0.44401500  0.94659900  1
  O  O45  1  0.56184700  0.11783200  0.94659900  1
  O  O46  1  0.85072500  0.13751700  0.44395100  1
  O  O47  1  0.28679200  0.14927500  0.44395100  1
  O  O48  1  0.86248300  0.71320800  0.44395100  1
  O  O49  1  0.14927500  0.86248300  0.94395100  1
  O  O50  1  0.71320800  0.85072500  0.94395100  1
  O  O51  1  0.13751700  0.28679200  0.94395100  1
  O  O52  1  0.29493800  0.31169700  0.25368100  1
  O  O53  1  0.01675900  0.70506200  0.25368100  1
  O  O54  1  0.68830300  0.98324100  0.25368100  1
  O  O55  1  0.70506200  0.68830300  0.75368100  1
  O  O56  1  0.98324100  0.29493800  0.75368100  1
  O  O57  1  0.31169700  0.01675900  0.75368100  1
  O  O58  1  0.20958400  0.46051300  0.26218500  1
  O  O59  1  0.25092900  0.79041600  0.26218500  1
  O  O60  1  0.53948700  0.74907100  0.26218500  1
  O  O61  1  0.79041600  0.53948700  0.76218500  1
  O  O62  1  0.74907100  0.20958400  0.76218500  1
  O  O63  1  0.46051300  0.25092900  0.76218500  1
  O  O64  1  0.88600800  0.00148900  0.25458600  1
  O  O65  1  0.11548100  0.11399200  0.25458600  1
  O  O66  1  0.99851100  0.88451900  0.25458600  1
  O  O67  1  0.11399200  0.99851100  0.75458600  1
  O  O68  1  0.88451900  0.88600800  0.75458600  1
  O  O69  1  0.00148900  0.11548100  0.75458600  1
  O  O70  1  0.85273900  0.14065600  0.07130100  1
  O  O71  1  0.28791700  0.14726100  0.07130100  1
  O  O72  1  0.85934400  0.71208300  0.07130100  1
  O  O73  1  0.14726100  0.85934400  0.57130100  1
  O  O74  1  0.71208300  0.85273900  0.57130100  1
  O  O75  1  0.14065600  0.28791700  0.57130100  1
  O  O76  1  0.99757000  0.38002100  0.25171800  1
  O  O77  1  0.38245100  0.00243000  0.25171800  1
  O  O78  1  0.61997900  0.61754900  0.25171800  1
  O  O79  1  0.00243000  0.61997900  0.75171800  1
  O  O80  1  0.61754900  0.99757000  0.75171800  1
  O  O81  1  0.38002100  0.38245100  0.75171800  1
  O  O82  1  0.56729000  0.13141200  0.57546600  1
  O  O83  1  0.56412200  0.43271000  0.57546600  1
  O  O84  1  0.86858800  0.43587800  0.57546600  1
  O  O85  1  0.43271000  0.86858800  0.07546600  1
  O  O86  1  0.43587800  0.56729000  0.07546600  1
  O  O87  1  0.13141200  0.56412200  0.07546600  1
  F  F88  1  0.76930700  0.28201300  0.26955100  1
  F  F89  1  0.51270600  0.23069300  0.26955100  1
  F  F90  1  0.71798700  0.48729400  0.26955100  1
  F  F91  1  0.23069300  0.71798700  0.76955100  1
  F  F92  1  0.48729400  0.76930700  0.76955100  1
  F  F93  1  0.28201300  0.51270600  0.76955100  1
