# generated using pymatgen
data_NaTi3AlO8
_symmetry_space_group_name_H-M   'P 1'
_cell_length_a   3.80016200
_cell_length_b   6.40278301
_cell_length_c   6.50988333
_cell_angle_alpha   107.37253102
_cell_angle_beta   90.00000000
_cell_angle_gamma   72.73697855
_symmetry_Int_Tables_number   1
_chemical_formula_structural   NaTi3AlO8
_chemical_formula_sum   'Na1 Ti3 Al1 O8'
_cell_volume   143.67677958
_cell_formula_units_Z   1
loop_
 _symmetry_equiv_pos_site_id
 _symmetry_equiv_pos_as_xyz
  1  'x, y, z'
loop_
 _atom_site_type_symbol
 _atom_site_label
 _atom_site_symmetry_multiplicity
 _atom_site_fract_x
 _atom_site_fract_y
 _atom_site_fract_z
 _atom_site_occupancy
  Na  Na0  1  0.00710700  0.98578700  0.98205500  1
  Ti  Ti1  1  0.60427800  0.79144300  0.28066000  1
  Ti  Ti2  1  0.39821400  0.20357200  0.70390600  1
  Ti  Ti3  1  0.29707800  0.40584400  0.30224400  1
  Al  Al4  1  0.70271600  0.59456900  0.69558900  1
  O  O5  1  0.55613600  0.88772800  0.64479700  1
  O  O6  1  0.44288800  0.11422400  0.36715300  1
  O  O7  1  0.63084900  0.73830100  0.99283500  1
  O  O8  1  0.37070100  0.25859800  0.01403600  1
  O  O9  1  0.76380200  0.47239500  0.35879800  1
  O  O10  1  0.23093100  0.53813900  0.65474600  1
  O  O11  1  0.85828700  0.28342500  0.71080400  1
  O  O12  1  0.13701300  0.72597500  0.29237600  1
