# generated using pymatgen
data_NaCaScZn(SiO3)4
_symmetry_space_group_name_H-M   'P 1'
_cell_length_a   6.74783266
_cell_length_b   6.74783266
_cell_length_c   5.35251979
_cell_angle_alpha   77.95307380
_cell_angle_beta   77.95307380
_cell_angle_gamma   84.86372430
_symmetry_Int_Tables_number   1
_chemical_formula_structural   NaCaScZn(SiO3)4
_chemical_formula_sum   'Na1 Ca1 Sc1 Zn1 Si4 O12'
_cell_volume   232.83168431
_cell_formula_units_Z   1
loop_
 _symmetry_equiv_pos_site_id
 _symmetry_equiv_pos_as_xyz
  1  'x, y, z'
loop_
 _atom_site_type_symbol
 _atom_site_label
 _atom_site_symmetry_multiplicity
 _atom_site_fract_x
 _atom_site_fract_y
 _atom_site_fract_z
 _atom_site_occupancy
  Na  Na0  1  0.30207800  0.69792200  0.50000000  1
  Ca  Ca1  1  0.69991200  0.30008800  0.00000000  1
  Sc  Sc2  1  0.10227200  0.89772800  0.00000000  1
  Zn  Zn3  1  0.90053900  0.09946100  0.50000000  1
  Si  Si4  1  0.80170000  0.62224200  0.48548900  1
  Si  Si5  1  0.37775800  0.19830000  0.51451100  1
  Si  Si6  1  0.19798600  0.37857900  0.01267200  1
  Si  Si7  1  0.62142100  0.80201400  0.98732800  1
  O  O8  1  0.66555900  0.63414800  0.25289200  1
  O  O9  1  0.36585200  0.33444100  0.74710800  1
  O  O10  1  0.33814500  0.36073400  0.24025100  1
  O  O11  1  0.63926600  0.66185500  0.75974900  1
  O  O12  1  0.88394200  0.39154700  0.57203400  1
  O  O13  1  0.60845300  0.11605800  0.42796600  1
  O  O14  1  0.11088600  0.60860100  0.93928100  1
  O  O15  1  0.39139900  0.88911400  0.06071900  1
  O  O16  1  0.96485800  0.79902300  0.39226000  1
  O  O17  1  0.20097700  0.03514200  0.60774000  1
  O  O18  1  0.03096400  0.20396600  0.09928600  1
  O  O19  1  0.79603400  0.96903600  0.90071400  1
