# generated using pymatgen
data_NaAlSi3O8
_symmetry_space_group_name_H-M   'P 1'
_cell_length_a   7.17614988
_cell_length_b   7.74235060
_cell_length_c   7.79389499
_cell_angle_alpha   115.65806626
_cell_angle_beta   103.79375070
_cell_angle_gamma   103.53213248
_symmetry_Int_Tables_number   1
_chemical_formula_structural   NaAlSi3O8
_chemical_formula_sum   'Na2 Al2 Si6 O16'
_cell_volume   349.81773528
_cell_formula_units_Z   2
loop_
 _symmetry_equiv_pos_site_id
 _symmetry_equiv_pos_as_xyz
  1  'x, y, z'
loop_
 _atom_site_type_symbol
 _atom_site_label
 _atom_site_symmetry_multiplicity
 _atom_site_fract_x
 _atom_site_fract_y
 _atom_site_fract_z
 _atom_site_occupancy
  Na  Na0  1  0.13449300  0.26606700  0.27258000  1
  Na  Na1  1  0.86550700  0.73393300  0.72742000  1
  Al  Al2  1  0.34071400  0.80382700  0.57344300  1
  Al  Al3  1  0.65928600  0.19617300  0.42655700  1
  Si  Si4  1  0.22026800  0.82888400  0.18057800  1
  Si  Si5  1  0.22549500  0.18814400  0.84086600  1
  Si  Si6  1  0.77973200  0.17111600  0.81942200  1
  Si  Si7  1  0.77450500  0.81185600  0.15913400  1
  Si  Si8  1  0.33525300  0.57306800  0.80421000  1
  Si  Si9  1  0.66474700  0.42693200  0.19579000  1
  O  O10  1  0.38646800  0.06685400  0.30683400  1
  O  O11  1  0.41097200  0.31985900  0.07285200  1
  O  O12  1  0.61353200  0.93314600  0.69316600  1
  O  O13  1  0.58902800  0.68014100  0.92714800  1
  O  O14  1  0.21722600  0.96068200  0.69821000  1
  O  O15  1  0.22721000  0.69571000  0.95219700  1
  O  O16  1  0.78277400  0.03931800  0.30179000  1
  O  O17  1  0.77279000  0.30429000  0.04780300  1
  O  O18  1  0.27574300  0.58016900  0.59416600  1
  O  O19  1  0.72425700  0.41983100  0.40583400  1
  O  O20  1  0.98801600  0.84124100  0.11235200  1
  O  O21  1  0.01198400  0.15875900  0.88764800  1
  O  O22  1  0.24242700  0.71250000  0.30855900  1
  O  O23  1  0.24981400  0.32740900  0.73260800  1
  O  O24  1  0.75757300  0.28750000  0.69144100  1
  O  O25  1  0.75018600  0.67259100  0.26739200  1
