data_image0
_chemical_formula_structural       Ga2Sb4Sm2
_chemical_formula_sum              "Ga2 Sb4 Sm2"
_cell_length_a       4.31733
_cell_length_b       4.38045
_cell_length_c       11.4033
_cell_angle_alpha    90
_cell_angle_beta     79.088
_cell_angle_gamma    90

_space_group_name_H-M_alt    "P 1"
_space_group_IT_number       1

loop_
  _space_group_symop_operation_xyz
  'x, y, z'

loop_
  _atom_site_type_symbol
  _atom_site_label
  _atom_site_symmetry_multiplicity
  _atom_site_fract_x
  _atom_site_fract_y
  _atom_site_fract_z
  _atom_site_occupancy
  Ga  Ga1       1.0  0.84300  0.00000  0.00000  1.0000
  Ga  Ga2       1.0  0.15700  0.50000  0.00000  1.0000
  Sb  Sb1       1.0  0.40700  0.75000  0.18500  1.0000
  Sb  Sb2       1.0  0.75000  0.75000  0.49900  1.0000
  Sb  Sb3       1.0  0.25000  0.25000  0.50100  1.0000
  Sb  Sb4       1.0  0.59300  0.25000  0.81500  1.0000
  Sm  Sm1       1.0  0.86300  0.25000  0.27500  1.0000
  Sm  Sm2       1.0  0.13700  0.75000  0.72500  1.0000
