# generated using pymatgen
data_NdAlCo4
_symmetry_space_group_name_H-M   'P 1'
_cell_length_a   5.16706204
_cell_length_b   5.16706204
_cell_length_c   3.82130100
_cell_angle_alpha   90.00000000
_cell_angle_beta   90.00000000
_cell_angle_gamma   120.00000050
_symmetry_Int_Tables_number   1
_chemical_formula_structural   NdAlCo4
_chemical_formula_sum   'Nd1 Al1 Co4'
_cell_volume   88.35461310
_cell_formula_units_Z   1
loop_
 _symmetry_equiv_pos_site_id
 _symmetry_equiv_pos_as_xyz
  1  'x, y, z'
loop_
 _atom_site_type_symbol
 _atom_site_label
 _atom_site_symmetry_multiplicity
 _atom_site_fract_x
 _atom_site_fract_y
 _atom_site_fract_z
 _atom_site_occupancy
  Nd  Nd0  1  0.00000000  0.00000000  0.00000000  1
  Al  Al1  1  0.33333300  0.66666700  0.00000000  1
  Co  Co2  1  0.66666700  0.33333300  0.00000000  1
  Co  Co3  1  0.99146000  0.49573000  0.50000000  1
  Co  Co4  1  0.50427000  0.49573000  0.50000000  1
  Co  Co5  1  0.50427000  0.00854000  0.50000000  1
