# generated using pymatgen
data_NaHf6(NCl)6
_symmetry_space_group_name_H-M   'P 1'
_cell_length_a   6.26107525
_cell_length_b   6.26107525
_cell_length_c   10.18569842
_cell_angle_alpha   84.11957935
_cell_angle_beta   84.11957935
_cell_angle_gamma   119.99794210
_symmetry_Int_Tables_number   1
_chemical_formula_structural   NaHf6(NCl)6
_chemical_formula_sum   'Na1 Hf6 N6 Cl6'
_cell_volume   338.46579222
_cell_formula_units_Z   1
loop_
 _symmetry_equiv_pos_site_id
 _symmetry_equiv_pos_as_xyz
  1  'x, y, z'
loop_
 _atom_site_type_symbol
 _atom_site_label
 _atom_site_symmetry_multiplicity
 _atom_site_fract_x
 _atom_site_fract_y
 _atom_site_fract_z
 _atom_site_occupancy
  Na  Na0  1  0.00000000  0.00000000  0.00000000  1
  Hf  Hf1  1  0.20797300  0.20797300  0.37518500  1
  Hf  Hf2  1  0.54181800  0.87488100  0.37541300  1
  Hf  Hf3  1  0.87488100  0.54181800  0.37541300  1
  Hf  Hf4  1  0.12511900  0.45818200  0.62458700  1
  Hf  Hf5  1  0.45818200  0.12511900  0.62458700  1
  Hf  Hf6  1  0.79202700  0.79202700  0.62481500  1
  N  N7  1  0.13699100  0.13699100  0.58900100  1
  N  N8  1  0.47027200  0.80355200  0.58932700  1
  N  N9  1  0.80355200  0.47027200  0.58932700  1
  N  N10  1  0.19644800  0.52972800  0.41067300  1
  N  N11  1  0.52972800  0.19644800  0.41067300  1
  N  N12  1  0.86300900  0.86300900  0.41099900  1
  Cl  Cl13  1  0.06096100  0.72739000  0.81714400  1
  Cl  Cl14  1  0.39451000  0.39451000  0.81714600  1
  Cl  Cl15  1  0.72739000  0.06096100  0.81714400  1
  Cl  Cl16  1  0.27261000  0.93903900  0.18285600  1
  Cl  Cl17  1  0.60549000  0.60549000  0.18285400  1
  Cl  Cl18  1  0.93903900  0.27261000  0.18285600  1
