# generated using pymatgen
data_NaSr6H17Pd2O17
_symmetry_space_group_name_H-M   'P 1'
_cell_length_a   7.03498050
_cell_length_b   13.68165720
_cell_length_c   19.76009222
_cell_angle_alpha   90.00000000
_cell_angle_beta   90.00000000
_cell_angle_gamma   89.64133082
_symmetry_Int_Tables_number   1
_chemical_formula_structural   NaSr6H17Pd2O17
_chemical_formula_sum   'Na4 Sr24 H68 Pd8 O68'
_cell_volume   1901.87539821
_cell_formula_units_Z   4
loop_
 _symmetry_equiv_pos_site_id
 _symmetry_equiv_pos_as_xyz
  1  'x, y, z'
loop_
 _atom_site_type_symbol
 _atom_site_label
 _atom_site_symmetry_multiplicity
 _atom_site_fract_x
 _atom_site_fract_y
 _atom_site_fract_z
 _atom_site_occupancy
  Na  Na0  1  0.24788641  0.25190642  0.99979283  1
  Na  Na1  1  0.75211359  0.24809358  0.49979283  1
  Na  Na2  1  0.75211359  0.74809358  0.00020717  1
  Na  Na3  1  0.24788641  0.75190642  0.50020717  1
  Sr  Sr4  1  0.06435699  0.44888711  0.91334401  1
  Sr  Sr5  1  0.56217355  0.05678979  0.58357486  1
  Sr  Sr6  1  0.93564301  0.05111289  0.41334401  1
  Sr  Sr7  1  0.43782645  0.44321021  0.08357486  1
  Sr  Sr8  1  0.93564301  0.55111289  0.08665599  1
  Sr  Sr9  1  0.43782645  0.94321021  0.41642514  1
  Sr  Sr10  1  0.06435699  0.94888711  0.58665599  1
  Sr  Sr11  1  0.56217355  0.55678979  0.91642514  1
  Sr  Sr12  1  0.44841088  0.25219648  0.71411108  1
  Sr  Sr13  1  0.94810617  0.24885757  0.78582918  1
  Sr  Sr14  1  0.55158912  0.24780352  0.21411108  1
  Sr  Sr15  1  0.05189383  0.25114243  0.28582918  1
  Sr  Sr16  1  0.55158912  0.74780352  0.28588892  1
  Sr  Sr17  1  0.05189383  0.75114243  0.21417082  1
  Sr  Sr18  1  0.44841088  0.75219648  0.78588892  1
  Sr  Sr19  1  0.94810617  0.74885757  0.71417082  1
  Sr  Sr20  1  0.08242685  0.06409917  0.91469057  1
  Sr  Sr21  1  0.58293268  0.43564854  0.58561197  1
  Sr  Sr22  1  0.91757315  0.43590083  0.41469057  1
  Sr  Sr23  1  0.41706732  0.06435146  0.08561197  1
  Sr  Sr24  1  0.91757315  0.93590083  0.08530943  1
  Sr  Sr25  1  0.41706732  0.56435146  0.41438803  1
  Sr  Sr26  1  0.08242685  0.56409917  0.58530943  1
  Sr  Sr27  1  0.58293268  0.93564854  0.91438803  1
  H  H28  1  0.32549943  0.36715934  0.83456625  1
  H  H29  1  0.82460177  0.13305868  0.66517051  1
  H  H30  1  0.67450057  0.13284066  0.33456625  1
  H  H31  1  0.17539823  0.36694132  0.16517051  1
  H  H32  1  0.67450057  0.63284066  0.16543375  1
  H  H33  1  0.17539823  0.86694132  0.33482949  1
  H  H34  1  0.32549943  0.86715934  0.66543375  1
  H  H35  1  0.82460177  0.63305868  0.83482949  1
  H  H36  1  0.36335267  0.14884916  0.82252364  1
  H  H37  1  0.86324828  0.35053843  0.67783335  1
  H  H38  1  0.63664733  0.35115084  0.32252364  1
  H  H39  1  0.13675172  0.14946157  0.17783335  1
  H  H40  1  0.63664733  0.85115084  0.17747636  1
  H  H41  1  0.13675172  0.64946157  0.32216665  1
  H  H42  1  0.36335267  0.64884916  0.67747636  1
  H  H43  1  0.86324828  0.85053843  0.82216665  1
  H  H44  1  0.37436132  0.25109308  0.57131620  1
  H  H45  1  0.86945202  0.24569694  0.92681429  1
  H  H46  1  0.62563868  0.24890692  0.07131620  1
  H  H47  1  0.13054798  0.25430306  0.42681429  1
  H  H48  1  0.62563868  0.74890692  0.42868380  1
  H  H49  1  0.13054798  0.75430306  0.07318571  1
  H  H50  1  0.37436132  0.75109308  0.92868380  1
  H  H51  1  0.86945202  0.74569694  0.57318571  1
  H  H52  1  0.52249153  0.36940253  0.94492743  1
  H  H53  1  0.02446323  0.13310164  0.55665387  1
  H  H54  1  0.47750847  0.13059747  0.44492743  1
  H  H55  1  0.97553677  0.36689836  0.05665387  1
  H  H56  1  0.47750847  0.63059747  0.05507257  1
  H  H57  1  0.97553677  0.86689836  0.44334613  1
  H  H58  1  0.52249153  0.86940253  0.55507257  1
  H  H59  1  0.02446323  0.63310164  0.94334613  1
  H  H60  1  0.02059876  0.22962398  0.63318908  1
  H  H61  1  0.52000085  0.27098460  0.86733580  1
  H  H62  1  0.97940124  0.27037602  0.13318908  1
  H  H63  1  0.47999915  0.22901540  0.36733580  1
  H  H64  1  0.97940124  0.77037602  0.36681092  1
  H  H65  1  0.47999915  0.72901540  0.13266420  1
  H  H66  1  0.02059876  0.72962398  0.86681092  1
  H  H67  1  0.52000085  0.77098460  0.63266420  1
  H  H68  1  0.18481703  0.12564063  0.66450760  1
  H  H69  1  0.68338800  0.37633135  0.83613214  1
  H  H70  1  0.81518297  0.37435937  0.16450760  1
  H  H71  1  0.31661200  0.12366865  0.33613214  1
  H  H72  1  0.81518297  0.87435937  0.33549240  1
  H  H73  1  0.31661200  0.62366865  0.16386786  1
  H  H74  1  0.18481703  0.62564063  0.83549240  1
  H  H75  1  0.68338800  0.87633135  0.66386786  1
  H  H76  1  0.49484308  0.13793959  0.92944373  1
  H  H77  1  0.99545659  0.36166496  0.57038251  1
  H  H78  1  0.50515692  0.36206041  0.42944373  1
  H  H79  1  0.00454341  0.13833504  0.07038251  1
  H  H80  1  0.50515692  0.86206041  0.07055627  1
  H  H81  1  0.00454341  0.63833504  0.42961749  1
  H  H82  1  0.49484308  0.63793959  0.57055627  1
  H  H83  1  0.99545659  0.86166496  0.92961749  1
  H  H84  1  0.18813191  0.37217328  0.65520513  1
  H  H85  1  0.68869873  0.12803245  0.84464487  1
  H  H86  1  0.81186809  0.12782672  0.15520513  1
  H  H87  1  0.31130127  0.37196755  0.34464487  1
  H  H88  1  0.81186809  0.62782672  0.34479487  1
  H  H89  1  0.31130127  0.87196755  0.15535513  1
  H  H90  1  0.18813191  0.87217328  0.84479487  1
  H  H91  1  0.68869873  0.62803245  0.65535513  1
  H  H92  1  0.23041521  0.63374633  0.01154235  1
  H  H93  1  0.76958479  0.86625367  0.51154235  1
  H  H94  1  0.76958479  0.36625367  0.98845765  1
  H  H95  1  0.23041521  0.13374633  0.48845765  1
  Pd  Pd96  1  0.25828626  0.99922621  0.75387856  1
  Pd  Pd97  1  0.75828322  0.50140032  0.74643796  1
  Pd  Pd98  1  0.74171374  0.50077379  0.25387856  1
  Pd  Pd99  1  0.24171678  0.99859968  0.24643796  1
  Pd  Pd100  1  0.74171374  0.00077379  0.24612144  1
  Pd  Pd101  1  0.24171678  0.49859968  0.25356204  1
  Pd  Pd102  1  0.25828626  0.49922621  0.74612144  1
  Pd  Pd103  1  0.75828322  0.00140032  0.75356204  1
  O  O104  1  0.24124447  0.13362163  0.80053538  1
  O  O105  1  0.74138144  0.36668951  0.70011251  1
  O  O106  1  0.75875553  0.36637837  0.30053538  1
  O  O107  1  0.25861856  0.13331049  0.20011251  1
  O  O108  1  0.75875553  0.86637837  0.19946462  1
  O  O109  1  0.25861856  0.63331049  0.29988749  1
  O  O110  1  0.24124447  0.63362163  0.69946462  1
  O  O111  1  0.74138144  0.86668951  0.79988749  1
  O  O112  1  0.27028532  0.43255497  0.65280895  1
  O  O113  1  0.77106939  0.06732870  0.84719438  1
  O  O114  1  0.72971468  0.06744503  0.15280895  1
  O  O115  1  0.22893061  0.43267130  0.34719438  1
  O  O116  1  0.72971468  0.56744503  0.34719105  1
  O  O117  1  0.22893061  0.93267130  0.15280562  1
  O  O118  1  0.27028532  0.93255497  0.84719105  1
  O  O119  1  0.77106939  0.56732870  0.65280562  1
  O  O120  1  0.50720594  0.24654724  0.58495205  1
  O  O121  1  0.00286287  0.25660708  0.91619643  1
  O  O122  1  0.49279406  0.25345276  0.08495205  1
  O  O123  1  0.99713713  0.24339292  0.41619643  1
  O  O124  1  0.49279406  0.75345276  0.41504795  1
  O  O125  1  0.99713713  0.74339292  0.08380357  1
  O  O126  1  0.50720594  0.74654724  0.91504795  1
  O  O127  1  0.00286287  0.75660708  0.58380357  1
  O  O128  1  0.26609640  0.06677274  0.66136149  1
  O  O129  1  0.76300713  0.43519262  0.83950454  1
  O  O130  1  0.73390360  0.43322726  0.16136149  1
  O  O131  1  0.23699287  0.06480738  0.33950454  1
  O  O132  1  0.73390360  0.93322726  0.33863851  1
  O  O133  1  0.23699287  0.56480738  0.16049546  1
  O  O134  1  0.26609640  0.56677274  0.83863851  1
  O  O135  1  0.76300713  0.93519262  0.66049546  1
  O  O136  1  0.24179580  0.36621364  0.79422683  1
  O  O137  1  0.74326808  0.13479664  0.70626421  1
  O  O138  1  0.75820420  0.13378636  0.29422683  1
  O  O139  1  0.25673192  0.36520336  0.20626421  1
  O  O140  1  0.75820420  0.63378636  0.20577317  1
  O  O141  1  0.25673192  0.86520336  0.29373579  1
  O  O142  1  0.24179580  0.86621364  0.70577317  1
  O  O143  1  0.74326808  0.63479664  0.79373579  1
  O  O144  1  0.39261855  0.37661905  0.92856761  1
  O  O145  1  0.89612536  0.12675209  0.57462961  1
  O  O146  1  0.60738145  0.12338095  0.42856761  1
  O  O147  1  0.10387464  0.37324791  0.07462961  1
  O  O148  1  0.60738145  0.62338095  0.07143239  1
  O  O149  1  0.10387464  0.87324791  0.42537039  1
  O  O150  1  0.39261855  0.87661905  0.57143239  1
  O  O151  1  0.89612536  0.62675209  0.92537039  1
  O  O152  1  0.24870168  0.56508845  0.00043215  1
  O  O153  1  0.75129832  0.93491155  0.50043215  1
  O  O154  1  0.75129832  0.43491155  0.99956785  1
  O  O155  1  0.24870168  0.06508845  0.49956785  1
  O  O156  1  0.09572448  0.26432139  0.66738590  1
  O  O157  1  0.59616396  0.23687034  0.83305401  1
  O  O158  1  0.90427552  0.23567861  0.16738590  1
  O  O159  1  0.40383604  0.26312966  0.33305401  1
  O  O160  1  0.90427552  0.73567861  0.33261410  1
  O  O161  1  0.40383604  0.76312966  0.16694599  1
  O  O162  1  0.09572448  0.76432139  0.83261410  1
  O  O163  1  0.59616396  0.73687034  0.66694599  1
  O  O164  1  0.42239466  0.09295836  0.95731047  1
  O  O165  1  0.92416200  0.40759929  0.54250938  1
  O  O166  1  0.57760534  0.40704164  0.45731047  1
  O  O167  1  0.07583800  0.09240071  0.04250938  1
  O  O168  1  0.57760534  0.90704164  0.04268953  1
  O  O169  1  0.07583800  0.59240071  0.45749062  1
  O  O170  1  0.42239466  0.59295836  0.54268953  1
  O  O171  1  0.92416200  0.90759929  0.95749062  1
