# generated using pymatgen
data_MnF4
_symmetry_space_group_name_H-M   'P 1'
_cell_length_a   5.08908000
_cell_length_b   5.36411634
_cell_length_c   7.26927533
_cell_angle_alpha   94.51744608
_cell_angle_beta   90.85744202
_cell_angle_gamma   90.02033721
_symmetry_Int_Tables_number   1
_chemical_formula_structural   MnF4
_chemical_formula_sum   'Mn3 F12'
_cell_volume   197.80085148
_cell_formula_units_Z   3
loop_
 _symmetry_equiv_pos_site_id
 _symmetry_equiv_pos_as_xyz
  1  'x, y, z'
loop_
 _atom_site_type_symbol
 _atom_site_label
 _atom_site_symmetry_multiplicity
 _atom_site_fract_x
 _atom_site_fract_y
 _atom_site_fract_z
 _atom_site_occupancy
  Mn  Mn0  1  0.50000000  0.50000000  0.00000000  1
  Mn  Mn1  1  0.00000000  0.00000000  0.00000000  1
  Mn  Mn2  1  0.50000000  0.50000000  0.50000000  1
  F  F3  1  0.67159900  0.78448400  0.55547700  1
  F  F4  1  0.17907000  0.30487300  0.06260000  1
  F  F5  1  0.11312700  0.00014300  0.76915200  1
  F  F6  1  0.62367900  0.50058900  0.24638100  1
  F  F7  1  0.21514200  0.66987700  0.44406100  1
  F  F8  1  0.69566700  0.18112500  0.93709400  1
  F  F9  1  0.88687300  0.99985700  0.23084800  1
  F  F10  1  0.37632100  0.49941100  0.75361900  1
  F  F11  1  0.78485800  0.33012300  0.55593900  1
  F  F12  1  0.30433300  0.81887500  0.06290600  1
  F  F13  1  0.32840100  0.21551600  0.44452300  1
  F  F14  1  0.82093000  0.69512700  0.93740000  1
