# generated using pymatgen
data_NaCaMgAl(SiO3)4
_symmetry_space_group_name_H-M   'P 1'
_cell_length_a   6.56482116
_cell_length_b   6.56482116
_cell_length_c   5.31949563
_cell_angle_alpha   77.24146721
_cell_angle_beta   77.24146721
_cell_angle_gamma   84.76290421
_symmetry_Int_Tables_number   1
_chemical_formula_structural   NaCaMgAl(SiO3)4
_chemical_formula_sum   'Na1 Ca1 Mg1 Al1 Si4 O12'
_cell_volume   217.85477645
_cell_formula_units_Z   1
loop_
 _symmetry_equiv_pos_site_id
 _symmetry_equiv_pos_as_xyz
  1  'x, y, z'
loop_
 _atom_site_type_symbol
 _atom_site_label
 _atom_site_symmetry_multiplicity
 _atom_site_fract_x
 _atom_site_fract_y
 _atom_site_fract_z
 _atom_site_occupancy
  Na  Na0  1  0.29954100  0.70045900  0.50000000  1
  Ca  Ca1  1  0.69908300  0.30091700  0.00000000  1
  Mg  Mg2  1  0.90998700  0.09001300  0.50000000  1
  Al  Al3  1  0.09877600  0.90122400  0.00000000  1
  Si  Si4  1  0.80578800  0.62261600  0.47100600  1
  Si  Si5  1  0.37738400  0.19421200  0.52899400  1
  Si  Si6  1  0.19575400  0.38447100  0.01773500  1
  Si  Si7  1  0.61552900  0.80424600  0.98226500  1
  O  O8  1  0.89356400  0.38804600  0.56106300  1
  O  O9  1  0.61195400  0.10643600  0.43893700  1
  O  O10  1  0.10503800  0.62220900  0.94798000  1
  O  O11  1  0.37779100  0.89496200  0.05202000  1
  O  O12  1  0.97307900  0.80784000  0.36124600  1
  O  O13  1  0.19216000  0.02692100  0.63875400  1
  O  O14  1  0.03409400  0.19350800  0.09695800  1
  O  O15  1  0.80649200  0.96590600  0.90304200  1
  O  O16  1  0.65678900  0.62962800  0.25084400  1
  O  O17  1  0.37037200  0.34321100  0.74915600  1
  O  O18  1  0.33431200  0.35748600  0.25037800  1
  O  O19  1  0.64251400  0.66568800  0.74962200  1
