# generated using pymatgen
data_Na2Sr2Nb4O13
_symmetry_space_group_name_H-M   'P 1'
_cell_length_a   7.55667150
_cell_length_b   7.55667150
_cell_length_c   7.55667150
_cell_angle_alpha   120.13497106
_cell_angle_beta   119.69816989
_cell_angle_gamma   90.14498023
_symmetry_Int_Tables_number   1
_chemical_formula_structural   Na2Sr2Nb4O13
_chemical_formula_sum   'Na2 Sr2 Nb4 O13'
_cell_volume   305.50236696
_cell_formula_units_Z   1
loop_
 _symmetry_equiv_pos_site_id
 _symmetry_equiv_pos_as_xyz
  1  'x, y, z'
loop_
 _atom_site_type_symbol
 _atom_site_label
 _atom_site_symmetry_multiplicity
 _atom_site_fract_x
 _atom_site_fract_y
 _atom_site_fract_z
 _atom_site_occupancy
  Na  Na0  1  0.75828100  0.98813500  0.22985400  1
  Na  Na1  1  0.75828100  0.52842800  0.77014600  1
  Sr  Sr2  1  0.75246600  0.99131500  0.76115200  1
  Sr  Sr3  1  0.23016300  0.99131500  0.23884800  1
  Nb  Nb4  1  0.24990000  0.49929200  0.24939200  1
  Nb  Nb5  1  0.24990000  0.00050900  0.75060800  1
  Nb  Nb6  1  0.25009400  0.50053300  0.74956100  1
  Nb  Nb7  1  0.75097200  0.50053300  0.25043900  1
  O  O8  1  0.18331300  0.18331300  0.00000000  1
  O  O9  1  0.55919400  0.55919400  0.00000000  1
  O  O10  1  0.19008500  0.56526400  0.00411000  1
  O  O11  1  0.56115400  0.18597500  0.99589000  1
  O  O12  1  0.19008500  0.18597500  0.62482100  1
  O  O13  1  0.56115400  0.56526400  0.37517900  1
  O  O14  1  0.32035000  0.82035000  0.50000000  1
  O  O15  1  0.93477200  0.43477200  0.50000000  1
  O  O16  1  0.31614600  0.42927300  0.49693900  1
  O  O17  1  0.93233400  0.81920700  0.50306100  1
  O  O18  1  0.31614600  0.81920700  0.88687300  1
  O  O19  1  0.93233400  0.42927300  0.11312700  1
  O  O20  1  0.87787300  0.87787300  0.00000000  1
