# generated using pymatgen
data_Mn10(SiGe)3
_symmetry_space_group_name_H-M   'P 1'
_cell_length_a   7.01870763
_cell_length_b   7.01870763
_cell_length_c   4.88496400
_cell_angle_alpha   90.00000000
_cell_angle_beta   90.00000000
_cell_angle_gamma   119.99999649
_symmetry_Int_Tables_number   1
_chemical_formula_structural   Mn10(SiGe)3
_chemical_formula_sum   'Mn10 Si3 Ge3'
_cell_volume   208.40412849
_cell_formula_units_Z   1
loop_
 _symmetry_equiv_pos_site_id
 _symmetry_equiv_pos_as_xyz
  1  'x, y, z'
loop_
 _atom_site_type_symbol
 _atom_site_label
 _atom_site_symmetry_multiplicity
 _atom_site_fract_x
 _atom_site_fract_y
 _atom_site_fract_z
 _atom_site_occupancy
  Mn  Mn0  1  0.00000000  0.75652900  0.00000000  1
  Mn  Mn1  1  0.24347100  0.24347100  0.00000000  1
  Mn  Mn2  1  0.75652900  0.00000000  0.00000000  1
  Mn  Mn3  1  0.00000000  0.24310000  0.50000000  1
  Mn  Mn4  1  0.75690000  0.75690000  0.50000000  1
  Mn  Mn5  1  0.24310000  0.00000000  0.50000000  1
  Mn  Mn6  1  0.33333300  0.66666700  0.25575600  1
  Mn  Mn7  1  0.66666700  0.33333300  0.25575600  1
  Mn  Mn8  1  0.66666700  0.33333300  0.74424400  1
  Mn  Mn9  1  0.33333300  0.66666700  0.74424400  1
  Si  Si10  1  0.00000000  0.60496700  0.50000000  1
  Si  Si11  1  0.39503300  0.39503300  0.50000000  1
  Si  Si12  1  0.60496700  0.00000000  0.50000000  1
  Ge  Ge13  1  0.00000000  0.39823100  0.00000000  1
  Ge  Ge14  1  0.60176900  0.60176900  0.00000000  1
  Ge  Ge15  1  0.39823100  0.00000000  0.00000000  1
