# generated using pymatgen
data_MnCdHgTe3
_symmetry_space_group_name_H-M   'P 1'
_cell_length_a   4.63190721
_cell_length_b   6.50681439
_cell_length_c   7.99472502
_cell_angle_alpha   114.12365351
_cell_angle_beta   106.83912160
_cell_angle_gamma   90.00000000
_symmetry_Int_Tables_number   1
_chemical_formula_structural   MnCdHgTe3
_chemical_formula_sum   'Mn1 Cd1 Hg1 Te3'
_cell_volume   208.53767177
_cell_formula_units_Z   1
loop_
 _symmetry_equiv_pos_site_id
 _symmetry_equiv_pos_as_xyz
  1  'x, y, z'
loop_
 _atom_site_type_symbol
 _atom_site_label
 _atom_site_symmetry_multiplicity
 _atom_site_fract_x
 _atom_site_fract_y
 _atom_site_fract_z
 _atom_site_occupancy
  Mn  Mn0  1  0.33356900  0.32979800  0.66713800  1
  Cd  Cd1  1  0.99872600  0.99935500  0.99745300  1
  Hg  Hg2  1  0.66764900  0.66886700  0.33529600  1
  Te  Te3  1  0.49329500  0.73570700  0.98659100  1
  Te  Te4  1  0.17280100  0.41215700  0.34560200  1
  Te  Te5  1  0.83396000  0.10411500  0.66792100  1
