# generated using pymatgen
data_Nd2Te(Mo3O23)2
_symmetry_space_group_name_H-M   'P 1'
_cell_length_a   9.03461400
_cell_length_b   9.87757456
_cell_length_c   12.08375434
_cell_angle_alpha   73.40964853
_cell_angle_beta   82.79534502
_cell_angle_gamma   70.21269376
_symmetry_Int_Tables_number   1
_chemical_formula_structural   Nd2Te(Mo3O23)2
_chemical_formula_sum   'Nd2 Te1 Mo6 O46'
_cell_volume   971.94938146
_cell_formula_units_Z   1
loop_
 _symmetry_equiv_pos_site_id
 _symmetry_equiv_pos_as_xyz
  1  'x, y, z'
loop_
 _atom_site_type_symbol
 _atom_site_label
 _atom_site_symmetry_multiplicity
 _atom_site_fract_x
 _atom_site_fract_y
 _atom_site_fract_z
 _atom_site_occupancy
  Nd  Nd0  1  0.74025400  0.27815400  0.67167000  1
  Nd  Nd1  1  0.25974600  0.72184600  0.32833000  1
  Te  Te2  1  0.50000000  0.00000000  0.50000000  1
  Mo  Mo3  1  0.58640600  0.10093800  0.20866200  1
  Mo  Mo4  1  0.41359400  0.89906200  0.79133800  1
  Mo  Mo5  1  0.26222300  0.31411300  0.32666700  1
  Mo  Mo6  1  0.73777700  0.68588700  0.67333300  1
  Mo  Mo7  1  0.80676100  0.77265800  0.37762100  1
  Mo  Mo8  1  0.19323900  0.22734200  0.62237900  1
  O  O9  1  0.83874400  0.14149300  0.46463400  1
  O  O10  1  0.16125600  0.85850700  0.53536600  1
  O  O11  1  0.14119300  0.33587900  0.22036400  1
  O  O12  1  0.85880700  0.66412100  0.77963600  1
  O  O13  1  0.46505900  0.28734700  0.24761600  1
  O  O14  1  0.53494100  0.71265300  0.75238400  1
  O  O15  1  0.24557900  0.50311500  0.33123700  1
  O  O16  1  0.75442100  0.49688500  0.66876300  1
  O  O17  1  0.86325500  0.73616800  0.53829900  1
  O  O18  1  0.13674500  0.26383200  0.46170100  1
  O  O19  1  0.51850700  0.34750100  0.55514000  1
  O  O20  1  0.48149300  0.65249900  0.44486000  1
  O  O21  1  0.50237100  0.29640000  0.81036400  1
  O  O22  1  0.49762900  0.70360000  0.18963600  1
  O  O23  1  0.79156400  0.23062600  0.93001900  1
  O  O24  1  0.20843600  0.76937400  0.06998100  1
  O  O25  1  0.66983900  0.87794000  0.25284500  1
  O  O26  1  0.33016100  0.12206000  0.74715500  1
  O  O27  1  0.41872500  0.21138800  0.50703400  1
  O  O28  1  0.58127500  0.78861200  0.49296600  1
  O  O29  1  0.81626600  0.11621300  0.89767300  1
  O  O30  1  0.18373400  0.88378700  0.10232700  1
  O  O31  1  0.83413200  0.59374000  0.37222100  1
  O  O32  1  0.16586800  0.40626000  0.62777900  1
  O  O33  1  0.48055300  0.11092900  0.09523500  1
  O  O34  1  0.51944700  0.88907100  0.90476500  1
  O  O35  1  0.84897100  0.06015900  0.57153700  1
  O  O36  1  0.15102900  0.93984100  0.42846300  1
  O  O37  1  0.35566400  0.43457100  0.92383300  1
  O  O38  1  0.64433600  0.56542900  0.07616700  1
  O  O39  1  0.62410600  0.93072500  0.63967200  1
  O  O40  1  0.37589400  0.06927500  0.36032800  1
  O  O41  1  0.77863500  0.28610200  0.45347200  1
  O  O42  1  0.22136500  0.71389800  0.54652800  1
  O  O43  1  0.98808600  0.80972500  0.31876100  1
  O  O44  1  0.01191400  0.19027500  0.68123900  1
  O  O45  1  0.32376900  0.97897200  0.60445200  1
  O  O46  1  0.67623100  0.02102800  0.39554800  1
  O  O47  1  0.42949000  0.43296800  0.82812800  1
  O  O48  1  0.57051000  0.56703200  0.17187200  1
  O  O49  1  0.75351600  0.14524200  0.14829800  1
  O  O50  1  0.24648400  0.85475800  0.85170200  1
  O  O51  1  0.86736300  0.64331400  0.07013200  1
  O  O52  1  0.13263700  0.35668600  0.92986800  1
  O  O53  1  0.84249600  0.77122100  0.01274900  1
  O  O54  1  0.15750400  0.22877900  0.98725100  1
