# generated using pymatgen
data_Pr2(InCu3)3
_symmetry_space_group_name_H-M   'P 1'
_cell_length_a   5.18254000
_cell_length_b   10.80582600
_cell_length_c   17.10350200
_cell_angle_alpha   90.00000000
_cell_angle_beta   90.00000000
_cell_angle_gamma   90.00000000
_symmetry_Int_Tables_number   1
_chemical_formula_structural   Pr2(InCu3)3
_chemical_formula_sum   'Pr8 In12 Cu36'
_cell_volume   957.82391337
_cell_formula_units_Z   4
loop_
 _symmetry_equiv_pos_site_id
 _symmetry_equiv_pos_as_xyz
  1  'x, y, z'
loop_
 _atom_site_type_symbol
 _atom_site_label
 _atom_site_symmetry_multiplicity
 _atom_site_fract_x
 _atom_site_fract_y
 _atom_site_fract_z
 _atom_site_occupancy
  Pr  Pr0  1  0.50000000  0.88915300  0.74445600  1
  Pr  Pr1  1  0.50000000  0.11084700  0.25554400  1
  Pr  Pr2  1  0.00000000  0.61084700  0.24445600  1
  Pr  Pr3  1  0.00000000  0.38915300  0.75554400  1
  Pr  Pr4  1  0.50000000  0.50000000  0.50000000  1
  Pr  Pr5  1  0.00000000  0.00000000  0.00000000  1
  Pr  Pr6  1  0.50000000  0.50000000  0.00000000  1
  Pr  Pr7  1  0.00000000  0.00000000  0.50000000  1
  In  In8  1  0.50000000  0.57636700  0.80771200  1
  In  In9  1  0.50000000  0.42363300  0.19228800  1
  In  In10  1  0.00000000  0.92363300  0.30771200  1
  In  In11  1  0.00000000  0.07636700  0.69228800  1
  In  In12  1  0.50000000  0.80562800  0.55352000  1
  In  In13  1  0.50000000  0.19437200  0.44648000  1
  In  In14  1  0.00000000  0.69437200  0.05352000  1
  In  In15  1  0.00000000  0.30562800  0.94648000  1
  In  In16  1  0.50000000  0.79726900  0.28143500  1
  In  In17  1  0.50000000  0.20273100  0.71856500  1
  In  In18  1  0.00000000  0.70273100  0.78143500  1
  In  In19  1  0.00000000  0.29726900  0.21856500  1
  Cu  Cu20  1  0.50000000  0.65905900  0.14775300  1
  Cu  Cu21  1  0.50000000  0.34094100  0.85224700  1
  Cu  Cu22  1  0.00000000  0.84094100  0.64775300  1
  Cu  Cu23  1  0.00000000  0.15905900  0.35224700  1
  Cu  Cu24  1  0.25646400  0.63205600  0.65347700  1
  Cu  Cu25  1  0.25646400  0.36794400  0.34652300  1
  Cu  Cu26  1  0.24353600  0.86794400  0.15347700  1
  Cu  Cu27  1  0.24353600  0.13205600  0.84652300  1
  Cu  Cu28  1  0.74353600  0.36794400  0.34652300  1
  Cu  Cu29  1  0.74353600  0.63205600  0.65347700  1
  Cu  Cu30  1  0.75646400  0.13205600  0.84652300  1
  Cu  Cu31  1  0.75646400  0.86794400  0.15347700  1
  Cu  Cu32  1  0.50000000  0.95332700  0.40892000  1
  Cu  Cu33  1  0.50000000  0.04667300  0.59108000  1
  Cu  Cu34  1  0.00000000  0.54667300  0.90892000  1
  Cu  Cu35  1  0.00000000  0.45332700  0.09108000  1
  Cu  Cu36  1  0.25610000  0.75663500  0.91192200  1
  Cu  Cu37  1  0.25610000  0.24336500  0.08807800  1
  Cu  Cu38  1  0.24390000  0.74336500  0.41192200  1
  Cu  Cu39  1  0.24390000  0.25663500  0.58807800  1
  Cu  Cu40  1  0.74390000  0.24336500  0.08807800  1
  Cu  Cu41  1  0.74390000  0.75663500  0.91192200  1
  Cu  Cu42  1  0.75610000  0.25663500  0.58807800  1
  Cu  Cu43  1  0.75610000  0.74336500  0.41192200  1
  Cu  Cu44  1  0.50000000  0.56670100  0.33351800  1
  Cu  Cu45  1  0.50000000  0.43329900  0.66648200  1
  Cu  Cu46  1  0.00000000  0.93329900  0.83351800  1
  Cu  Cu47  1  0.00000000  0.06670100  0.16648200  1
  Cu  Cu48  1  0.50000000  0.80957200  0.03436800  1
  Cu  Cu49  1  0.50000000  0.19042800  0.96563200  1
  Cu  Cu50  1  0.00000000  0.69042800  0.53436800  1
  Cu  Cu51  1  0.00000000  0.30957200  0.46563200  1
  Cu  Cu52  1  0.50000000  0.95879700  0.91375600  1
  Cu  Cu53  1  0.50000000  0.04120300  0.08624400  1
  Cu  Cu54  1  0.00000000  0.54120300  0.41375600  1
  Cu  Cu55  1  0.00000000  0.45879700  0.58624400  1
