# generated using pymatgen
data_Na2Cu2Si5(H3O8)2
_symmetry_space_group_name_H-M   'P 1'
_cell_length_a   5.26147200
_cell_length_b   11.37238700
_cell_length_c   15.65180700
_cell_angle_alpha   49.37487383
_cell_angle_beta   90.00000000
_cell_angle_gamma   90.00000000
_symmetry_Int_Tables_number   1
_chemical_formula_structural   Na2Cu2Si5(H3O8)2
_chemical_formula_sum   'Na4 Cu4 Si10 H12 O32'
_cell_volume   710.81577204
_cell_formula_units_Z   2
loop_
 _symmetry_equiv_pos_site_id
 _symmetry_equiv_pos_as_xyz
  1  'x, y, z'
loop_
 _atom_site_type_symbol
 _atom_site_label
 _atom_site_symmetry_multiplicity
 _atom_site_fract_x
 _atom_site_fract_y
 _atom_site_fract_z
 _atom_site_occupancy
  Na  Na0  1  0.28370600  0.17965700  0.05923600  1
  Na  Na1  1  0.73232300  0.84331400  0.93259400  1
  Na  Na2  1  0.26767700  0.84331400  0.43259400  1
  Na  Na3  1  0.71629400  0.17965700  0.55923600  1
  Cu  Cu4  1  0.76296400  0.05879600  0.01867500  1
  Cu  Cu5  1  0.24118300  0.94450800  0.98166600  1
  Cu  Cu6  1  0.75881700  0.94450800  0.48166600  1
  Cu  Cu7  1  0.23703600  0.05879600  0.51867500  1
  Si  Si8  1  0.45649600  0.32772200  0.79003800  1
  Si  Si9  1  0.54381300  0.67219600  0.21068600  1
  Si  Si10  1  0.45618700  0.67219600  0.71068600  1
  Si  Si11  1  0.54350400  0.32772200  0.29003800  1
  Si  Si12  1  0.80574600  0.99817700  0.25057900  1
  Si  Si13  1  0.19425400  0.99817700  0.75057900  1
  Si  Si14  1  0.05553300  0.78645800  0.23310400  1
  Si  Si15  1  0.94672500  0.21396500  0.76674300  1
  Si  Si16  1  0.05327500  0.21396500  0.26674300  1
  Si  Si17  1  0.94446700  0.78645800  0.73310400  1
  H  H18  1  0.02307900  0.44908600  0.87443700  1
  H  H19  1  0.97713000  0.54276000  0.13045300  1
  H  H20  1  0.02287000  0.54276000  0.63045300  1
  H  H21  1  0.97692100  0.44908600  0.37443700  1
  H  H22  1  0.81684500  0.35769900  0.96961800  1
  H  H23  1  0.16545600  0.64494100  0.02934700  1
  H  H24  1  0.83454400  0.64494100  0.52934700  1
  H  H25  1  0.18315500  0.35769900  0.46961800  1
  H  H26  1  0.49971000  0.38142100  0.08353600  1
  H  H27  1  0.50029000  0.38142100  0.58353600  1
  H  H28  1  0.53624100  0.51332900  0.95165800  1
  H  H29  1  0.46375900  0.51332900  0.45165800  1
  O  O30  1  0.17838500  0.33485900  0.73539600  1
  O  O31  1  0.82282900  0.66687200  0.26313000  1
  O  O32  1  0.17717100  0.66687200  0.76313000  1
  O  O33  1  0.82161500  0.33485900  0.23539600  1
  O  O34  1  0.64248500  0.03499500  0.14820000  1
  O  O35  1  0.35451400  0.95671800  0.85552500  1
  O  O36  1  0.64548600  0.95671800  0.35552500  1
  O  O37  1  0.35751500  0.03499500  0.64820000  1
  O  O38  1  0.96298800  0.34403500  0.93696400  1
  O  O39  1  0.01340100  0.65000300  0.06227700  1
  O  O40  1  0.98659900  0.65000300  0.56227700  1
  O  O41  1  0.03701200  0.34403500  0.43696400  1
  O  O42  1  0.00711500  0.14705700  0.20118700  1
  O  O43  1  0.99190100  0.84908900  0.80168300  1
  O  O44  1  0.00809900  0.84908900  0.30168300  1
  O  O45  1  0.99288500  0.14705700  0.70118700  1
  O  O46  1  0.32037400  0.31569100  0.21925800  1
  O  O47  1  0.67846200  0.68509500  0.78045200  1
  O  O48  1  0.32153800  0.68509500  0.28045200  1
  O  O49  1  0.67962600  0.31569100  0.71925800  1
  O  O50  1  0.48626200  0.49986000  0.75007500  1
  O  O51  1  0.51373800  0.49986000  0.25007500  1
  O  O52  1  0.47035800  0.18477600  0.92301100  1
  O  O53  1  0.52569300  0.81018600  0.07668200  1
  O  O54  1  0.47430700  0.81018600  0.57668200  1
  O  O55  1  0.52964200  0.18477600  0.42301100  1
  O  O56  1  0.92583000  0.06510800  0.90097300  1
  O  O57  1  0.07687600  0.93717900  0.09921100  1
  O  O58  1  0.92312400  0.93717900  0.59921100  1
  O  O59  1  0.07417000  0.06510800  0.40097300  1
  O  O60  1  0.53425100  0.40104900  0.01340900  1
  O  O61  1  0.46574900  0.40104900  0.51340900  1
