# generated using pymatgen
data_Na4P4H10N4O11
_symmetry_space_group_name_H-M   'P 1'
_cell_length_a   8.52586572
_cell_length_b   8.61273535
_cell_length_c   10.30633469
_cell_angle_alpha   83.33479778
_cell_angle_beta   75.83881929
_cell_angle_gamma   87.66084361
_symmetry_Int_Tables_number   1
_chemical_formula_structural   Na4P4H10N4O11
_chemical_formula_sum   'Na8 P8 H20 N8 O22'
_cell_volume   728.78627282
_cell_formula_units_Z   2
loop_
 _symmetry_equiv_pos_site_id
 _symmetry_equiv_pos_as_xyz
  1  'x, y, z'
loop_
 _atom_site_type_symbol
 _atom_site_label
 _atom_site_symmetry_multiplicity
 _atom_site_fract_x
 _atom_site_fract_y
 _atom_site_fract_z
 _atom_site_occupancy
  Na  Na0  1  0.16500100  0.62754900  0.05673200  1
  Na  Na1  1  0.83499900  0.37245100  0.94326800  1
  Na  Na2  1  0.95240800  0.67978600  0.41137200  1
  Na  Na3  1  0.04759200  0.32021400  0.58862800  1
  Na  Na4  1  0.47057200  0.38234000  0.89396500  1
  Na  Na5  1  0.52942800  0.61766000  0.10603500  1
  Na  Na6  1  0.90371100  0.07444800  0.39723200  1
  Na  Na7  1  0.09628900  0.92555200  0.60276800  1
  P  P8  1  0.27626700  0.26753000  0.23745100  1
  P  P9  1  0.72373300  0.73247000  0.76254900  1
  P  P10  1  0.63577400  0.90621200  0.26074500  1
  P  P11  1  0.36422600  0.09378800  0.73925500  1
  P  P12  1  0.28237500  0.91163300  0.24874600  1
  P  P13  1  0.71762500  0.08836700  0.75125400  1
  P  P14  1  0.61849600  0.26013500  0.27017200  1
  P  P15  1  0.38150400  0.73986500  0.72982800  1
  H  H16  1  0.00178600  0.42929800  0.26502700  1
  H  H17  1  0.99821400  0.57070200  0.73497300  1
  H  H18  1  0.85253500  0.49838800  0.21269100  1
  H  H19  1  0.14746500  0.50161200  0.78730900  1
  H  H20  1  0.67199900  0.10991900  0.09307900  1
  H  H21  1  0.32800100  0.89008100  0.90692100  1
  H  H22  1  0.37867500  0.21262400  0.42693700  1
  H  H23  1  0.62132500  0.78737600  0.57306300  1
  H  H24  1  0.87540900  0.81508400  0.04346000  1
  H  H25  1  0.12459100  0.18491600  0.95654000  1
  H  H26  1  0.00346100  0.89114700  0.91726400  1
  H  H27  1  0.99653900  0.10885300  0.08273600  1
  H  H28  1  0.32434400  0.10577800  0.06719600  1
  H  H29  1  0.67565600  0.89422200  0.93280400  1
  H  H30  1  0.75331700  0.38891200  0.47342200  1
  H  H31  1  0.24668300  0.61108800  0.52657800  1
  H  H32  1  0.40140600  0.85042700  0.42900100  1
  H  H33  1  0.59859400  0.14957300  0.57099900  1
  H  H34  1  0.71043800  0.51312800  0.57787800  1
  H  H35  1  0.28956200  0.48687200  0.42212200  1
  N  N36  1  0.43555600  0.88625600  0.32740800  1
  N  N37  1  0.56444400  0.11374400  0.67259200  1
  N  N38  1  0.29845600  0.09587800  0.17000700  1
  N  N39  1  0.70154400  0.90412200  0.82999300  1
  N  N40  1  0.41485400  0.27019200  0.33115900  1
  N  N41  1  0.58514600  0.72980800  0.66884100  1
  N  N42  1  0.66869100  0.09560800  0.19371100  1
  N  N43  1  0.33130900  0.90439200  0.80628900  1
  O  O44  1  0.98946000  0.80699700  0.98992200  1
  O  O45  1  0.01054000  0.19300300  0.01007800  1
  O  O46  1  0.95642200  0.52758500  0.22747200  1
  O  O47  1  0.04357800  0.47241500  0.77252800  1
  O  O48  1  0.11242700  0.27299000  0.33693900  1
  O  O49  1  0.88757300  0.72701000  0.66306100  1
  O  O50  1  0.72057300  0.87105200  0.37413000  1
  O  O51  1  0.27942700  0.12894800  0.62587000  1
  O  O52  1  0.68909800  0.24607300  0.39236500  1
  O  O53  1  0.31090200  0.75392700  0.60763500  1
  O  O54  1  0.12776000  0.89918400  0.36060100  1
  O  O55  1  0.87224000  0.10081600  0.63939900  1
  O  O56  1  0.80108700  0.45708600  0.52474600  1
  O  O57  1  0.19891300  0.54291400  0.47525400  1
  O  O58  1  0.67164300  0.39564000  0.16239300  1
  O  O59  1  0.32835700  0.60436000  0.83760700  1
  O  O60  1  0.68466300  0.81599500  0.13832800  1
  O  O61  1  0.31533700  0.18400500  0.86167200  1
  O  O62  1  0.31952800  0.39636900  0.12184100  1
  O  O63  1  0.68047200  0.60363100  0.87815900  1
  O  O64  1  0.30650400  0.80529200  0.13789200  1
  O  O65  1  0.69349600  0.19470800  0.86210800  1
