# generated using pymatgen
data_Na2Mg5(Si2O5)6
_symmetry_space_group_name_H-M   'P 1'
_cell_length_a   10.27426705
_cell_length_b   10.27426705
_cell_length_c   14.42287300
_cell_angle_alpha   90.00000000
_cell_angle_beta   90.00000000
_cell_angle_gamma   119.99999390
_symmetry_Int_Tables_number   1
_chemical_formula_structural   Na2Mg5(Si2O5)6
_chemical_formula_sum   'Na4 Mg10 Si24 O60'
_cell_volume   1318.51215429
_cell_formula_units_Z   2
loop_
 _symmetry_equiv_pos_site_id
 _symmetry_equiv_pos_as_xyz
  1  'x, y, z'
loop_
 _atom_site_type_symbol
 _atom_site_label
 _atom_site_symmetry_multiplicity
 _atom_site_fract_x
 _atom_site_fract_y
 _atom_site_fract_z
 _atom_site_occupancy
  Na  Na0  1  0.66666700  0.33333300  0.75000000  1
  Na  Na1  1  0.33333300  0.66666700  0.25000000  1
  Na  Na2  1  0.00000000  0.00000000  0.00000000  1
  Na  Na3  1  0.00000000  0.00000000  0.50000000  1
  Mg  Mg4  1  0.33333300  0.66666700  0.99615700  1
  Mg  Mg5  1  0.33333300  0.66666700  0.50384300  1
  Mg  Mg6  1  0.66666700  0.33333300  0.49615700  1
  Mg  Mg7  1  0.66666700  0.33333300  0.00384300  1
  Mg  Mg8  1  0.50041300  0.50041300  0.00000000  1
  Mg  Mg9  1  0.49958700  0.00000000  0.00000000  1
  Mg  Mg10  1  0.00000000  0.49958700  0.00000000  1
  Mg  Mg11  1  0.50041300  0.50041300  0.50000000  1
  Mg  Mg12  1  0.49958700  0.00000000  0.50000000  1
  Mg  Mg13  1  0.00000000  0.49958700  0.50000000  1
  Si  Si14  1  0.76419200  0.64958400  0.86084100  1
  Si  Si15  1  0.35041600  0.11460800  0.86084100  1
  Si  Si16  1  0.88539200  0.23580800  0.86084100  1
  Si  Si17  1  0.76419200  0.64958400  0.63915900  1
  Si  Si18  1  0.35041600  0.11460800  0.63915900  1
  Si  Si19  1  0.88539200  0.23580800  0.63915900  1
  Si  Si20  1  0.64958400  0.76419200  0.36084100  1
  Si  Si21  1  0.11460800  0.35041600  0.36084100  1
  Si  Si22  1  0.23580800  0.88539200  0.36084100  1
  Si  Si23  1  0.64958400  0.76419200  0.13915900  1
  Si  Si24  1  0.11460800  0.35041600  0.13915900  1
  Si  Si25  1  0.23580800  0.88539200  0.13915900  1
  Si  Si26  1  0.23739900  0.35273800  0.63972700  1
  Si  Si27  1  0.64726200  0.88466100  0.63972700  1
  Si  Si28  1  0.11533900  0.76260100  0.63972700  1
  Si  Si29  1  0.23739900  0.35273800  0.86027300  1
  Si  Si30  1  0.64726200  0.88466100  0.86027300  1
  Si  Si31  1  0.11533900  0.76260100  0.86027300  1
  Si  Si32  1  0.35273800  0.23739900  0.13972700  1
  Si  Si33  1  0.88466100  0.64726200  0.13972700  1
  Si  Si34  1  0.76260100  0.11533900  0.13972700  1
  Si  Si35  1  0.35273800  0.23739900  0.36027300  1
  Si  Si36  1  0.88466100  0.64726200  0.36027300  1
  Si  Si37  1  0.76260100  0.11533900  0.36027300  1
  O  O38  1  0.94315900  0.72574000  0.88489900  1
  O  O39  1  0.27426000  0.21741900  0.88489900  1
  O  O40  1  0.78258100  0.05684100  0.88489900  1
  O  O41  1  0.94315900  0.72574000  0.61510100  1
  O  O42  1  0.27426000  0.21741900  0.61510100  1
  O  O43  1  0.78258100  0.05684100  0.61510100  1
  O  O44  1  0.72574000  0.94315900  0.38489900  1
  O  O45  1  0.21741900  0.27426000  0.38489900  1
  O  O46  1  0.05684100  0.78258100  0.38489900  1
  O  O47  1  0.72574000  0.94315900  0.11510100  1
  O  O48  1  0.21741900  0.27426000  0.11510100  1
  O  O49  1  0.05684100  0.78258100  0.11510100  1
  O  O50  1  0.05721600  0.27480600  0.61503900  1
  O  O51  1  0.72519400  0.78240900  0.61503900  1
  O  O52  1  0.21759100  0.94278400  0.61503900  1
  O  O53  1  0.05721600  0.27480600  0.88496100  1
  O  O54  1  0.72519400  0.78240900  0.88496100  1
  O  O55  1  0.21759100  0.94278400  0.88496100  1
  O  O56  1  0.27480600  0.05721600  0.11503900  1
  O  O57  1  0.78240900  0.72519400  0.11503900  1
  O  O58  1  0.94278400  0.21759100  0.11503900  1
  O  O59  1  0.27480600  0.05721600  0.38496100  1
  O  O60  1  0.78240900  0.72519400  0.38496100  1
  O  O61  1  0.94278400  0.21759100  0.38496100  1
  O  O62  1  0.65806000  0.50126800  0.92014000  1
  O  O63  1  0.49873200  0.15679300  0.92014000  1
  O  O64  1  0.84320700  0.34194000  0.92014000  1
  O  O65  1  0.65806000  0.50126800  0.57986000  1
  O  O66  1  0.49873200  0.15679300  0.57986000  1
  O  O67  1  0.84320700  0.34194000  0.57986000  1
  O  O68  1  0.50126800  0.65806000  0.42014000  1
  O  O69  1  0.15679300  0.49873200  0.42014000  1
  O  O70  1  0.34194000  0.84320700  0.42014000  1
  O  O71  1  0.50126800  0.65806000  0.07986000  1
  O  O72  1  0.15679300  0.49873200  0.07986000  1
  O  O73  1  0.34194000  0.84320700  0.07986000  1
  O  O74  1  0.34100300  0.49593000  0.57674700  1
  O  O75  1  0.50407000  0.84507300  0.57674700  1
  O  O76  1  0.15492700  0.65899700  0.57674700  1
  O  O77  1  0.34100300  0.49593000  0.92325300  1
  O  O78  1  0.50407000  0.84507300  0.92325300  1
  O  O79  1  0.15492700  0.65899700  0.92325300  1
  O  O80  1  0.49593000  0.34100300  0.07674700  1
  O  O81  1  0.84507300  0.50407000  0.07674700  1
  O  O82  1  0.65899700  0.15492700  0.07674700  1
  O  O83  1  0.49593000  0.34100300  0.42325300  1
  O  O84  1  0.84507300  0.50407000  0.42325300  1
  O  O85  1  0.65899700  0.15492700  0.42325300  1
  O  O86  1  0.73871400  0.60255500  0.75000000  1
  O  O87  1  0.39744500  0.13615900  0.75000000  1
  O  O88  1  0.86384100  0.26128600  0.75000000  1
  O  O89  1  0.60255500  0.73871400  0.25000000  1
  O  O90  1  0.13615900  0.39744500  0.25000000  1
  O  O91  1  0.26128600  0.86384100  0.25000000  1
  O  O92  1  0.26132400  0.39089800  0.75000000  1
  O  O93  1  0.60910200  0.87042600  0.75000000  1
  O  O94  1  0.12957400  0.73867600  0.75000000  1
  O  O95  1  0.39089800  0.26132400  0.25000000  1
  O  O96  1  0.87042600  0.60910200  0.25000000  1
  O  O97  1  0.73867600  0.12957400  0.25000000  1
