# generated using pymatgen
data_Na4AgCl5
_symmetry_space_group_name_H-M   'P 1'
_cell_length_a   10.60807036
_cell_length_b   10.60807036
_cell_length_c   10.60807036
_cell_angle_alpha   158.14885262
_cell_angle_beta   149.01085669
_cell_angle_gamma   38.24056960
_symmetry_Int_Tables_number   1
_chemical_formula_structural   Na4AgCl5
_chemical_formula_sum   'Na4 Ag1 Cl5'
_cell_volume   228.43420219
_cell_formula_units_Z   1
loop_
 _symmetry_equiv_pos_site_id
 _symmetry_equiv_pos_as_xyz
  1  'x, y, z'
loop_
 _atom_site_type_symbol
 _atom_site_label
 _atom_site_symmetry_multiplicity
 _atom_site_fract_x
 _atom_site_fract_y
 _atom_site_fract_z
 _atom_site_occupancy
  Na  Na0  1  0.59974100  0.59974100  0.00000000  1
  Na  Na1  1  0.20007000  0.20007000  0.00000000  1
  Na  Na2  1  0.79993000  0.79993000  0.00000000  1
  Na  Na3  1  0.40025900  0.40025900  0.00000000  1
  Ag  Ag4  1  0.00000000  0.00000000  0.00000000  1
  Cl  Cl5  1  0.29997800  0.79997800  0.50000000  1
  Cl  Cl6  1  0.89935400  0.39935400  0.50000000  1
  Cl  Cl7  1  0.50000000  0.00000000  0.50000000  1
  Cl  Cl8  1  0.10064600  0.60064600  0.50000000  1
  Cl  Cl9  1  0.70002200  0.20002200  0.50000000  1
