# generated using pymatgen
data_Na2La2PtO6
_symmetry_space_group_name_H-M   'P 1'
_cell_length_a   6.72190679
_cell_length_b   6.72190679
_cell_length_c   6.75362336
_cell_angle_alpha   89.06929572
_cell_angle_beta   89.06929572
_cell_angle_gamma   89.52186134
_symmetry_Int_Tables_number   1
_chemical_formula_structural   Na2La2PtO6
_chemical_formula_sum   'Na4 La4 Pt2 O12'
_cell_volume   305.06544762
_cell_formula_units_Z   2
loop_
 _symmetry_equiv_pos_site_id
 _symmetry_equiv_pos_as_xyz
  1  'x, y, z'
loop_
 _atom_site_type_symbol
 _atom_site_label
 _atom_site_symmetry_multiplicity
 _atom_site_fract_x
 _atom_site_fract_y
 _atom_site_fract_z
 _atom_site_occupancy
  Na  Na0  1  0.74697500  0.25302500  0.00000000  1
  Na  Na1  1  0.25739000  0.74261000  0.50000000  1
  Na  Na2  1  0.25248900  0.39307600  0.13858900  1
  Na  Na3  1  0.60692400  0.74751100  0.86141100  1
  La  La4  1  0.74099500  0.61095700  0.34880100  1
  La  La5  1  0.38904300  0.25900500  0.65119900  1
  La  La6  1  0.12293600  0.87706400  0.00000000  1
  La  La7  1  0.89219600  0.10780400  0.50000000  1
  Pt  Pt8  1  0.50028700  0.00580300  0.24616400  1
  Pt  Pt9  1  0.99419700  0.49971300  0.75383600  1
  O  O10  1  0.80040500  0.94910100  0.18306400  1
  O  O11  1  0.58560500  0.29330500  0.31293800  1
  O  O12  1  0.43973900  0.07604200  0.95186200  1
  O  O13  1  0.06782500  0.43839000  0.46617000  1
  O  O14  1  0.28222400  0.57543900  0.80636800  1
  O  O15  1  0.94803100  0.79218300  0.67173300  1
  O  O16  1  0.20781700  0.05196900  0.32826700  1
  O  O17  1  0.42456100  0.71777600  0.19363200  1
  O  O18  1  0.56161000  0.93217500  0.53383000  1
  O  O19  1  0.92395800  0.56026100  0.04813800  1
  O  O20  1  0.70669500  0.41439500  0.68706200  1
  O  O21  1  0.05089900  0.19959500  0.81693600  1
