# generated using pymatgen
data_Mg3FeO4
_symmetry_space_group_name_H-M   'P 1'
_cell_length_a   3.04446227
_cell_length_b   10.42978284
_cell_length_c   11.03591057
_cell_angle_alpha   114.07334604
_cell_angle_beta   82.10582306
_cell_angle_gamma   89.91785611
_symmetry_Int_Tables_number   1
_chemical_formula_structural   Mg3FeO4
_chemical_formula_sum   'Mg12 Fe4 O16'
_cell_volume   316.27344705
_cell_formula_units_Z   4
loop_
 _symmetry_equiv_pos_site_id
 _symmetry_equiv_pos_as_xyz
  1  'x, y, z'
loop_
 _atom_site_type_symbol
 _atom_site_label
 _atom_site_symmetry_multiplicity
 _atom_site_fract_x
 _atom_site_fract_y
 _atom_site_fract_z
 _atom_site_occupancy
  Mg  Mg0  1  0.74997300  0.37500900  0.50001400  1
  Mg  Mg1  1  0.25000100  0.12500200  0.50000200  1
  Mg  Mg2  1  0.75001300  0.87498700  0.49998400  1
  Mg  Mg3  1  0.25001700  0.62500100  0.50000400  1
  Mg  Mg4  1  0.87331400  0.43814300  0.25376900  1
  Mg  Mg5  1  0.37341400  0.18818000  0.25336200  1
  Mg  Mg6  1  0.87332400  0.93807500  0.25368900  1
  Mg  Mg7  1  0.37354400  0.68813600  0.25331900  1
  Mg  Mg8  1  0.62670200  0.31193900  0.74631200  1
  Mg  Mg9  1  0.12651600  0.06181400  0.74663500  1
  Mg  Mg10  1  0.62673200  0.81185800  0.74622100  1
  Mg  Mg11  1  0.12646200  0.56186500  0.74668100  1
  Fe  Fe12  1  0.49969900  0.75087100  0.99995000  1
  Fe  Fe13  1  0.00030700  0.49914500  0.00006800  1
  Fe  Fe14  1  0.49963500  0.25078600  0.00005700  1
  Fe  Fe15  1  0.00034600  0.99917700  0.99992600  1
  O  O16  1  0.56685600  0.53256400  0.86721200  1
  O  O17  1  0.06688900  0.28225700  0.86663800  1
  O  O18  1  0.56681000  0.03242800  0.86712200  1
  O  O19  1  0.06707200  0.78228800  0.86646800  1
  O  O20  1  0.93297100  0.21755600  0.13285500  1
  O  O21  1  0.43323400  0.96775000  0.13338100  1
  O  O22  1  0.93314100  0.71743900  0.13277400  1
  O  O23  1  0.43302900  0.46771300  0.13354200  1
  O  O24  1  0.68837600  0.59339200  0.62316300  1
  O  O25  1  0.18839700  0.34342900  0.62318000  1
  O  O26  1  0.68839200  0.09341700  0.62319000  1
  O  O27  1  0.18843800  0.84342500  0.62310800  1
  O  O28  1  0.81161400  0.15659200  0.37681800  1
  O  O29  1  0.31160400  0.90656700  0.37681800  1
  O  O30  1  0.81163100  0.65661700  0.37684200  1
  O  O31  1  0.31154700  0.40657500  0.37689500  1
