# generated using pymatgen
data_Na2Mg3Zn2(Si2O5)6
_symmetry_space_group_name_H-M   'P 1'
_cell_length_a   10.28942214
_cell_length_b   10.28942214
_cell_length_c   14.41248107
_cell_angle_alpha   89.99525224
_cell_angle_beta   89.99525224
_cell_angle_gamma   59.99534391
_symmetry_Int_Tables_number   1
_chemical_formula_structural   Na2Mg3Zn2(Si2O5)6
_chemical_formula_sum   'Na4 Mg6 Zn4 Si24 O60'
_cell_volume   1321.38986725
_cell_formula_units_Z   2
loop_
 _symmetry_equiv_pos_site_id
 _symmetry_equiv_pos_as_xyz
  1  'x, y, z'
loop_
 _atom_site_type_symbol
 _atom_site_label
 _atom_site_symmetry_multiplicity
 _atom_site_fract_x
 _atom_site_fract_y
 _atom_site_fract_z
 _atom_site_occupancy
  Na  Na0  1  0.33338700  0.33321200  0.25000400  1
  Na  Na1  1  0.66678800  0.66661300  0.74999600  1
  Na  Na2  1  0.00010700  0.99989300  0.50000000  1
  Na  Na3  1  0.00005500  0.99994500  0.00000000  1
  Mg  Mg4  1  0.33331400  0.33358800  0.50381500  1
  Mg  Mg5  1  0.33333400  0.33326800  0.99639100  1
  Mg  Mg6  1  0.66673200  0.66666600  0.00360900  1
  Mg  Mg7  1  0.66641200  0.66668600  0.49618500  1
  Mg  Mg8  1  0.50044100  0.99995400  0.50003000  1
  Mg  Mg9  1  0.00004600  0.49955900  0.49997000  1
  Zn  Zn10  1  0.50045000  0.49955000  0.50000000  1
  Zn  Zn11  1  0.49948800  0.99993600  0.00001200  1
  Zn  Zn12  1  0.00006400  0.50051200  0.99998800  1
  Zn  Zn13  1  0.50051900  0.49948100  0.00000000  1
  Si  Si14  1  0.35226000  0.88554000  0.36005000  1
  Si  Si15  1  0.88549900  0.76208700  0.36005400  1
  Si  Si16  1  0.76236800  0.35131100  0.35996400  1
  Si  Si17  1  0.35150900  0.88632500  0.13987900  1
  Si  Si18  1  0.88642700  0.76200200  0.13988800  1
  Si  Si19  1  0.76207100  0.35144000  0.13989400  1
  Si  Si20  1  0.23799800  0.11357300  0.86011200  1
  Si  Si21  1  0.64856000  0.23792900  0.86010600  1
  Si  Si22  1  0.11367500  0.64849100  0.86012100  1
  Si  Si23  1  0.23791300  0.11450100  0.63994600  1
  Si  Si24  1  0.64868900  0.23763200  0.64003600  1
  Si  Si25  1  0.11446000  0.64774000  0.63995000  1
  Si  Si26  1  0.65057200  0.11271500  0.13928300  1
  Si  Si27  1  0.11279100  0.23657400  0.13930200  1
  Si  Si28  1  0.23666700  0.65050600  0.13933100  1
  Si  Si29  1  0.64994000  0.11339300  0.36057300  1
  Si  Si30  1  0.11362600  0.23639700  0.36056900  1
  Si  Si31  1  0.23631900  0.65060200  0.36057300  1
  Si  Si32  1  0.76360300  0.88637400  0.63943100  1
  Si  Si33  1  0.34939800  0.76368100  0.63942700  1
  Si  Si34  1  0.88660700  0.35006000  0.63942700  1
  Si  Si35  1  0.76342600  0.88720900  0.86069800  1
  Si  Si36  1  0.34949400  0.76333300  0.86066900  1
  Si  Si37  1  0.88728500  0.34942800  0.86071700  1
  O  O38  1  0.39209100  0.87167900  0.25000900  1
  O  O39  1  0.87175100  0.73622700  0.25002500  1
  O  O40  1  0.73613500  0.39196100  0.25005300  1
  O  O41  1  0.26377300  0.12824900  0.74997500  1
  O  O42  1  0.60803900  0.26386500  0.74994700  1
  O  O43  1  0.12832100  0.60790900  0.74999100  1
  O  O44  1  0.60156900  0.13491900  0.24995700  1
  O  O45  1  0.13490300  0.26331800  0.24996300  1
  O  O46  1  0.26349400  0.60162100  0.25003900  1
  O  O47  1  0.73668200  0.86509700  0.75003700  1
  O  O48  1  0.39837900  0.73650600  0.74996100  1
  O  O49  1  0.86508100  0.39843100  0.75004300  1
  O  O50  1  0.49509000  0.84533900  0.42362200  1
  O  O51  1  0.84531400  0.65946800  0.42366500  1
  O  O52  1  0.66028600  0.49570300  0.42317400  1
  O  O53  1  0.49592600  0.84385700  0.07681700  1
  O  O54  1  0.84394900  0.66008400  0.07683500  1
  O  O55  1  0.66010600  0.49588200  0.07685900  1
  O  O56  1  0.33991600  0.15605100  0.92316500  1
  O  O57  1  0.50411800  0.33989400  0.92314100  1
  O  O58  1  0.15614300  0.50407400  0.92318300  1
  O  O59  1  0.34053200  0.15468600  0.57633500  1
  O  O60  1  0.50429700  0.33971400  0.57682600  1
  O  O61  1  0.15466100  0.50491000  0.57637800  1
  O  O62  1  0.50148000  0.15790000  0.07983400  1
  O  O63  1  0.15795400  0.34048600  0.07984200  1
  O  O64  1  0.34060100  0.50138500  0.07988000  1
  O  O65  1  0.50230400  0.15621600  0.42052200  1
  O  O66  1  0.15622700  0.34139100  0.42048900  1
  O  O67  1  0.34047700  0.50146800  0.42010800  1
  O  O68  1  0.65860900  0.84377300  0.57951100  1
  O  O69  1  0.49853200  0.65952300  0.57989200  1
  O  O70  1  0.84378400  0.49769600  0.57947800  1
  O  O71  1  0.65951400  0.84204600  0.92015800  1
  O  O72  1  0.49861500  0.65939900  0.92012000  1
  O  O73  1  0.84210000  0.49852000  0.92016600  1
  O  O74  1  0.27351700  0.78413400  0.38391500  1
  O  O75  1  0.78324900  0.94210400  0.38420900  1
  O  O76  1  0.94223100  0.27462700  0.38425500  1
  O  O77  1  0.27387600  0.78400800  0.11597400  1
  O  O78  1  0.78411200  0.94198000  0.11592600  1
  O  O79  1  0.94201000  0.27382400  0.11599100  1
  O  O80  1  0.05802000  0.21588800  0.88407400  1
  O  O81  1  0.72617600  0.05799000  0.88400900  1
  O  O82  1  0.21599200  0.72612400  0.88402600  1
  O  O83  1  0.05789600  0.21675100  0.61579100  1
  O  O84  1  0.72537300  0.05776900  0.61574500  1
  O  O85  1  0.21586600  0.72648300  0.61608500  1
  O  O86  1  0.72682600  0.21547200  0.11593100  1
  O  O87  1  0.21549100  0.05759500  0.11585600  1
  O  O88  1  0.05769200  0.72673600  0.11590200  1
  O  O89  1  0.72705400  0.21539600  0.38400400  1
  O  O90  1  0.21638100  0.05746400  0.38422100  1
  O  O91  1  0.05738500  0.72601400  0.38423700  1
  O  O92  1  0.94253600  0.78361900  0.61577900  1
  O  O93  1  0.27398600  0.94261500  0.61576300  1
  O  O94  1  0.78460400  0.27294600  0.61599600  1
  O  O95  1  0.94240500  0.78450900  0.88414400  1
  O  O96  1  0.27326400  0.94230800  0.88409800  1
  O  O97  1  0.78452800  0.27317400  0.88406900  1
