# generated using pymatgen
data_LaFe2PbO6
_symmetry_space_group_name_H-M   'P 1'
_cell_length_a   5.58130400
_cell_length_b   5.62438400
_cell_length_c   7.92414500
_cell_angle_alpha   90.00000000
_cell_angle_beta   90.00000000
_cell_angle_gamma   90.00000000
_symmetry_Int_Tables_number   1
_chemical_formula_structural   LaFe2PbO6
_chemical_formula_sum   'La2 Fe4 Pb2 O12'
_cell_volume   248.74998092
_cell_formula_units_Z   2
loop_
 _symmetry_equiv_pos_site_id
 _symmetry_equiv_pos_as_xyz
  1  'x, y, z'
loop_
 _atom_site_type_symbol
 _atom_site_label
 _atom_site_symmetry_multiplicity
 _atom_site_fract_x
 _atom_site_fract_y
 _atom_site_fract_z
 _atom_site_occupancy
  La  La0  1  0.99177300  0.78144000  0.50000000  1
  La  La1  1  0.49177300  0.21856000  0.00000000  1
  Fe  Fe2  1  0.99918100  0.25389600  0.75123000  1
  Fe  Fe3  1  0.49918100  0.74610400  0.25123000  1
  Fe  Fe4  1  0.99918100  0.25389600  0.24877000  1
  Fe  Fe5  1  0.49918100  0.74610400  0.74877000  1
  Pb  Pb6  1  0.50765900  0.27803300  0.50000000  1
  Pb  Pb7  1  0.00765900  0.72196700  0.00000000  1
  O  O8  1  0.21393300  0.96397900  0.79451300  1
  O  O9  1  0.28613200  0.46365200  0.20677900  1
  O  O10  1  0.78613200  0.53634800  0.29322100  1
  O  O11  1  0.71393300  0.03602100  0.70548700  1
  O  O12  1  0.78613200  0.53634800  0.70677900  1
  O  O13  1  0.71393300  0.03602100  0.29451300  1
  O  O14  1  0.21393300  0.96397900  0.20548700  1
  O  O15  1  0.28613200  0.46365200  0.79322100  1
  O  O16  1  0.41753600  0.73579400  0.50000000  1
  O  O17  1  0.08453900  0.22936800  0.50000000  1
  O  O18  1  0.58453900  0.77063200  0.00000000  1
  O  O19  1  0.91753600  0.26420600  0.00000000  1
