# generated using pymatgen
data_OsRh3
_symmetry_space_group_name_H-M   'P 1'
_cell_length_a   5.49196817
_cell_length_b   5.49196817
_cell_length_c   4.38430800
_cell_angle_alpha   90.00000000
_cell_angle_beta   90.00000000
_cell_angle_gamma   120.00000204
_symmetry_Int_Tables_number   1
_chemical_formula_structural   OsRh3
_chemical_formula_sum   'Os2 Rh6'
_cell_volume   114.52167770
_cell_formula_units_Z   2
loop_
 _symmetry_equiv_pos_site_id
 _symmetry_equiv_pos_as_xyz
  1  'x, y, z'
loop_
 _atom_site_type_symbol
 _atom_site_label
 _atom_site_symmetry_multiplicity
 _atom_site_fract_x
 _atom_site_fract_y
 _atom_site_fract_z
 _atom_site_occupancy
  Os  Os0  1  0.33333300  0.66666700  0.75000000  1
  Os  Os1  1  0.66666700  0.33333300  0.25000000  1
  Rh  Rh2  1  0.83166900  0.16833100  0.75000000  1
  Rh  Rh3  1  0.33666300  0.16833100  0.75000000  1
  Rh  Rh4  1  0.83166900  0.66333700  0.75000000  1
  Rh  Rh5  1  0.16833100  0.83166900  0.25000000  1
  Rh  Rh6  1  0.66333700  0.83166900  0.25000000  1
  Rh  Rh7  1  0.16833100  0.33666300  0.25000000  1
