# generated using pymatgen
data_Lu(CuS)3
_symmetry_space_group_name_H-M   'P 1'
_cell_length_a   7.35231298
_cell_length_b   7.35231298
_cell_length_c   7.35231364
_cell_angle_alpha   53.70876177
_cell_angle_beta   53.70876177
_cell_angle_gamma   53.70876172
_symmetry_Int_Tables_number   1
_chemical_formula_structural   Lu(CuS)3
_chemical_formula_sum   'Lu2 Cu6 S6'
_cell_volume   239.69210984
_cell_formula_units_Z   2
loop_
 _symmetry_equiv_pos_site_id
 _symmetry_equiv_pos_as_xyz
  1  'x, y, z'
loop_
 _atom_site_type_symbol
 _atom_site_label
 _atom_site_symmetry_multiplicity
 _atom_site_fract_x
 _atom_site_fract_y
 _atom_site_fract_z
 _atom_site_occupancy
  Lu  Lu0  1  0.83345200  0.83345200  0.83345200  1
  Lu  Lu1  1  0.16654800  0.16654800  0.16654800  1
  Cu  Cu2  1  0.28784600  0.96013900  0.62375500  1
  Cu  Cu3  1  0.62375500  0.28784600  0.96013900  1
  Cu  Cu4  1  0.96013900  0.62375500  0.28784600  1
  Cu  Cu5  1  0.03986100  0.37624500  0.71215400  1
  Cu  Cu6  1  0.37624500  0.71215400  0.03986100  1
  Cu  Cu7  1  0.71215400  0.03986100  0.37624500  1
  S  S8  1  0.08344600  0.75284800  0.41950000  1
  S  S9  1  0.75284800  0.41950000  0.08344600  1
  S  S10  1  0.41950000  0.08344600  0.75284800  1
  S  S11  1  0.58050000  0.91655400  0.24715100  1
  S  S12  1  0.24715200  0.58050000  0.91655400  1
  S  S13  1  0.91655400  0.24715200  0.58050000  1
