# generated using pymatgen
data_Mn20O43
_symmetry_space_group_name_H-M   'P 1'
_cell_length_a   8.29737879
_cell_length_b   10.15386702
_cell_length_c   10.15826784
_cell_angle_alpha   87.82214015
_cell_angle_beta   112.36795447
_cell_angle_gamma   112.33351402
_symmetry_Int_Tables_number   1
_chemical_formula_structural   Mn20O43
_chemical_formula_sum   'Mn20 O43'
_cell_volume   726.36881023
_cell_formula_units_Z   1
loop_
 _symmetry_equiv_pos_site_id
 _symmetry_equiv_pos_as_xyz
  1  'x, y, z'
loop_
 _atom_site_type_symbol
 _atom_site_label
 _atom_site_symmetry_multiplicity
 _atom_site_fract_x
 _atom_site_fract_y
 _atom_site_fract_z
 _atom_site_occupancy
  Mn  Mn0  1  0.81800590  0.20288873  0.68746492  1
  Mn  Mn1  1  0.81766159  0.40317076  0.88756689  1
  Mn  Mn2  1  0.81802354  0.60335715  0.08764651  1
  Mn  Mn3  1  0.81803739  0.80366130  0.28733465  1
  Mn  Mn4  1  0.81838933  0.00336161  0.48770501  1
  Mn  Mn5  1  0.18196261  0.19633870  0.71266535  1
  Mn  Mn6  1  0.18197646  0.39664285  0.91235349  1
  Mn  Mn7  1  0.18233841  0.59682924  0.11243311  1
  Mn  Mn8  1  0.18199410  0.79711127  0.31253508  1
  Mn  Mn9  1  0.18161067  0.99663839  0.51229499  1
  Mn  Mn10  1  0.48405320  0.35360276  0.53643730  1
  Mn  Mn11  1  0.48471610  0.55450825  0.73666108  1
  Mn  Mn12  1  0.48443369  0.75452822  0.93660258  1
  Mn  Mn13  1  0.48534311  0.95427338  0.13699205  1
  Mn  Mn14  1  0.48480112  0.15386341  0.33668105  1
  Mn  Mn15  1  0.51465689  0.04572662  0.86300795  1
  Mn  Mn16  1  0.51556631  0.24547178  0.06339742  1
  Mn  Mn17  1  0.51528390  0.44549175  0.26333892  1
  Mn  Mn18  1  0.51594680  0.64639724  0.46356270  1
  Mn  Mn19  1  0.51519888  0.84613659  0.66331895  1
  O  O20  1  0.04719560  0.79384353  0.43437248  1
  O  O21  1  0.04779011  0.59433059  0.23493531  1
  O  O22  1  0.04762556  0.39464069  0.03435844  1
  O  O23  1  0.04751669  0.19490842  0.83395391  1
  O  O24  1  0.04718924  0.99366270  0.63404384  1
  O  O25  1  0.95280440  0.20615647  0.56562752  1
  O  O26  1  0.95281076  0.00633730  0.36595616  1
  O  O27  1  0.95248331  0.80509158  0.16604609  1
  O  O28  1  0.95237444  0.60535931  0.96564156  1
  O  O29  1  0.95220989  0.40566941  0.76506469  1
  O  O30  1  0.63899700  0.91589671  0.86724557  1
  O  O31  1  0.63974327  0.71629363  0.66791790  1
  O  O32  1  0.64004402  0.51579346  0.46789490  1
  O  O33  1  0.63999667  0.31516875  0.26813501  1
  O  O34  1  0.64001050  0.11566042  0.06759477  1
  O  O35  1  0.36100300  0.08410329  0.13275443  1
  O  O36  1  0.35998950  0.88433958  0.93240523  1
  O  O37  1  0.36000333  0.68483125  0.73186499  1
  O  O38  1  0.35995598  0.48420654  0.53210510  1
  O  O39  1  0.36025673  0.28370637  0.33208210  1
  O  O40  1  0.62012902  0.03894280  0.33379415  1
  O  O41  1  0.62016898  0.83891876  0.13283881  1
  O  O42  1  0.61982293  0.63905781  0.93302430  1
  O  O43  1  0.62073940  0.43984025  0.73250346  1
  O  O44  1  0.61979135  0.23801458  0.53269083  1
  O  O45  1  0.37987098  0.96105720  0.66620585  1
  O  O46  1  0.38020865  0.76198542  0.46730917  1
  O  O47  1  0.37926060  0.56015975  0.26749654  1
  O  O48  1  0.38017707  0.36094219  0.06697570  1
  O  O49  1  0.37983102  0.16108124  0.86716119  1
  O  O50  1  0.29299591  -0.00128888  0.37722281  1
  O  O51  1  0.29330949  0.79871519  0.17779307  1
  O  O52  1  0.29405539  0.59844049  0.97803258  1
  O  O53  1  0.29275635  0.39844855  0.77689050  1
  O  O54  1  0.29383740  0.19777226  0.57802870  1
  O  O55  1  0.70700409  0.00128888  0.62277719  1
  O  O56  1  0.70616260  0.80222774  0.42197130  1
  O  O57  1  0.70724365  0.60155145  0.22310950  1
  O  O58  1  0.70594461  0.40155951  0.02196742  1
  O  O59  1  0.70669051  0.20128481  0.82220693  1
  O  O60  1  0.00005212  0.90289169  0.90296414  1
  O  O61  1  -0.00005212  0.09710831  0.09703586  1
  O  O62  1  0.00000000  0.50000000  0.50000000  1
