# generated using pymatgen
data_Lu4FeGe8
_symmetry_space_group_name_H-M   'P 1'
_cell_length_a   3.94336400
_cell_length_b   4.08989400
_cell_length_c   15.73642500
_cell_angle_alpha   90.00000000
_cell_angle_beta   90.00000000
_cell_angle_gamma   90.00000000
_symmetry_Int_Tables_number   1
_chemical_formula_structural   Lu4FeGe8
_chemical_formula_sum   'Lu4 Fe1 Ge8'
_cell_volume   253.79613023
_cell_formula_units_Z   1
loop_
 _symmetry_equiv_pos_site_id
 _symmetry_equiv_pos_as_xyz
  1  'x, y, z'
loop_
 _atom_site_type_symbol
 _atom_site_label
 _atom_site_symmetry_multiplicity
 _atom_site_fract_x
 _atom_site_fract_y
 _atom_site_fract_z
 _atom_site_occupancy
  Lu  Lu0  1  0.25000000  0.00000000  0.10108900  1
  Lu  Lu1  1  0.25000000  0.50000000  0.60676900  1
  Lu  Lu2  1  0.75000000  0.50000000  0.39655400  1
  Lu  Lu3  1  0.75000000  0.00000000  0.89460200  1
  Fe  Fe4  1  0.25000000  0.00000000  0.30977400  1
  Ge  Ge5  1  0.25000000  0.00000000  0.45544300  1
  Ge  Ge6  1  0.25000000  0.50000000  0.94576000  1
  Ge  Ge7  1  0.75000000  0.50000000  0.05624300  1
  Ge  Ge8  1  0.75000000  0.00000000  0.56140000  1
  Ge  Ge9  1  0.25000000  0.50000000  0.23733200  1
  Ge  Ge10  1  0.25000000  0.00000000  0.74939400  1
  Ge  Ge11  1  0.75000000  0.00000000  0.23626800  1
  Ge  Ge12  1  0.75000000  0.50000000  0.75237300  1
