# generated using pymatgen
data_LaCeAl2O6
_symmetry_space_group_name_H-M   'P 1'
_cell_length_a   5.39552700
_cell_length_b   5.37473654
_cell_length_c   5.37473654
_cell_angle_alpha   90.16350579
_cell_angle_beta   120.12804730
_cell_angle_gamma   59.87195270
_symmetry_Int_Tables_number   1
_chemical_formula_structural   LaCeAl2O6
_chemical_formula_sum   'La1 Ce1 Al2 O6'
_cell_volume   109.94318369
_cell_formula_units_Z   1
loop_
 _symmetry_equiv_pos_site_id
 _symmetry_equiv_pos_as_xyz
  1  'x, y, z'
loop_
 _atom_site_type_symbol
 _atom_site_label
 _atom_site_symmetry_multiplicity
 _atom_site_fract_x
 _atom_site_fract_y
 _atom_site_fract_z
 _atom_site_occupancy
  La  La0  1  0.49964600  0.25000000  0.25000000  1
  Ce  Ce1  1  0.50374000  0.75000000  0.75000000  1
  Al  Al2  1  0.00010500  0.49982500  0.49982500  1
  Al  Al3  1  0.00010500  0.00017500  0.00017500  1
  O  O4  1  0.00308000  0.75000000  0.75000000  1
  O  O5  1  0.99585600  0.25000000  0.25000000  1
  O  O6  1  0.99899500  0.74790700  0.24716300  1
  O  O7  1  0.49973900  0.75209300  0.25283700  1
  O  O8  1  0.49973900  0.24716300  0.74790700  1
  O  O9  1  0.99899500  0.25283700  0.75209300  1
