# generated using pymatgen
data_La4PtO7
_symmetry_space_group_name_H-M   'P 1'
_cell_length_a   4.04811000
_cell_length_b   7.03039970
_cell_length_c   7.26036489
_cell_angle_alpha   83.63762465
_cell_angle_beta   73.88793015
_cell_angle_gamma   73.36609447
_symmetry_Int_Tables_number   1
_chemical_formula_structural   La4PtO7
_chemical_formula_sum   'La4 Pt1 O7'
_cell_volume   190.09492577
_cell_formula_units_Z   1
loop_
 _symmetry_equiv_pos_site_id
 _symmetry_equiv_pos_as_xyz
  1  'x, y, z'
loop_
 _atom_site_type_symbol
 _atom_site_label
 _atom_site_symmetry_multiplicity
 _atom_site_fract_x
 _atom_site_fract_y
 _atom_site_fract_z
 _atom_site_occupancy
  La  La0  1  0.41372800  0.78218900  0.39077500  1
  La  La1  1  0.58740700  0.22254200  0.60520300  1
  La  La2  1  0.74477500  0.65906500  0.84216600  1
  La  La3  1  0.24673300  0.33786100  0.16087700  1
  Pt  Pt4  1  0.98569000  0.99609700  0.00154700  1
  O  O5  1  0.79132300  0.85357200  0.55996800  1
  O  O6  1  0.19986000  0.15091600  0.44545200  1
  O  O7  1  0.36342700  0.56517000  0.69468600  1
  O  O8  1  0.62574500  0.43110500  0.30766100  1
  O  O9  1  0.47340700  0.97375600  0.04733300  1
  O  O10  1  0.07520500  0.70631900  0.10958700  1
  O  O11  1  0.88239900  0.28470800  0.89204600  1
