# generated using pymatgen
data_LaMn4(BiO4)3
_symmetry_space_group_name_H-M   'P 1'
_cell_length_a   5.50468470
_cell_length_b   5.98258019
_cell_length_c   7.69147600
_cell_angle_alpha   89.99963146
_cell_angle_beta   89.99970485
_cell_angle_gamma   89.72987403
_symmetry_Int_Tables_number   1
_chemical_formula_structural   LaMn4(BiO4)3
_chemical_formula_sum   'La1 Mn4 Bi3 O12'
_cell_volume   253.29454640
_cell_formula_units_Z   1
loop_
 _symmetry_equiv_pos_site_id
 _symmetry_equiv_pos_as_xyz
  1  'x, y, z'
loop_
 _atom_site_type_symbol
 _atom_site_label
 _atom_site_symmetry_multiplicity
 _atom_site_fract_x
 _atom_site_fract_y
 _atom_site_fract_z
 _atom_site_occupancy
  La  La0  1  0.51486200  0.43343500  0.25000100  1
  Mn  Mn1  1  0.00072700  0.50208800  0.99828800  1
  Mn  Mn2  1  0.50127200  0.99826300  0.50061100  1
  Mn  Mn3  1  0.00071900  0.50209600  0.50170400  1
  Mn  Mn4  1  0.50127700  0.99825100  0.99939900  1
  Bi  Bi5  1  0.98999700  0.93084800  0.24999800  1
  Bi  Bi6  1  0.48969800  0.56987300  0.74999800  1
  Bi  Bi7  1  0.01152000  0.07045900  0.75000200  1
  O  O8  1  0.40000400  0.02717900  0.25000300  1
  O  O9  1  0.08679300  0.52766900  0.24999700  1
  O  O10  1  0.60038300  0.97023900  0.75000200  1
  O  O11  1  0.90003400  0.46537300  0.74999700  1
  O  O12  1  0.70959800  0.68027800  0.04105600  1
  O  O13  1  0.78962000  0.17854100  0.45243500  1
  O  O14  1  0.29230400  0.32265700  0.54567900  1
  O  O15  1  0.20983300  0.82064000  0.95428900  1
  O  O16  1  0.29230200  0.32265200  0.95432100  1
  O  O17  1  0.20983900  0.82064100  0.54571900  1
  O  O18  1  0.70959600  0.68027900  0.45894000  1
  O  O19  1  0.78962200  0.17853800  0.04755900  1
