# generated using pymatgen
data_La3YSc4O12
_symmetry_space_group_name_H-M   'P 1'
_cell_length_a   8.13544700
_cell_length_b   5.67049500
_cell_length_c   5.83290037
_cell_angle_alpha   89.74587189
_cell_angle_beta   90.00000000
_cell_angle_gamma   90.00000000
_symmetry_Int_Tables_number   1
_chemical_formula_structural   La3YSc4O12
_chemical_formula_sum   'La3 Y1 Sc4 O12'
_cell_volume   269.08078057
_cell_formula_units_Z   1
loop_
 _symmetry_equiv_pos_site_id
 _symmetry_equiv_pos_as_xyz
  1  'x, y, z'
loop_
 _atom_site_type_symbol
 _atom_site_label
 _atom_site_symmetry_multiplicity
 _atom_site_fract_x
 _atom_site_fract_y
 _atom_site_fract_z
 _atom_site_occupancy
  La  La0  1  0.00000000  0.98808600  0.04608100  1
  La  La1  1  0.50000000  0.48809800  0.45418400  1
  La  La2  1  0.50000000  0.01340600  0.95264100  1
  Y  Y3  1  0.00000000  0.51333600  0.55315100  1
  Sc  Sc4  1  0.24748900  0.49893700  0.99955500  1
  Sc  Sc5  1  0.75307500  0.00063500  0.50037300  1
  Sc  Sc6  1  0.75251100  0.49893700  0.99955500  1
  Sc  Sc7  1  0.24692500  0.00063500  0.50037300  1
  O  O8  1  0.00000000  0.39954600  0.94864300  1
  O  O9  1  0.00000000  0.12417700  0.46474700  1
  O  O10  1  0.50000000  0.60239600  0.03623900  1
  O  O11  1  0.50000000  0.89972400  0.53459000  1
  O  O12  1  0.30366300  0.19876300  0.20030400  1
  O  O13  1  0.69730800  0.29837200  0.70230400  1
  O  O14  1  0.80737500  0.79546600  0.79534600  1
  O  O15  1  0.18696300  0.69344200  0.30698000  1
  O  O16  1  0.19262500  0.79546600  0.79534600  1
  O  O17  1  0.81303700  0.69344200  0.30698000  1
  O  O18  1  0.69633700  0.19876300  0.20030400  1
  O  O19  1  0.30269200  0.29837200  0.70230400  1
