# generated using pymatgen
data_Lu9B5S21
_symmetry_space_group_name_H-M   'P 1'
_cell_length_a   10.99008447
_cell_length_b   10.99008447
_cell_length_c   10.99008389
_cell_angle_alpha   93.55686381
_cell_angle_beta   93.55686381
_cell_angle_gamma   93.55686040
_symmetry_Int_Tables_number   1
_chemical_formula_structural   Lu9B5S21
_chemical_formula_sum   'Lu18 B10 S42'
_cell_volume   1319.39927871
_cell_formula_units_Z   2
loop_
 _symmetry_equiv_pos_site_id
 _symmetry_equiv_pos_as_xyz
  1  'x, y, z'
loop_
 _atom_site_type_symbol
 _atom_site_label
 _atom_site_symmetry_multiplicity
 _atom_site_fract_x
 _atom_site_fract_y
 _atom_site_fract_z
 _atom_site_occupancy
  Lu  Lu0  1  0.92149000  0.53265200  0.76046700  1
  Lu  Lu1  1  0.55741400  0.19815600  0.41490600  1
  Lu  Lu2  1  0.24097600  0.85198400  0.08423000  1
  Lu  Lu3  1  0.19815600  0.41490600  0.55741400  1
  Lu  Lu4  1  0.85198400  0.08423000  0.24097600  1
  Lu  Lu5  1  0.53265200  0.76046700  0.92149000  1
  Lu  Lu6  1  0.08423000  0.24097600  0.85198400  1
  Lu  Lu7  1  0.76046700  0.92149000  0.53265200  1
  Lu  Lu8  1  0.41490600  0.55741400  0.19815600  1
  Lu  Lu9  1  0.72172100  0.08133900  0.86725500  1
  Lu  Lu10  1  0.37700300  0.76632900  0.53485100  1
  Lu  Lu11  1  0.05651300  0.44461300  0.21233300  1
  Lu  Lu12  1  0.44461300  0.21233300  0.05651300  1
  Lu  Lu13  1  0.08133900  0.86725500  0.72172100  1
  Lu  Lu14  1  0.76632900  0.53485100  0.37700300  1
  Lu  Lu15  1  0.53485100  0.37700300  0.76632900  1
  Lu  Lu16  1  0.21233300  0.05651300  0.44461300  1
  Lu  Lu17  1  0.86725500  0.72172100  0.08133900  1
  B  B18  1  0.75904000  0.42229400  0.08640700  1
  B  B19  1  0.42229400  0.08640700  0.75904000  1
  B  B20  1  0.08640700  0.75904000  0.42229400  1
  B  B21  1  0.58720700  0.92115800  0.25958000  1
  B  B22  1  0.25958000  0.58720700  0.92115800  1
  B  B23  1  0.92115800  0.25958000  0.58720700  1
  B  B24  1  0.02177400  0.02177400  0.02177400  1
  B  B25  1  0.69464900  0.69464900  0.69464900  1
  B  B26  1  0.19437500  0.19437500  0.19437500  1
  B  B27  1  0.52194500  0.52194500  0.52194500  1
  S  S28  1  0.97267600  0.65373000  0.30863300  1
  S  S29  1  0.65373000  0.30863300  0.97267600  1
  S  S30  1  0.30863300  0.97267600  0.65373000  1
  S  S31  1  0.47388000  0.80674300  0.15443100  1
  S  S32  1  0.15443100  0.47388000  0.80674300  1
  S  S33  1  0.80674300  0.15443100  0.47388000  1
  S  S34  1  0.50373300  0.35283000  0.24853100  1
  S  S35  1  0.14927900  0.01828200  0.92437900  1
  S  S36  1  0.81788900  0.68720200  0.59237700  1
  S  S37  1  0.68720200  0.59237700  0.81788900  1
  S  S38  1  0.35283000  0.24853100  0.50373300  1
  S  S39  1  0.01828200  0.92437900  0.14927900  1
  S  S40  1  0.92437900  0.14927900  0.01828200  1
  S  S41  1  0.59237700  0.81788900  0.68720200  1
  S  S42  1  0.24853100  0.50373300  0.35283000  1
  S  S43  1  0.73377500  0.88296400  0.98907800  1
  S  S44  1  0.41197000  0.54334400  0.63691800  1
  S  S45  1  0.07996700  0.21123900  0.30542500  1
  S  S46  1  0.54334400  0.63691800  0.41197000  1
  S  S47  1  0.21123900  0.30542500  0.07996700  1
  S  S48  1  0.88296400  0.98907800  0.73377500  1
  S  S49  1  0.30542500  0.07996700  0.21123900  1
  S  S50  1  0.98907800  0.73377500  0.88296400  1
  S  S51  1  0.63691800  0.41197000  0.54334400  1
  S  S52  1  0.68286100  0.56934800  0.14183700  1
  S  S53  1  0.34658900  0.23235300  0.81824100  1
  S  S54  1  0.01196000  0.90561100  0.47920400  1
  S  S55  1  0.90561100  0.47920400  0.01196000  1
  S  S56  1  0.56934800  0.14183700  0.68286100  1
  S  S57  1  0.23235300  0.81824100  0.34658900  1
  S  S58  1  0.81824100  0.34658900  0.23235300  1
  S  S59  1  0.47920400  0.01196000  0.90561100  1
  S  S60  1  0.14183700  0.68286100  0.56934800  1
  S  S61  1  0.74761500  0.86127000  0.28924600  1
  S  S62  1  0.42119700  0.52559300  0.95151500  1
  S  S63  1  0.08165400  0.19767700  0.61257700  1
  S  S64  1  0.52559300  0.95151500  0.42119700  1
  S  S65  1  0.19767700  0.61257700  0.08165400  1
  S  S66  1  0.86127000  0.28924600  0.74761500  1
  S  S67  1  0.61257700  0.08165400  0.19767700  1
  S  S68  1  0.28924600  0.74761500  0.86127000  1
  S  S69  1  0.95151500  0.42119700  0.52559300  1
