# generated using pymatgen
data_LaPr3Mn4O12
_symmetry_space_group_name_H-M   'P 1'
_cell_length_a   7.93024600
_cell_length_b   5.54034300
_cell_length_c   5.64868719
_cell_angle_alpha   89.93024518
_cell_angle_beta   90.00000000
_cell_angle_gamma   90.00000000
_symmetry_Int_Tables_number   1
_chemical_formula_structural   LaPr3Mn4O12
_chemical_formula_sum   'La1 Pr3 Mn4 O12'
_cell_volume   248.18213438
_cell_formula_units_Z   1
loop_
 _symmetry_equiv_pos_site_id
 _symmetry_equiv_pos_as_xyz
  1  'x, y, z'
loop_
 _atom_site_type_symbol
 _atom_site_label
 _atom_site_symmetry_multiplicity
 _atom_site_fract_x
 _atom_site_fract_y
 _atom_site_fract_z
 _atom_site_occupancy
  La  La0  1  0.50000000  0.48961600  0.53981300  1
  Pr  Pr1  1  0.50000000  0.01260700  0.04412800  1
  Pr  Pr2  1  0.00000000  0.51274800  0.45460000  1
  Pr  Pr3  1  0.00000000  0.98807200  0.95526000  1
  Mn  Mn4  1  0.24939800  0.00015700  0.50036300  1
  Mn  Mn5  1  0.75038300  0.49973600  0.99952100  1
  Mn  Mn6  1  0.75060200  0.00015700  0.50036300  1
  Mn  Mn7  1  0.24961700  0.49973600  0.99952100  1
  O  O8  1  0.29543300  0.21488900  0.79255100  1
  O  O9  1  0.70459900  0.28226400  0.28926300  1
  O  O10  1  0.79680900  0.78202100  0.21024800  1
  O  O11  1  0.20233900  0.71671400  0.70991000  1
  O  O12  1  0.20319100  0.78202100  0.21024800  1
  O  O13  1  0.79766100  0.71671400  0.70991000  1
  O  O14  1  0.70456700  0.21488900  0.79255100  1
  O  O15  1  0.29540100  0.28226400  0.28926300  1
  O  O16  1  0.50000000  0.58691300  0.97900400  1
  O  O17  1  0.50000000  0.91752000  0.47688800  1
  O  O18  1  0.00000000  0.41369800  0.02315300  1
  O  O19  1  0.00000000  0.08726400  0.52344200  1
