# generated using pymatgen
data_La2(CuNi)5
_symmetry_space_group_name_H-M   'P 1'
_cell_length_a   3.96150500
_cell_length_b   5.10667000
_cell_length_c   8.81185500
_cell_angle_alpha   90.00000000
_cell_angle_beta   90.00000000
_cell_angle_gamma   90.00000000
_symmetry_Int_Tables_number   1
_chemical_formula_structural   La2(CuNi)5
_chemical_formula_sum   'La2 Cu5 Ni5'
_cell_volume   178.26469672
_cell_formula_units_Z   1
loop_
 _symmetry_equiv_pos_site_id
 _symmetry_equiv_pos_as_xyz
  1  'x, y, z'
loop_
 _atom_site_type_symbol
 _atom_site_label
 _atom_site_symmetry_multiplicity
 _atom_site_fract_x
 _atom_site_fract_y
 _atom_site_fract_z
 _atom_site_occupancy
  La  La0  1  0.00000000  0.50000000  0.00000000  1
  La  La1  1  0.00000000  0.00000000  0.50000000  1
  Cu  Cu2  1  0.00000000  0.50000000  0.33130700  1
  Cu  Cu3  1  0.00000000  0.00000000  0.83262100  1
  Cu  Cu4  1  0.00000000  0.00000000  0.16737900  1
  Cu  Cu5  1  0.00000000  0.50000000  0.66869300  1
  Cu  Cu6  1  0.50000000  0.50000000  0.50000000  1
  Ni  Ni7  1  0.50000000  0.00000000  0.00000000  1
  Ni  Ni8  1  0.50000000  0.75178400  0.24913300  1
  Ni  Ni9  1  0.50000000  0.24821600  0.75086700  1
  Ni  Ni10  1  0.50000000  0.24821600  0.24913300  1
  Ni  Ni11  1  0.50000000  0.75178400  0.75086700  1
