data_image0
_chemical_formula_structural       Ca4F20Fe4
_chemical_formula_sum              "Ca4 F20 Fe4"
_cell_length_a       4.91021
_cell_length_b       9.00634
_cell_length_c       6.73884
_cell_angle_alpha    89.9994
_cell_angle_beta     109.86
_cell_angle_gamma    90.0079

_space_group_name_H-M_alt    "P 1"
_space_group_IT_number       1

loop_
  _space_group_symop_operation_xyz
  'x, y, z'

loop_
  _atom_site_type_symbol
  _atom_site_label
  _atom_site_symmetry_multiplicity
  _atom_site_fract_x
  _atom_site_fract_y
  _atom_site_fract_z
  _atom_site_occupancy
  Ca  Ca1       1.0  0.60300  0.48500  0.78200  1.0000
  Ca  Ca2       1.0  0.39700  0.98500  0.71800  1.0000
  Ca  Ca3       1.0  0.39700  0.51500  0.21800  1.0000
  Ca  Ca4       1.0  0.60300  0.01470  0.28200  1.0000
  F   F1        1.0  0.34600  0.12600  0.44200  1.0000
  F   F2        1.0  0.65400  0.62600  0.05780  1.0000
  F   F3        1.0  0.65400  0.87400  0.55800  1.0000
  F   F4        1.0  0.34600  0.37400  0.94200  1.0000
  F   F5        1.0  0.31400  0.40000  0.48700  1.0000
  F   F6        1.0  0.68600  0.90000  0.01330  1.0000
  F   F7        1.0  0.68600  0.60000  0.51300  1.0000
  F   F8        1.0  0.31400  0.09950  0.98700  1.0000
  F   F9        1.0  0.07100  0.62500  0.35400  1.0000
  F   F10       1.0  0.92900  0.12500  0.14600  1.0000
  F   F11       1.0  0.92900  0.37500  0.64600  1.0000
  F   F12       1.0  0.07100  0.87500  0.85400  1.0000
  F   F13       1.0  0.37700  0.78700  0.21000  1.0000
  F   F14       1.0  0.62300  0.28700  0.29000  1.0000
  F   F15       1.0  0.62300  0.21300  0.79000  1.0000
  F   F16       1.0  0.37700  0.71300  0.71000  1.0000
  F   F17       1.0  0.96700  0.38400  0.09890  1.0000
  F   F18       1.0  0.03350  0.88400  0.40100  1.0000
  F   F19       1.0  0.03350  0.61600  0.90100  1.0000
  F   F20       1.0  0.96600  0.11600  0.59900  1.0000
  Fe  Fe1       1.0  0.02230  0.26300  0.38900  1.0000
  Fe  Fe2       1.0  0.97800  0.76300  0.11100  1.0000
  Fe  Fe3       1.0  0.97800  0.73700  0.61100  1.0000
  Fe  Fe4       1.0  0.02230  0.23700  0.88900  1.0000
