# generated using pymatgen
data_La2GaCoO6
_symmetry_space_group_name_H-M   'P 1'
_cell_length_a   5.50009492
_cell_length_b   5.50009492
_cell_length_c   5.50009480
_cell_angle_alpha   60.63094410
_cell_angle_beta   60.63094410
_cell_angle_gamma   60.63094257
_symmetry_Int_Tables_number   1
_chemical_formula_structural   La2GaCoO6
_chemical_formula_sum   'La2 Ga1 Co1 O6'
_cell_volume   119.32715367
_cell_formula_units_Z   1
loop_
 _symmetry_equiv_pos_site_id
 _symmetry_equiv_pos_as_xyz
  1  'x, y, z'
loop_
 _atom_site_type_symbol
 _atom_site_label
 _atom_site_symmetry_multiplicity
 _atom_site_fract_x
 _atom_site_fract_y
 _atom_site_fract_z
 _atom_site_occupancy
  La  La0  1  0.24985900  0.24985900  0.24985900  1
  La  La1  1  0.75014100  0.75014100  0.75014100  1
  Ga  Ga2  1  0.50000000  0.50000000  0.50000000  1
  Co  Co3  1  0.00000000  0.00000000  0.00000000  1
  O  O4  1  0.69234100  0.80766300  0.24928300  1
  O  O5  1  0.24928300  0.69234100  0.80766300  1
  O  O6  1  0.80766300  0.24928300  0.69234100  1
  O  O7  1  0.75071700  0.30765900  0.19233700  1
  O  O8  1  0.19233700  0.75071700  0.30765900  1
  O  O9  1  0.30765900  0.19233700  0.75071700  1
