# generated using pymatgen
data_K2Ag3Sb3S7
_symmetry_space_group_name_H-M   'P 1'
_cell_length_a   13.48732715
_cell_length_b   13.48732715
_cell_length_c   6.92045400
_cell_angle_alpha   90.00000000
_cell_angle_beta   90.00000000
_cell_angle_gamma   140.24371526
_symmetry_Int_Tables_number   1
_chemical_formula_structural   K2Ag3Sb3S7
_chemical_formula_sum   'K4 Ag6 Sb6 S14'
_cell_volume   805.08690700
_cell_formula_units_Z   2
loop_
 _symmetry_equiv_pos_site_id
 _symmetry_equiv_pos_as_xyz
  1  'x, y, z'
loop_
 _atom_site_type_symbol
 _atom_site_label
 _atom_site_symmetry_multiplicity
 _atom_site_fract_x
 _atom_site_fract_y
 _atom_site_fract_z
 _atom_site_occupancy
  K  K0  1  0.48373500  0.89728400  0.68535000  1
  K  K1  1  0.89728400  0.48373500  0.68535000  1
  K  K2  1  0.51626500  0.10271600  0.18535000  1
  K  K3  1  0.10271600  0.51626500  0.18535000  1
  Ag  Ag4  1  0.67979500  0.67979500  0.37388100  1
  Ag  Ag5  1  0.32020500  0.32020500  0.87388100  1
  Ag  Ag6  1  0.40246700  0.58290000  0.62764600  1
  Ag  Ag7  1  0.58290000  0.40246700  0.62764600  1
  Ag  Ag8  1  0.59753300  0.41710000  0.12764600  1
  Ag  Ag9  1  0.41710000  0.59753300  0.12764600  1
  Sb  Sb10  1  0.98182800  0.23785700  0.68548300  1
  Sb  Sb11  1  0.23785700  0.98182800  0.68548300  1
  Sb  Sb12  1  0.01817200  0.76214300  0.18548300  1
  Sb  Sb13  1  0.76214300  0.01817200  0.18548300  1
  Sb  Sb14  1  0.84182100  0.84182100  0.82893900  1
  Sb  Sb15  1  0.15817900  0.15817900  0.32893900  1
  S  S16  1  0.61887200  0.61887200  0.02766900  1
  S  S17  1  0.38112800  0.38112800  0.52766900  1
  S  S18  1  0.81782900  0.19425000  0.42732300  1
  S  S19  1  0.19425000  0.81782900  0.42732300  1
  S  S20  1  0.18217100  0.80575000  0.92732300  1
  S  S21  1  0.80575000  0.18217100  0.92732300  1
  S  S22  1  0.17630600  0.51792700  0.69085600  1
  S  S23  1  0.51792700  0.17630600  0.69085600  1
  S  S24  1  0.82369400  0.48207300  0.19085600  1
  S  S25  1  0.48207300  0.82369400  0.19085600  1
  S  S26  1  0.84187900  0.69327100  0.61885300  1
  S  S27  1  0.69327100  0.84187900  0.61885300  1
  S  S28  1  0.15812100  0.30672900  0.11885300  1
  S  S29  1  0.30672900  0.15812100  0.11885300  1
