# generated using pymatgen
data_La5AlSi2O13
_symmetry_space_group_name_H-M   'P 1'
_cell_length_a   7.25168900
_cell_length_b   9.81272400
_cell_length_c   9.81562793
_cell_angle_alpha   60.19181657
_cell_angle_beta   90.00000000
_cell_angle_gamma   90.00000000
_symmetry_Int_Tables_number   1
_chemical_formula_structural   La5AlSi2O13
_chemical_formula_sum   'La10 Al2 Si4 O26'
_cell_volume   606.05727346
_cell_formula_units_Z   2
loop_
 _symmetry_equiv_pos_site_id
 _symmetry_equiv_pos_as_xyz
  1  'x, y, z'
loop_
 _atom_site_type_symbol
 _atom_site_label
 _atom_site_symmetry_multiplicity
 _atom_site_fract_x
 _atom_site_fract_y
 _atom_site_fract_z
 _atom_site_occupancy
  La  La0  1  0.00000000  0.76957400  0.98666600  1
  La  La1  1  0.00000000  0.23401200  0.76349700  1
  La  La2  1  0.00000000  0.99471400  0.24250100  1
  La  La3  1  0.50000000  0.23837000  0.00264800  1
  La  La4  1  0.50000000  0.75760600  0.23147200  1
  La  La5  1  0.50000000  0.00320900  0.76269500  1
  La  La6  1  0.25015800  0.66590400  0.67346600  1
  La  La7  1  0.75013300  0.33057700  0.33733600  1
  La  La8  1  0.74984200  0.66590400  0.67346600  1
  La  La9  1  0.24986700  0.33057700  0.33733600  1
  Al  Al10  1  0.00000000  0.02850500  0.59635100  1
  Al  Al11  1  0.50000000  0.62450400  0.97391600  1
  Si  Si12  1  0.00000000  0.37129500  0.03077500  1
  Si  Si13  1  0.00000000  0.59928100  0.37174300  1
  Si  Si14  1  0.50000000  0.96868600  0.40134600  1
  Si  Si15  1  0.50000000  0.40340700  0.62738700  1
  O  O16  1  0.00000000  0.82469100  0.67384500  1
  O  O17  1  0.00000000  0.48735800  0.84039000  1
  O  O18  1  0.00000000  0.66976600  0.49138800  1
  O  O19  1  0.50000000  0.15896100  0.33006800  1
  O  O20  1  0.50000000  0.49907000  0.17787700  1
  O  O21  1  0.50000000  0.33036500  0.51001700  1
  O  O22  1  0.19105200  0.09426300  0.66031900  1
  O  O23  1  0.18291000  0.25600400  0.08506500  1
  O  O24  1  0.18289900  0.65865100  0.25610700  1
  O  O25  1  0.68251500  0.91327900  0.34067200  1
  O  O26  1  0.69261800  0.75244400  0.90913500  1
  O  O27  1  0.68163300  0.34318400  0.74388100  1
  O  O28  1  0.00000000  0.13702200  0.38880800  1
  O  O29  1  0.00000000  0.46896100  0.12725500  1
  O  O30  1  0.00000000  0.40534700  0.46657600  1
  O  O31  1  0.50000000  0.87169800  0.59484900  1
  O  O32  1  0.50000000  0.52720600  0.86324600  1
  O  O33  1  0.50000000  0.59729800  0.52916700  1
  O  O34  1  0.00000000  0.00096200  0.00317300  1
  O  O35  1  0.50000000  0.00021200  0.00496300  1
  O  O36  1  0.80894800  0.09426300  0.66031900  1
  O  O37  1  0.81709000  0.25600400  0.08506500  1
  O  O38  1  0.81710100  0.65865100  0.25610700  1
  O  O39  1  0.31748500  0.91327900  0.34067200  1
  O  O40  1  0.30738200  0.75244400  0.90913500  1
  O  O41  1  0.31836700  0.34318400  0.74388100  1
