# generated using pymatgen
data_KH8WN2(OF)3
_symmetry_space_group_name_H-M   'P 1'
_cell_length_a   6.34858900
_cell_length_b   6.44728500
_cell_length_c   11.32764399
_cell_angle_alpha   56.20598120
_cell_angle_beta   90.00000000
_cell_angle_gamma   90.00000000
_symmetry_Int_Tables_number   1
_chemical_formula_structural   KH8WN2(OF)3
_chemical_formula_sum   'K2 H16 W2 N4 O6 F6'
_cell_volume   385.31589594
_cell_formula_units_Z   2
loop_
 _symmetry_equiv_pos_site_id
 _symmetry_equiv_pos_as_xyz
  1  'x, y, z'
loop_
 _atom_site_type_symbol
 _atom_site_label
 _atom_site_symmetry_multiplicity
 _atom_site_fract_x
 _atom_site_fract_y
 _atom_site_fract_z
 _atom_site_occupancy
  K  K0  1  0.25778200  0.50185700  0.50046000  1
  K  K1  1  0.74221800  0.50185700  0.00046000  1
  H  H2  1  0.56369800  0.77516000  0.21875700  1
  H  H3  1  0.43630200  0.77516000  0.71875700  1
  H  H4  1  0.92610500  0.24255500  0.77898700  1
  H  H5  1  0.07389500  0.24255500  0.27898700  1
  H  H6  1  0.81878400  0.78832400  0.15223000  1
  H  H7  1  0.18121600  0.78832400  0.65223000  1
  H  H8  1  0.66871300  0.22213000  0.84246300  1
  H  H9  1  0.33128700  0.22213000  0.34246300  1
  H  H10  1  0.78292300  0.80457900  0.29588500  1
  H  H11  1  0.21707700  0.80457900  0.79588500  1
  H  H12  1  0.72294500  0.13337000  0.72794500  1
  H  H13  1  0.27705500  0.13337000  0.22794500  1
  H  H14  1  0.74554000  0.53294500  0.30403000  1
  H  H15  1  0.25446000  0.53294500  0.80403000  1
  H  H16  1  0.73209700  0.43809700  0.67175300  1
  H  H17  1  0.26790300  0.43809700  0.17175300  1
  W  W18  1  0.77762400  0.99279300  0.50372600  1
  W  W19  1  0.22237600  0.99279300  0.00372600  1
  N  N20  1  0.72880400  0.72695800  0.24336400  1
  N  N21  1  0.27119600  0.72695800  0.74336400  1
  N  N22  1  0.76117400  0.25746000  0.75584700  1
  N  N23  1  0.23882600  0.25746000  0.25584700  1
  O  O24  1  0.68708500  0.82955200  0.69309800  1
  O  O25  1  0.31291500  0.82955200  0.19309800  1
  O  O26  1  0.80487800  0.23577800  0.30868300  1
  O  O27  1  0.19512200  0.23577800  0.80868300  1
  O  O28  1  0.00737700  0.81063600  0.52486300  1
  O  O29  1  0.99262300  0.81063600  0.02486300  1
  F  F30  1  0.92950800  0.23099400  0.53467200  1
  F  F31  1  0.07049200  0.23099400  0.03467200  1
  F  F32  1  0.58893500  0.77745300  0.47340700  1
  F  F33  1  0.41106500  0.77745300  0.97340700  1
  F  F34  1  0.48986500  0.19935900  0.46982700  1
  F  F35  1  0.51013500  0.19935900  0.96982700  1
