# generated using pymatgen
data_LaH6S3(NO3)3
_symmetry_space_group_name_H-M   'P 1'
_cell_length_a   10.02788958
_cell_length_b   10.02788958
_cell_length_c   5.89894100
_cell_angle_alpha   90.00000000
_cell_angle_beta   90.00000000
_cell_angle_gamma   119.99999722
_symmetry_Int_Tables_number   1
_chemical_formula_structural   LaH6S3(NO3)3
_chemical_formula_sum   'La2 H12 S6 N6 O18'
_cell_volume   513.71681649
_cell_formula_units_Z   2
loop_
 _symmetry_equiv_pos_site_id
 _symmetry_equiv_pos_as_xyz
  1  'x, y, z'
loop_
 _atom_site_type_symbol
 _atom_site_label
 _atom_site_symmetry_multiplicity
 _atom_site_fract_x
 _atom_site_fract_y
 _atom_site_fract_z
 _atom_site_occupancy
  La  La0  1  0.33333300  0.66666700  0.24672200  1
  La  La1  1  0.66666700  0.33333300  0.74672200  1
  H  H2  1  0.33374200  0.26522600  0.23917300  1
  H  H3  1  0.93148300  0.66625800  0.23917300  1
  H  H4  1  0.73477400  0.06851700  0.23917300  1
  H  H5  1  0.66625800  0.73477400  0.73917300  1
  H  H6  1  0.06851700  0.33374200  0.73917300  1
  H  H7  1  0.26522600  0.93148300  0.73917300  1
  H  H8  1  0.20278700  0.10764800  0.37328800  1
  H  H9  1  0.90486100  0.79721300  0.37328800  1
  H  H10  1  0.89235200  0.09513900  0.37328800  1
  H  H11  1  0.79721300  0.89235200  0.87328800  1
  H  H12  1  0.09513900  0.20278700  0.87328800  1
  H  H13  1  0.10764800  0.90486100  0.87328800  1
  S  S14  1  0.40028400  0.08576000  0.24822400  1
  S  S15  1  0.68547600  0.59971600  0.24822400  1
  S  S16  1  0.91424000  0.31452400  0.24822400  1
  S  S17  1  0.59971600  0.91424000  0.74822400  1
  S  S18  1  0.31452400  0.40028400  0.74822400  1
  S  S19  1  0.08576000  0.68547600  0.74822400  1
  N  N20  1  0.27411500  0.14725700  0.23479100  1
  N  N21  1  0.87314300  0.72588500  0.23479100  1
  N  N22  1  0.85274300  0.12685700  0.23479100  1
  N  N23  1  0.72588500  0.85274300  0.73479100  1
  N  N24  1  0.12685700  0.27411500  0.73479100  1
  N  N25  1  0.14725700  0.87314300  0.73479100  1
  O  O26  1  0.30624000  0.91835700  0.24820300  1
  O  O27  1  0.61211700  0.69376000  0.24820300  1
  O  O28  1  0.08164300  0.38788300  0.24820300  1
  O  O29  1  0.69376000  0.08164300  0.74820300  1
  O  O30  1  0.38788300  0.30624000  0.74820300  1
  O  O31  1  0.91835700  0.61211700  0.74820300  1
  O  O32  1  0.34712700  0.49465200  0.54346300  1
  O  O33  1  0.14752500  0.65287300  0.54346300  1
  O  O34  1  0.50534800  0.85247500  0.54346300  1
  O  O35  1  0.65287300  0.50534800  0.04346300  1
  O  O36  1  0.85247500  0.34712700  0.04346300  1
  O  O37  1  0.49465200  0.14752500  0.04346300  1
  O  O38  1  0.65208800  0.50648500  0.45595400  1
  O  O39  1  0.85439700  0.34791200  0.45595400  1
  O  O40  1  0.49351500  0.14560300  0.45595400  1
  O  O41  1  0.34791200  0.49351500  0.95595400  1
  O  O42  1  0.14560300  0.65208800  0.95595400  1
  O  O43  1  0.50648500  0.85439700  0.95595400  1
