# generated using pymatgen
data_La2Mn3FeSi4
_symmetry_space_group_name_H-M   'P 1'
_cell_length_a   4.01745000
_cell_length_b   4.01745000
_cell_length_c   10.53390500
_cell_angle_alpha   90.00000000
_cell_angle_beta   90.00000000
_cell_angle_gamma   90.00000000
_symmetry_Int_Tables_number   1
_chemical_formula_structural   La2Mn3FeSi4
_chemical_formula_sum   'La2 Mn3 Fe1 Si4'
_cell_volume   170.01622074
_cell_formula_units_Z   1
loop_
 _symmetry_equiv_pos_site_id
 _symmetry_equiv_pos_as_xyz
  1  'x, y, z'
loop_
 _atom_site_type_symbol
 _atom_site_label
 _atom_site_symmetry_multiplicity
 _atom_site_fract_x
 _atom_site_fract_y
 _atom_site_fract_z
 _atom_site_occupancy
  La  La0  1  0.50000000  0.00000000  0.75197700  1
  La  La1  1  0.00000000  0.50000000  0.24802300  1
  Mn  Mn2  1  0.00000000  0.00000000  0.50000000  1
  Mn  Mn3  1  0.00000000  0.00000000  0.00000000  1
  Mn  Mn4  1  0.50000000  0.50000000  0.50000000  1
  Fe  Fe5  1  0.50000000  0.50000000  0.00000000  1
  Si  Si6  1  0.00000000  0.50000000  0.88234700  1
  Si  Si7  1  0.50000000  0.00000000  0.37788500  1
  Si  Si8  1  0.50000000  0.00000000  0.11765300  1
  Si  Si9  1  0.00000000  0.50000000  0.62211500  1
