# generated using pymatgen
data_Pa3O
_symmetry_space_group_name_H-M   'P 1'
_cell_length_a   6.14100022
_cell_length_b   6.13983341
_cell_length_c   4.82124628
_cell_angle_alpha   89.96404509
_cell_angle_beta   90.02938144
_cell_angle_gamma   120.01633877
_symmetry_Int_Tables_number   1
_chemical_formula_structural   Pa3O
_chemical_formula_sum   'Pa6 O2'
_cell_volume   157.40336984
_cell_formula_units_Z   2
loop_
 _symmetry_equiv_pos_site_id
 _symmetry_equiv_pos_as_xyz
  1  'x, y, z'
loop_
 _atom_site_type_symbol
 _atom_site_label
 _atom_site_symmetry_multiplicity
 _atom_site_fract_x
 _atom_site_fract_y
 _atom_site_fract_z
 _atom_site_occupancy
  Pa  Pa0  1  0.82783000  0.17221200  0.74984700  1
  Pa  Pa1  1  0.34407400  0.17196400  0.75005700  1
  Pa  Pa2  1  0.82798100  0.65595700  0.75006800  1
  Pa  Pa3  1  0.17226200  0.82757600  0.25013800  1
  Pa  Pa4  1  0.65561300  0.82748200  0.24995800  1
  Pa  Pa5  1  0.17230400  0.34424100  0.24993000  1
  O  O6  1  0.66667800  0.33351800  0.24998800  1
  O  O7  1  0.33325600  0.66704500  0.75001300  1
