# generated using pymatgen
data_KH3(SeO3)2
_symmetry_space_group_name_H-M   'P 1'
_cell_length_a   6.43851900
_cell_length_b   6.47697700
_cell_length_c   16.20575400
_cell_angle_alpha   90.00000000
_cell_angle_beta   90.00000000
_cell_angle_gamma   90.00000000
_symmetry_Int_Tables_number   1
_chemical_formula_structural   KH3(SeO3)2
_chemical_formula_sum   'K4 H12 Se8 O24'
_cell_volume   675.81461364
_cell_formula_units_Z   4
loop_
 _symmetry_equiv_pos_site_id
 _symmetry_equiv_pos_as_xyz
  1  'x, y, z'
loop_
 _atom_site_type_symbol
 _atom_site_label
 _atom_site_symmetry_multiplicity
 _atom_site_fract_x
 _atom_site_fract_y
 _atom_site_fract_z
 _atom_site_occupancy
  K  K0  1  0.56139200  0.74809700  0.50480100  1
  K  K1  1  0.43860800  0.25190300  0.00480100  1
  K  K2  1  0.93860800  0.24809700  0.50480100  1
  K  K3  1  0.06139200  0.75190300  0.00480100  1
  H  H4  1  0.31193000  0.96447100  0.82592500  1
  H  H5  1  0.68995900  0.46851300  0.67503400  1
  H  H6  1  0.68807000  0.03552900  0.32592500  1
  H  H7  1  0.31004100  0.53148700  0.17503400  1
  H  H8  1  0.18995900  0.03148700  0.17503400  1
  H  H9  1  0.81193000  0.53552900  0.32592500  1
  H  H10  1  0.81004100  0.96851300  0.67503400  1
  H  H11  1  0.18807000  0.46447100  0.82592500  1
  H  H12  1  0.62395600  0.76653200  0.98979300  1
  H  H13  1  0.37604400  0.23346800  0.48979300  1
  H  H14  1  0.12395600  0.73346800  0.48979300  1
  H  H15  1  0.87604400  0.26653200  0.98979300  1
  Se  Se16  1  0.55614600  0.70605400  0.84715100  1
  Se  Se17  1  0.44050500  0.21244600  0.64900800  1
  Se  Se18  1  0.44385400  0.29394600  0.34715100  1
  Se  Se19  1  0.55949500  0.78755400  0.14900800  1
  Se  Se20  1  0.94050500  0.28755400  0.14900800  1
  Se  Se21  1  0.05614600  0.79394600  0.34715100  1
  Se  Se22  1  0.05949500  0.71244600  0.64900800  1
  Se  Se23  1  0.94385400  0.20605400  0.84715100  1
  O  O24  1  0.35700300  0.57133500  0.88807300  1
  O  O25  1  0.64326800  0.07334100  0.61130600  1
  O  O26  1  0.64299700  0.42866500  0.38807300  1
  O  O27  1  0.35673200  0.92665900  0.11130600  1
  O  O28  1  0.14326800  0.42665900  0.11130600  1
  O  O29  1  0.85700300  0.92866500  0.38807300  1
  O  O30  1  0.85673200  0.57334100  0.61130600  1
  O  O31  1  0.14299700  0.07133500  0.88807300  1
  O  O32  1  0.43261100  0.90928900  0.79177000  1
  O  O33  1  0.57261600  0.40792700  0.70968900  1
  O  O34  1  0.56738900  0.09071100  0.29177000  1
  O  O35  1  0.42738400  0.59207300  0.20968900  1
  O  O36  1  0.07261600  0.09207300  0.20968900  1
  O  O37  1  0.93261100  0.59071100  0.29177000  1
  O  O38  1  0.92738400  0.90792700  0.70968900  1
  O  O39  1  0.06738900  0.40928900  0.79177000  1
  O  O40  1  0.63472900  0.85754500  0.93383300  1
  O  O41  1  0.36433100  0.35230100  0.56361700  1
  O  O42  1  0.36527100  0.14245500  0.43383300  1
  O  O43  1  0.63566900  0.64769900  0.06361700  1
  O  O44  1  0.86433100  0.14769900  0.06361700  1
  O  O45  1  0.13472900  0.64245500  0.43383300  1
  O  O46  1  0.13566900  0.85230100  0.56361700  1
  O  O47  1  0.86527100  0.35754500  0.93383300  1
