# generated using pymatgen
data_K2NaNb3O9
_symmetry_space_group_name_H-M   'P 1'
_cell_length_a   4.00883500
_cell_length_b   8.11358300
_cell_length_c   13.04323566
_cell_angle_alpha   72.33081229
_cell_angle_beta   90.00000000
_cell_angle_gamma   90.00000000
_symmetry_Int_Tables_number   1
_chemical_formula_structural   K2NaNb3O9
_chemical_formula_sum   'K4 Na2 Nb6 O18'
_cell_volume   404.23068610
_cell_formula_units_Z   2
loop_
 _symmetry_equiv_pos_site_id
 _symmetry_equiv_pos_as_xyz
  1  'x, y, z'
loop_
 _atom_site_type_symbol
 _atom_site_label
 _atom_site_symmetry_multiplicity
 _atom_site_fract_x
 _atom_site_fract_y
 _atom_site_fract_z
 _atom_site_occupancy
  K  K0  1  0.00000000  0.48746200  0.50889900  1
  K  K1  1  0.00000000  0.65268800  0.16864800  1
  K  K2  1  0.00000000  0.98641300  0.50249100  1
  K  K3  1  0.00000000  0.31900800  0.83569000  1
  Na  Na4  1  0.00000000  0.80707700  0.85428000  1
  Na  Na5  1  0.00000000  0.14035800  0.18708200  1
  Nb  Nb6  1  0.50000000  0.64840900  0.68042800  1
  Nb  Nb7  1  0.50000000  0.98086000  0.01165000  1
  Nb  Nb8  1  0.50000000  0.31256400  0.34382700  1
  Nb  Nb9  1  0.50000000  0.13999500  0.67801900  1
  Nb  Nb10  1  0.50000000  0.47556600  0.00967500  1
  Nb  Nb11  1  0.50000000  0.81253300  0.34171800  1
  O  O12  1  0.50000000  0.26128100  0.49464500  1
  O  O13  1  0.50000000  0.60697100  0.83016900  1
  O  O14  1  0.50000000  0.93980000  0.16184400  1
  O  O15  1  0.50000000  0.92157700  0.65320900  1
  O  O16  1  0.50000000  0.25670700  0.98471400  1
  O  O17  1  0.50000000  0.58859200  0.32086400  1
  O  O18  1  0.00000000  0.16630200  0.66385700  1
  O  O19  1  0.00000000  0.50647400  0.99355700  1
  O  O20  1  0.00000000  0.84043700  0.32559900  1
  O  O21  1  0.50000000  0.06123700  0.82942900  1
  O  O22  1  0.50000000  0.39625100  0.16112800  1
  O  O23  1  0.50000000  0.73896400  0.49361800  1
  O  O24  1  0.50000000  0.41423300  0.67517900  1
  O  O25  1  0.50000000  0.74731400  0.00739300  1
  O  O26  1  0.50000000  0.08096500  0.33689200  1
  O  O27  1  0.00000000  0.00100000  0.99600800  1
  O  O28  1  0.00000000  0.33356800  0.32744700  1
  O  O29  1  0.00000000  0.67009300  0.66544400  1
