# generated using pymatgen
data_LaAgAs2
_symmetry_space_group_name_H-M   'P 1'
_cell_length_a   6.15585500
_cell_length_b   5.95518900
_cell_length_c   21.43250100
_cell_angle_alpha   90.00000000
_cell_angle_beta   90.00000000
_cell_angle_gamma   90.00000000
_symmetry_Int_Tables_number   1
_chemical_formula_structural   LaAgAs2
_chemical_formula_sum   'La8 Ag8 As16'
_cell_volume   785.70005486
_cell_formula_units_Z   8
loop_
 _symmetry_equiv_pos_site_id
 _symmetry_equiv_pos_as_xyz
  1  'x, y, z'
loop_
 _atom_site_type_symbol
 _atom_site_label
 _atom_site_symmetry_multiplicity
 _atom_site_fract_x
 _atom_site_fract_y
 _atom_site_fract_z
 _atom_site_occupancy
  La  La0  1  0.97791500  0.75000000  0.36653000  1
  La  La1  1  0.02208500  0.25000000  0.63347000  1
  La  La2  1  0.97791500  0.25000000  0.13347000  1
  La  La3  1  0.02208500  0.75000000  0.86653000  1
  La  La4  1  0.50580300  0.25000000  0.37186300  1
  La  La5  1  0.49419700  0.75000000  0.62813700  1
  La  La6  1  0.50580300  0.75000000  0.12813700  1
  La  La7  1  0.49419700  0.25000000  0.87186300  1
  Ag  Ag8  1  0.43019100  0.75000000  0.43743400  1
  Ag  Ag9  1  0.56980900  0.25000000  0.56256600  1
  Ag  Ag10  1  0.43019100  0.25000000  0.06256600  1
  Ag  Ag11  1  0.56980900  0.75000000  0.93743400  1
  Ag  Ag12  1  0.23733900  0.50000000  0.25000000  1
  Ag  Ag13  1  0.76266100  0.00000000  0.75000000  1
  Ag  Ag14  1  0.76266100  0.50000000  0.75000000  1
  Ag  Ag15  1  0.23733900  0.00000000  0.25000000  1
  As  As16  1  0.79204800  0.96200200  0.49278500  1
  As  As17  1  0.20795200  0.46200200  0.50721500  1
  As  As18  1  0.79204800  0.03799800  0.00721500  1
  As  As19  1  0.20795200  0.53799800  0.99278500  1
  As  As20  1  0.20795200  0.03799800  0.50721500  1
  As  As21  1  0.79204800  0.53799800  0.49278500  1
  As  As22  1  0.20795200  0.96200200  0.99278500  1
  As  As23  1  0.79204800  0.46200200  0.00721500  1
  As  As24  1  0.01579300  0.25000000  0.33500600  1
  As  As25  1  0.98420700  0.75000000  0.66499400  1
  As  As26  1  0.01579300  0.75000000  0.16499400  1
  As  As27  1  0.98420700  0.25000000  0.83500600  1
  As  As28  1  0.51773800  0.75000000  0.31935200  1
  As  As29  1  0.48226200  0.25000000  0.68064800  1
  As  As30  1  0.51773800  0.25000000  0.18064800  1
  As  As31  1  0.48226200  0.75000000  0.81935200  1
