# generated using pymatgen
data_La12Ge5S28
_symmetry_space_group_name_H-M   'P 1'
_cell_length_a   10.36528400
_cell_length_b   11.76867504
_cell_length_c   11.91311443
_cell_angle_alpha   119.59812388
_cell_angle_beta   115.77856523
_cell_angle_gamma   89.99554532
_symmetry_Int_Tables_number   1
_chemical_formula_structural   La12Ge5S28
_chemical_formula_sum   'La12 Ge5 S28'
_cell_volume   1094.22453280
_cell_formula_units_Z   1
loop_
 _symmetry_equiv_pos_site_id
 _symmetry_equiv_pos_as_xyz
  1  'x, y, z'
loop_
 _atom_site_type_symbol
 _atom_site_label
 _atom_site_symmetry_multiplicity
 _atom_site_fract_x
 _atom_site_fract_y
 _atom_site_fract_z
 _atom_site_occupancy
  La  La0  1  0.63706500  0.06041100  0.87140300  1
  La  La1  1  0.65373100  0.57819600  0.87792900  1
  La  La2  1  0.22321600  0.81220600  0.34576100  1
  La  La3  1  0.23576200  0.30631600  0.36405800  1
  La  La4  1  0.12632100  0.00592800  0.76287900  1
  La  La5  1  0.12369100  0.52827000  0.77780400  1
  La  La6  1  0.34477600  0.93478200  0.12134500  1
  La  La7  1  0.36569900  0.45425700  0.13075600  1
  La  La8  1  0.76626500  0.20565100  0.63343300  1
  La  La9  1  0.77613900  0.70183000  0.65577300  1
  La  La10  1  0.87877200  0.98642700  0.22420900  1
  La  La11  1  0.86838100  0.50547700  0.23359000  1
  Ge  Ge12  1  0.66737800  0.34030800  0.33476400  1
  Ge  Ge13  1  0.66616500  0.84046300  0.33220700  1
  Ge  Ge14  1  0.33505200  0.75471300  0.66658700  1
  Ge  Ge15  1  0.33149900  0.25539300  0.66673100  1
  Ge  Ge16  1  0.00022400  0.25008600  0.00026300  1
  S  S17  1  0.66966400  0.65732800  0.34075700  1
  S  S18  1  0.66351200  0.14919800  0.32603500  1
  S  S19  1  0.33401100  0.56912400  0.66851300  1
  S  S20  1  0.33264100  0.06746600  0.66495600  1
  S  S21  1  0.83307100  0.49447800  0.74091100  1
  S  S22  1  0.84768500  0.02119000  0.76678300  1
  S  S23  1  0.91936000  0.21403200  0.15267000  1
  S  S24  1  0.90770200  0.70708800  0.16670200  1
  S  S25  1  0.23290100  0.17811100  0.08055700  1
  S  S26  1  0.25871100  0.66957100  0.09220800  1
  S  S27  1  0.14650800  0.47432200  0.22997600  1
  S  S28  1  0.16810900  0.00687800  0.25929800  1
  S  S29  1  0.09000300  0.79232600  0.83163200  1
  S  S30  1  0.08384400  0.28647900  0.85332700  1
  S  S31  1  0.74136000  0.83145000  0.90918700  1
  S  S32  1  0.76990600  0.31774200  0.91610300  1
  S  S33  1  0.89349600  0.48744100  0.47758000  1
  S  S34  1  0.89300900  0.98903100  0.47987300  1
  S  S35  1  0.58602900  0.30109000  0.10674200  1
  S  S36  1  0.58538500  0.80378400  0.10710400  1
  S  S37  1  0.51982300  0.45573100  0.41252500  1
  S  S38  1  0.52265700  0.95636700  0.41625100  1
  S  S39  1  0.11034400  0.75423500  0.51400800  1
  S  S40  1  0.10412600  0.26146800  0.52623300  1
  S  S41  1  0.41135100  0.94417500  0.89382700  1
  S  S42  1  0.41511200  0.44431700  0.89237600  1
  S  S43  1  0.47419700  0.78772700  0.57867400  1
  S  S44  1  0.48534800  0.29514000  0.59569900  1
