# generated using pymatgen
data_La4ZnCu2MoO12
_symmetry_space_group_name_H-M   'P 1'
_cell_length_a   7.99721800
_cell_length_b   8.03137893
_cell_length_c   11.68744663
_cell_angle_alpha   100.02664772
_cell_angle_beta   99.90435847
_cell_angle_gamma   119.68790056
_symmetry_Int_Tables_number   1
_chemical_formula_structural   La4ZnCu2MoO12
_chemical_formula_sum   'La8 Zn2 Cu4 Mo2 O24'
_cell_volume   612.21683046
_cell_formula_units_Z   2
loop_
 _symmetry_equiv_pos_site_id
 _symmetry_equiv_pos_as_xyz
  1  'x, y, z'
loop_
 _atom_site_type_symbol
 _atom_site_label
 _atom_site_symmetry_multiplicity
 _atom_site_fract_x
 _atom_site_fract_y
 _atom_site_fract_z
 _atom_site_occupancy
  La  La0  1  0.00000000  0.50000000  0.00000000  1
  La  La1  1  0.25109500  0.75458600  0.50586600  1
  La  La2  1  0.74890500  0.24541400  0.49413400  1
  La  La3  1  0.50000000  0.00000000  0.00000000  1
  La  La4  1  0.75977800  0.75916200  0.49752900  1
  La  La5  1  0.24022200  0.24083800  0.50247100  1
  La  La6  1  0.00000000  0.00000000  0.00000000  1
  La  La7  1  0.50000000  0.50000000  0.00000000  1
  Zn  Zn8  1  0.22484200  0.01183200  0.75315300  1
  Zn  Zn9  1  0.77515800  0.98816800  0.24684700  1
  Cu  Cu10  1  0.22809300  0.57748500  0.74974100  1
  Cu  Cu11  1  0.77190700  0.42251500  0.25025900  1
  Cu  Cu12  1  0.66890400  0.01994800  0.74884400  1
  Cu  Cu13  1  0.33109600  0.98005200  0.25115600  1
  Mo  Mo14  1  0.70880400  0.54005700  0.74609800  1
  Mo  Mo15  1  0.29119600  0.45994300  0.25390200  1
  O  O16  1  0.88082700  0.54733300  0.41703600  1
  O  O17  1  0.11917300  0.45266700  0.58296400  1
  O  O18  1  0.38424200  0.85857400  0.74860300  1
  O  O19  1  0.61575800  0.14142600  0.25139700  1
  O  O20  1  0.44220000  0.40292100  0.74711100  1
  O  O21  1  0.55780000  0.59707900  0.25288900  1
  O  O22  1  0.38104600  0.54653300  0.42911700  1
  O  O23  1  0.61895400  0.45346700  0.57088300  1
  O  O24  1  0.16025900  0.59247800  0.25160500  1
  O  O25  1  0.83974100  0.40752200  0.74839500  1
  O  O26  1  0.14671000  0.19350700  0.25144300  1
  O  O27  1  0.85329000  0.80649300  0.74855700  1
  O  O28  1  0.20646600  0.87441600  0.08441700  1
  O  O29  1  0.79353400  0.12558400  0.91558300  1
  O  O30  1  0.20532400  0.37043200  0.07555100  1
  O  O31  1  0.79467600  0.62956800  0.92444900  1
  O  O32  1  0.71165600  0.37843500  0.08350900  1
  O  O33  1  0.28834400  0.62156500  0.91649100  1
  O  O34  1  0.29199300  0.12964300  0.91927100  1
  O  O35  1  0.70800700  0.87035700  0.08072900  1
  O  O36  1  0.36940100  0.03904800  0.41762200  1
  O  O37  1  0.63059900  0.96095200  0.58237800  1
  O  O38  1  0.12262500  0.96140300  0.58591900  1
  O  O39  1  0.87737500  0.03859700  0.41408100  1
