# generated using pymatgen
data_Mo12PN3O61
_symmetry_space_group_name_H-M   'P 1'
_cell_length_a   10.97260200
_cell_length_b   10.97260200
_cell_length_c   10.97260200
_cell_angle_alpha   90.00000000
_cell_angle_beta   90.00000000
_cell_angle_gamma   90.00000000
_symmetry_Int_Tables_number   1
_chemical_formula_structural   Mo12PN3O61
_chemical_formula_sum   'Mo12 P1 N3 O61'
_cell_volume   1321.07927690
_cell_formula_units_Z   1
loop_
 _symmetry_equiv_pos_site_id
 _symmetry_equiv_pos_as_xyz
  1  'x, y, z'
loop_
 _atom_site_type_symbol
 _atom_site_label
 _atom_site_symmetry_multiplicity
 _atom_site_fract_x
 _atom_site_fract_y
 _atom_site_fract_z
 _atom_site_occupancy
  Mo  Mo0  1  0.26653200  0.49093800  0.73346800  1
  Mo  Mo1  1  0.49093800  0.26653200  0.73346800  1
  Mo  Mo2  1  0.26653200  0.26653200  0.50906200  1
  Mo  Mo3  1  0.26653200  0.50906200  0.26653200  1
  Mo  Mo4  1  0.49093800  0.73346800  0.26653200  1
  Mo  Mo5  1  0.26653200  0.73346800  0.49093800  1
  Mo  Mo6  1  0.73346800  0.49093800  0.26653200  1
  Mo  Mo7  1  0.50906200  0.26653200  0.26653200  1
  Mo  Mo8  1  0.73346800  0.26653200  0.49093800  1
  Mo  Mo9  1  0.73346800  0.50906200  0.73346800  1
  Mo  Mo10  1  0.50906200  0.73346800  0.73346800  1
  Mo  Mo11  1  0.73346800  0.73346800  0.50906200  1
  P  P12  1  0.50000000  0.50000000  0.50000000  1
  N  N13  1  0.00000000  0.50000000  0.50000000  1
  N  N14  1  0.50000000  0.50000000  0.00000000  1
  N  N15  1  0.50000000  0.00000000  0.50000000  1
  O  O16  1  0.19041200  0.36287300  0.63712700  1
  O  O17  1  0.36287300  0.36287300  0.80958800  1
  O  O18  1  0.36287300  0.19041200  0.63712700  1
  O  O19  1  0.19041200  0.63712700  0.36287300  1
  O  O20  1  0.36287300  0.63712700  0.19041200  1
  O  O21  1  0.36287300  0.80958800  0.36287300  1
  O  O22  1  0.80958800  0.36287300  0.36287300  1
  O  O23  1  0.63712700  0.36287300  0.19041200  1
  O  O24  1  0.63712700  0.19041200  0.36287300  1
  O  O25  1  0.80958800  0.63712700  0.63712700  1
  O  O26  1  0.63712700  0.63712700  0.80958800  1
  O  O27  1  0.63712700  0.80958800  0.63712700  1
  O  O28  1  0.77618200  0.60751900  0.39248100  1
  O  O29  1  0.60751900  0.60751900  0.22381800  1
  O  O30  1  0.60751900  0.77618200  0.39248100  1
  O  O31  1  0.77618200  0.39248100  0.60751900  1
  O  O32  1  0.60751900  0.39248100  0.77618200  1
  O  O33  1  0.60751900  0.22381800  0.60751900  1
  O  O34  1  0.22381800  0.60751900  0.60751900  1
  O  O35  1  0.39248100  0.60751900  0.77618200  1
  O  O36  1  0.39248100  0.77618200  0.60751900  1
  O  O37  1  0.22381800  0.39248100  0.39248100  1
  O  O38  1  0.39248100  0.39248100  0.22381800  1
  O  O39  1  0.39248100  0.22381800  0.39248100  1
  O  O40  1  0.15773800  0.51649400  0.84226200  1
  O  O41  1  0.51649400  0.15773800  0.84226200  1
  O  O42  1  0.15773800  0.15773800  0.48350600  1
  O  O43  1  0.15773800  0.48350600  0.15773800  1
  O  O44  1  0.51649400  0.84226200  0.15773800  1
  O  O45  1  0.15773800  0.84226200  0.51649400  1
  O  O46  1  0.84226200  0.51649400  0.15773800  1
  O  O47  1  0.48350600  0.15773800  0.15773800  1
  O  O48  1  0.84226200  0.15773800  0.51649400  1
  O  O49  1  0.84226200  0.48350600  0.84226200  1
  O  O50  1  0.48350600  0.84226200  0.84226200  1
  O  O51  1  0.84226200  0.84226200  0.48350600  1
  O  O52  1  0.00000000  0.30365900  0.00000000  1
  O  O53  1  0.30365900  0.00000000  0.00000000  1
  O  O54  1  0.00000000  0.00000000  0.69634100  1
  O  O55  1  0.00000000  0.69634100  0.00000000  1
  O  O56  1  0.00000000  0.00000000  0.30365900  1
  O  O57  1  0.69634100  0.00000000  0.00000000  1
  O  O58  1  0.00000000  0.50000000  0.00000000  1
  O  O59  1  0.50000000  0.00000000  0.00000000  1
  O  O60  1  0.00000000  0.00000000  0.50000000  1
  O  O61  1  0.08123200  0.17514700  0.82485300  1
  O  O62  1  0.17514700  0.17514700  0.91876800  1
  O  O63  1  0.17514700  0.08123200  0.82485300  1
  O  O64  1  0.08123200  0.82485300  0.17514700  1
  O  O65  1  0.17514700  0.82485300  0.08123200  1
  O  O66  1  0.17514700  0.91876800  0.17514700  1
  O  O67  1  0.91876800  0.17514700  0.17514700  1
  O  O68  1  0.82485300  0.17514700  0.08123200  1
  O  O69  1  0.82485300  0.08123200  0.17514700  1
  O  O70  1  0.91876800  0.82485300  0.82485300  1
  O  O71  1  0.82485300  0.82485300  0.91876800  1
  O  O72  1  0.82485300  0.91876800  0.82485300  1
  O  O73  1  0.41847800  0.41847800  0.58152200  1
  O  O74  1  0.41847800  0.58152200  0.41847800  1
  O  O75  1  0.58152200  0.41847800  0.41847800  1
  O  O76  1  0.58152200  0.58152200  0.58152200  1
