# generated using pymatgen
data_La8ScTi6NbO28
_symmetry_space_group_name_H-M   'P 1'
_cell_length_a   5.59093071
_cell_length_b   7.90216000
_cell_length_c   26.59205661
_cell_angle_alpha   90.00000000
_cell_angle_beta   89.43164452
_cell_angle_gamma   90.00000000
_symmetry_Int_Tables_number   1
_chemical_formula_structural   La8ScTi6NbO28
_chemical_formula_sum   'La16 Sc2 Ti12 Nb2 O56'
_cell_volume   1174.79066852
_cell_formula_units_Z   2
loop_
 _symmetry_equiv_pos_site_id
 _symmetry_equiv_pos_as_xyz
  1  'x, y, z'
loop_
 _atom_site_type_symbol
 _atom_site_label
 _atom_site_symmetry_multiplicity
 _atom_site_fract_x
 _atom_site_fract_y
 _atom_site_fract_z
 _atom_site_occupancy
  La  La0  1  0.71264900  0.87009600  0.45922200  1
  La  La1  1  0.21524500  0.12187100  0.55241200  1
  La  La2  1  0.21524500  0.37812900  0.05241200  1
  La  La3  1  0.71264900  0.62990400  0.95922200  1
  La  La4  1  0.22328000  0.87598100  0.30418300  1
  La  La5  1  0.72514800  0.12182300  0.69333400  1
  La  La6  1  0.72514800  0.37817700  0.19333400  1
  La  La7  1  0.22328000  0.62401900  0.80418300  1
  La  La8  1  0.71787100  0.87699700  0.19979800  1
  La  La9  1  0.21605500  0.11956400  0.79666200  1
  La  La10  1  0.21605500  0.38043600  0.29666200  1
  La  La11  1  0.71787100  0.62300300  0.69979800  1
  La  La12  1  0.16820800  0.87485200  0.03965900  1
  La  La13  1  0.66484200  0.11612700  0.96491800  1
  La  La14  1  0.66484200  0.38387300  0.46491800  1
  La  La15  1  0.16820800  0.62514800  0.53965900  1
  Sc  Sc16  1  0.20757700  0.62517000  0.40794300  1
  Sc  Sc17  1  0.20757700  0.87483000  0.90794300  1
  Ti  Ti18  1  0.71305400  0.62710800  0.30560000  1
  Ti  Ti19  1  0.21426100  0.37210000  0.69230000  1
  Ti  Ti20  1  0.21426100  0.12790000  0.19230000  1
  Ti  Ti21  1  0.71305400  0.87289200  0.80560000  1
  Ti  Ti22  1  0.21778900  0.62556900  0.19093900  1
  Ti  Ti23  1  0.71400700  0.37618100  0.80647400  1
  Ti  Ti24  1  0.71400700  0.12381900  0.30647400  1
  Ti  Ti25  1  0.21778900  0.87443100  0.69093900  1
  Ti  Ti26  1  0.71319300  0.38508000  0.59189600  1
  Ti  Ti27  1  0.71319300  0.11492000  0.09189600  1
  Ti  Ti28  1  0.70368300  0.61862500  0.09049900  1
  Ti  Ti29  1  0.70368300  0.88137500  0.59049900  1
  Nb  Nb30  1  0.20473500  0.37102700  0.91069600  1
  Nb  Nb31  1  0.20473500  0.12897300  0.41069600  1
  O  O32  1  0.93707400  0.61032400  0.03542700  1
  O  O33  1  0.42643800  0.38782000  0.96855600  1
  O  O34  1  0.42643800  0.11218000  0.46855600  1
  O  O35  1  0.93707400  0.88967600  0.53542700  1
  O  O36  1  0.77734300  0.88036000  0.09794400  1
  O  O37  1  0.29484800  0.13132500  0.90014300  1
  O  O38  1  0.29484800  0.36867500  0.40014300  1
  O  O39  1  0.77734300  0.61964000  0.59794400  1
  O  O40  1  0.49622500  0.67431600  0.35487400  1
  O  O41  1  0.00139100  0.33022900  0.64170900  1
  O  O42  1  0.00139100  0.16977100  0.14170900  1
  O  O43  1  0.49622500  0.82568400  0.85487400  1
  O  O44  1  0.01418700  0.58722800  0.13854600  1
  O  O45  1  0.50897000  0.42109700  0.85904600  1
  O  O46  1  0.50897000  0.07890300  0.35904600  1
  O  O47  1  0.01418700  0.91277200  0.63854600  1
  O  O48  1  0.95788300  0.59798700  0.24023600  1
  O  O49  1  0.45590300  0.40187300  0.75718800  1
  O  O50  1  0.45590300  0.09812700  0.25718800  1
  O  O51  1  0.95788300  0.90201300  0.74023600  1
  O  O52  1  0.52483500  0.65074300  0.15506400  1
  O  O53  1  0.01725000  0.34585100  0.84274400  1
  O  O54  1  0.01725000  0.15414900  0.34274400  1
  O  O55  1  0.52483500  0.84925700  0.65506400  1
  O  O56  1  0.45954300  0.66920900  0.25400800  1
  O  O57  1  0.96210600  0.32985200  0.74298200  1
  O  O58  1  0.96210600  0.17014800  0.24298200  1
  O  O59  1  0.45954300  0.83079100  0.75400800  1
  O  O60  1  0.44102000  0.63988700  0.46621300  1
  O  O61  1  0.93971100  0.35617900  0.53947700  1
  O  O62  1  0.93971100  0.14382100  0.03947700  1
  O  O63  1  0.44102000  0.86011300  0.96621300  1
  O  O64  1  0.79549200  0.88365700  0.29234500  1
  O  O65  1  0.29448300  0.11750200  0.70345700  1
  O  O66  1  0.29448300  0.38249800  0.20345700  1
  O  O67  1  0.79549200  0.61634300  0.79234500  1
  O  O68  1  0.45063200  0.63911300  0.04741600  1
  O  O69  1  0.93570300  0.35233900  0.95437500  1
  O  O70  1  0.93570300  0.14766100  0.45437500  1
  O  O71  1  0.45063200  0.86088700  0.54741600  1
  O  O72  1  0.94401200  0.61233900  0.46238800  1
  O  O73  1  0.45432300  0.38642300  0.54620600  1
  O  O74  1  0.45432300  0.11357700  0.04620600  1
  O  O75  1  0.94401200  0.88766100  0.96238800  1
  O  O76  1  0.14069800  0.88431800  0.40147900  1
  O  O77  1  0.66020100  0.11914000  0.59785600  1
  O  O78  1  0.66020100  0.38086000  0.09785600  1
  O  O79  1  0.14069800  0.61568200  0.90147900  1
  O  O80  1  0.17080600  0.88262300  0.19896900  1
  O  O81  1  0.66355300  0.11937300  0.79779000  1
  O  O82  1  0.66355300  0.38062700  0.29779000  1
  O  O83  1  0.17080600  0.61737700  0.69896900  1
  O  O84  1  0.00772200  0.60547100  0.34052600  1
  O  O85  1  0.51965200  0.38926500  0.65649900  1
  O  O86  1  0.51965200  0.11073500  0.15649900  1
  O  O87  1  0.00772200  0.89452900  0.84052600  1
