# generated using pymatgen
data_Ho4Co3
_symmetry_space_group_name_H-M   'P 1'
_cell_length_a   4.02184201
_cell_length_b   11.22928906
_cell_length_c   11.22437158
_cell_angle_alpha   59.97834843
_cell_angle_beta   90.00479306
_cell_angle_gamma   90.00947511
_symmetry_Int_Tables_number   1
_chemical_formula_structural   Ho4Co3
_chemical_formula_sum   'Ho12 Co9'
_cell_volume   438.90965618
_cell_formula_units_Z   3
loop_
 _symmetry_equiv_pos_site_id
 _symmetry_equiv_pos_as_xyz
  1  'x, y, z'
loop_
 _atom_site_type_symbol
 _atom_site_label
 _atom_site_symmetry_multiplicity
 _atom_site_fract_x
 _atom_site_fract_y
 _atom_site_fract_z
 _atom_site_occupancy
  Ho  Ho0  1  0.74901600  0.62041600  0.86438200  1
  Ho  Ho1  1  0.74899800  0.51522500  0.62044200  1
  Ho  Ho2  1  0.74908500  0.86434100  0.51511000  1
  Ho  Ho3  1  0.25098400  0.37958400  0.13561800  1
  Ho  Ho4  1  0.25100200  0.48477500  0.37955800  1
  Ho  Ho5  1  0.25091500  0.13565900  0.48489000  1
  Ho  Ho6  1  0.74879300  0.77576700  0.24815100  1
  Ho  Ho7  1  0.74877800  0.97611100  0.77576400  1
  Ho  Ho8  1  0.74878400  0.24815200  0.97610000  1
  Ho  Ho9  1  0.25120700  0.22423300  0.75184900  1
  Ho  Ho10  1  0.25122200  0.02388900  0.22423600  1
  Ho  Ho11  1  0.25121600  0.75184800  0.02390000  1
  Co  Co12  1  0.74961800  0.33344400  0.33332400  1
  Co  Co13  1  0.25038200  0.66655600  0.66667600  1
  Co  Co14  1  0.74878000  0.28201800  0.56231200  1
  Co  Co15  1  0.74873500  0.15572100  0.28204800  1
  Co  Co16  1  0.74865600  0.56224600  0.15568500  1
  Co  Co17  1  0.25122000  0.71798200  0.43768800  1
  Co  Co18  1  0.25126500  0.84427900  0.71795200  1
  Co  Co19  1  0.25134400  0.43775400  0.84431500  1
  Co  Co20  1  0.50000000  0.00000000  0.00000000  1
