# generated using pymatgen
data_InHSeO4
_symmetry_space_group_name_H-M   'P 1'
_cell_length_a   4.93652500
_cell_length_b   6.42661400
_cell_length_c   11.77510400
_cell_angle_alpha   90.00000000
_cell_angle_beta   90.00000000
_cell_angle_gamma   90.00000000
_symmetry_Int_Tables_number   1
_chemical_formula_structural   InHSeO4
_chemical_formula_sum   'In4 H4 Se4 O16'
_cell_volume   373.56683088
_cell_formula_units_Z   4
loop_
 _symmetry_equiv_pos_site_id
 _symmetry_equiv_pos_as_xyz
  1  'x, y, z'
loop_
 _atom_site_type_symbol
 _atom_site_label
 _atom_site_symmetry_multiplicity
 _atom_site_fract_x
 _atom_site_fract_y
 _atom_site_fract_z
 _atom_site_occupancy
  In  In0  1  0.51303900  0.98603800  0.01023500  1
  In  In1  1  0.01303900  0.48603800  0.48976500  1
  In  In2  1  0.48696100  0.48603800  0.98976500  1
  In  In3  1  0.98696100  0.98603800  0.51023500  1
  H  H4  1  0.02018300  0.08350900  0.86837800  1
  H  H5  1  0.97981700  0.58350900  0.13162200  1
  H  H6  1  0.52018300  0.58350900  0.63162200  1
  H  H7  1  0.47981700  0.08350900  0.36837800  1
  Se  Se8  1  0.98201600  0.73663900  0.80526300  1
  Se  Se9  1  0.51798400  0.73663900  0.30526300  1
  Se  Se10  1  0.01798400  0.23663900  0.19473700  1
  Se  Se11  1  0.48201600  0.23663900  0.69473700  1
  O  O12  1  0.77192200  0.73251700  0.92574200  1
  O  O13  1  0.72807800  0.73251700  0.42574200  1
  O  O14  1  0.22807800  0.23251700  0.07425800  1
  O  O15  1  0.27192200  0.23251700  0.57425800  1
  O  O16  1  0.16441700  0.97960300  0.85043200  1
  O  O17  1  0.27799000  0.55846500  0.33469900  1
  O  O18  1  0.83558300  0.47960300  0.14956800  1
  O  O19  1  0.72201000  0.05846500  0.66530100  1
  O  O20  1  0.77799000  0.05846500  0.16530100  1
  O  O21  1  0.66441700  0.47960300  0.64956800  1
  O  O22  1  0.22201000  0.55846500  0.83469900  1
  O  O23  1  0.33558300  0.97960300  0.35043200  1
  O  O24  1  0.66683500  0.22983000  0.91640000  1
  O  O25  1  0.83316500  0.22983000  0.41640000  1
  O  O26  1  0.33316500  0.72983000  0.08360000  1
  O  O27  1  0.16683500  0.72983000  0.58360000  1
