# generated using pymatgen
data_Hf9B2W3
_symmetry_space_group_name_H-M   'P 1'
_cell_length_a   8.42003817
_cell_length_b   8.42003817
_cell_length_c   8.46539200
_cell_angle_alpha   90.00000000
_cell_angle_beta   90.00000000
_cell_angle_gamma   120.00000130
_symmetry_Int_Tables_number   1
_chemical_formula_structural   Hf9B2W3
_chemical_formula_sum   'Hf18 B4 W6'
_cell_volume   519.76354939
_cell_formula_units_Z   2
loop_
 _symmetry_equiv_pos_site_id
 _symmetry_equiv_pos_as_xyz
  1  'x, y, z'
loop_
 _atom_site_type_symbol
 _atom_site_label
 _atom_site_symmetry_multiplicity
 _atom_site_fract_x
 _atom_site_fract_y
 _atom_site_fract_z
 _atom_site_occupancy
  Hf  Hf0  1  0.20068600  0.79931400  0.44503200  1
  Hf  Hf1  1  0.20068600  0.40137200  0.44503200  1
  Hf  Hf2  1  0.59862800  0.79931400  0.44503200  1
  Hf  Hf3  1  0.79931400  0.20068600  0.55496800  1
  Hf  Hf4  1  0.79931400  0.59862800  0.55496800  1
  Hf  Hf5  1  0.40137200  0.20068600  0.55496800  1
  Hf  Hf6  1  0.79931400  0.20068600  0.94503200  1
  Hf  Hf7  1  0.79931400  0.59862800  0.94503200  1
  Hf  Hf8  1  0.40137200  0.20068600  0.94503200  1
  Hf  Hf9  1  0.20068600  0.79931400  0.05496800  1
  Hf  Hf10  1  0.20068600  0.40137200  0.05496800  1
  Hf  Hf11  1  0.59862800  0.79931400  0.05496800  1
  Hf  Hf12  1  0.54035600  0.45964400  0.25000000  1
  Hf  Hf13  1  0.54035600  0.08071100  0.25000000  1
  Hf  Hf14  1  0.91928900  0.45964400  0.25000000  1
  Hf  Hf15  1  0.45964400  0.54035600  0.75000000  1
  Hf  Hf16  1  0.45964400  0.91928900  0.75000000  1
  Hf  Hf17  1  0.08071100  0.54035600  0.75000000  1
  B  B18  1  0.00000000  0.00000000  0.50000000  1
  B  B19  1  0.00000000  0.00000000  0.00000000  1
  B  B20  1  0.33333300  0.66666700  0.25000000  1
  B  B21  1  0.66666700  0.33333300  0.75000000  1
  W  W22  1  0.89208600  0.10791400  0.25000000  1
  W  W23  1  0.89208600  0.78417200  0.25000000  1
  W  W24  1  0.21582800  0.10791400  0.25000000  1
  W  W25  1  0.10791400  0.89208600  0.75000000  1
  W  W26  1  0.10791400  0.21582800  0.75000000  1
  W  W27  1  0.78417200  0.89208600  0.75000000  1
