# generated using pymatgen
data_K2PtBr6
_symmetry_space_group_name_H-M   'P 1'
_cell_length_a   8.64847002
_cell_length_b   8.64847002
_cell_length_c   8.64847002
_cell_angle_alpha   132.87150004
_cell_angle_beta   130.28892522
_cell_angle_gamma   70.91328699
_symmetry_Int_Tables_number   1
_chemical_formula_structural   K2PtBr6
_chemical_formula_sum   'K2 Pt1 Br6'
_cell_volume   354.16721864
_cell_formula_units_Z   1
loop_
 _symmetry_equiv_pos_site_id
 _symmetry_equiv_pos_as_xyz
  1  'x, y, z'
loop_
 _atom_site_type_symbol
 _atom_site_label
 _atom_site_symmetry_multiplicity
 _atom_site_fract_x
 _atom_site_fract_y
 _atom_site_fract_z
 _atom_site_occupancy
  K  K0  1  0.67655500  0.67655500  0.00000000  1
  K  K1  1  0.32344500  0.32344500  0.00000000  1
  Pt  Pt2  1  0.00000000  0.00000000  0.00000000  1
  Br  Br3  1  0.82922800  0.50000000  0.32922800  1
  Br  Br4  1  0.36419900  0.12267500  0.24152400  1
  Br  Br5  1  0.11884900  0.87732500  0.24152400  1
  Br  Br6  1  0.17077200  0.50000000  0.67077200  1
  Br  Br7  1  0.88115100  0.12267500  0.75847600  1
  Br  Br8  1  0.63580100  0.87732500  0.75847600  1
