# generated using pymatgen
data_In14Sn5S26
_symmetry_space_group_name_H-M   'P 1'
_cell_length_a   19.25931536
_cell_length_b   19.25931536
_cell_length_c   13.88224084
_cell_angle_alpha   89.07196862
_cell_angle_beta   89.07196862
_cell_angle_gamma   11.62689426
_symmetry_Int_Tables_number   1
_chemical_formula_structural   In14Sn5S26
_chemical_formula_sum   'In14 Sn5 S26'
_cell_volume   1037.62400570
_cell_formula_units_Z   1
loop_
 _symmetry_equiv_pos_site_id
 _symmetry_equiv_pos_as_xyz
  1  'x, y, z'
loop_
 _atom_site_type_symbol
 _atom_site_label
 _atom_site_symmetry_multiplicity
 _atom_site_fract_x
 _atom_site_fract_y
 _atom_site_fract_z
 _atom_site_occupancy
  In  In0  1  0.89457800  0.89457800  0.96016900  1
  In  In1  1  0.10365000  0.10365000  0.03552200  1
  In  In2  1  0.75468900  0.75468900  0.63167400  1
  In  In3  1  0.24848500  0.24848500  0.37823000  1
  In  In4  1  0.45765100  0.45765100  0.79190400  1
  In  In5  1  0.54068100  0.54068100  0.20797800  1
  In  In6  1  0.99875600  0.99875600  0.99927200  1
  In  In7  1  0.83496900  0.83496900  0.43192300  1
  In  In8  1  0.16733400  0.16733400  0.56721600  1
  In  In9  1  0.28205600  0.28205600  0.90229300  1
  In  In10  1  0.71926300  0.71926300  0.08656800  1
  In  In11  1  0.99893100  0.99893100  0.49994400  1
  In  In12  1  0.41114200  0.41114200  0.49837200  1
  In  In13  1  0.58568200  0.58568200  0.50877500  1
  Sn  Sn14  1  0.42970400  0.42970400  0.23005600  1
  Sn  Sn15  1  0.56766800  0.56766800  0.77670100  1
  Sn  Sn16  1  0.33137200  0.33137200  0.14308000  1
  Sn  Sn17  1  0.66920800  0.66920800  0.85523100  1
  Sn  Sn18  1  0.65145800  0.65145800  0.28208500  1
  S  S19  1  0.78437100  0.78437100  0.04947000  1
  S  S20  1  0.21558600  0.21558600  0.95239700  1
  S  S21  1  0.70753700  0.70753700  0.45881700  1
  S  S22  1  0.28764100  0.28764100  0.53297600  1
  S  S23  1  0.46842700  0.46842700  0.60096300  1
  S  S24  1  0.53284700  0.53284700  0.39801000  1
  S  S25  1  0.35086900  0.35086900  0.95509000  1
  S  S26  1  0.64855700  0.64855700  0.05135400  1
  S  S27  1  0.91364100  0.91364100  0.78733100  1
  S  S28  1  0.08898200  0.08898200  0.21338400  1
  S  S29  1  0.87460500  0.87460500  0.57391400  1
  S  S30  1  0.12662100  0.12662100  0.42295000  1
  S  S31  1  0.79119100  0.79119100  0.78580000  1
  S  S32  1  0.20705700  0.20705700  0.21932300  1
  S  S33  1  0.45128400  0.45128400  0.99042600  1
  S  S34  1  0.55112900  0.55112900  0.01273200  1
  S  S35  1  0.94527000  0.94527000  0.39235000  1
  S  S36  1  0.05469900  0.05469900  0.60598500  1
  S  S37  1  0.78610100  0.78610100  0.30944500  1
  S  S38  1  0.21364000  0.21364000  0.69165600  1
  S  S39  1  0.88733500  0.88733500  0.14331100  1
  S  S40  1  0.11382000  0.11382000  0.85404000  1
  S  S41  1  0.99569300  0.99569300  0.18206500  1
  S  S42  1  0.00692200  0.00692200  0.81813700  1
  S  S43  1  0.36793900  0.36793900  0.34778000  1
  S  S44  1  0.63191900  0.63191900  0.64480100  1
