# generated using pymatgen
data_In2CuAgS4
_symmetry_space_group_name_H-M   'P 1'
_cell_length_a   7.00012192
_cell_length_b   7.00012192
_cell_length_c   7.00012192
_cell_angle_alpha   131.59067119
_cell_angle_beta   131.59067119
_cell_angle_gamma   70.87629063
_symmetry_Int_Tables_number   1
_chemical_formula_structural   In2CuAgS4
_chemical_formula_sum   'In2 Cu1 Ag1 S4'
_cell_volume   187.91387584
_cell_formula_units_Z   1
loop_
 _symmetry_equiv_pos_site_id
 _symmetry_equiv_pos_as_xyz
  1  'x, y, z'
loop_
 _atom_site_type_symbol
 _atom_site_label
 _atom_site_symmetry_multiplicity
 _atom_site_fract_x
 _atom_site_fract_y
 _atom_site_fract_z
 _atom_site_occupancy
  In  In0  1  0.75000000  0.25000000  0.50000000  1
  In  In1  1  0.50000000  0.50000000  0.00000000  1
  Cu  Cu2  1  0.00000000  0.00000000  0.00000000  1
  Ag  Ag3  1  0.25000000  0.75000000  0.50000000  1
  S  S4  1  0.65096400  0.64298800  0.52779900  1
  S  S5  1  0.11518900  0.12316600  0.47220100  1
  S  S6  1  0.87683400  0.34903600  0.99202300  1
  S  S7  1  0.35701200  0.88481100  0.00797700  1
