# generated using pymatgen
data_PaTc3
_symmetry_space_group_name_H-M   'P 1'
_cell_length_a   4.85438617
_cell_length_b   4.85438617
_cell_length_c   4.85438617
_cell_angle_alpha   128.97654217
_cell_angle_beta   128.97654217
_cell_angle_gamma   75.04832132
_symmetry_Int_Tables_number   1
_chemical_formula_structural   PaTc3
_chemical_formula_sum   'Pa1 Tc3'
_cell_volume   67.31787674
_cell_formula_units_Z   1
loop_
 _symmetry_equiv_pos_site_id
 _symmetry_equiv_pos_as_xyz
  1  'x, y, z'
loop_
 _atom_site_type_symbol
 _atom_site_label
 _atom_site_symmetry_multiplicity
 _atom_site_fract_x
 _atom_site_fract_y
 _atom_site_fract_z
 _atom_site_occupancy
  Pa  Pa0  1  0.00000000  0.00000000  0.00000000  1
  Tc  Tc1  1  0.74999800  0.25000000  0.49999900  1
  Tc  Tc2  1  0.25000000  0.74999800  0.49999900  1
  Tc  Tc3  1  0.49999900  0.49999900  0.00000000  1
