# generated using pymatgen
data_GaCuSeS
_symmetry_space_group_name_H-M   'P 1'
_cell_length_a   5.47099900
_cell_length_b   5.47818200
_cell_length_c   6.67178607
_cell_angle_alpha   65.76071184
_cell_angle_beta   65.79452768
_cell_angle_gamma   90.00000000
_symmetry_Int_Tables_number   1
_chemical_formula_structural   GaCuSeS
_chemical_formula_sum   'Ga2 Cu2 Se2 S2'
_cell_volume   162.85978408
_cell_formula_units_Z   2
loop_
 _symmetry_equiv_pos_site_id
 _symmetry_equiv_pos_as_xyz
  1  'x, y, z'
loop_
 _atom_site_type_symbol
 _atom_site_label
 _atom_site_symmetry_multiplicity
 _atom_site_fract_x
 _atom_site_fract_y
 _atom_site_fract_z
 _atom_site_occupancy
  Ga  Ga0  1  0.24463100  0.74463100  0.51073900  1
  Ga  Ga1  1  0.50536900  0.50536900  0.98926100  1
  Cu  Cu2  1  0.73880000  0.23880000  0.52239900  1
  Cu  Cu3  1  0.01120000  0.01120000  0.97760100  1
  Se  Se4  1  0.11701500  0.12500000  0.25000000  1
  Se  Se5  1  0.63298500  0.62500000  0.25000000  1
  S  S6  1  0.37500000  0.87441600  0.75000000  1
  S  S7  1  0.87500000  0.37558400  0.75000000  1
