# generated using pymatgen
data_Fe4N
_symmetry_space_group_name_H-M   'P 1'
_cell_length_a   8.58735387
_cell_length_b   8.58735387
_cell_length_c   8.58735399
_cell_angle_alpha   17.24811679
_cell_angle_beta   17.24811679
_cell_angle_gamma   17.24811586
_symmetry_Int_Tables_number   1
_chemical_formula_structural   Fe4N
_chemical_formula_sum   'Fe4 N1'
_cell_volume   48.57970462
_cell_formula_units_Z   1
loop_
 _symmetry_equiv_pos_site_id
 _symmetry_equiv_pos_as_xyz
  1  'x, y, z'
loop_
 _atom_site_type_symbol
 _atom_site_label
 _atom_site_symmetry_multiplicity
 _atom_site_fract_x
 _atom_site_fract_y
 _atom_site_fract_z
 _atom_site_occupancy
  Fe  Fe0  1  0.87144200  0.87144200  0.87144200  1
  Fe  Fe1  1  0.12855800  0.12855800  0.12855800  1
  Fe  Fe2  1  0.38143400  0.38143400  0.38143400  1
  Fe  Fe3  1  0.61856600  0.61856600  0.61856600  1
  N  N4  1  0.00000000  0.00000000  0.00000000  1
