# generated using pymatgen
data_Fe7(CoO6)2
_symmetry_space_group_name_H-M   'P 1'
_cell_length_a   6.02540594
_cell_length_b   6.02540594
_cell_length_c   13.47146446
_cell_angle_alpha   77.56546009
_cell_angle_beta   77.56546009
_cell_angle_gamma   89.95040450
_symmetry_Int_Tables_number   1
_chemical_formula_structural   Fe7(CoO6)2
_chemical_formula_sum   'Fe14 Co4 O24'
_cell_volume   465.88100211
_cell_formula_units_Z   2
loop_
 _symmetry_equiv_pos_site_id
 _symmetry_equiv_pos_as_xyz
  1  'x, y, z'
loop_
 _atom_site_type_symbol
 _atom_site_label
 _atom_site_symmetry_multiplicity
 _atom_site_fract_x
 _atom_site_fract_y
 _atom_site_fract_z
 _atom_site_occupancy
  Fe  Fe0  1  0.28858000  0.04030400  0.41681700  1
  Fe  Fe1  1  0.95969600  0.71142000  0.08318300  1
  Fe  Fe2  1  0.62630100  0.37369900  0.75000000  1
  Fe  Fe3  1  0.04030400  0.28858000  0.91681700  1
  Fe  Fe4  1  0.71142000  0.95969600  0.58318300  1
  Fe  Fe5  1  0.37369900  0.62630100  0.25000000  1
  Fe  Fe6  1  0.50000000  0.50000000  0.00000000  1
  Fe  Fe7  1  0.50000000  0.50000000  0.50000000  1
  Fe  Fe8  1  0.00000000  0.50000000  0.50000000  1
  Fe  Fe9  1  0.67040900  0.16554700  0.17165100  1
  Fe  Fe10  1  0.32959100  0.83445300  0.82834900  1
  Fe  Fe11  1  0.16554700  0.67040900  0.67165100  1
  Fe  Fe12  1  0.83445300  0.32959100  0.32834900  1
  Fe  Fe13  1  0.50000000  0.00000000  0.00000000  1
  Co  Co14  1  0.16510000  0.16954800  0.66641600  1
  Co  Co15  1  0.83490000  0.83045200  0.33358400  1
  Co  Co16  1  0.16954800  0.16510000  0.16641600  1
  Co  Co17  1  0.83045200  0.83490000  0.83358400  1
  O  O18  1  0.08422700  0.59024800  0.83183700  1
  O  O19  1  0.75183700  0.26939100  0.49657500  1
  O  O20  1  0.42400600  0.92852800  0.16014100  1
  O  O21  1  0.40975200  0.91577300  0.66816300  1
  O  O22  1  0.07147200  0.57599400  0.33985900  1
  O  O23  1  0.73060900  0.24816300  0.00342500  1
  O  O24  1  0.92839300  0.91384700  0.66842000  1
  O  O25  1  0.58940500  0.57462500  0.34011500  1
  O  O26  1  0.26979400  0.25055800  0.00107200  1
  O  O27  1  0.08615300  0.07160700  0.83158000  1
  O  O28  1  0.74944200  0.73020600  0.49892800  1
  O  O29  1  0.42537500  0.41059500  0.15988500  1
  O  O30  1  0.24816300  0.73060900  0.50342500  1
  O  O31  1  0.91577300  0.40975200  0.16816300  1
  O  O32  1  0.57599400  0.07147200  0.83985900  1
  O  O33  1  0.92852800  0.42400600  0.66014100  1
  O  O34  1  0.59024800  0.08422700  0.33183700  1
  O  O35  1  0.26939100  0.75183700  0.99657500  1
  O  O36  1  0.41059500  0.42537500  0.65988500  1
  O  O37  1  0.07160700  0.08615300  0.33158000  1
  O  O38  1  0.73020600  0.74944200  0.99892800  1
  O  O39  1  0.25055800  0.26979400  0.50107200  1
  O  O40  1  0.91384700  0.92839300  0.16842000  1
  O  O41  1  0.57462500  0.58940500  0.84011500  1
