# generated using pymatgen
data_CsTlAgF6
_symmetry_space_group_name_H-M   'P 1'
_cell_length_a   8.17581875
_cell_length_b   8.17581875
_cell_length_c   8.17581875
_cell_angle_alpha   122.48746602
_cell_angle_beta   118.87224224
_cell_angle_gamma   88.85553861
_symmetry_Int_Tables_number   1
_chemical_formula_structural   CsTlAgF6
_chemical_formula_sum   'Cs2 Tl2 Ag2 F12'
_cell_volume   381.89545924
_cell_formula_units_Z   2
loop_
 _symmetry_equiv_pos_site_id
 _symmetry_equiv_pos_as_xyz
  1  'x, y, z'
loop_
 _atom_site_type_symbol
 _atom_site_label
 _atom_site_symmetry_multiplicity
 _atom_site_fract_x
 _atom_site_fract_y
 _atom_site_fract_z
 _atom_site_occupancy
  Cs  Cs0  1  0.37399100  0.62399100  0.75000000  1
  Cs  Cs1  1  0.62600900  0.37600900  0.25000000  1
  Tl  Tl2  1  0.00000000  0.00000000  0.00000000  1
  Tl  Tl3  1  0.50000000  0.00000000  0.50000000  1
  Ag  Ag4  1  0.00000000  0.00000000  0.50000000  1
  Ag  Ag5  1  0.00000000  0.50000000  0.00000000  1
  F  F6  1  0.32537500  0.07537500  0.25000000  1
  F  F7  1  0.94633600  0.69633600  0.25000000  1
  F  F8  1  0.33638700  0.67256900  0.25142900  1
  F  F9  1  0.92114000  0.08495800  0.24857100  1
  F  F10  1  0.33638700  0.08495800  0.66381800  1
  F  F11  1  0.92114000  0.67256900  0.83618200  1
  F  F12  1  0.67462500  0.92462500  0.75000000  1
  F  F13  1  0.05366400  0.30366400  0.75000000  1
  F  F14  1  0.66361300  0.32743100  0.74857100  1
  F  F15  1  0.07886000  0.91504200  0.75142900  1
  F  F16  1  0.66361300  0.91504200  0.33618200  1
  F  F17  1  0.07886000  0.32743100  0.16381800  1
