# generated using pymatgen
data_CdBi8(Br5O4)2
_symmetry_space_group_name_H-M   'P 1'
_cell_length_a   20.67737829
_cell_length_b   20.67737829
_cell_length_c   5.58328100
_cell_angle_alpha   90.00000000
_cell_angle_beta   90.00000000
_cell_angle_gamma   164.48032761
_symmetry_Int_Tables_number   1
_chemical_formula_structural   CdBi8(Br5O4)2
_chemical_formula_sum   'Cd1 Bi8 Br10 O8'
_cell_volume   638.72892853
_cell_formula_units_Z   1
loop_
 _symmetry_equiv_pos_site_id
 _symmetry_equiv_pos_as_xyz
  1  'x, y, z'
loop_
 _atom_site_type_symbol
 _atom_site_label
 _atom_site_symmetry_multiplicity
 _atom_site_fract_x
 _atom_site_fract_y
 _atom_site_fract_z
 _atom_site_occupancy
  Cd  Cd0  1  0.00000000  0.00000000  0.50000000  1
  Bi  Bi1  1  0.67622500  0.32377500  0.00000000  1
  Bi  Bi2  1  0.17676700  0.82323300  0.50000000  1
  Bi  Bi3  1  0.82323300  0.17676700  0.50000000  1
  Bi  Bi4  1  0.32377500  0.67622500  0.00000000  1
  Bi  Bi5  1  0.88545500  0.11454500  0.00000000  1
  Bi  Bi6  1  0.38545900  0.61454100  0.50000000  1
  Bi  Bi7  1  0.61454100  0.38545900  0.50000000  1
  Bi  Bi8  1  0.11454500  0.88545500  0.00000000  1
  Br  Br9  1  0.78469100  0.21530900  0.00000000  1
  Br  Br10  1  0.28470300  0.71529700  0.50000000  1
  Br  Br11  1  0.71529700  0.28470300  0.50000000  1
  Br  Br12  1  0.21530900  0.78469100  0.00000000  1
  Br  Br13  1  0.57651700  0.42348300  0.00000000  1
  Br  Br14  1  0.07459800  0.92540200  0.50000000  1
  Br  Br15  1  0.92540200  0.07459800  0.50000000  1
  Br  Br16  1  0.42348300  0.57651700  0.00000000  1
  Br  Br17  1  0.50000000  0.50000000  0.50000000  1
  Br  Br18  1  0.00000000  0.00000000  0.00000000  1
  O  O19  1  0.60561400  0.89676100  0.74879900  1
  O  O20  1  0.10323900  0.39438600  0.25120100  1
  O  O21  1  0.10323900  0.39438600  0.74879900  1
  O  O22  1  0.60561400  0.89676100  0.25120100  1
  O  O23  1  0.89676100  0.60561400  0.74879900  1
  O  O24  1  0.39438600  0.10323900  0.25120100  1
  O  O25  1  0.39438600  0.10323900  0.74879900  1
  O  O26  1  0.89676100  0.60561400  0.25120100  1
