# generated using pymatgen
data_CeGaGe
_symmetry_space_group_name_H-M   'P 1'
_cell_length_a   4.33635100
_cell_length_b   4.24463000
_cell_length_c   7.87940827
_cell_angle_alpha   74.37444313
_cell_angle_beta   74.02786811
_cell_angle_gamma   90.00000000
_symmetry_Int_Tables_number   1
_chemical_formula_structural   CeGaGe
_chemical_formula_sum   'Ce2 Ga2 Ge2'
_cell_volume   133.84725782
_cell_formula_units_Z   2
loop_
 _symmetry_equiv_pos_site_id
 _symmetry_equiv_pos_as_xyz
  1  'x, y, z'
loop_
 _atom_site_type_symbol
 _atom_site_label
 _atom_site_symmetry_multiplicity
 _atom_site_fract_x
 _atom_site_fract_y
 _atom_site_fract_z
 _atom_site_occupancy
  Ce  Ce0  1  0.74674000  0.24674000  0.50652100  1
  Ce  Ce1  1  0.00326000  0.00326000  0.99347900  1
  Ga  Ga2  1  0.33490000  0.83490000  0.33019900  1
  Ga  Ga3  1  0.41510000  0.41510000  0.16980100  1
  Ge  Ge4  1  0.16792800  0.66792800  0.66414500  1
  Ge  Ge5  1  0.58207200  0.58207200  0.83585500  1
