# generated using pymatgen
data_Ce2Al3Ru
_symmetry_space_group_name_H-M   'P 1'
_cell_length_a   5.57111515
_cell_length_b   5.57111515
_cell_length_c   8.77483200
_cell_angle_alpha   90.00000000
_cell_angle_beta   90.00000000
_cell_angle_gamma   119.99998989
_symmetry_Int_Tables_number   1
_chemical_formula_structural   Ce2Al3Ru
_chemical_formula_sum   'Ce4 Al6 Ru2'
_cell_volume   235.85970778
_cell_formula_units_Z   2
loop_
 _symmetry_equiv_pos_site_id
 _symmetry_equiv_pos_as_xyz
  1  'x, y, z'
loop_
 _atom_site_type_symbol
 _atom_site_label
 _atom_site_symmetry_multiplicity
 _atom_site_fract_x
 _atom_site_fract_y
 _atom_site_fract_z
 _atom_site_occupancy
  Ce  Ce0  1  0.33333300  0.66666700  0.93811200  1
  Ce  Ce1  1  0.66666700  0.33333300  0.06188800  1
  Ce  Ce2  1  0.66666700  0.33333300  0.43811200  1
  Ce  Ce3  1  0.33333300  0.66666700  0.56188800  1
  Al  Al4  1  0.83740400  0.16259600  0.75000000  1
  Al  Al5  1  0.83740400  0.67480800  0.75000000  1
  Al  Al6  1  0.32519200  0.16259600  0.75000000  1
  Al  Al7  1  0.16259600  0.83740400  0.25000000  1
  Al  Al8  1  0.16259600  0.32519200  0.25000000  1
  Al  Al9  1  0.67480800  0.83740400  0.25000000  1
  Ru  Ru10  1  0.00000000  0.00000000  0.00000000  1
  Ru  Ru11  1  0.00000000  0.00000000  0.50000000  1
