# generated using pymatgen
data_Cd2InAgS4
_symmetry_space_group_name_H-M   'P 1'
_cell_length_a   7.96226704
_cell_length_b   7.96226704
_cell_length_c   7.27603983
_cell_angle_alpha   63.47946763
_cell_angle_beta   63.47946763
_cell_angle_gamma   30.42178547
_symmetry_Int_Tables_number   1
_chemical_formula_structural   Cd2InAgS4
_chemical_formula_sum   'Cd2 In1 Ag1 S4'
_cell_volume   207.06557094
_cell_formula_units_Z   1
loop_
 _symmetry_equiv_pos_site_id
 _symmetry_equiv_pos_as_xyz
  1  'x, y, z'
loop_
 _atom_site_type_symbol
 _atom_site_label
 _atom_site_symmetry_multiplicity
 _atom_site_fract_x
 _atom_site_fract_y
 _atom_site_fract_z
 _atom_site_occupancy
  Cd  Cd0  1  0.50230000  0.50230000  0.17223600  1
  Cd  Cd1  1  0.99778500  0.99778500  0.65838900  1
  In  In2  1  0.75217000  0.75217000  0.59054200  1
  Ag  Ag3  1  0.24932000  0.24932000  0.07907500  1
  S  S4  1  0.06131900  0.06131900  0.27060800  1
  S  S5  1  0.56559800  0.56559800  0.76878500  1
  S  S6  1  0.81149900  0.81149900  0.85158100  1
  S  S7  1  0.30780300  0.30780300  0.36078400  1
