# generated using pymatgen
data_Cs2Cu3NiF10
_symmetry_space_group_name_H-M   'P 1'
_cell_length_a   6.86190667
_cell_length_b   6.79460726
_cell_length_c   7.23240602
_cell_angle_alpha   62.46383703
_cell_angle_beta   62.08695256
_cell_angle_gamma   66.02061028
_symmetry_Int_Tables_number   1
_chemical_formula_structural   Cs2Cu3NiF10
_chemical_formula_sum   'Cs2 Cu3 Ni1 F10'
_cell_volume   256.33386518
_cell_formula_units_Z   1
loop_
 _symmetry_equiv_pos_site_id
 _symmetry_equiv_pos_as_xyz
  1  'x, y, z'
loop_
 _atom_site_type_symbol
 _atom_site_label
 _atom_site_symmetry_multiplicity
 _atom_site_fract_x
 _atom_site_fract_y
 _atom_site_fract_z
 _atom_site_occupancy
  Cs  Cs0  1  0.62114200  0.61520500  0.62577400  1
  Cs  Cs1  1  0.37885800  0.38479500  0.37422600  1
  Cu  Cu2  1  0.00000000  0.00000000  0.00000000  1
  Cu  Cu3  1  0.00000000  0.50000000  0.00000000  1
  Cu  Cu4  1  0.50000000  0.00000000  0.00000000  1
  Ni  Ni5  1  0.00000000  0.00000000  0.50000000  1
  F  F6  1  0.26339800  0.25943200  0.92417300  1
  F  F7  1  0.73660200  0.74056800  0.07582700  1
  F  F8  1  0.07280400  0.08403400  0.68719700  1
  F  F9  1  0.92719600  0.91596600  0.31280300  1
  F  F10  1  0.05220600  0.66265100  0.69102500  1
  F  F11  1  0.33913100  0.95034800  0.30637500  1
  F  F12  1  0.94779400  0.33734900  0.30897500  1
  F  F13  1  0.66086900  0.04965200  0.69362500  1
  F  F14  1  0.78859500  0.28586300  0.99696800  1
  F  F15  1  0.21140500  0.71413700  0.00303200  1
