# generated using pymatgen
data_CdPt3
_symmetry_space_group_name_H-M   'P 1'
_cell_length_a   2.88751721
_cell_length_b   2.88751721
_cell_length_c   9.32989857
_cell_angle_alpha   81.09796677
_cell_angle_beta   98.90203323
_cell_angle_gamma   120.00000000
_symmetry_Int_Tables_number   1
_chemical_formula_structural   CdPt3
_chemical_formula_sum   'Cd1 Pt3'
_cell_volume   66.28427352
_cell_formula_units_Z   1
loop_
 _symmetry_equiv_pos_site_id
 _symmetry_equiv_pos_as_xyz
  1  'x, y, z'
loop_
 _atom_site_type_symbol
 _atom_site_label
 _atom_site_symmetry_multiplicity
 _atom_site_fract_x
 _atom_site_fract_y
 _atom_site_fract_z
 _atom_site_occupancy
  Cd  Cd0  1  0.00000000  0.00000000  0.00000000  1
  Pt  Pt1  1  0.75083700  0.24916300  0.25251200  1
  Pt  Pt2  1  0.50000000  0.50000000  0.50000000  1
  Pt  Pt3  1  0.24916300  0.75083700  0.74748800  1
