# generated using pymatgen
data_CeRuRh
_symmetry_space_group_name_H-M   'P 1'
_cell_length_a   5.43299489
_cell_length_b   5.43299489
_cell_length_c   5.43299489
_cell_angle_alpha   124.07500939
_cell_angle_beta   120.40364560
_cell_angle_gamma   86.19468788
_symmetry_Int_Tables_number   1
_chemical_formula_structural   CeRuRh
_chemical_formula_sum   'Ce2 Ru2 Rh2'
_cell_volume   109.14399191
_cell_formula_units_Z   2
loop_
 _symmetry_equiv_pos_site_id
 _symmetry_equiv_pos_as_xyz
  1  'x, y, z'
loop_
 _atom_site_type_symbol
 _atom_site_label
 _atom_site_symmetry_multiplicity
 _atom_site_fract_x
 _atom_site_fract_y
 _atom_site_fract_z
 _atom_site_occupancy
  Ce  Ce0  1  0.37390600  0.12390600  0.25000000  1
  Ce  Ce1  1  0.62609400  0.87609400  0.75000000  1
  Ru  Ru2  1  0.00000000  0.50000000  0.00000000  1
  Ru  Ru3  1  0.00000000  0.00000000  0.50000000  1
  Rh  Rh4  1  0.50000000  0.50000000  0.00000000  1
  Rh  Rh5  1  0.00000000  0.50000000  0.50000000  1
