# generated using pymatgen
data_ErP2H3O10
_symmetry_space_group_name_H-M   'P 1'
_cell_length_a   6.45527000
_cell_length_b   6.97529225
_cell_length_c   9.76198470
_cell_angle_alpha   96.58676760
_cell_angle_beta   97.07957886
_cell_angle_gamma   89.98451641
_symmetry_Int_Tables_number   1
_chemical_formula_structural   ErP2H3O10
_chemical_formula_sum   'Er2 P4 H6 O20'
_cell_volume   433.28338540
_cell_formula_units_Z   2
loop_
 _symmetry_equiv_pos_site_id
 _symmetry_equiv_pos_as_xyz
  1  'x, y, z'
loop_
 _atom_site_type_symbol
 _atom_site_label
 _atom_site_symmetry_multiplicity
 _atom_site_fract_x
 _atom_site_fract_y
 _atom_site_fract_z
 _atom_site_occupancy
  Er  Er0  1  0.36405700  0.25425100  0.03325500  1
  Er  Er1  1  0.63363100  0.74943600  0.96944900  1
  P  P2  1  0.06141700  0.14243100  0.70678400  1
  P  P3  1  0.93726600  0.85617800  0.29556700  1
  P  P4  1  0.81443800  0.24081700  0.94050700  1
  P  P5  1  0.18442400  0.76429500  0.06175800  1
  H  H6  1  0.39318300  0.25482800  0.35041200  1
  H  H7  1  0.61595600  0.70073900  0.65324300  1
  H  H8  1  0.99208600  0.17971400  0.48273500  1
  H  H9  1  0.00587400  0.81882700  0.51994400  1
  H  H10  1  0.15950800  0.20678100  0.28692900  1
  H  H11  1  0.83571900  0.79628000  0.71736500  1
  O  O12  1  0.67357100  0.37062600  0.18592200  1
  O  O13  1  0.32153900  0.63564700  0.81539800  1
  O  O14  1  0.03775800  0.92530700  0.66729700  1
  O  O15  1  0.95256200  0.07369500  0.33497400  1
  O  O16  1  0.29495400  0.26059400  0.26720800  1
  O  O17  1  0.70469700  0.73685800  0.74018000  1
  O  O18  1  0.01994200  0.25971500  0.03220100  1
  O  O19  1  0.97881900  0.74881600  0.97057700  1
  O  O20  1  0.67050800  0.42009200  0.95401400  1
  O  O21  1  0.32618000  0.58373100  0.04735500  1
  O  O22  1  0.25289000  0.21129200  0.80591200  1
  O  O23  1  0.74727500  0.78288200  0.19646500  1
  O  O24  1  0.67100600  0.07594600  0.96855700  1
  O  O25  1  0.32995800  0.92847500  0.03522700  1
  O  O26  1  0.04130500  0.25666200  0.57746700  1
  O  O27  1  0.96426300  0.74101000  0.42433900  1
  O  O28  1  0.85289000  0.21032900  0.78071400  1
  O  O29  1  0.14671600  0.79473400  0.22147700  1
  O  O30  1  0.48885000  0.78596800  0.46272900  1
  O  O31  1  0.52395800  0.95494400  0.44593900  1
