# generated using pymatgen
data_Er9Al5S21
_symmetry_space_group_name_H-M   'P 1'
_cell_length_a   11.33439461
_cell_length_b   11.33439461
_cell_length_c   11.33439384
_cell_angle_alpha   94.65600758
_cell_angle_beta   94.65600758
_cell_angle_gamma   94.65600928
_symmetry_Int_Tables_number   1
_chemical_formula_structural   Er9Al5S21
_chemical_formula_sum   'Er18 Al10 S42'
_cell_volume   1440.86220848
_cell_formula_units_Z   2
loop_
 _symmetry_equiv_pos_site_id
 _symmetry_equiv_pos_as_xyz
  1  'x, y, z'
loop_
 _atom_site_type_symbol
 _atom_site_label
 _atom_site_symmetry_multiplicity
 _atom_site_fract_x
 _atom_site_fract_y
 _atom_site_fract_z
 _atom_site_occupancy
  Er  Er0  1  0.11618600  0.88147000  0.74171200  1
  Er  Er1  1  0.45484900  0.22043800  0.07479400  1
  Er  Er2  1  0.77494400  0.54723800  0.40299700  1
  Er  Er3  1  0.40299700  0.77494400  0.54723800  1
  Er  Er4  1  0.74171200  0.11618600  0.88147000  1
  Er  Er5  1  0.07479400  0.45484900  0.22043800  1
  Er  Er6  1  0.22043800  0.07479400  0.45484900  1
  Er  Er7  1  0.54723800  0.40299700  0.77494400  1
  Er  Er8  1  0.88147000  0.74171200  0.11618600  1
  Er  Er9  1  0.21016700  0.44190700  0.58455400  1
  Er  Er10  1  0.54525100  0.77999400  0.92577800  1
  Er  Er11  1  0.87524100  0.10513400  0.24684900  1
  Er  Er12  1  0.92577800  0.54525100  0.77999400  1
  Er  Er13  1  0.24684900  0.87524100  0.10513400  1
  Er  Er14  1  0.58455400  0.21016700  0.44190700  1
  Er  Er15  1  0.10513400  0.24684900  0.87524100  1
  Er  Er16  1  0.44190700  0.58455400  0.21016700  1
  Er  Er17  1  0.77999400  0.92577800  0.54525100  1
  Al  Al18  1  0.72129100  0.38867800  0.05319500  1
  Al  Al19  1  0.05319500  0.72129100  0.38867800  1
  Al  Al20  1  0.38867800  0.05319500  0.72129100  1
  Al  Al21  1  0.88683900  0.22309100  0.55329400  1
  Al  Al22  1  0.22309100  0.55329400  0.88683900  1
  Al  Al23  1  0.55329400  0.88683900  0.22309100  1
  Al  Al24  1  0.85545100  0.85545100  0.85545100  1
  Al  Al25  1  0.17122400  0.17122400  0.17122400  1
  Al  Al26  1  0.67103800  0.67103800  0.67103800  1
  Al  Al27  1  0.35547700  0.35547700  0.35547700  1
  S  S28  1  0.84403900  0.51304200  0.17724500  1
  S  S29  1  0.17724500  0.84403900  0.51304200  1
  S  S30  1  0.51304200  0.17724500  0.84403900  1
  S  S31  1  0.67748900  0.01288900  0.34393100  1
  S  S32  1  0.01288900  0.34393100  0.67748900  1
  S  S33  1  0.34393100  0.67748900  0.01288900  1
  S  S34  1  0.53813900  0.44679000  0.01542000  1
  S  S35  1  0.87047300  0.78025200  0.35587600  1
  S  S36  1  0.20275600  0.10798800  0.69261600  1
  S  S37  1  0.69261600  0.20275600  0.10798800  1
  S  S38  1  0.01542000  0.53813900  0.44679000  1
  S  S39  1  0.35587600  0.87047300  0.78025200  1
  S  S40  1  0.78025200  0.35587600  0.87047300  1
  S  S41  1  0.10798800  0.69261600  0.20275600  1
  S  S42  1  0.44679000  0.01542000  0.53813900  1
  S  S43  1  0.96585300  0.06203400  0.47619800  1
  S  S44  1  0.29848400  0.38875900  0.81313500  1
  S  S45  1  0.63146700  0.72148300  0.15308800  1
  S  S46  1  0.81313500  0.29848400  0.38875900  1
  S  S47  1  0.15308800  0.63146700  0.72148300  1
  S  S48  1  0.47619800  0.96585300  0.06203400  1
  S  S49  1  0.72148300  0.15308800  0.63146700  1
  S  S50  1  0.06203400  0.47619800  0.96585300  1
  S  S51  1  0.38875900  0.81313500  0.29848400  1
  S  S52  1  0.55614000  0.40636000  0.31109500  1
  S  S53  1  0.89187700  0.75455900  0.66237600  1
  S  S54  1  0.23638100  0.09474700  0.99487500  1
  S  S55  1  0.99487500  0.23638100  0.09474700  1
  S  S56  1  0.31109500  0.55614000  0.40636000  1
  S  S57  1  0.66237600  0.89187700  0.75455900  1
  S  S58  1  0.75455900  0.66237600  0.89187700  1
  S  S59  1  0.09474700  0.99487500  0.23638100  1
  S  S60  1  0.40636000  0.31109500  0.55614000  1
  S  S61  1  0.14730300  0.28491400  0.37641700  1
  S  S62  1  0.48076800  0.62227000  0.72270500  1
  S  S63  1  0.79291700  0.94314300  0.03789200  1
  S  S64  1  0.72270500  0.48076800  0.62227000  1
  S  S65  1  0.03789200  0.79291700  0.94314300  1
  S  S66  1  0.37641700  0.14730300  0.28491400  1
  S  S67  1  0.94314300  0.03789200  0.79291700  1
  S  S68  1  0.28491400  0.37641700  0.14730300  1
  S  S69  1  0.62227000  0.72270500  0.48076800  1
