# generated using pymatgen
data_BiTeO4
_symmetry_space_group_name_H-M   'P 1'
_cell_length_a   7.05084502
_cell_length_b   7.05084502
_cell_length_c   10.44248516
_cell_angle_alpha   66.96613638
_cell_angle_beta   66.96613638
_cell_angle_gamma   47.30602699
_symmetry_Int_Tables_number   1
_chemical_formula_structural   BiTeO4
_chemical_formula_sum   'Bi4 Te4 O16'
_cell_volume   344.99931126
_cell_formula_units_Z   4
loop_
 _symmetry_equiv_pos_site_id
 _symmetry_equiv_pos_as_xyz
  1  'x, y, z'
loop_
 _atom_site_type_symbol
 _atom_site_label
 _atom_site_symmetry_multiplicity
 _atom_site_fract_x
 _atom_site_fract_y
 _atom_site_fract_z
 _atom_site_occupancy
  Bi  Bi0  1  0.02967400  0.97032600  0.50000000  1
  Bi  Bi1  1  0.95201700  0.04798300  0.00000000  1
  Bi  Bi2  1  0.68414300  0.76887900  0.89958800  1
  Bi  Bi3  1  0.23112100  0.31585700  0.10041200  1
  Te  Te4  1  0.50514100  0.49885500  0.74943000  1
  Te  Te5  1  0.50114500  0.49485900  0.25057000  1
  Te  Te6  1  0.35144000  0.19076600  0.63224200  1
  Te  Te7  1  0.80923400  0.64856000  0.36775800  1
  O  O8  1  0.78889600  0.35973600  0.58795300  1
  O  O9  1  0.64026400  0.21110400  0.41204700  1
  O  O10  1  0.20424600  0.64107300  0.90561900  1
  O  O11  1  0.35892700  0.79575400  0.09438100  1
  O  O12  1  0.72645500  0.47780600  0.83149500  1
  O  O13  1  0.52219400  0.27354500  0.16850500  1
  O  O14  1  0.29061200  0.49280500  0.66838300  1
  O  O15  1  0.50719500  0.70938800  0.33161700  1
  O  O16  1  0.91133000  0.71592400  0.15858800  1
  O  O17  1  0.28407600  0.08867000  0.84141200  1
  O  O18  1  0.07792700  0.28746700  0.34556500  1
  O  O19  1  0.71253300  0.92207300  0.65443500  1
  O  O20  1  0.14725200  0.65088300  0.36280100  1
  O  O21  1  0.34911700  0.85274800  0.63719900  1
  O  O22  1  0.84918100  0.35432100  0.12852700  1
  O  O23  1  0.64567900  0.15081900  0.87147300  1
