# generated using pymatgen
data_Ba6Br2N3Cl
_symmetry_space_group_name_H-M   'P 1'
_cell_length_a   11.07420608
_cell_length_b   11.07420608
_cell_length_c   8.26487371
_cell_angle_alpha   73.31032734
_cell_angle_beta   73.31032734
_cell_angle_gamma   21.78632320
_symmetry_Int_Tables_number   1
_chemical_formula_structural   Ba6Br2N3Cl
_chemical_formula_sum   'Ba6 Br2 N3 Cl1'
_cell_volume   359.74173166
_cell_formula_units_Z   1
loop_
 _symmetry_equiv_pos_site_id
 _symmetry_equiv_pos_as_xyz
  1  'x, y, z'
loop_
 _atom_site_type_symbol
 _atom_site_label
 _atom_site_symmetry_multiplicity
 _atom_site_fract_x
 _atom_site_fract_y
 _atom_site_fract_z
 _atom_site_occupancy
  Ba  Ba0  1  0.92404400  0.92404400  0.68827200  1
  Ba  Ba1  1  0.25710000  0.25710000  0.68662400  1
  Ba  Ba2  1  0.58943900  0.58943900  0.68982500  1
  Ba  Ba3  1  0.07595600  0.07595600  0.31172800  1
  Ba  Ba4  1  0.41056100  0.41056100  0.31017500  1
  Ba  Ba5  1  0.74290000  0.74290000  0.31337600  1
  Br  Br6  1  0.33338200  0.33338200  0.00001300  1
  Br  Br7  1  0.66661800  0.66661800  0.99998700  1
  N  N8  1  0.50000000  0.50000000  0.50000000  1
  N  N9  1  0.83348600  0.83348600  0.49987900  1
  N  N10  1  0.16651400  0.16651400  0.50012100  1
  Cl  Cl11  1  0.00000000  0.00000000  0.00000000  1
