# generated using pymatgen
data_Be46Rh7
_symmetry_space_group_name_H-M   'P 1'
_cell_length_a   4.17665806
_cell_length_b   4.17665806
_cell_length_c   32.99751400
_cell_angle_alpha   90.00000000
_cell_angle_beta   90.00000000
_cell_angle_gamma   120.00000095
_symmetry_Int_Tables_number   1
_chemical_formula_structural   Be46Rh7
_chemical_formula_sum   'Be46 Rh7'
_cell_volume   498.50519898
_cell_formula_units_Z   1
loop_
 _symmetry_equiv_pos_site_id
 _symmetry_equiv_pos_as_xyz
  1  'x, y, z'
loop_
 _atom_site_type_symbol
 _atom_site_label
 _atom_site_symmetry_multiplicity
 _atom_site_fract_x
 _atom_site_fract_y
 _atom_site_fract_z
 _atom_site_occupancy
  Be  Be0  1  0.00000000  0.00000000  0.12521400  1
  Be  Be1  1  0.00000000  0.00000000  0.45856600  1
  Be  Be2  1  0.00000000  0.00000000  0.79197600  1
  Be  Be3  1  0.00000000  0.00000000  0.20782200  1
  Be  Be4  1  0.00000000  0.00000000  0.54113300  1
  Be  Be5  1  0.00000000  0.00000000  0.87518500  1
  Be  Be6  1  0.66666700  0.33333300  0.11380600  1
  Be  Be7  1  0.66666700  0.33333300  0.44743100  1
  Be  Be8  1  0.66666700  0.33333300  0.78114100  1
  Be  Be9  1  0.66666700  0.33333300  0.21904300  1
  Be  Be10  1  0.66666700  0.33333300  0.55251400  1
  Be  Be11  1  0.66666700  0.33333300  0.88620900  1
  Be  Be12  1  0.83503400  0.16496600  0.06056900  1
  Be  Be13  1  0.83361300  0.16638700  0.39368000  1
  Be  Be14  1  0.83608100  0.16391900  0.72935100  1
  Be  Be15  1  0.32993300  0.16496600  0.06056900  1
  Be  Be16  1  0.33277300  0.16638700  0.39368000  1
  Be  Be17  1  0.32783800  0.16391900  0.72935100  1
  Be  Be18  1  0.83503400  0.67006700  0.06056900  1
  Be  Be19  1  0.83361300  0.66722700  0.39368000  1
  Be  Be20  1  0.83608100  0.67216200  0.72935100  1
  Be  Be21  1  0.83382100  0.16617900  0.27300800  1
  Be  Be22  1  0.83510800  0.16489200  0.60404200  1
  Be  Be23  1  0.83496700  0.16503300  0.93947100  1
  Be  Be24  1  0.33235800  0.16617900  0.27300800  1
  Be  Be25  1  0.32978400  0.16489200  0.60404200  1
  Be  Be26  1  0.33006700  0.16503300  0.93947100  1
  Be  Be27  1  0.83382100  0.66764200  0.27300800  1
  Be  Be28  1  0.83510800  0.67021600  0.60404200  1
  Be  Be29  1  0.83496700  0.66993300  0.93947100  1
  Be  Be30  1  0.33333300  0.66666700  0.03303500  1
  Be  Be31  1  0.33333300  0.66666700  0.36543900  1
  Be  Be32  1  0.33333300  0.66666700  0.69915800  1
  Be  Be33  1  0.33333300  0.66666700  0.30119600  1
  Be  Be34  1  0.33333300  0.66666700  0.63430200  1
  Be  Be35  1  0.33333300  0.66666700  0.96666100  1
  Be  Be36  1  0.49698400  0.50301600  0.16656100  1
  Be  Be37  1  0.49715000  0.50285000  0.49997500  1
  Be  Be38  1  0.49716300  0.50283700  0.83338400  1
  Be  Be39  1  0.00603100  0.50301600  0.16656100  1
  Be  Be40  1  0.00570000  0.50285000  0.49997500  1
  Be  Be41  1  0.00567500  0.50283700  0.83338400  1
  Be  Be42  1  0.49698400  0.99396900  0.16656100  1
  Be  Be43  1  0.49715000  0.99430000  0.49997500  1
  Be  Be44  1  0.49716300  0.99432500  0.83338400  1
  Be  Be45  1  0.66666700  0.33333300  0.33330800  1
  Rh  Rh46  1  0.33333300  0.66666700  0.10321200  1
  Rh  Rh47  1  0.33333300  0.66666700  0.43626700  1
  Rh  Rh48  1  0.33333300  0.66666700  0.77044300  1
  Rh  Rh49  1  0.33333300  0.66666700  0.23031800  1
  Rh  Rh50  1  0.33333300  0.66666700  0.56295000  1
  Rh  Rh51  1  0.33333300  0.66666700  0.89669200  1
  Rh  Rh52  1  0.00000000  0.00000000  0.66685100  1
