# generated using pymatgen
data_CaYAl3O7
_symmetry_space_group_name_H-M   'P 1'
_cell_length_a   7.74410000
_cell_length_b   5.10553800
_cell_length_c   7.78606839
_cell_angle_alpha   89.87546767
_cell_angle_beta   90.00000000
_cell_angle_gamma   90.00000000
_symmetry_Int_Tables_number   1
_chemical_formula_structural   CaYAl3O7
_chemical_formula_sum   'Ca2 Y2 Al6 O14'
_cell_volume   307.84326298
_cell_formula_units_Z   2
loop_
 _symmetry_equiv_pos_site_id
 _symmetry_equiv_pos_as_xyz
  1  'x, y, z'
loop_
 _atom_site_type_symbol
 _atom_site_label
 _atom_site_symmetry_multiplicity
 _atom_site_fract_x
 _atom_site_fract_y
 _atom_site_fract_z
 _atom_site_occupancy
  Ca  Ca0  1  0.16119100  0.51482000  0.41829600  1
  Ca  Ca1  1  0.66119100  0.48518000  0.58170400  1
  Y  Y2  1  0.83976800  0.51978900  0.09529100  1
  Y  Y3  1  0.33976800  0.48021100  0.90470900  1
  Al  Al4  1  0.35542600  0.95608300  0.61062100  1
  Al  Al5  1  0.85542600  0.04391700  0.38937900  1
  Al  Al6  1  0.64342900  0.95840600  0.89908000  1
  Al  Al7  1  0.14342900  0.04159400  0.10092000  1
  Al  Al8  1  0.50054700  0.00159400  0.24792500  1
  Al  Al9  1  0.00054700  0.99840600  0.75207500  1
  O  O10  1  0.35907100  0.29725800  0.62858600  1
  O  O11  1  0.85907100  0.70274200  0.37141400  1
  O  O12  1  0.63978500  0.30073900  0.90844700  1
  O  O13  1  0.13978500  0.69926100  0.09155300  1
  O  O14  1  0.00122200  0.19559700  0.24524200  1
  O  O15  1  0.50122200  0.80440300  0.75475800  1
  O  O16  1  0.40214200  0.81459700  0.41030900  1
  O  O17  1  0.90214200  0.18540300  0.58969100  1
  O  O18  1  0.59169000  0.78855100  0.09289400  1
  O  O19  1  0.09169000  0.21144900  0.90710600  1
  O  O20  1  0.34388500  0.19492800  0.14151900  1
  O  O21  1  0.84388500  0.80507200  0.85848100  1
  O  O22  1  0.66184400  0.20843800  0.33148700  1
  O  O23  1  0.16184400  0.79156200  0.66851300  1
