# generated using pymatgen
data_Ba3LaNb3O12
_symmetry_space_group_name_H-M   'P 1'
_cell_length_a   9.93219031
_cell_length_b   9.93219031
_cell_length_c   9.93218995
_cell_angle_alpha   34.14224127
_cell_angle_beta   34.14224127
_cell_angle_gamma   34.14223902
_symmetry_Int_Tables_number   1
_chemical_formula_structural   Ba3LaNb3O12
_chemical_formula_sum   'Ba3 La1 Nb3 O12'
_cell_volume   275.17611772
_cell_formula_units_Z   1
loop_
 _symmetry_equiv_pos_site_id
 _symmetry_equiv_pos_as_xyz
  1  'x, y, z'
loop_
 _atom_site_type_symbol
 _atom_site_label
 _atom_site_symmetry_multiplicity
 _atom_site_fract_x
 _atom_site_fract_y
 _atom_site_fract_z
 _atom_site_occupancy
  Ba  Ba0  1  0.71027000  0.71027000  0.71027000  1
  Ba  Ba1  1  0.28852800  0.28852800  0.28852800  1
  Ba  Ba2  1  0.13114400  0.13114400  0.13114400  1
  La  La3  1  0.85379600  0.85379600  0.85379600  1
  Nb  Nb4  1  0.57475000  0.57475000  0.57475000  1
  Nb  Nb5  1  0.42392400  0.42392400  0.42392400  1
  Nb  Nb6  1  0.99870500  0.99870500  0.99870500  1
  O  O7  1  0.20887700  0.71245800  0.20887700  1
  O  O8  1  0.20887700  0.20887700  0.71245800  1
  O  O9  1  0.71245800  0.20887700  0.20887700  1
  O  O10  1  0.79558200  0.28894800  0.79558200  1
  O  O11  1  0.79558200  0.79558200  0.28894800  1
  O  O12  1  0.28894800  0.79558200  0.79558200  1
  O  O13  1  0.37800400  0.87643000  0.37800400  1
  O  O14  1  0.37800400  0.37800400  0.87643000  1
  O  O15  1  0.87643000  0.37800400  0.37800400  1
  O  O16  1  0.62541100  0.12529900  0.62541100  1
  O  O17  1  0.62541100  0.62541100  0.12529900  1
  O  O18  1  0.12529900  0.62541100  0.62541100  1
