# generated using pymatgen
data_Be4InCu
_symmetry_space_group_name_H-M   'P 1'
_cell_length_a   4.51422626
_cell_length_b   4.51422626
_cell_length_c   4.51422626
_cell_angle_alpha   60.00000000
_cell_angle_beta   60.00000000
_cell_angle_gamma   60.00000000
_symmetry_Int_Tables_number   1
_chemical_formula_structural   Be4InCu
_chemical_formula_sum   'Be4 In1 Cu1'
_cell_volume   65.04815313
_cell_formula_units_Z   1
loop_
 _symmetry_equiv_pos_site_id
 _symmetry_equiv_pos_as_xyz
  1  'x, y, z'
loop_
 _atom_site_type_symbol
 _atom_site_label
 _atom_site_symmetry_multiplicity
 _atom_site_fract_x
 _atom_site_fract_y
 _atom_site_fract_z
 _atom_site_occupancy
  Be  Be0  1  0.62369900  0.62369900  0.12890400  1
  Be  Be1  1  0.62369900  0.12890400  0.62369900  1
  Be  Be2  1  0.12890400  0.62369900  0.62369900  1
  Be  Be3  1  0.62369900  0.62369900  0.62369900  1
  In  In4  1  0.00000000  0.00000000  0.00000000  1
  Cu  Cu5  1  0.25000000  0.25000000  0.25000000  1
