# generated using pymatgen
data_BaSrTm4O8
_symmetry_space_group_name_H-M   'P 1'
_cell_length_a   3.40521700
_cell_length_b   10.25962900
_cell_length_c   11.98477900
_cell_angle_alpha   90.00000000
_cell_angle_beta   90.00000000
_cell_angle_gamma   90.00000000
_symmetry_Int_Tables_number   1
_chemical_formula_structural   BaSrTm4O8
_chemical_formula_sum   'Ba2 Sr2 Tm8 O16'
_cell_volume   418.70339215
_cell_formula_units_Z   2
loop_
 _symmetry_equiv_pos_site_id
 _symmetry_equiv_pos_as_xyz
  1  'x, y, z'
loop_
 _atom_site_type_symbol
 _atom_site_label
 _atom_site_symmetry_multiplicity
 _atom_site_fract_x
 _atom_site_fract_y
 _atom_site_fract_z
 _atom_site_occupancy
  Ba  Ba0  1  0.75000000  0.74658600  0.14931300  1
  Ba  Ba1  1  0.75000000  0.24658600  0.35068700  1
  Sr  Sr2  1  0.25000000  0.25390600  0.85129800  1
  Sr  Sr3  1  0.25000000  0.75390600  0.64870200  1
  Tm  Tm4  1  0.75000000  0.07648500  0.61201000  1
  Tm  Tm5  1  0.75000000  0.57648500  0.88799000  1
  Tm  Tm6  1  0.25000000  0.92069300  0.39428200  1
  Tm  Tm7  1  0.25000000  0.42069300  0.10571800  1
  Tm  Tm8  1  0.75000000  0.07492400  0.10786900  1
  Tm  Tm9  1  0.75000000  0.57492400  0.39213100  1
  Tm  Tm10  1  0.25000000  0.92846000  0.88526300  1
  Tm  Tm11  1  0.25000000  0.42846000  0.61473700  1
  O  O12  1  0.75000000  0.98055900  0.28416500  1
  O  O13  1  0.75000000  0.48055900  0.21583500  1
  O  O14  1  0.25000000  0.01685200  0.71727600  1
  O  O15  1  0.25000000  0.51685200  0.78272400  1
  O  O16  1  0.75000000  0.37856900  0.97718100  1
  O  O17  1  0.75000000  0.87856900  0.52281900  1
  O  O18  1  0.25000000  0.61356000  0.01469200  1
  O  O19  1  0.25000000  0.11356000  0.48530800  1
  O  O20  1  0.75000000  0.07651800  0.92156600  1
  O  O21  1  0.75000000  0.57651800  0.57843400  1
  O  O22  1  0.25000000  0.93282200  0.07113700  1
  O  O23  1  0.25000000  0.43282200  0.42886300  1
  O  O24  1  0.75000000  0.29047400  0.66697800  1
  O  O25  1  0.75000000  0.79047400  0.83302200  1
  O  O26  1  0.25000000  0.70959200  0.34137600  1
  O  O27  1  0.25000000  0.20959200  0.15862400  1
