# generated using pymatgen
data_Bi2IBr
_symmetry_space_group_name_H-M   'P 1'
_cell_length_a   7.97353480
_cell_length_b   7.97353480
_cell_length_c   31.13139951
_cell_angle_alpha   83.42594183
_cell_angle_beta   83.42594183
_cell_angle_gamma   31.75368826
_symmetry_Int_Tables_number   1
_chemical_formula_structural   Bi2IBr
_chemical_formula_sum   'Bi12 I6 Br6'
_cell_volume   1034.21175247
_cell_formula_units_Z   6
loop_
 _symmetry_equiv_pos_site_id
 _symmetry_equiv_pos_as_xyz
  1  'x, y, z'
loop_
 _atom_site_type_symbol
 _atom_site_label
 _atom_site_symmetry_multiplicity
 _atom_site_fract_x
 _atom_site_fract_y
 _atom_site_fract_z
 _atom_site_occupancy
  Bi  Bi0  1  0.64255000  0.64255000  0.66180100  1
  Bi  Bi1  1  0.35745000  0.35745000  0.33819900  1
  Bi  Bi2  1  0.65118200  0.65118200  0.76079000  1
  Bi  Bi3  1  0.34881800  0.34881800  0.23921000  1
  Bi  Bi4  1  0.31877000  0.31877000  0.00311900  1
  Bi  Bi5  1  0.68123000  0.68123000  0.99688100  1
  Bi  Bi6  1  0.98032200  0.98032200  0.57289100  1
  Bi  Bi7  1  0.01967800  0.01967800  0.42710900  1
  Bi  Bi8  1  0.00217800  0.00217800  0.67017100  1
  Bi  Bi9  1  0.99782200  0.99782200  0.32982800  1
  Bi  Bi10  1  0.38416500  0.38416500  0.90457000  1
  Bi  Bi11  1  0.61583500  0.61583500  0.09543000  1
  I  I12  1  0.75709600  0.75709600  0.87490900  1
  I  I13  1  0.24290400  0.24290400  0.12509100  1
  I  I14  1  0.29647000  0.29647000  0.74402400  1
  I  I15  1  0.70353000  0.70353000  0.25597600  1
  I  I16  1  0.01902500  0.01902500  0.92625400  1
  I  I17  1  0.98097500  0.98097500  0.07374600  1
  Br  Br18  1  0.35229900  0.35229900  0.59568800  1
  Br  Br19  1  0.64770100  0.64770100  0.40431200  1
  Br  Br20  1  0.02399300  0.02399300  0.78532600  1
  Br  Br21  1  0.97600700  0.97600700  0.21467400  1
  Br  Br22  1  0.60466400  0.60466400  0.54587300  1
  Br  Br23  1  0.39533600  0.39533600  0.45412700  1
