# generated using pymatgen
data_Ca4Mg4V3AsO20
_symmetry_space_group_name_H-M   'P 1'
_cell_length_a   6.06044700
_cell_length_b   7.43056325
_cell_length_c   9.15359621
_cell_angle_alpha   89.62401021
_cell_angle_beta   89.83219847
_cell_angle_gamma   89.95540829
_symmetry_Int_Tables_number   1
_chemical_formula_structural   Ca4Mg4V3AsO20
_chemical_formula_sum   'Ca4 Mg4 V3 As1 O20'
_cell_volume   412.19887753
_cell_formula_units_Z   1
loop_
 _symmetry_equiv_pos_site_id
 _symmetry_equiv_pos_as_xyz
  1  'x, y, z'
loop_
 _atom_site_type_symbol
 _atom_site_label
 _atom_site_symmetry_multiplicity
 _atom_site_fract_x
 _atom_site_fract_y
 _atom_site_fract_z
 _atom_site_occupancy
  Ca  Ca0  1  0.02549600  0.86698800  0.16323400  1
  Ca  Ca1  1  0.52603300  0.63035400  0.83667000  1
  Ca  Ca2  1  0.97104300  0.37251000  0.33932800  1
  Ca  Ca3  1  0.47460900  0.13362700  0.66272400  1
  Mg  Mg4  1  0.25519200  0.25709200  0.00549400  1
  Mg  Mg5  1  0.75252100  0.24154100  0.99574200  1
  Mg  Mg6  1  0.74524500  0.75975700  0.49474800  1
  Mg  Mg7  1  0.24466300  0.74326500  0.50355300  1
  V  V8  1  0.01510200  0.38097500  0.68360700  1
  V  V9  1  0.48555800  0.61930100  0.18285400  1
  V  V10  1  0.98495400  0.88130700  0.81745400  1
  As  As11  1  0.51534000  0.12023600  0.31689300  1
  O  O12  1  0.74008200  0.10493900  0.19976400  1
  O  O13  1  0.24525400  0.39195600  0.79915800  1
  O  O14  1  0.25356200  0.60920200  0.29805600  1
  O  O15  1  0.75479500  0.89199600  0.70161100  1
  O  O16  1  0.58444200  0.29099800  0.43423100  1
  O  O17  1  0.07896000  0.20835600  0.56743500  1
  O  O18  1  0.42311700  0.79134000  0.06440400  1
  O  O19  1  0.92324600  0.70687800  0.93419600  1
  O  O20  1  0.99359700  0.38361800  0.08930400  1
  O  O21  1  0.49461200  0.11320300  0.91173900  1
  O  O22  1  0.00469800  0.88755100  0.41142200  1
  O  O23  1  0.50416100  0.61586000  0.58743300  1
  O  O24  1  0.48942500  0.93717100  0.43619600  1
  O  O25  1  0.98786000  0.56419700  0.55994200  1
  O  O26  1  0.51088100  0.43613400  0.06073700  1
  O  O27  1  0.01117700  0.06303700  0.94162800  1
  O  O28  1  0.26855500  0.14679900  0.22397300  1
  O  O29  1  0.76344800  0.34835800  0.77777600  1
  O  O30  1  0.73695600  0.65274200  0.27636400  1
  O  O31  1  0.23541700  0.84871000  0.72233000  1
