# generated using pymatgen
data_BaSi2(NO)2
_symmetry_space_group_name_H-M   'P 1'
_cell_length_a   4.88345900
_cell_length_b   5.38829500
_cell_length_c   7.76027359
_cell_angle_alpha   69.68558204
_cell_angle_beta   90.00000000
_cell_angle_gamma   90.00000000
_symmetry_Int_Tables_number   1
_chemical_formula_structural   BaSi2(NO)2
_chemical_formula_sum   'Ba2 Si4 N4 O4'
_cell_volume   191.49917756
_cell_formula_units_Z   2
loop_
 _symmetry_equiv_pos_site_id
 _symmetry_equiv_pos_as_xyz
  1  'x, y, z'
loop_
 _atom_site_type_symbol
 _atom_site_label
 _atom_site_symmetry_multiplicity
 _atom_site_fract_x
 _atom_site_fract_y
 _atom_site_fract_z
 _atom_site_occupancy
  Ba  Ba0  1  0.22595100  0.24443500  0.00000000  1
  Ba  Ba1  1  0.72595100  0.75556500  0.00000000  1
  Si  Si2  1  0.77080300  0.53857100  0.59955400  1
  Si  Si3  1  0.27080300  0.86187500  0.59955400  1
  Si  Si4  1  0.27080300  0.46142900  0.40044600  1
  Si  Si5  1  0.77080300  0.13812500  0.40044600  1
  N  N6  1  0.62351800  0.40841400  0.44347400  1
  N  N7  1  0.12351800  0.14811200  0.44347400  1
  N  N8  1  0.62351800  0.85188800  0.55652600  1
  N  N9  1  0.12351800  0.59158600  0.55652600  1
  O  O10  1  0.72080400  0.35397400  0.81356700  1
  O  O11  1  0.22080400  0.83245800  0.81356700  1
  O  O12  1  0.22080400  0.64602600  0.18643300  1
  O  O13  1  0.72080400  0.16754200  0.18643300  1
