# generated using pymatgen
data_Ca3Cu2Ni(PO4)4
_symmetry_space_group_name_H-M   'P 1'
_cell_length_a   4.94317600
_cell_length_b   9.01682172
_cell_length_c   14.87734714
_cell_angle_alpha   94.42825294
_cell_angle_beta   90.00000000
_cell_angle_gamma   90.00000000
_symmetry_Int_Tables_number   1
_chemical_formula_structural   Ca3Cu2Ni(PO4)4
_chemical_formula_sum   'Ca6 Cu4 Ni2 P8 O32'
_cell_volume   661.12968666
_cell_formula_units_Z   2
loop_
 _symmetry_equiv_pos_site_id
 _symmetry_equiv_pos_as_xyz
  1  'x, y, z'
loop_
 _atom_site_type_symbol
 _atom_site_label
 _atom_site_symmetry_multiplicity
 _atom_site_fract_x
 _atom_site_fract_y
 _atom_site_fract_z
 _atom_site_occupancy
  Ca  Ca0  1  0.03435700  0.96232500  0.76557900  1
  Ca  Ca1  1  0.53435700  0.53767500  0.73442100  1
  Ca  Ca2  1  0.96382400  0.03814900  0.23475700  1
  Ca  Ca3  1  0.46382400  0.46185100  0.26524300  1
  Ca  Ca4  1  0.49910600  0.49943400  0.99913000  1
  Ca  Ca5  1  0.99910600  0.00056600  0.50087000  1
  Cu  Cu6  1  0.49947600  0.50078000  0.50059500  1
  Cu  Cu7  1  0.99947600  0.99922000  0.99940500  1
  Cu  Cu8  1  0.02944600  0.32683800  0.62136200  1
  Cu  Cu9  1  0.52944600  0.17316200  0.87863800  1
  Ni  Ni10  1  0.97124100  0.67935500  0.37825200  1
  Ni  Ni11  1  0.47124100  0.82064500  0.12174800  1
  P  P12  1  0.48201000  0.87611400  0.34178600  1
  P  P13  1  0.98201000  0.62388600  0.15821400  1
  P  P14  1  0.51819100  0.12415000  0.65878600  1
  P  P15  1  0.01819100  0.37585000  0.84121400  1
  P  P16  1  0.51430600  0.15563000  0.09340800  1
  P  P17  1  0.01430600  0.34437000  0.40659200  1
  P  P18  1  0.48762000  0.84364400  0.90586200  1
  P  P19  1  0.98762000  0.65635600  0.59413800  1
  O  O20  1  0.57572400  0.71299800  0.35127300  1
  O  O21  1  0.07572400  0.78700200  0.14872700  1
  O  O22  1  0.42659200  0.28771700  0.64884900  1
  O  O23  1  0.92659200  0.21228300  0.85115100  1
  O  O24  1  0.59482800  0.24777900  0.17975500  1
  O  O25  1  0.09482800  0.25222100  0.32024500  1
  O  O26  1  0.40487800  0.75317900  0.81935600  1
  O  O27  1  0.90487800  0.74682100  0.68064400  1
  O  O28  1  0.33018600  0.38740100  0.85809000  1
  O  O29  1  0.83018600  0.11259900  0.64191000  1
  O  O30  1  0.66671000  0.61783100  0.14135300  1
  O  O31  1  0.16671000  0.88216900  0.35864700  1
  O  O32  1  0.70224900  0.01219800  0.08445600  1
  O  O33  1  0.20224900  0.48780200  0.41554400  1
  O  O34  1  0.30035500  0.98899400  0.91582500  1
  O  O35  1  0.80035500  0.51100600  0.58417500  1
  O  O36  1  0.63622600  0.98972500  0.40291600  1
  O  O37  1  0.13622600  0.51027500  0.09708400  1
  O  O38  1  0.36121600  0.01019300  0.59871900  1
  O  O39  1  0.86121600  0.48980700  0.90128100  1
  O  O40  1  0.53116100  0.92014900  0.24294000  1
  O  O41  1  0.03116100  0.57985100  0.25706000  1
  O  O42  1  0.46738700  0.08044200  0.75840100  1
  O  O43  1  0.96738700  0.41955800  0.74159900  1
  O  O44  1  0.21948800  0.09311400  0.10100400  1
  O  O45  1  0.71948800  0.40688600  0.39899600  1
  O  O46  1  0.78340700  0.90373300  0.89890000  1
  O  O47  1  0.28340700  0.59626700  0.60110000  1
  O  O48  1  0.94784700  0.74369600  0.51005400  1
  O  O49  1  0.44784700  0.75630400  0.98994600  1
  O  O50  1  0.05216900  0.25683800  0.49106300  1
  O  O51  1  0.55216900  0.24316200  0.00893700  1
