# generated using pymatgen
data_BaAlGaO4
_symmetry_space_group_name_H-M   'P 1'
_cell_length_a   5.35129636
_cell_length_b   5.35129636
_cell_length_c   9.09050948
_cell_angle_alpha   89.12965030
_cell_angle_beta   89.12965030
_cell_angle_gamma   59.43152860
_symmetry_Int_Tables_number   1
_chemical_formula_structural   BaAlGaO4
_chemical_formula_sum   'Ba2 Al2 Ga2 O8'
_cell_volume   224.10629225
_cell_formula_units_Z   2
loop_
 _symmetry_equiv_pos_site_id
 _symmetry_equiv_pos_as_xyz
  1  'x, y, z'
loop_
 _atom_site_type_symbol
 _atom_site_label
 _atom_site_symmetry_multiplicity
 _atom_site_fract_x
 _atom_site_fract_y
 _atom_site_fract_z
 _atom_site_occupancy
  Ba  Ba0  1  0.00371000  0.99703100  0.75371700  1
  Ba  Ba1  1  0.00296900  0.99629000  0.24628300  1
  Al  Al2  1  0.34590400  0.32277100  0.94721800  1
  Al  Al3  1  0.67722900  0.65409600  0.05278200  1
  Ga  Ga4  1  0.67190600  0.65828400  0.44757900  1
  Ga  Ga5  1  0.34171600  0.32809400  0.55242100  1
  O  O6  1  0.69969900  0.61657400  0.24607500  1
  O  O7  1  0.38342600  0.30030100  0.75392500  1
  O  O8  1  0.33004000  0.66996000  0.50000000  1
  O  O9  1  0.66960800  0.99826900  0.48392400  1
  O  O10  1  0.00173100  0.33039200  0.51607600  1
  O  O11  1  0.64576400  0.35423600  0.00000000  1
  O  O12  1  0.36800000  0.99670400  0.01114700  1
  O  O13  1  0.00329600  0.63200000  0.98885300  1
