data_image0
_chemical_formula_structural       In3Rh2Sr2
_chemical_formula_sum              "In3 Rh2 Sr2"
_cell_length_a       4.32002
_cell_length_b       5.94766
_cell_length_c       7.85167
_cell_angle_alpha    98.9331
_cell_angle_beta     105.968
_cell_angle_gamma    111.295

_space_group_name_H-M_alt    "P 1"
_space_group_IT_number       1

loop_
  _space_group_symop_operation_xyz
  'x, y, z'

loop_
  _atom_site_type_symbol
  _atom_site_label
  _atom_site_symmetry_multiplicity
  _atom_site_fract_x
  _atom_site_fract_y
  _atom_site_fract_z
  _atom_site_occupancy
  In  In1       1.0  0.50000  0.00000  0.00000  1.0000
  In  In2       1.0  0.80200  0.16100  0.44400  1.0000
  In  In3       1.0  0.19800  0.83900  0.55600  1.0000
  Rh  Rh1       1.0  0.07810  0.95000  0.20600  1.0000
  Rh  Rh2       1.0  0.92200  0.04980  0.79400  1.0000
  Sr  Sr1       1.0  0.36700  0.51100  0.22400  1.0000
  Sr  Sr2       1.0  0.63300  0.48900  0.77600  1.0000
