# generated using pymatgen
data_BaSr3Co2Cu4(SO)4
_symmetry_space_group_name_H-M   'P 1'
_cell_length_a   3.94166800
_cell_length_b   3.94166800
_cell_length_c   18.95503300
_cell_angle_alpha   90.00000000
_cell_angle_beta   90.00000000
_cell_angle_gamma   90.00000000
_symmetry_Int_Tables_number   1
_chemical_formula_structural   BaSr3Co2Cu4(SO)4
_chemical_formula_sum   'Ba1 Sr3 Co2 Cu4 S4 O4'
_cell_volume   294.49954494
_cell_formula_units_Z   1
loop_
 _symmetry_equiv_pos_site_id
 _symmetry_equiv_pos_as_xyz
  1  'x, y, z'
loop_
 _atom_site_type_symbol
 _atom_site_label
 _atom_site_symmetry_multiplicity
 _atom_site_fract_x
 _atom_site_fract_y
 _atom_site_fract_z
 _atom_site_occupancy
  Ba  Ba0  1  0.50000000  0.50000000  0.09669500  1
  Sr  Sr1  1  0.00000000  0.00000000  0.59383500  1
  Sr  Sr2  1  0.00000000  0.00000000  0.40789500  1
  Sr  Sr3  1  0.50000000  0.50000000  0.90364600  1
  Co  Co4  1  0.00000000  0.00000000  0.99350900  1
  Co  Co5  1  0.50000000  0.50000000  0.50040100  1
  Cu  Cu6  1  0.50000000  0.00000000  0.25402800  1
  Cu  Cu7  1  0.00000000  0.50000000  0.75011900  1
  Cu  Cu8  1  0.00000000  0.50000000  0.25402800  1
  Cu  Cu9  1  0.50000000  0.00000000  0.75011900  1
  S  S10  1  0.50000000  0.50000000  0.32828100  1
  S  S11  1  0.00000000  0.00000000  0.82397200  1
  S  S12  1  0.00000000  0.00000000  0.18180600  1
  S  S13  1  0.50000000  0.50000000  0.67452700  1
  O  O14  1  0.00000000  0.50000000  0.99314100  1
  O  O15  1  0.50000000  0.00000000  0.50043000  1
  O  O16  1  0.50000000  0.00000000  0.99314100  1
  O  O17  1  0.00000000  0.50000000  0.50043000  1
