# generated using pymatgen
data_BaLa3Sc4HO12
_symmetry_space_group_name_H-M   'P 1'
_cell_length_a   5.78983253
_cell_length_b   5.87353257
_cell_length_c   8.29511200
_cell_angle_alpha   90.00000000
_cell_angle_beta   90.00000000
_cell_angle_gamma   90.79418434
_symmetry_Int_Tables_number   1
_chemical_formula_structural   BaLa3Sc4HO12
_chemical_formula_sum   'Ba1 La3 Sc4 H1 O12'
_cell_volume   282.06286659
_cell_formula_units_Z   1
loop_
 _symmetry_equiv_pos_site_id
 _symmetry_equiv_pos_as_xyz
  1  'x, y, z'
loop_
 _atom_site_type_symbol
 _atom_site_label
 _atom_site_symmetry_multiplicity
 _atom_site_fract_x
 _atom_site_fract_y
 _atom_site_fract_z
 _atom_site_occupancy
  Ba  Ba0  1  0.50014800  0.47789400  0.25000000  1
  La  La1  1  0.98248700  0.95190100  0.25000000  1
  La  La2  1  0.48415900  0.54611200  0.75000000  1
  La  La3  1  0.01410000  0.03287800  0.75000000  1
  Sc  Sc4  1  0.99564600  0.50379300  0.98161100  1
  Sc  Sc5  1  0.50514300  0.00573900  0.50075300  1
  Sc  Sc6  1  0.99564600  0.50379300  0.51838900  1
  Sc  Sc7  1  0.50514300  0.00573900  0.99924700  1
  H  H8  1  0.93886300  0.39614000  0.25000000  1
  O  O9  1  0.39243000  0.00395400  0.25000000  1
  O  O10  1  0.05464100  0.52135200  0.25000000  1
  O  O11  1  0.60253500  0.97894000  0.75000000  1
  O  O12  1  0.89098200  0.46288900  0.75000000  1
  O  O13  1  0.72892800  0.72643100  0.03478300  1
  O  O14  1  0.80710900  0.20778600  0.44193700  1
  O  O15  1  0.28881700  0.29140100  0.56309000  1
  O  O16  1  0.21768500  0.78582100  0.94230300  1
  O  O17  1  0.28881700  0.29140100  0.93691000  1
  O  O18  1  0.21768500  0.78582100  0.55769700  1
  O  O19  1  0.72892800  0.72643100  0.46521700  1
  O  O20  1  0.80710900  0.20778600  0.05806300  1
