# generated using pymatgen
data_Ca3Ti4PbO12
_symmetry_space_group_name_H-M   'P 1'
_cell_length_a   7.78879100
_cell_length_b   5.47798200
_cell_length_c   5.52976820
_cell_angle_alpha   89.78703263
_cell_angle_beta   90.00000000
_cell_angle_gamma   90.00000000
_symmetry_Int_Tables_number   1
_chemical_formula_structural   Ca3Ti4PbO12
_chemical_formula_sum   'Ca3 Ti4 Pb1 O12'
_cell_volume   235.93619860
_cell_formula_units_Z   1
loop_
 _symmetry_equiv_pos_site_id
 _symmetry_equiv_pos_as_xyz
  1  'x, y, z'
loop_
 _atom_site_type_symbol
 _atom_site_label
 _atom_site_symmetry_multiplicity
 _atom_site_fract_x
 _atom_site_fract_y
 _atom_site_fract_z
 _atom_site_occupancy
  Ca  Ca0  1  0.50000000  0.99654800  0.53409700  1
  Ca  Ca1  1  0.00000000  0.49584800  0.95597600  1
  Ca  Ca2  1  0.00000000  0.00152600  0.46644700  1
  Ti  Ti3  1  0.24692800  0.50129100  0.49149500  1
  Ti  Ti4  1  0.75454100  0.99945800  0.99700100  1
  Ti  Ti5  1  0.75307200  0.50129100  0.49149500  1
  Ti  Ti6  1  0.24545900  0.99945800  0.99700100  1
  Pb  Pb7  1  0.50000000  0.50423000  0.01340700  1
  O  O8  1  0.50000000  0.43195800  0.50179800  1
  O  O9  1  0.50000000  0.04647000  0.97753700  1
  O  O10  1  0.00000000  0.56685600  0.51134600  1
  O  O11  1  0.00000000  0.92841900  0.02851900  1
  O  O12  1  0.26861900  0.71599700  0.78738200  1
  O  O13  1  0.71721000  0.79628600  0.29969000  1
  O  O14  1  0.78974400  0.28960100  0.21426600  1
  O  O15  1  0.21023800  0.21143800  0.71560400  1
  O  O16  1  0.21025600  0.28960100  0.21426600  1
  O  O17  1  0.78976200  0.21143800  0.71560400  1
  O  O18  1  0.73138100  0.71599700  0.78738200  1
  O  O19  1  0.28279000  0.79628600  0.29969000  1
