# generated using pymatgen
data_Ca2TiMnO6
_symmetry_space_group_name_H-M   'P 1'
_cell_length_a   7.63723314
_cell_length_b   7.63721546
_cell_length_c   9.31801150
_cell_angle_alpha   66.13741821
_cell_angle_beta   66.13745956
_cell_angle_gamma   90.64446289
_symmetry_Int_Tables_number   1
_chemical_formula_structural   Ca2TiMnO6
_chemical_formula_sum   'Ca8 Ti4 Mn4 O24'
_cell_volume   444.49663147
_cell_formula_units_Z   4
loop_
 _symmetry_equiv_pos_site_id
 _symmetry_equiv_pos_as_xyz
  1  'x, y, z'
loop_
 _atom_site_type_symbol
 _atom_site_label
 _atom_site_symmetry_multiplicity
 _atom_site_fract_x
 _atom_site_fract_y
 _atom_site_fract_z
 _atom_site_occupancy
  Ca  Ca0  1  0.39060700  0.85161400  0.25080900  1
  Ca  Ca1  1  0.89058600  0.35162700  0.25076400  1
  Ca  Ca2  1  0.89809300  0.85928400  0.24931700  1
  Ca  Ca3  1  0.39812700  0.35926100  0.24933400  1
  Ca  Ca4  1  0.10926200  0.64810700  0.74932800  1
  Ca  Ca5  1  0.60927000  0.14806800  0.74931700  1
  Ca  Ca6  1  0.60164600  0.64062300  0.75078700  1
  Ca  Ca7  1  0.10164600  0.14058100  0.75079300  1
  Ti  Ti8  1  0.50005900  0.99990600  0.49998100  1
  Ti  Ti9  1  0.00013000  0.49994100  0.49995800  1
  Ti  Ti10  1  0.24979700  0.25008700  0.99996600  1
  Ti  Ti11  1  0.74993900  0.75004300  0.99996100  1
  Mn  Mn12  1  0.74983700  0.25030200  0.99982800  1
  Mn  Mn13  1  0.00030400  0.00000900  0.49983800  1
  Mn  Mn14  1  0.24990900  0.75030100  0.99997100  1
  Mn  Mn15  1  0.50032400  0.49991600  0.49993300  1
  O  O16  1  0.27159900  0.48063100  0.46144300  1
  O  O17  1  0.77163400  0.98065300  0.46142300  1
  O  O18  1  0.26956200  0.97877000  0.03826100  1
  O  O19  1  0.76952400  0.47874600  0.03824800  1
  O  O20  1  0.22875500  0.01955200  0.53824200  1
  O  O21  1  0.72878000  0.51953400  0.53826300  1
  O  O22  1  0.23066600  0.52159300  0.96145000  1
  O  O23  1  0.73063900  0.02162600  0.96141300  1
  O  O24  1  0.02168000  0.80807900  0.96296400  1
  O  O25  1  0.52165400  0.30808600  0.96293300  1
  O  O26  1  0.44187300  0.72797700  0.53739800  1
  O  O27  1  0.94186300  0.22802200  0.53738000  1
  O  O28  1  0.47798400  0.69185600  0.03741000  1
  O  O29  1  0.97801000  0.19187000  0.03737400  1
  O  O30  1  0.05808400  0.77166000  0.46294500  1
  O  O31  1  0.55809800  0.27167400  0.46296200  1
  O  O32  1  0.65125000  0.66807100  0.25252200  1
  O  O33  1  0.15128200  0.16810800  0.25246900  1
  O  O34  1  0.58166400  0.09901400  0.24747900  1
  O  O35  1  0.08165300  0.59899000  0.24753300  1
  O  O36  1  0.84902100  0.83167700  0.74748400  1
  O  O37  1  0.34902600  0.33165400  0.74752400  1
  O  O38  1  0.91808300  0.40125100  0.75246900  1
  O  O39  1  0.41808100  0.90123500  0.75252700  1
