# generated using pymatgen
data_BaSr3Mn3O10
_symmetry_space_group_name_H-M   'P 1'
_cell_length_a   5.61224600
_cell_length_b   6.97255833
_cell_length_c   12.93134794
_cell_angle_alpha   90.28545064
_cell_angle_beta   90.00000000
_cell_angle_gamma   66.26841889
_symmetry_Int_Tables_number   1
_chemical_formula_structural   BaSr3Mn3O10
_chemical_formula_sum   'Ba2 Sr6 Mn6 O20'
_cell_volume   463.22984733
_cell_formula_units_Z   2
loop_
 _symmetry_equiv_pos_site_id
 _symmetry_equiv_pos_as_xyz
  1  'x, y, z'
loop_
 _atom_site_type_symbol
 _atom_site_label
 _atom_site_symmetry_multiplicity
 _atom_site_fract_x
 _atom_site_fract_y
 _atom_site_fract_z
 _atom_site_occupancy
  Ba  Ba0  1  0.96603900  0.06792200  0.64477800  1
  Ba  Ba1  1  0.03396100  0.93207800  0.35522200  1
  Sr  Sr2  1  0.53042200  0.93915600  0.14230100  1
  Sr  Sr3  1  0.46957800  0.06084400  0.85769900  1
  Sr  Sr4  1  0.75921600  0.48156800  0.89059800  1
  Sr  Sr5  1  0.24078400  0.51843200  0.10940200  1
  Sr  Sr6  1  0.74041400  0.51917100  0.39049500  1
  Sr  Sr7  1  0.25958600  0.48082900  0.60950500  1
  Mn  Mn8  1  0.63024100  0.73951800  0.65249500  1
  Mn  Mn9  1  0.36975900  0.26048200  0.34750500  1
  Mn  Mn10  1  0.86722400  0.26555100  0.15148900  1
  Mn  Mn11  1  0.13277600  0.73444900  0.84851100  1
  Mn  Mn12  1  0.50000000  0.00000000  0.50000000  1
  Mn  Mn13  1  0.00000000  0.00000000  0.00000000  1
  O  O14  1  0.53701900  0.92596300  0.35464900  1
  O  O15  1  0.46298100  0.07403700  0.64535100  1
  O  O16  1  0.96243100  0.07513700  0.85674800  1
  O  O17  1  0.03756900  0.92486300  0.14325200  1
  O  O18  1  0.38605000  0.78163800  0.53704600  1
  O  O19  1  0.16768800  0.21836200  0.46295400  1
  O  O20  1  0.66546400  0.21466900  0.03797400  1
  O  O21  1  0.88013300  0.78533100  0.96202600  1
  O  O22  1  0.61395000  0.21836200  0.46295400  1
  O  O23  1  0.83231200  0.78163800  0.53704600  1
  O  O24  1  0.33453600  0.78533100  0.96202600  1
  O  O25  1  0.11986700  0.21466900  0.03797400  1
  O  O26  1  0.37345600  0.75901800  0.75236100  1
  O  O27  1  0.13247400  0.24098200  0.24763900  1
  O  O28  1  0.62654400  0.24098200  0.24763900  1
  O  O29  1  0.86752600  0.75901800  0.75236100  1
  O  O30  1  0.77042900  0.45914100  0.64657400  1
  O  O31  1  0.22957100  0.54085900  0.35342600  1
  O  O32  1  0.72438800  0.55122400  0.14698400  1
  O  O33  1  0.27561200  0.44877600  0.85301600  1
