# generated using pymatgen
data_Ca8Fe5(WO8)3
_symmetry_space_group_name_H-M   'P 1'
_cell_length_a   7.85529100
_cell_length_b   7.86489955
_cell_length_c   9.50875315
_cell_angle_alpha   113.57062949
_cell_angle_beta   113.68113364
_cell_angle_gamma   91.55048057
_symmetry_Int_Tables_number   1
_chemical_formula_structural   Ca8Fe5(WO8)3
_chemical_formula_sum   'Ca8 Fe5 W3 O24'
_cell_volume   480.62541780
_cell_formula_units_Z   1
loop_
 _symmetry_equiv_pos_site_id
 _symmetry_equiv_pos_as_xyz
  1  'x, y, z'
loop_
 _atom_site_type_symbol
 _atom_site_label
 _atom_site_symmetry_multiplicity
 _atom_site_fract_x
 _atom_site_fract_y
 _atom_site_fract_z
 _atom_site_occupancy
  Ca  Ca0  1  0.83006200  0.37702300  0.73852900  1
  Ca  Ca1  1  0.35245900  0.89774600  0.73814500  1
  Ca  Ca2  1  0.63751100  0.60486200  0.25319200  1
  Ca  Ca3  1  0.15997200  0.08840900  0.26076900  1
  Ca  Ca4  1  0.64754100  0.10225400  0.26185500  1
  Ca  Ca5  1  0.16993800  0.62297700  0.26147100  1
  Ca  Ca6  1  0.84002800  0.91159100  0.73923100  1
  Ca  Ca7  1  0.36248900  0.39513800  0.74680800  1
  Fe  Fe8  1  0.25140000  0.75027000  0.99945700  1
  Fe  Fe9  1  0.74860000  0.24973000  0.00054300  1
  Fe  Fe10  1  0.00000000  0.00000000  0.50000000  1
  Fe  Fe11  1  0.50000000  0.50000000  0.50000000  1
  Fe  Fe12  1  0.50000000  0.00000000  0.50000000  1
  W  W13  1  0.00000000  0.50000000  0.50000000  1
  W  W14  1  0.75191900  0.75255800  0.99984900  1
  W  W15  1  0.24808100  0.24744200  0.00015100  1
  O  O16  1  0.73595900  0.43155200  0.45612200  1
  O  O17  1  0.22166500  0.93567200  0.45857200  1
  O  O18  1  0.68228000  0.48987300  0.95927100  1
  O  O19  1  0.17644400  0.98415400  0.95027900  1
  O  O20  1  0.77833500  0.06432800  0.54142800  1
  O  O21  1  0.26404100  0.56844800  0.54387800  1
  O  O22  1  0.82355600  0.01584600  0.04972100  1
  O  O23  1  0.31772000  0.51012700  0.04072900  1
  O  O24  1  0.68945300  0.66050100  0.75697600  1
  O  O25  1  0.18709100  0.15822500  0.75675600  1
  O  O26  1  0.40197100  0.92610600  0.24717100  1
  O  O27  1  0.90943400  0.44162600  0.25885900  1
  O  O28  1  0.81290900  0.84177500  0.24324400  1
  O  O29  1  0.31054700  0.33949900  0.24302400  1
  O  O30  1  0.09056600  0.55837400  0.74114100  1
  O  O31  1  0.59802900  0.07389400  0.75282900  1
  O  O32  1  0.97706700  0.76270300  0.54864700  1
  O  O33  1  0.48023500  0.27908200  0.54582800  1
  O  O34  1  0.01208100  0.72513000  0.04697300  1
  O  O35  1  0.51329500  0.22883800  0.05421000  1
  O  O36  1  0.51976500  0.72091800  0.45417200  1
  O  O37  1  0.02293300  0.23729700  0.45135300  1
  O  O38  1  0.48670500  0.77116200  0.94579000  1
  O  O39  1  0.98791900  0.27487000  0.95302700  1
