# generated using pymatgen
data_Ca2Zn3Ag
_symmetry_space_group_name_H-M   'P 1'
_cell_length_a   5.77233166
_cell_length_b   5.77233166
_cell_length_c   7.33374617
_cell_angle_alpha   51.05975163
_cell_angle_beta   51.05975163
_cell_angle_gamma   47.69081147
_symmetry_Int_Tables_number   1
_chemical_formula_structural   Ca2Zn3Ag
_chemical_formula_sum   'Ca2 Zn3 Ag1'
_cell_volume   131.28522570
_cell_formula_units_Z   1
loop_
 _symmetry_equiv_pos_site_id
 _symmetry_equiv_pos_as_xyz
  1  'x, y, z'
loop_
 _atom_site_type_symbol
 _atom_site_label
 _atom_site_symmetry_multiplicity
 _atom_site_fract_x
 _atom_site_fract_y
 _atom_site_fract_z
 _atom_site_occupancy
  Ca  Ca0  1  0.54956600  0.54956600  0.69911700  1
  Ca  Ca1  1  0.45055100  0.45055100  0.29929100  1
  Zn  Zn2  1  0.82963300  0.82963300  0.73465200  1
  Zn  Zn3  1  0.84211000  0.84211000  0.09670000  1
  Zn  Zn4  1  0.16613400  0.16613400  0.89101000  1
  Ag  Ag5  1  0.16200700  0.16200700  0.27923200  1
