# generated using pymatgen
data_Bi12Pb2Cl6O17
_symmetry_space_group_name_H-M   'P 1'
_cell_length_a   15.28480181
_cell_length_b   15.28480181
_cell_length_c   12.81038209
_cell_angle_alpha   74.20310539
_cell_angle_beta   74.20310539
_cell_angle_gamma   14.77554228
_symmetry_Int_Tables_number   1
_chemical_formula_structural   Bi12Pb2Cl6O17
_chemical_formula_sum   'Bi12 Pb2 Cl6 O17'
_cell_volume   733.94899040
_cell_formula_units_Z   1
loop_
 _symmetry_equiv_pos_site_id
 _symmetry_equiv_pos_as_xyz
  1  'x, y, z'
loop_
 _atom_site_type_symbol
 _atom_site_label
 _atom_site_symmetry_multiplicity
 _atom_site_fract_x
 _atom_site_fract_y
 _atom_site_fract_z
 _atom_site_occupancy
  Bi  Bi0  1  0.64243400  0.64243400  0.48478100  1
  Bi  Bi1  1  0.35513700  0.35513700  0.51105700  1
  Bi  Bi2  1  0.54473700  0.54473700  0.33970400  1
  Bi  Bi3  1  0.46044700  0.46044700  0.65797300  1
  Bi  Bi4  1  0.24959800  0.24959800  0.37894400  1
  Bi  Bi5  1  0.74774800  0.74774800  0.62717100  1
  Bi  Bi6  1  0.14745400  0.14745400  0.19659400  1
  Bi  Bi7  1  0.85091800  0.85091800  0.76018700  1
  Bi  Bi8  1  0.44062300  0.44062300  0.20124900  1
  Bi  Bi9  1  0.56109000  0.56109000  0.80034200  1
  Bi  Bi10  1  0.33640500  0.33640500  0.05625900  1
  Bi  Bi11  1  0.65951600  0.65951600  0.94837200  1
  Pb  Pb12  1  0.04907400  0.04907400  0.07761500  1
  Pb  Pb13  1  0.95153400  0.95153400  0.92428700  1
  Cl  Cl14  1  0.84190200  0.84190200  0.31971800  1
  Cl  Cl15  1  0.16394000  0.16394000  0.69625600  1
  Cl  Cl16  1  0.74590600  0.74590600  0.19740600  1
  Cl  Cl17  1  0.26963800  0.26963800  0.80411200  1
  Cl  Cl18  1  0.94008700  0.94008700  0.44079100  1
  Cl  Cl19  1  0.04854300  0.04854300  0.57030800  1
  O  O20  1  0.96419300  0.96419300  0.11807600  1
  O  O21  1  0.03413100  0.03413100  0.87588200  1
  O  O22  1  0.51306000  0.51306000  0.20116700  1
  O  O23  1  0.48338900  0.48338900  0.80170400  1
  O  O24  1  0.07042200  0.07042200  0.26486300  1
  O  O25  1  0.92761900  0.92761900  0.72960400  1
  O  O26  1  0.61889800  0.61889800  0.34425700  1
  O  O27  1  0.37788400  0.37788400  0.66871300  1
  O  O28  1  0.72564100  0.72564100  0.47154300  1
  O  O29  1  0.27595600  0.27595600  0.53737800  1
  O  O30  1  0.17471000  0.17471000  0.41615600  1
  O  O31  1  0.82700800  0.82700800  0.59544600  1
  O  O32  1  0.40381900  0.40381900  0.06237400  1
  O  O33  1  0.58812900  0.58812900  0.94066300  1
  O  O34  1  0.84575100  0.84575100  0.96072800  1
  O  O35  1  0.17351400  0.17351400  0.01205900  1
  O  O36  1  0.62644500  0.62644500  0.12625800  1
