# generated using pymatgen
data_Bi10Te2I4O17
_symmetry_space_group_name_H-M   'P 1'
_cell_length_a   10.66342365
_cell_length_b   10.66342365
_cell_length_c   7.98967900
_cell_angle_alpha   90.00000000
_cell_angle_beta   90.00000000
_cell_angle_gamma   135.99953415
_symmetry_Int_Tables_number   1
_chemical_formula_structural   Bi10Te2I4O17
_chemical_formula_sum   'Bi10 Te2 I4 O17'
_cell_volume   631.09913955
_cell_formula_units_Z   1
loop_
 _symmetry_equiv_pos_site_id
 _symmetry_equiv_pos_as_xyz
  1  'x, y, z'
loop_
 _atom_site_type_symbol
 _atom_site_label
 _atom_site_symmetry_multiplicity
 _atom_site_fract_x
 _atom_site_fract_y
 _atom_site_fract_z
 _atom_site_occupancy
  Bi  Bi0  1  0.48975800  0.99681100  0.75665000  1
  Bi  Bi1  1  0.48975800  0.99681100  0.24335000  1
  Bi  Bi2  1  0.00318900  0.51024200  0.75665000  1
  Bi  Bi3  1  0.00318900  0.51024200  0.24335000  1
  Bi  Bi4  1  0.37715700  0.62284300  0.50000000  1
  Bi  Bi5  1  0.37046000  0.62954000  0.00000000  1
  Bi  Bi6  1  0.86986100  0.13013900  0.50000000  1
  Bi  Bi7  1  0.87715200  0.12284800  0.00000000  1
  Bi  Bi8  1  0.10289000  0.89711000  0.50000000  1
  Bi  Bi9  1  0.60290100  0.39709900  0.00000000  1
  Te  Te10  1  0.62219300  0.37780700  0.50000000  1
  Te  Te11  1  0.13838100  0.86161900  0.00000000  1
  I  I12  1  0.23671600  0.26348600  0.75104200  1
  I  I13  1  0.23671600  0.26348600  0.24895800  1
  I  I14  1  0.73651400  0.76328400  0.75104200  1
  I  I15  1  0.73651400  0.76328400  0.24895800  1
  O  O16  1  0.89725400  0.57267200  0.50000000  1
  O  O17  1  0.89691800  0.57583200  0.00000000  1
  O  O18  1  0.42732800  0.10274600  0.50000000  1
  O  O19  1  0.42416800  0.10308200  0.00000000  1
  O  O20  1  0.66250500  0.33749500  0.73446900  1
  O  O21  1  0.66250500  0.33749500  0.26553100  1
  O  O22  1  0.16050700  0.83949300  0.73641100  1
  O  O23  1  0.16050700  0.83949300  0.26358900  1
  O  O24  1  0.56354500  0.93340000  0.50000000  1
  O  O25  1  0.57836700  0.93804900  0.00000000  1
  O  O26  1  0.06660000  0.43645500  0.50000000  1
  O  O27  1  0.06195100  0.42163300  0.00000000  1
  O  O28  1  0.32015900  0.67984100  0.74169900  1
  O  O29  1  0.32015900  0.67984100  0.25830100  1
  O  O30  1  0.81512500  0.18487500  0.75151000  1
  O  O31  1  0.81512500  0.18487500  0.24849000  1
  O  O32  1  0.23420500  0.76579500  0.00000000  1
