# generated using pymatgen
data_CaAl2(Si2O7)2
_symmetry_space_group_name_H-M   'P 1'
_cell_length_a   11.92835785
_cell_length_b   11.92835785
_cell_length_c   13.69492874
_cell_angle_alpha   55.62057552
_cell_angle_beta   55.62057552
_cell_angle_gamma   71.21306657
_symmetry_Int_Tables_number   1
_chemical_formula_structural   CaAl2(Si2O7)2
_chemical_formula_sum   'Ca4 Al8 Si16 O56'
_cell_volume   1327.26361681
_cell_formula_units_Z   4
loop_
 _symmetry_equiv_pos_site_id
 _symmetry_equiv_pos_as_xyz
  1  'x, y, z'
loop_
 _atom_site_type_symbol
 _atom_site_label
 _atom_site_symmetry_multiplicity
 _atom_site_fract_x
 _atom_site_fract_y
 _atom_site_fract_z
 _atom_site_occupancy
  Ca  Ca0  1  0.26320800  0.25870000  0.60706100  1
  Ca  Ca1  1  0.74130000  0.73679200  0.89293900  1
  Ca  Ca2  1  0.73679200  0.74130000  0.39293900  1
  Ca  Ca3  1  0.25870000  0.26320800  0.10706100  1
  Al  Al4  1  0.26146000  0.58536400  0.46330100  1
  Al  Al5  1  0.41463600  0.73854000  0.03669900  1
  Al  Al6  1  0.73854000  0.41463600  0.53669900  1
  Al  Al7  1  0.58536400  0.26146000  0.96330100  1
  Al  Al8  1  0.25920400  0.93204200  0.77119100  1
  Al  Al9  1  0.06795800  0.74079600  0.72880900  1
  Al  Al10  1  0.74079600  0.06795800  0.22880900  1
  Al  Al11  1  0.93204200  0.25920400  0.27119100  1
  Si  Si12  1  0.79206900  0.55133000  0.23786700  1
  Si  Si13  1  0.44867000  0.20793100  0.26213300  1
  Si  Si14  1  0.20793100  0.44867000  0.76213300  1
  Si  Si15  1  0.55133000  0.79206900  0.73786700  1
  Si  Si16  1  0.45390500  0.27342900  0.80364800  1
  Si  Si17  1  0.72657100  0.54609500  0.69635200  1
  Si  Si18  1  0.54609500  0.72657100  0.19635200  1
  Si  Si19  1  0.27342900  0.45390500  0.30364800  1
  Si  Si20  1  0.72111900  0.96600700  0.07524700  1
  Si  Si21  1  0.03399300  0.27888100  0.42475300  1
  Si  Si22  1  0.27888100  0.03399300  0.92475300  1
  Si  Si23  1  0.96600700  0.72111900  0.57524700  1
  Si  Si24  1  0.03553600  0.21118400  0.03229900  1
  Si  Si25  1  0.78881600  0.96446400  0.46770100  1
  Si  Si26  1  0.96446400  0.78881600  0.96770100  1
  Si  Si27  1  0.21118400  0.03553600  0.53229900  1
  O  O28  1  0.30936200  0.87839200  0.01106800  1
  O  O29  1  0.12160800  0.69063800  0.48893200  1
  O  O30  1  0.69063800  0.12160800  0.98893200  1
  O  O31  1  0.87839200  0.30936200  0.51106800  1
  O  O32  1  0.00945200  0.26423100  0.72582900  1
  O  O33  1  0.73576900  0.99054800  0.77417100  1
  O  O34  1  0.99054800  0.73576900  0.27417100  1
  O  O35  1  0.26423100  0.00945200  0.22582900  1
  O  O36  1  0.26026300  0.05826100  0.80361600  1
  O  O37  1  0.94173900  0.73973700  0.69638400  1
  O  O38  1  0.73973700  0.94173900  0.19638400  1
  O  O39  1  0.05826100  0.26026300  0.30361600  1
  O  O40  1  0.67405500  0.61781000  0.19243700  1
  O  O41  1  0.38219000  0.32594500  0.30756300  1
  O  O42  1  0.32594500  0.38219000  0.80756300  1
  O  O43  1  0.61781000  0.67405500  0.69243700  1
  O  O44  1  0.51798200  0.25529200  0.49986700  1
  O  O45  1  0.74470800  0.48201800  0.00013300  1
  O  O46  1  0.48201800  0.74470800  0.50013300  1
  O  O47  1  0.25529200  0.51798200  0.99986700  1
  O  O48  1  0.74810900  0.52933500  0.57601500  1
  O  O49  1  0.47066500  0.25189100  0.92398500  1
  O  O50  1  0.25189100  0.47066500  0.42398500  1
  O  O51  1  0.52933500  0.74810900  0.07601500  1
  O  O52  1  0.58601200  0.32762200  0.65691200  1
  O  O53  1  0.67237800  0.41398800  0.84308800  1
  O  O54  1  0.41398800  0.67237800  0.34308800  1
  O  O55  1  0.32762200  0.58601200  0.15691200  1
  O  O56  1  0.88238900  0.17049700  0.10452900  1
  O  O57  1  0.82950300  0.11761100  0.39547100  1
  O  O58  1  0.11761100  0.82950300  0.89547100  1
  O  O59  1  0.17049700  0.88238900  0.60452900  1
  O  O60  1  0.74672600  0.94438400  0.38279900  1
  O  O61  1  0.05561600  0.25327400  0.11720100  1
  O  O62  1  0.25327400  0.05561600  0.61720100  1
  O  O63  1  0.94438400  0.74672600  0.88279900  1
  O  O64  1  0.85989900  0.91651800  0.97562600  1
  O  O65  1  0.08348200  0.14010100  0.52437400  1
  O  O66  1  0.14010100  0.08348200  0.02437400  1
  O  O67  1  0.91651800  0.85989900  0.47562600  1
  O  O68  1  0.59425100  0.87018900  0.15008700  1
  O  O69  1  0.12981100  0.40574900  0.34991300  1
  O  O70  1  0.40574900  0.12981100  0.84991300  1
  O  O71  1  0.87018900  0.59425100  0.65008700  1
  O  O72  1  0.16372200  0.59270800  0.75687000  1
  O  O73  1  0.40729200  0.83627800  0.74313000  1
  O  O74  1  0.83627800  0.40729200  0.24313000  1
  O  O75  1  0.59270800  0.16372200  0.25687000  1
  O  O76  1  0.91842000  0.66120700  0.12347500  1
  O  O77  1  0.33879300  0.08158000  0.37652500  1
  O  O78  1  0.08158000  0.33879300  0.87652500  1
  O  O79  1  0.66120700  0.91842000  0.62347500  1
  O  O80  1  0.26083800  0.45554200  0.61916200  1
  O  O81  1  0.54445800  0.73916200  0.88083800  1
  O  O82  1  0.73916200  0.54445800  0.38083800  1
  O  O83  1  0.45554200  0.26083800  0.11916200  1
