# generated using pymatgen
data_BaCa2Er10O18
_symmetry_space_group_name_H-M   'P 1'
_cell_length_a   3.35915710
_cell_length_b   17.70440751
_cell_length_c   17.69088527
_cell_angle_alpha   59.96796761
_cell_angle_beta   89.98171765
_cell_angle_gamma   89.97326265
_symmetry_Int_Tables_number   1
_chemical_formula_structural   BaCa2Er10O18
_chemical_formula_sum   'Ba2 Ca4 Er20 O36'
_cell_volume   910.85991168
_cell_formula_units_Z   2
loop_
 _symmetry_equiv_pos_site_id
 _symmetry_equiv_pos_as_xyz
  1  'x, y, z'
loop_
 _atom_site_type_symbol
 _atom_site_label
 _atom_site_symmetry_multiplicity
 _atom_site_fract_x
 _atom_site_fract_y
 _atom_site_fract_z
 _atom_site_occupancy
  Ba  Ba0  1  0.29948300  0.33595100  0.33353000  1
  Ba  Ba1  1  0.25092900  0.99730600  0.00320000  1
  Ca  Ca2  1  0.75132200  0.67030100  0.34418000  1
  Ca  Ca3  1  0.25389500  0.33160200  0.66410600  1
  Ca  Ca4  1  0.25241000  0.00259800  0.33017600  1
  Ca  Ca5  1  0.25410500  0.66539700  0.00643300  1
  Er  Er6  1  0.25089500  0.43239500  0.77929600  1
  Er  Er7  1  0.25101300  0.78568600  0.43293800  1
  Er  Er8  1  0.25103400  0.77993800  0.78683900  1
  Er  Er9  1  0.75897300  0.56753700  0.22260800  1
  Er  Er10  1  0.75989500  0.21225300  0.56605600  1
  Er  Er11  1  0.75847000  0.22292300  0.21171400  1
  Er  Er12  1  0.25394700  0.76787300  0.12136200  1
  Er  Er13  1  0.25360000  0.11124600  0.76928500  1
  Er  Er14  1  0.25348100  0.11913400  0.11231500  1
  Er  Er15  1  0.75195100  0.22719800  0.88235800  1
  Er  Er16  1  0.75185400  0.88743400  0.23075800  1
  Er  Er17  1  0.75232000  0.88082700  0.89063900  1
  Er  Er18  1  0.25294200  0.10349900  0.44458600  1
  Er  Er19  1  0.25206700  0.45250700  0.10252600  1
  Er  Er20  1  0.25472300  0.44654700  0.45212500  1
  Er  Er21  1  0.75151900  0.89680000  0.54853400  1
  Er  Er22  1  0.75180300  0.55434400  0.89533100  1
  Er  Er23  1  0.75212500  0.55146900  0.55089600  1
  Er  Er24  1  0.75034500  0.98526100  0.67024100  1
  Er  Er25  1  0.75030300  0.34451300  0.98483300  1
  O  O26  1  0.25130300  0.43915000  0.98132300  1
  O  O27  1  0.25245000  0.57287900  0.44650600  1
  O  O28  1  0.25147500  0.98327000  0.57915000  1
  O  O29  1  0.75310900  0.55192000  0.02367400  1
  O  O30  1  0.75497600  0.41881600  0.55291500  1
  O  O31  1  0.75359100  0.02651300  0.42329700  1
  O  O32  1  0.25193600  0.97767000  0.16588400  1
  O  O33  1  0.25226500  0.85582600  0.97583900  1
  O  O34  1  0.25221600  0.16520700  0.85848500  1
  O  O35  1  0.75312300  0.02310600  0.84876400  1
  O  O36  1  0.75306900  0.12775200  0.02433600  1
  O  O37  1  0.75306400  0.85252200  0.12243500  1
  O  O38  1  0.25153400  0.63941400  0.83632700  1
  O  O39  1  0.25188300  0.51799900  0.64040100  1
  O  O40  1  0.25160400  0.84079300  0.52106900  1
  O  O41  1  0.75442700  0.36260900  0.18153000  1
  O  O42  1  0.75844600  0.45253700  0.36148900  1
  O  O43  1  0.75497400  0.18232700  0.45620200  1
  O  O44  1  0.25937600  0.29955500  0.50915200  1
  O  O45  1  0.25798400  0.19187200  0.30037200  1
  O  O46  1  0.25882900  0.50985300  0.18800000  1
  O  O47  1  0.75122200  0.69591900  0.47281700  1
  O  O48  1  0.75103400  0.84187700  0.69424900  1
  O  O49  1  0.75071900  0.46323700  0.84162000  1
  O  O50  1  0.25596900  0.09940600  0.64435200  1
  O  O51  1  0.25528800  0.25771300  0.09993900  1
  O  O52  1  0.25716300  0.64138000  0.25029800  1
  O  O53  1  0.75135700  0.89345900  0.35464900  1
  O  O54  1  0.75129400  0.75474900  0.88870000  1
  O  O55  1  0.75144500  0.35355400  0.75663300  1
  O  O56  1  0.25163200  0.78605300  0.30064900  1
  O  O57  1  0.25120500  0.91783500  0.77825400  1
  O  O58  1  0.25124800  0.30234100  0.91925200  1
  O  O59  1  0.75433000  0.21116900  0.69409800  1
  O  O60  1  0.75397700  0.09626300  0.21194400  1
  O  O61  1  0.75508300  0.69432100  0.09182900  1
