# generated using pymatgen
data_CeIn3(CuSe2)4
_symmetry_space_group_name_H-M   'P 1'
_cell_length_a   5.90953400
_cell_length_b   5.90953400
_cell_length_c   12.00382600
_cell_angle_alpha   90.00000000
_cell_angle_beta   90.00000000
_cell_angle_gamma   90.00000000
_symmetry_Int_Tables_number   1
_chemical_formula_structural   CeIn3(CuSe2)4
_chemical_formula_sum   'Ce1 In3 Cu4 Se8'
_cell_volume   419.20471900
_cell_formula_units_Z   1
loop_
 _symmetry_equiv_pos_site_id
 _symmetry_equiv_pos_as_xyz
  1  'x, y, z'
loop_
 _atom_site_type_symbol
 _atom_site_label
 _atom_site_symmetry_multiplicity
 _atom_site_fract_x
 _atom_site_fract_y
 _atom_site_fract_z
 _atom_site_occupancy
  Ce  Ce0  1  0.00000000  0.00000000  0.50000000  1
  In  In1  1  0.50000000  0.00000000  0.24351800  1
  In  In2  1  0.00000000  0.50000000  0.75648200  1
  In  In3  1  0.50000000  0.50000000  0.00000000  1
  Cu  Cu4  1  0.00000000  0.50000000  0.24708300  1
  Cu  Cu5  1  0.50000000  0.00000000  0.75291700  1
  Cu  Cu6  1  0.00000000  0.00000000  0.00000000  1
  Cu  Cu7  1  0.50000000  0.50000000  0.50000000  1
  Se  Se8  1  0.73450900  0.29243300  0.36523400  1
  Se  Se9  1  0.24939100  0.78344500  0.87780200  1
  Se  Se10  1  0.26549100  0.70756700  0.36523400  1
  Se  Se11  1  0.75060900  0.21655500  0.87780200  1
  Se  Se12  1  0.21655500  0.24939100  0.12219800  1
  Se  Se13  1  0.70756700  0.73450900  0.63476600  1
  Se  Se14  1  0.78344500  0.75060900  0.12219800  1
  Se  Se15  1  0.29243300  0.26549100  0.63476600  1
