# generated using pymatgen
data_Ba4CaCu2CO9
_symmetry_space_group_name_H-M   'P 1'
_cell_length_a   5.85425765
_cell_length_b   5.85425765
_cell_length_c   8.31164500
_cell_angle_alpha   90.00000000
_cell_angle_beta   90.00000000
_cell_angle_gamma   91.83506963
_symmetry_Int_Tables_number   1
_chemical_formula_structural   Ba4CaCu2CO9
_chemical_formula_sum   'Ba4 Ca1 Cu2 C1 O9'
_cell_volume   284.71337125
_cell_formula_units_Z   1
loop_
 _symmetry_equiv_pos_site_id
 _symmetry_equiv_pos_as_xyz
  1  'x, y, z'
loop_
 _atom_site_type_symbol
 _atom_site_label
 _atom_site_symmetry_multiplicity
 _atom_site_fract_x
 _atom_site_fract_y
 _atom_site_fract_z
 _atom_site_occupancy
  Ba  Ba0  1  0.50102000  0.99349700  0.76777900  1
  Ba  Ba1  1  0.00650300  0.49898000  0.76777900  1
  Ba  Ba2  1  0.50102000  0.99349700  0.23222100  1
  Ba  Ba3  1  0.00650300  0.49898000  0.23222100  1
  Ca  Ca4  1  0.99949000  0.00051000  0.00000000  1
  Cu  Cu5  1  0.50184300  0.49815700  0.00000000  1
  Cu  Cu6  1  0.99618400  0.00381600  0.50000000  1
  C  C7  1  0.49747800  0.50252200  0.50000000  1
  O  O8  1  0.99929000  0.00071000  0.71893500  1
  O  O9  1  0.99929000  0.00071000  0.28106500  1
  O  O10  1  0.72434400  0.27565600  0.00000000  1
  O  O11  1  0.27802700  0.72197300  0.00000000  1
  O  O12  1  0.72702200  0.72491600  0.00000000  1
  O  O13  1  0.27508400  0.27297800  0.00000000  1
  O  O14  1  0.57375600  0.42624400  0.63632900  1
  O  O15  1  0.57375600  0.42624400  0.36367100  1
  O  O16  1  0.34249000  0.65751000  0.50000000  1
