# generated using pymatgen
data_BaCa2Tm10O18
_symmetry_space_group_name_H-M   'P 1'
_cell_length_a   3.34108319
_cell_length_b   17.62517011
_cell_length_c   17.61012752
_cell_angle_alpha   60.04974517
_cell_angle_beta   89.97169562
_cell_angle_gamma   90.00865041
_symmetry_Int_Tables_number   1
_chemical_formula_structural   BaCa2Tm10O18
_chemical_formula_sum   'Ba2 Ca4 Tm20 O36'
_cell_volume   898.52697291
_cell_formula_units_Z   2
loop_
 _symmetry_equiv_pos_site_id
 _symmetry_equiv_pos_as_xyz
  1  'x, y, z'
loop_
 _atom_site_type_symbol
 _atom_site_label
 _atom_site_symmetry_multiplicity
 _atom_site_fract_x
 _atom_site_fract_y
 _atom_site_fract_z
 _atom_site_occupancy
  Ba  Ba0  1  0.34135300  0.33577600  0.33060600  1
  Ba  Ba1  1  0.84250700  0.66728900  0.66892600  1
  Ca  Ca2  1  0.78461500  0.67450400  0.32873500  1
  Ca  Ca3  1  0.78401700  0.99440400  0.67470000  1
  Ca  Ca4  1  0.78259900  0.33271600  0.99429300  1
  Ca  Ca5  1  0.28354200  0.67211900  0.00361300  1
  Tm  Tm6  1  0.28630400  0.43665700  0.77945400  1
  Tm  Tm7  1  0.28578900  0.78363900  0.43742200  1
  Tm  Tm8  1  0.28625600  0.77960900  0.78594200  1
  Tm  Tm9  1  0.78655400  0.56590900  0.22022800  1
  Tm  Tm10  1  0.78666000  0.21388400  0.56433500  1
  Tm  Tm11  1  0.78710100  0.22198900  0.21317800  1
  Tm  Tm12  1  0.28126100  0.10189700  0.44634900  1
  Tm  Tm13  1  0.28028100  0.45317200  0.10032900  1
  Tm  Tm14  1  0.28062100  0.44785100  0.45058300  1
  Tm  Tm15  1  0.77877900  0.89894500  0.55236300  1
  Tm  Tm16  1  0.78109500  0.54881500  0.89988000  1
  Tm  Tm17  1  0.77868800  0.55244700  0.54910100  1
  Tm  Tm18  1  0.28234900  0.76843800  0.11708200  1
  Tm  Tm19  1  0.28105900  0.11054700  0.76917500  1
  Tm  Tm20  1  0.28065700  0.11909000  0.11078400  1
  Tm  Tm21  1  0.78253200  0.23235700  0.88166200  1
  Tm  Tm22  1  0.78298100  0.88452400  0.23260900  1
  Tm  Tm23  1  0.78171600  0.88142000  0.88636600  1
  Tm  Tm24  1  0.28630900  0.32282400  0.67183400  1
  Tm  Tm25  1  0.28598200  0.00435900  0.32233400  1
  O  O26  1  0.28309200  0.78341400  0.31272400  1
  O  O27  1  0.28316700  0.90843700  0.77952600  1
  O  O28  1  0.28251900  0.31070200  0.90526500  1
  O  O29  1  0.78472600  0.22764300  0.68424000  1
  O  O30  1  0.78466600  0.08809300  0.22637200  1
  O  O31  1  0.78321700  0.68766200  0.09373600  1
  O  O32  1  0.28629500  0.30501500  0.50857800  1
  O  O33  1  0.28641100  0.18759200  0.30408400  1
  O  O34  1  0.28612600  0.50081100  0.19486900  1
  O  O35  1  0.78501100  0.69581900  0.49678700  1
  O  O36  1  0.78581100  0.80836200  0.69399400  1
  O  O37  1  0.78590200  0.49445000  0.80909400  1
  O  O38  1  0.28222400  0.44673800  0.97497900  1
  O  O39  1  0.28006000  0.57448200  0.45052700  1
  O  O40  1  0.28035300  0.97706400  0.57329900  1
  O  O41  1  0.78211700  0.55106100  0.02577700  1
  O  O42  1  0.77968900  0.41649200  0.56160900  1
  O  O43  1  0.78096500  0.02355500  0.41526700  1
  O  O44  1  0.28335300  0.97631000  0.19602000  1
  O  O45  1  0.28162200  0.84159300  0.97468900  1
  O  O46  1  0.28282400  0.19500800  0.82810100  1
  O  O47  1  0.78116300  0.02608100  0.81948600  1
  O  O48  1  0.78118900  0.15160500  0.02470300  1
  O  O49  1  0.78236600  0.81864600  0.15751800  1
  O  O50  1  0.28440900  0.63703600  0.81842400  1
  O  O51  1  0.28103900  0.54097300  0.63873100  1
  O  O52  1  0.28093000  0.82139700  0.54055900  1
  O  O53  1  0.78344000  0.36096400  0.18141700  1
  O  O54  1  0.78265800  0.45574000  0.36485000  1
  O  O55  1  0.78351700  0.17945300  0.45707800  1
  O  O56  1  0.28396400  0.11355700  0.63927300  1
  O  O57  1  0.28411100  0.24661100  0.11188300  1
  O  O58  1  0.28392800  0.63683100  0.25210500  1
  O  O59  1  0.78298200  0.89540000  0.36162800  1
  O  O60  1  0.78335400  0.74959400  0.88712900  1
  O  O61  1  0.78319700  0.36063100  0.74379600  1
