data_image0
_chemical_formula_structural       C3Cr2Tb2
_chemical_formula_sum              "C3 Cr2 Tb2"
_cell_length_a       3.40852
_cell_length_b       5.46
_cell_length_c       5.58962
_cell_angle_alpha    104.915
_cell_angle_beta     90
_cell_angle_gamma    108.188

_space_group_name_H-M_alt    "P 1"
_space_group_IT_number       1

loop_
  _space_group_symop_operation_xyz
  'x, y, z'

loop_
  _atom_site_type_symbol
  _atom_site_label
  _atom_site_symmetry_multiplicity
  _atom_site_fract_x
  _atom_site_fract_y
  _atom_site_fract_z
  _atom_site_occupancy
  C   C1        1.0  0.71200  0.42400  0.27300  1.0000
  C   C2        1.0  0.00000  0.00000  0.50000  1.0000
  C   C3        1.0  0.28800  0.57600  0.72700  1.0000
  Cr  Cr1       1.0  0.15800  0.31600  0.39100  1.0000
  Cr  Cr2       1.0  0.84200  0.68400  0.60900  1.0000
  Tb  Tb1       1.0  0.39600  0.79100  0.18400  1.0000
  Tb  Tb2       1.0  0.60400  0.20900  0.81600  1.0000
