# generated using pymatgen
data_Ba2CaY(Co4O7)2
_symmetry_space_group_name_H-M   'P 1'
_cell_length_a   6.41341537
_cell_length_b   6.41341537
_cell_length_c   10.38074349
_cell_angle_alpha   89.40461894
_cell_angle_beta   89.40461894
_cell_angle_gamma   60.29315059
_symmetry_Int_Tables_number   1
_chemical_formula_structural   Ba2CaY(Co4O7)2
_chemical_formula_sum   'Ba2 Ca1 Y1 Co8 O14'
_cell_volume   370.83592761
_cell_formula_units_Z   1
loop_
 _symmetry_equiv_pos_site_id
 _symmetry_equiv_pos_as_xyz
  1  'x, y, z'
loop_
 _atom_site_type_symbol
 _atom_site_label
 _atom_site_symmetry_multiplicity
 _atom_site_fract_x
 _atom_site_fract_y
 _atom_site_fract_z
 _atom_site_occupancy
  Ba  Ba0  1  0.33987600  0.33987600  0.01948400  1
  Ba  Ba1  1  0.65792400  0.65792400  0.52166700  1
  Ca  Ca2  1  0.33251100  0.33251100  0.62751700  1
  Y  Y3  1  0.66760600  0.66760600  0.13270500  1
  Co  Co4  1  0.83130000  0.83130000  0.81180400  1
  Co  Co5  1  0.33764600  0.82688600  0.81324900  1
  Co  Co6  1  0.82688600  0.33764600  0.81324900  1
  Co  Co7  1  0.16930700  0.16930700  0.31353900  1
  Co  Co8  1  0.66367400  0.16724700  0.31103700  1
  Co  Co9  1  0.16724700  0.66367400  0.31103700  1
  Co  Co10  1  0.00432000  0.00432000  0.05438900  1
  Co  Co11  1  0.99588400  0.99588400  0.55254100  1
  O  O12  1  0.00176400  0.00176400  0.24100200  1
  O  O13  1  0.99561200  0.99561200  0.74686800  1
  O  O14  1  0.50556100  0.50556100  0.74828300  1
  O  O15  1  0.97668100  0.51840900  0.74920500  1
  O  O16  1  0.51840900  0.97668100  0.74920500  1
  O  O17  1  0.49518100  0.49518100  0.24372800  1
  O  O18  1  0.01038800  0.49627600  0.24128000  1
  O  O19  1  0.49627600  0.01038800  0.24128000  1
  O  O20  1  0.83986000  0.83986000  0.99386400  1
  O  O21  1  0.32337800  0.82781900  0.00323000  1
  O  O22  1  0.82781900  0.32337800  0.00323000  1
  O  O23  1  0.15962500  0.15962500  0.50108500  1
  O  O24  1  0.68255800  0.17270800  0.49986100  1
  O  O25  1  0.17270800  0.68255800  0.49986100  1
