# generated using pymatgen
data_Ca2P4H11NO18
_symmetry_space_group_name_H-M   'P 1'
_cell_length_a   5.64374600
_cell_length_b   6.30587931
_cell_length_c   12.73058188
_cell_angle_alpha   76.37133345
_cell_angle_beta   84.05105879
_cell_angle_gamma   66.53068603
_symmetry_Int_Tables_number   1
_chemical_formula_structural   Ca2P4H11NO18
_chemical_formula_sum   'Ca2 P4 H11 N1 O18'
_cell_volume   403.85938485
_cell_formula_units_Z   1
loop_
 _symmetry_equiv_pos_site_id
 _symmetry_equiv_pos_as_xyz
  1  'x, y, z'
loop_
 _atom_site_type_symbol
 _atom_site_label
 _atom_site_symmetry_multiplicity
 _atom_site_fract_x
 _atom_site_fract_y
 _atom_site_fract_z
 _atom_site_occupancy
  Ca  Ca0  1  0.00615100  0.29353600  0.89953200  1
  Ca  Ca1  1  0.99595600  0.70025000  0.09848300  1
  P  P2  1  0.49774700  0.21010500  0.09142200  1
  P  P3  1  0.50191100  0.78940100  0.90473600  1
  P  P4  1  0.80537200  0.40769800  0.36128400  1
  P  P5  1  0.16070300  0.60888500  0.63808000  1
  H  H6  1  0.95798800  0.06824700  0.70309800  1
  H  H7  1  0.03047600  0.92868100  0.29352500  1
  H  H8  1  0.37095500  0.93329700  0.20077500  1
  H  H9  1  0.62604400  0.07262200  0.79781500  1
  H  H10  1  0.00133400  0.48100300  0.50788500  1
  H  H11  1  0.02180900  0.96664600  0.53019000  1
  H  H12  1  0.74623000  0.32048500  0.69719600  1
  H  H13  1  0.27086500  0.68969900  0.30611900  1
  H  H14  1  0.61805900  0.40422400  0.19071000  1
  H  H15  1  0.37759400  0.59562700  0.80669300  1
  H  H16  1  0.47985000  0.51477900  0.51420600  1
  N  N17  1  0.63756300  0.04806200  0.42286700  1
  O  O18  1  0.53188600  0.53994100  0.39757300  1
  O  O19  1  0.44538400  0.48798300  0.59813600  1
  O  O20  1  0.84591700  0.10275300  0.40490900  1
  O  O21  1  0.08377100  0.89057600  0.60498800  1
  O  O22  1  0.53048800  0.96328300  0.17083700  1
  O  O23  1  0.46802800  0.03729500  0.82611000  1
  O  O24  1  0.45765100  0.39980900  0.16210100  1
  O  O25  1  0.53913900  0.60336700  0.83201500  1
  O  O26  1  0.24768100  0.31898000  0.02915600  1
  O  O27  1  0.75252200  0.67993300  0.96651900  1
  O  O28  1  0.84721500  0.17671000  0.74979400  1
  O  O29  1  0.15293900  0.81988000  0.25077200  1
  O  O30  1  0.84634800  0.43209000  0.23945900  1
  O  O31  1  0.15299500  0.55255700  0.76036200  1
  O  O32  1  0.75598000  0.14664200  0.03217000  1
  O  O33  1  0.24527000  0.84943200  0.96503700  1
  O  O34  1  0.02484500  0.40643000  0.42030300  1
  O  O35  1  0.97093300  0.54719200  0.58574300  1
