# generated using pymatgen
data_BaLaSmCuO5
_symmetry_space_group_name_H-M   'P 1'
_cell_length_a   5.90118000
_cell_length_b   6.79314121
_cell_length_c   6.79314121
_cell_angle_alpha   90.49821905
_cell_angle_beta   90.00000000
_cell_angle_gamma   90.00000000
_symmetry_Int_Tables_number   1
_chemical_formula_structural   BaLaSmCuO5
_chemical_formula_sum   'Ba2 La2 Sm2 Cu2 O10'
_cell_volume   272.31008572
_cell_formula_units_Z   2
loop_
 _symmetry_equiv_pos_site_id
 _symmetry_equiv_pos_as_xyz
  1  'x, y, z'
loop_
 _atom_site_type_symbol
 _atom_site_label
 _atom_site_symmetry_multiplicity
 _atom_site_fract_x
 _atom_site_fract_y
 _atom_site_fract_z
 _atom_site_occupancy
  Ba  Ba0  1  0.00000000  0.50000000  0.50000000  1
  Ba  Ba1  1  0.00000000  0.00000000  0.00000000  1
  La  La2  1  0.50000000  0.32510700  0.17489300  1
  La  La3  1  0.50000000  0.67489300  0.82510700  1
  Sm  Sm4  1  0.50000000  0.17389100  0.67389100  1
  Sm  Sm5  1  0.50000000  0.82610900  0.32610900  1
  Cu  Cu6  1  0.00000000  0.00000000  0.50000000  1
  Cu  Cu7  1  0.00000000  0.50000000  0.00000000  1
  O  O8  1  0.50000000  0.50000000  0.50000000  1
  O  O9  1  0.50000000  0.00000000  0.00000000  1
  O  O10  1  0.24041700  0.35690400  0.85690400  1
  O  O11  1  0.24041700  0.64309600  0.14309600  1
  O  O12  1  0.24445900  0.13618100  0.36381900  1
  O  O13  1  0.24445900  0.86381900  0.63618100  1
  O  O14  1  0.75958300  0.64309600  0.14309600  1
  O  O15  1  0.75958300  0.35690400  0.85690400  1
  O  O16  1  0.75554100  0.86381900  0.63618100  1
  O  O17  1  0.75554100  0.13618100  0.36381900  1
