# generated using pymatgen
data_Al2Co3GeO8
_symmetry_space_group_name_H-M   'P 1'
_cell_length_a   5.88712257
_cell_length_b   5.88712257
_cell_length_c   5.88712257
_cell_angle_alpha   120.69191929
_cell_angle_beta   119.87173940
_cell_angle_gamma   89.51402660
_symmetry_Int_Tables_number   1
_chemical_formula_structural   Al2Co3GeO8
_chemical_formula_sum   'Al2 Co3 Ge1 O8'
_cell_volume   143.64655637
_cell_formula_units_Z   1
loop_
 _symmetry_equiv_pos_site_id
 _symmetry_equiv_pos_as_xyz
  1  'x, y, z'
loop_
 _atom_site_type_symbol
 _atom_site_label
 _atom_site_symmetry_multiplicity
 _atom_site_fract_x
 _atom_site_fract_y
 _atom_site_fract_z
 _atom_site_occupancy
  Al  Al0  1  0.61658800  0.38019900  0.23638900  1
  Al  Al1  1  0.14381000  0.38019900  0.76361100  1
  Co  Co2  1  0.24511400  0.74511400  0.50000000  1
  Co  Co3  1  0.62198300  0.37756700  0.75558300  1
  Co  Co4  1  0.62198300  0.86640000  0.24441700  1
  Ge  Ge5  1  0.00931500  0.00931500  0.00000000  1
  O  O6  1  0.88121900  0.14495400  0.26373500  1
  O  O7  1  0.88121900  0.61748400  0.73626500  1
  O  O8  1  0.89076600  0.13939100  0.75137500  1
  O  O9  1  0.38801600  0.13939100  0.24862500  1
  O  O10  1  0.37409500  0.59227600  0.21818100  1
  O  O11  1  0.37409500  0.15591500  0.78181900  1
  O  O12  1  0.36058600  0.60089800  0.75968800  1
  O  O13  1  0.84121000  0.60089800  0.24031200  1
