# generated using pymatgen
data_Ba4Fe12Si8ClO35
_symmetry_space_group_name_H-M   'P 1'
_cell_length_a   8.89488700
_cell_length_b   8.90544000
_cell_length_c   10.83090829
_cell_angle_alpha   71.90251630
_cell_angle_beta   78.47192052
_cell_angle_gamma   75.49520261
_symmetry_Int_Tables_number   1
_chemical_formula_structural   Ba4Fe12Si8ClO35
_chemical_formula_sum   'Ba4 Fe12 Si8 Cl1 O35'
_cell_volume   782.53707379
_cell_formula_units_Z   1
loop_
 _symmetry_equiv_pos_site_id
 _symmetry_equiv_pos_as_xyz
  1  'x, y, z'
loop_
 _atom_site_type_symbol
 _atom_site_label
 _atom_site_symmetry_multiplicity
 _atom_site_fract_x
 _atom_site_fract_y
 _atom_site_fract_z
 _atom_site_occupancy
  Ba  Ba0  1  0.51107000  0.27020800  0.43741300  1
  Ba  Ba1  1  0.00902200  0.76885000  0.44459800  1
  Ba  Ba2  1  0.98898200  0.22943600  0.56264300  1
  Ba  Ba3  1  0.48967700  0.72985900  0.56125600  1
  Fe  Fe4  1  0.38461900  0.37413400  0.00347200  1
  Fe  Fe5  1  0.86323900  0.88900500  0.98566600  1
  Fe  Fe6  1  0.12059900  0.14002200  0.98996500  1
  Fe  Fe7  1  0.61967300  0.60686600  0.00307900  1
  Fe  Fe8  1  0.78679500  0.57285600  0.27955200  1
  Fe  Fe9  1  0.28623900  0.07311400  0.27939000  1
  Fe  Fe10  1  0.71061600  0.92731900  0.71879900  1
  Fe  Fe11  1  0.21365200  0.42792400  0.71902600  1
  Fe  Fe12  1  0.75418600  0.24582300  0.00073100  1
  Fe  Fe13  1  0.26706900  0.74055500  0.98699200  1
  Fe  Fe14  1  0.99990200  0.50013000  0.00230400  1
  Fe  Fe15  1  0.49714500  0.00001600  0.99982100  1
  Si  Si16  1  0.17598400  0.46522500  0.26868200  1
  Si  Si17  1  0.67282100  0.96566300  0.26999200  1
  Si  Si18  1  0.90029900  0.19118200  0.27081100  1
  Si  Si19  1  0.40130000  0.68761700  0.27037400  1
  Si  Si20  1  0.32422200  0.03518600  0.72967200  1
  Si  Si21  1  0.82422900  0.53712200  0.72855100  1
  Si  Si22  1  0.59971700  0.30938800  0.73039200  1
  Si  Si23  1  0.10108200  0.81008700  0.73012600  1
  Cl  Cl24  1  0.06811700  0.86575700  0.13509300  1
  O  O25  1  0.19754100  0.51699900  0.10697200  1
  O  O26  1  0.68498100  0.01849200  0.10947500  1
  O  O27  1  0.92940000  0.25883100  0.11036900  1
  O  O28  1  0.43693400  0.74174000  0.10829000  1
  O  O29  1  0.30287800  0.97950700  0.89112400  1
  O  O30  1  0.80423300  0.49262900  0.88931700  1
  O  O31  1  0.57128000  0.24510800  0.89082200  1
  O  O32  1  0.07641000  0.75026900  0.89153000  1
  O  O33  1  0.24663000  0.27560200  0.33476000  1
  O  O34  1  0.74556300  0.77587200  0.33571400  1
  O  O35  1  0.05588200  0.08511400  0.33865400  1
  O  O36  1  0.55763500  0.58400300  0.33719300  1
  O  O37  1  0.25303400  0.22491800  0.66441700  1
  O  O38  1  0.75325400  0.72624700  0.66029700  1
  O  O39  1  0.44363900  0.41491900  0.66317600  1
  O  O40  1  0.94224200  0.91322500  0.66682800  1
  O  O41  1  0.77949500  0.06246700  0.31659200  1
  O  O42  1  0.28173100  0.55798600  0.31980400  1
  O  O43  1  0.71932900  0.43927600  0.68212200  1
  O  O44  1  0.22023800  0.94013900  0.67929800  1
  O  O45  1  0.80979000  0.62964200  0.09288000  1
  O  O46  1  0.31813600  0.13131600  0.09427200  1
  O  O47  1  0.67135200  0.86041100  0.90363400  1
  O  O48  1  0.17933900  0.37448300  0.90277900  1
  O  O49  1  0.99842500  0.52278900  0.33667400  1
  O  O50  1  0.49637000  0.02221900  0.34114400  1
  O  O51  1  0.80800000  0.33295000  0.34069200  1
  O  O52  1  0.31019500  0.83233100  0.33651200  1
  O  O53  1  0.50109000  0.97855600  0.66076700  1
  O  O54  1  0.00162900  0.47820700  0.66118400  1
  O  O55  1  0.69199600  0.16676600  0.66133300  1
  O  O56  1  0.19211000  0.66809800  0.66017900  1
  O  O57  1  0.58601700  0.38585000  0.08901200  1
  O  O58  1  0.44090200  0.62832300  0.90138700  1
  O  O59  1  0.92206300  0.12137400  0.91239900  1
