# generated using pymatgen
data_Ba2SrTm6O12
_symmetry_space_group_name_H-M   'P 1'
_cell_length_a   3.44193200
_cell_length_b   10.36330101
_cell_length_c   10.36334466
_cell_angle_alpha   119.99966062
_cell_angle_beta   89.99977127
_cell_angle_gamma   89.99993517
_symmetry_Int_Tables_number   1
_chemical_formula_structural   Ba2SrTm6O12
_chemical_formula_sum   'Ba2 Sr1 Tm6 O12'
_cell_volume   320.13448423
_cell_formula_units_Z   1
loop_
 _symmetry_equiv_pos_site_id
 _symmetry_equiv_pos_as_xyz
  1  'x, y, z'
loop_
 _atom_site_type_symbol
 _atom_site_label
 _atom_site_symmetry_multiplicity
 _atom_site_fract_x
 _atom_site_fract_y
 _atom_site_fract_z
 _atom_site_occupancy
  Ba  Ba0  1  0.50443100  0.00000200  0.00000100  1
  Ba  Ba1  1  0.74809300  0.66666800  0.33333300  1
  Sr  Sr2  1  0.25255100  0.33333000  0.66666800  1
  Tm  Tm3  1  0.75587400  0.34523200  0.99458300  1
  Tm  Tm4  1  0.75587200  0.00541700  0.35064900  1
  Tm  Tm5  1  0.75586500  0.64934600  0.65476300  1
  Tm  Tm6  1  0.24274100  0.65123100  0.99811600  1
  Tm  Tm7  1  0.24276100  0.00188600  0.65311600  1
  Tm  Tm8  1  0.24276900  0.34688500  0.34877300  1
  O  O9  1  0.74488000  0.88611400  0.69524100  1
  O  O10  1  0.74487900  0.30475900  0.19087400  1
  O  O11  1  0.74488800  0.80912900  0.11388200  1
  O  O12  1  0.25408400  0.11027200  0.29639000  1
  O  O13  1  0.25408100  0.70361300  0.81388100  1
  O  O14  1  0.25408100  0.18611800  0.88973100  1
  O  O15  1  0.74990700  0.12672000  0.60699000  1
  O  O16  1  0.74990800  0.39301100  0.51973100  1
  O  O17  1  0.74990700  0.48026800  0.87327800  1
  O  O18  1  0.25081000  0.89063000  0.40234600  1
  O  O19  1  0.25080700  0.59765100  0.48828200  1
  O  O20  1  0.25081200  0.51171800  0.10937100  1
