# generated using pymatgen
data_Ba3Mn4PtO12
_symmetry_space_group_name_H-M   'P 1'
_cell_length_a   5.97436200
_cell_length_b   5.15379600
_cell_length_c   10.29121774
_cell_angle_alpha   89.65207714
_cell_angle_beta   90.00000000
_cell_angle_gamma   90.00000000
_symmetry_Int_Tables_number   1
_chemical_formula_structural   Ba3Mn4PtO12
_chemical_formula_sum   'Ba3 Mn4 Pt1 O12'
_cell_volume   316.86736903
_cell_formula_units_Z   1
loop_
 _symmetry_equiv_pos_site_id
 _symmetry_equiv_pos_as_xyz
  1  'x, y, z'
loop_
 _atom_site_type_symbol
 _atom_site_label
 _atom_site_symmetry_multiplicity
 _atom_site_fract_x
 _atom_site_fract_y
 _atom_site_fract_z
 _atom_site_occupancy
  Ba  Ba0  1  0.00000000  0.23284300  0.17023900  1
  Ba  Ba1  1  0.50000000  0.19353200  0.66292000  1
  Ba  Ba2  1  0.50000000  0.73991500  0.33400500  1
  Mn  Mn3  1  0.50000000  0.63001800  0.00288100  1
  Mn  Mn4  1  0.00000000  0.60253900  0.49603600  1
  Mn  Mn5  1  0.50000000  0.10980900  0.00783000  1
  Mn  Mn6  1  0.00000000  0.09358900  0.49233500  1
  Pt  Pt7  1  0.00000000  0.38753400  0.83523200  1
  O  O8  1  0.29249500  0.87192800  0.08482900  1
  O  O9  1  0.78185000  0.85196300  0.55741100  1
  O  O10  1  0.00000000  0.84892400  0.34825900  1
  O  O11  1  0.50000000  0.87768100  0.86683000  1
  O  O12  1  0.70750500  0.87192800  0.08482900  1
  O  O13  1  0.21815000  0.85196300  0.55741100  1
  O  O14  1  0.21400900  0.35112600  0.43038100  1
  O  O15  1  0.71029700  0.37244200  0.92564000  1
  O  O16  1  0.50000000  0.37147900  0.14214100  1
  O  O17  1  0.00000000  0.35041500  0.64476100  1
  O  O18  1  0.78599100  0.35112600  0.43038100  1
  O  O19  1  0.28970300  0.37244200  0.92564000  1
