# generated using pymatgen
data_AgBi3PbS6
_symmetry_space_group_name_H-M   'P 1'
_cell_length_a   7.16618900
_cell_length_b   7.16618900
_cell_length_c   20.00088300
_cell_angle_alpha   90.00000000
_cell_angle_beta   90.00000000
_cell_angle_gamma   146.58625659
_symmetry_Int_Tables_number   1
_chemical_formula_structural   AgBi3PbS6
_chemical_formula_sum   'Ag2 Bi6 Pb2 S12'
_cell_volume   565.62130548
_cell_formula_units_Z   2
loop_
 _symmetry_equiv_pos_site_id
 _symmetry_equiv_pos_as_xyz
  1  'x, y, z'
loop_
 _atom_site_type_symbol
 _atom_site_label
 _atom_site_symmetry_multiplicity
 _atom_site_fract_x
 _atom_site_fract_y
 _atom_site_fract_z
 _atom_site_occupancy
  Ag  Ag0  1  0.06083900  0.93916100  0.14016000  1
  Ag  Ag1  1  0.93916100  0.06083900  0.64016000  1
  Bi  Bi2  1  0.36980600  0.63019400  0.45665700  1
  Bi  Bi3  1  0.64414100  0.35585900  0.55476600  1
  Bi  Bi4  1  0.35585900  0.64414100  0.05476600  1
  Bi  Bi5  1  0.63019400  0.36980600  0.95665700  1
  Bi  Bi6  1  0.90018200  0.09981800  0.85882400  1
  Bi  Bi7  1  0.09981800  0.90018200  0.35882400  1
  Pb  Pb8  1  0.82342400  0.17657600  0.24321200  1
  Pb  Pb9  1  0.17657600  0.82342400  0.74321200  1
  S  S10  1  0.98409500  0.01590500  0.50689800  1
  S  S11  1  0.01590500  0.98409500  0.00689800  1
  S  S12  1  0.73827500  0.26172500  0.40509700  1
  S  S13  1  0.26086000  0.73914000  0.58969500  1
  S  S14  1  0.73914000  0.26086000  0.08969500  1
  S  S15  1  0.26172500  0.73827500  0.90509700  1
  S  S16  1  0.17516700  0.82483300  0.24023700  1
  S  S17  1  0.82483300  0.17516700  0.74023700  1
  S  S18  1  0.46416900  0.53583100  0.33673000  1
  S  S19  1  0.55610800  0.44389200  0.66772200  1
  S  S20  1  0.44389200  0.55610800  0.16772200  1
  S  S21  1  0.53583100  0.46416900  0.83673000  1
