# generated using pymatgen
data_Er2MgSe4
_symmetry_space_group_name_H-M   'P 1'
_cell_length_a   7.85403700
_cell_length_b   13.16700000
_cell_length_c   13.40522300
_cell_angle_alpha   90.00000000
_cell_angle_beta   90.00000000
_cell_angle_gamma   90.00000000
_symmetry_Int_Tables_number   1
_chemical_formula_structural   Er2MgSe4
_chemical_formula_sum   'Er16 Mg8 Se32'
_cell_volume   1386.28914127
_cell_formula_units_Z   8
loop_
 _symmetry_equiv_pos_site_id
 _symmetry_equiv_pos_as_xyz
  1  'x, y, z'
loop_
 _atom_site_type_symbol
 _atom_site_label
 _atom_site_symmetry_multiplicity
 _atom_site_fract_x
 _atom_site_fract_y
 _atom_site_fract_z
 _atom_site_occupancy
  Er  Er0  1  0.88345800  0.10790200  0.68643800  1
  Er  Er1  1  0.11654200  0.89209800  0.18643800  1
  Er  Er2  1  0.88345800  0.39209800  0.18643800  1
  Er  Er3  1  0.11654200  0.60790200  0.68643800  1
  Er  Er4  1  0.38213000  0.12705900  0.32647100  1
  Er  Er5  1  0.61787000  0.87294100  0.82647100  1
  Er  Er6  1  0.38213000  0.37294100  0.82647100  1
  Er  Er7  1  0.61787000  0.62705900  0.32647100  1
  Er  Er8  1  0.62999500  0.13357400  0.99083800  1
  Er  Er9  1  0.37000500  0.86642600  0.49083800  1
  Er  Er10  1  0.62999500  0.36642600  0.49083800  1
  Er  Er11  1  0.37000500  0.63357400  0.99083800  1
  Er  Er12  1  0.12982500  0.13361100  0.99123400  1
  Er  Er13  1  0.87017500  0.86638900  0.49123400  1
  Er  Er14  1  0.12982500  0.36638900  0.49123400  1
  Er  Er15  1  0.87017500  0.63361100  0.99123400  1
  Mg  Mg16  1  0.38251200  0.11131200  0.69005500  1
  Mg  Mg17  1  0.61748800  0.88868800  0.19005500  1
  Mg  Mg18  1  0.38251200  0.38868800  0.19005500  1
  Mg  Mg19  1  0.61748800  0.61131200  0.69005500  1
  Mg  Mg20  1  0.87851700  0.12625300  0.32082100  1
  Mg  Mg21  1  0.12148300  0.87374700  0.82082100  1
  Mg  Mg22  1  0.87851700  0.37374700  0.82082100  1
  Mg  Mg23  1  0.12148300  0.62625300  0.32082100  1
  Se  Se24  1  0.87738200  0.01327100  0.87797900  1
  Se  Se25  1  0.12261800  0.98672900  0.37797900  1
  Se  Se26  1  0.87738200  0.48672900  0.37797900  1
  Se  Se27  1  0.12261800  0.51327100  0.87797900  1
  Se  Se28  1  0.37741100  0.03334300  0.13073400  1
  Se  Se29  1  0.62258900  0.96665700  0.63073400  1
  Se  Se30  1  0.37741100  0.46665700  0.63073400  1
  Se  Se31  1  0.62258900  0.53334300  0.13073400  1
  Se  Se32  1  0.37506500  0.02249200  0.87006900  1
  Se  Se33  1  0.62493500  0.97750800  0.37006900  1
  Se  Se34  1  0.37506500  0.47750800  0.37006900  1
  Se  Se35  1  0.62493500  0.52249200  0.87006900  1
  Se  Se36  1  0.87507700  0.04342400  0.13593400  1
  Se  Se37  1  0.12492300  0.95657600  0.63593400  1
  Se  Se38  1  0.87507700  0.45657600  0.63593400  1
  Se  Se39  1  0.12492300  0.54342400  0.13593400  1
  Se  Se40  1  0.88070000  0.21135700  0.50367500  1
  Se  Se41  1  0.11930000  0.78864300  0.00367500  1
  Se  Se42  1  0.88070000  0.28864300  0.00367500  1
  Se  Se43  1  0.11930000  0.71135700  0.50367500  1
  Se  Se44  1  0.38049900  0.21293800  0.51814000  1
  Se  Se45  1  0.61950100  0.78706200  0.01814000  1
  Se  Se46  1  0.38049900  0.28706200  0.01814000  1
  Se  Se47  1  0.61950100  0.71293800  0.51814000  1
  Se  Se48  1  0.13104600  0.23140500  0.77652900  1
  Se  Se49  1  0.86895400  0.76859500  0.27652900  1
  Se  Se50  1  0.13104600  0.26859500  0.27652900  1
  Se  Se51  1  0.86895400  0.73140500  0.77652900  1
  Se  Se52  1  0.63411800  0.23219400  0.77808200  1
  Se  Se53  1  0.36588200  0.76780600  0.27808200  1
  Se  Se54  1  0.63411800  0.26780600  0.27808200  1
  Se  Se55  1  0.36588200  0.73219400  0.77808200  1
