# generated using pymatgen
data_Er2MgS4
_symmetry_space_group_name_H-M   'P 1'
_cell_length_a   7.15200700
_cell_length_b   8.26414700
_cell_length_c   12.96902276
_cell_angle_alpha   99.33563048
_cell_angle_beta   95.44755571
_cell_angle_gamma   90.00003467
_symmetry_Int_Tables_number   1
_chemical_formula_structural   Er2MgS4
_chemical_formula_sum   'Er8 Mg4 S16'
_cell_volume   752.87565516
_cell_formula_units_Z   4
loop_
 _symmetry_equiv_pos_site_id
 _symmetry_equiv_pos_as_xyz
  1  'x, y, z'
loop_
 _atom_site_type_symbol
 _atom_site_label
 _atom_site_symmetry_multiplicity
 _atom_site_fract_x
 _atom_site_fract_y
 _atom_site_fract_z
 _atom_site_occupancy
  Er  Er0  1  0.86424700  0.29992200  0.69685200  1
  Er  Er1  1  0.13575300  0.70007800  0.30314800  1
  Er  Er2  1  0.75823600  0.12669700  0.00046800  1
  Er  Er3  1  0.24176400  0.87330300  0.99953200  1
  Er  Er4  1  0.63205000  0.44554000  0.30200800  1
  Er  Er5  1  0.36795000  0.55446000  0.69799200  1
  Er  Er6  1  0.63267100  0.95551600  0.30474300  1
  Er  Er7  1  0.36732900  0.04448400  0.69525700  1
  Mg  Mg8  1  0.86671400  0.79966900  0.69982300  1
  Mg  Mg9  1  0.13328600  0.20033100  0.30017700  1
  Mg  Mg10  1  0.75104600  0.62303500  0.99690300  1
  Mg  Mg11  1  0.24895400  0.37696500  0.00309700  1
  S  S12  1  0.90364900  0.35332100  0.89642900  1
  S  S13  1  0.09635100  0.64667900  0.10357100  1
  S  S14  1  0.89445400  0.84494000  0.89113100  1
  S  S15  1  0.10554600  0.15506000  0.10886900  1
  S  S16  1  0.82536500  0.21857500  0.37338100  1
  S  S17  1  0.17463500  0.78142500  0.62661900  1
  S  S18  1  0.81053400  0.71865400  0.37601700  1
  S  S19  1  0.18946600  0.28134600  0.62398300  1
  S  S20  1  0.69394600  0.02309200  0.62716700  1
  S  S21  1  0.30605400  0.97690800  0.37283300  1
  S  S22  1  0.69275200  0.54054600  0.62739300  1
  S  S23  1  0.30724800  0.45945400  0.37260700  1
  S  S24  1  0.60360400  0.89771600  0.10446200  1
  S  S25  1  0.39639600  0.10228400  0.89553800  1
  S  S26  1  0.59748100  0.40556600  0.10261800  1
  S  S27  1  0.40251900  0.59443400  0.89738200  1
