# generated using pymatgen
data_H9C3N6ClO5
_symmetry_space_group_name_H-M   'P 1'
_cell_length_a   5.75184200
_cell_length_b   7.66939209
_cell_length_c   12.14174604
_cell_angle_alpha   102.67790660
_cell_angle_beta   95.07849147
_cell_angle_gamma   110.27886477
_symmetry_Int_Tables_number   1
_chemical_formula_structural   H9C3N6ClO5
_chemical_formula_sum   'H18 C6 N12 Cl2 O10'
_cell_volume   482.17015280
_cell_formula_units_Z   2
loop_
 _symmetry_equiv_pos_site_id
 _symmetry_equiv_pos_as_xyz
  1  'x, y, z'
loop_
 _atom_site_type_symbol
 _atom_site_label
 _atom_site_symmetry_multiplicity
 _atom_site_fract_x
 _atom_site_fract_y
 _atom_site_fract_z
 _atom_site_occupancy
  H  H0  1  0.14704900  0.08323100  0.35570600  1
  H  H1  1  0.85295100  0.91676900  0.64429400  1
  H  H2  1  0.61191300  0.75140700  0.12200400  1
  H  H3  1  0.38808700  0.24859300  0.87799600  1
  H  H4  1  0.99138800  0.28896000  0.28287200  1
  H  H5  1  0.00861200  0.71104000  0.71712800  1
  H  H6  1  0.08929800  0.45887600  0.91692200  1
  H  H7  1  0.91070200  0.54112400  0.08307800  1
  H  H8  1  0.74990900  0.28805400  0.42888200  1
  H  H9  1  0.25009100  0.71194600  0.57111800  1
  H  H10  1  0.14964100  0.51348800  0.78632100  1
  H  H11  1  0.85035900  0.48651200  0.21367900  1
  H  H12  1  0.48871600  0.08225400  0.92684300  1
  H  H13  1  0.51128400  0.91774600  0.07315700  1
  H  H14  1  0.15229400  0.49852000  0.57946100  1
  H  H15  1  0.84770600  0.50148000  0.42053900  1
  H  H16  1  0.66253800  0.01852600  0.71629600  1
  H  H17  1  0.33746200  0.98147400  0.28370400  1
  C  C18  1  0.20810100  0.14229300  0.20136100  1
  C  C19  1  0.79189900  0.85770700  0.79863900  1
  C  C20  1  0.06181900  0.35532500  0.12928000  1
  C  C21  1  0.93818100  0.64467500  0.87072000  1
  C  C22  1  0.29236700  0.20713000  0.03098100  1
  C  C23  1  0.70763300  0.79287000  0.96901900  1
  N  N24  1  0.16733600  0.32924600  0.03667500  1
  N  N25  1  0.83266400  0.67075400  0.96332500  1
  N  N26  1  0.21920300  0.05407800  0.28325300  1
  N  N27  1  0.78079700  0.94592200  0.71674700  1
  N  N28  1  0.31987000  0.11316300  0.11093100  1
  N  N29  1  0.68013000  0.88683700  0.88906900  1
  N  N30  1  0.07489000  0.26037000  0.21148100  1
  N  N31  1  0.92511000  0.73963000  0.78851900  1
  N  N32  1  0.60356700  0.82403700  0.06184700  1
  N  N33  1  0.39643300  0.17596300  0.93815300  1
  N  N34  1  0.06144700  0.52602200  0.85505800  1
  N  N35  1  0.93855300  0.47397800  0.14494200  1
  Cl  Cl36  1  0.39581500  0.23531300  0.63123600  1
  Cl  Cl37  1  0.60418500  0.76468700  0.36876400  1
  O  O38  1  0.20011300  0.23343300  0.54466800  1
  O  O39  1  0.79988700  0.76656700  0.45533200  1
  O  O40  1  0.58634500  0.62624100  0.26019000  1
  O  O41  1  0.41365500  0.37375900  0.73981000  1
  O  O42  1  0.36104400  0.70944800  0.40583200  1
  O  O43  1  0.63895600  0.29055200  0.59416800  1
  O  O44  1  0.17581200  0.63036700  0.62033000  1
  O  O45  1  0.82418800  0.36963300  0.37967000  1
  O  O46  1  0.32794000  0.04302000  0.65060300  1
  O  O47  1  0.67206000  0.95698000  0.34939700  1
