# generated using pymatgen
data_Pr2MgS4
_symmetry_space_group_name_H-M   'P 1'
_cell_length_a   7.13550400
_cell_length_b   8.31972700
_cell_length_c   11.85868600
_cell_angle_alpha   90.00000000
_cell_angle_beta   90.00000000
_cell_angle_gamma   90.00000000
_symmetry_Int_Tables_number   1
_chemical_formula_structural   Pr2MgS4
_chemical_formula_sum   'Pr8 Mg4 S16'
_cell_volume   703.99617491
_cell_formula_units_Z   4
loop_
 _symmetry_equiv_pos_site_id
 _symmetry_equiv_pos_as_xyz
  1  'x, y, z'
loop_
 _atom_site_type_symbol
 _atom_site_label
 _atom_site_symmetry_multiplicity
 _atom_site_fract_x
 _atom_site_fract_y
 _atom_site_fract_z
 _atom_site_occupancy
  Pr  Pr0  1  0.75000000  0.02972200  0.31633100  1
  Pr  Pr1  1  0.25000000  0.97027800  0.68366900  1
  Pr  Pr2  1  0.25000000  0.47027800  0.81633100  1
  Pr  Pr3  1  0.75000000  0.52972200  0.18366900  1
  Pr  Pr4  1  0.25000000  0.09217200  0.03985800  1
  Pr  Pr5  1  0.75000000  0.90782800  0.96014200  1
  Pr  Pr6  1  0.75000000  0.40782800  0.53985800  1
  Pr  Pr7  1  0.25000000  0.59217200  0.46014200  1
  Mg  Mg8  1  0.25000000  0.19583300  0.41873900  1
  Mg  Mg9  1  0.75000000  0.80416700  0.58126100  1
  Mg  Mg10  1  0.75000000  0.30416700  0.91873900  1
  Mg  Mg11  1  0.25000000  0.69583300  0.08126100  1
  S  S12  1  0.49194800  0.14556000  0.84754000  1
  S  S13  1  0.50805200  0.85444000  0.15246000  1
  S  S14  1  0.50805200  0.35444000  0.34754000  1
  S  S15  1  0.49194800  0.64556000  0.65246000  1
  S  S16  1  0.00805200  0.64556000  0.65246000  1
  S  S17  1  0.99194800  0.35444000  0.34754000  1
  S  S18  1  0.99194800  0.85444000  0.15246000  1
  S  S19  1  0.00805200  0.14556000  0.84754000  1
  S  S20  1  0.25000000  0.91759500  0.44096400  1
  S  S21  1  0.75000000  0.08240500  0.55903600  1
  S  S22  1  0.75000000  0.58240500  0.94096400  1
  S  S23  1  0.25000000  0.41759500  0.05903600  1
  S  S24  1  0.75000000  0.20203300  0.10897900  1
  S  S25  1  0.25000000  0.79796700  0.89102100  1
  S  S26  1  0.25000000  0.29796700  0.60897900  1
  S  S27  1  0.75000000  0.70203300  0.39102100  1
