# generated using pymatgen
data_Mg(ScSe2)2
_symmetry_space_group_name_H-M   'P 1'
_cell_length_a   13.48042700
_cell_length_b   7.83325100
_cell_length_c   6.61953100
_cell_angle_alpha   90.00000000
_cell_angle_beta   90.00000000
_cell_angle_gamma   90.00000000
_symmetry_Int_Tables_number   1
_chemical_formula_structural   Mg(ScSe2)2
_chemical_formula_sum   'Mg4 Sc8 Se16'
_cell_volume   698.99313768
_cell_formula_units_Z   4
loop_
 _symmetry_equiv_pos_site_id
 _symmetry_equiv_pos_as_xyz
  1  'x, y, z'
loop_
 _atom_site_type_symbol
 _atom_site_label
 _atom_site_symmetry_multiplicity
 _atom_site_fract_x
 _atom_site_fract_y
 _atom_site_fract_z
 _atom_site_occupancy
  Mg  Mg0  1  0.09291500  0.25000000  0.91576300  1
  Mg  Mg1  1  0.90708500  0.75000000  0.08423700  1
  Mg  Mg2  1  0.40708500  0.75000000  0.41576300  1
  Mg  Mg3  1  0.59291500  0.25000000  0.58423700  1
  Sc  Sc4  1  0.00000000  0.00000000  0.50000000  1
  Sc  Sc5  1  0.50000000  0.00000000  0.00000000  1
  Sc  Sc6  1  0.50000000  0.50000000  0.00000000  1
  Sc  Sc7  1  0.00000000  0.50000000  0.50000000  1
  Sc  Sc8  1  0.23875700  0.75000000  0.00884100  1
  Sc  Sc9  1  0.76124300  0.25000000  0.99115900  1
  Sc  Sc10  1  0.26124300  0.25000000  0.50884100  1
  Sc  Sc11  1  0.73875700  0.75000000  0.49115900  1
  Se  Se12  1  0.17087800  0.99477700  0.73004300  1
  Se  Se13  1  0.82912200  0.00522300  0.26995700  1
  Se  Se14  1  0.32912200  0.00522300  0.23004300  1
  Se  Se15  1  0.67087800  0.99477700  0.76995700  1
  Se  Se16  1  0.67087800  0.50522300  0.76995700  1
  Se  Se17  1  0.32912200  0.49477700  0.23004300  1
  Se  Se18  1  0.82912200  0.49477700  0.26995700  1
  Se  Se19  1  0.17087800  0.50522300  0.73004300  1
  Se  Se20  1  0.07916100  0.75000000  0.25713900  1
  Se  Se21  1  0.92083900  0.25000000  0.74286100  1
  Se  Se22  1  0.42083900  0.25000000  0.75713900  1
  Se  Se23  1  0.57916100  0.75000000  0.24286100  1
  Se  Se24  1  0.08967900  0.25000000  0.29686300  1
  Se  Se25  1  0.91032100  0.75000000  0.70313700  1
  Se  Se26  1  0.41032100  0.75000000  0.79686300  1
  Se  Se27  1  0.58967900  0.25000000  0.20313700  1
