# generated using pymatgen
data_Cs(CrS2)2
_symmetry_space_group_name_H-M   'P 1'
_cell_length_a   7.88818627
_cell_length_b   7.88818627
_cell_length_c   7.88818627
_cell_angle_alpha   60.00000000
_cell_angle_beta   60.00000000
_cell_angle_gamma   60.00000000
_symmetry_Int_Tables_number   1
_chemical_formula_structural   Cs(CrS2)2
_chemical_formula_sum   'Cs2 Cr4 S8'
_cell_volume   347.06951883
_cell_formula_units_Z   2
loop_
 _symmetry_equiv_pos_site_id
 _symmetry_equiv_pos_as_xyz
  1  'x, y, z'
loop_
 _atom_site_type_symbol
 _atom_site_label
 _atom_site_symmetry_multiplicity
 _atom_site_fract_x
 _atom_site_fract_y
 _atom_site_fract_z
 _atom_site_occupancy
  Cs  Cs0  1  0.50000000  0.50000000  0.50000000  1
  Cs  Cs1  1  0.75000000  0.75000000  0.75000000  1
  Cr  Cr2  1  0.12500000  0.12500000  0.12500000  1
  Cr  Cr3  1  0.62500000  0.12500000  0.12500000  1
  Cr  Cr4  1  0.12500000  0.62500000  0.12500000  1
  Cr  Cr5  1  0.12500000  0.12500000  0.62500000  1
  S  S6  1  0.34427500  0.34427500  0.34427500  1
  S  S7  1  0.28282600  0.90572500  0.90572500  1
  S  S8  1  0.90572500  0.90572500  0.28282600  1
  S  S9  1  0.90572500  0.28282600  0.90572500  1
  S  S10  1  0.34427500  0.34427500  0.96717400  1
  S  S11  1  0.34427500  0.96717400  0.34427500  1
  S  S12  1  0.90572500  0.90572500  0.90572500  1
  S  S13  1  0.96717400  0.34427500  0.34427500  1
