# generated using pymatgen
data_AgSb3PbS6
_symmetry_space_group_name_H-M   'P 1'
_cell_length_a   5.86425300
_cell_length_b   7.58625800
_cell_length_c   15.33804362
_cell_angle_alpha   74.10605312
_cell_angle_beta   90.00000000
_cell_angle_gamma   90.00000000
_symmetry_Int_Tables_number   1
_chemical_formula_structural   AgSb3PbS6
_chemical_formula_sum   'Ag2 Sb6 Pb2 S12'
_cell_volume   656.26858194
_cell_formula_units_Z   2
loop_
 _symmetry_equiv_pos_site_id
 _symmetry_equiv_pos_as_xyz
  1  'x, y, z'
loop_
 _atom_site_type_symbol
 _atom_site_label
 _atom_site_symmetry_multiplicity
 _atom_site_fract_x
 _atom_site_fract_y
 _atom_site_fract_z
 _atom_site_occupancy
  Ag  Ag0  1  0.82098600  0.26016400  0.71015500  1
  Ag  Ag1  1  0.17901400  0.26016400  0.21015500  1
  Sb  Sb2  1  0.26592700  0.34196700  0.96937300  1
  Sb  Sb3  1  0.31467100  0.66843000  0.53274800  1
  Sb  Sb4  1  0.71224100  0.65042200  0.74937000  1
  Sb  Sb5  1  0.28775900  0.65042200  0.24937000  1
  Sb  Sb6  1  0.68532900  0.66843000  0.03274800  1
  Sb  Sb7  1  0.73407300  0.34196700  0.46937300  1
  Pb  Pb8  1  0.32476000  0.01509500  0.77549800  1
  Pb  Pb9  1  0.67524000  0.01509500  0.27549800  1
  S  S10  1  0.82359300  0.92964100  0.79574300  1
  S  S11  1  0.17640700  0.92964100  0.29574300  1
  S  S12  1  0.06804500  0.53106200  0.70003900  1
  S  S13  1  0.93195500  0.53106200  0.20003900  1
  S  S14  1  0.46676900  0.86022800  0.11176000  1
  S  S15  1  0.47080200  0.21842500  0.38261300  1
  S  S16  1  0.52919800  0.21842500  0.88261300  1
  S  S17  1  0.53323100  0.86022800  0.61176000  1
  S  S18  1  0.32838100  0.67957800  0.92553600  1
  S  S19  1  0.67161900  0.67957800  0.42553600  1
  S  S20  1  0.54362800  0.34498900  0.09716500  1
  S  S21  1  0.45637200  0.34498900  0.59716500  1
