# generated using pymatgen
data_Mg(InSe2)2
_symmetry_space_group_name_H-M   'P 1'
_cell_length_a   8.01659400
_cell_length_b   13.24754000
_cell_length_c   13.55332200
_cell_angle_alpha   90.00000000
_cell_angle_beta   90.00000000
_cell_angle_gamma   90.00000000
_symmetry_Int_Tables_number   1
_chemical_formula_structural   Mg(InSe2)2
_chemical_formula_sum   'Mg8 In16 Se32'
_cell_volume   1439.36482504
_cell_formula_units_Z   8
loop_
 _symmetry_equiv_pos_site_id
 _symmetry_equiv_pos_as_xyz
  1  'x, y, z'
loop_
 _atom_site_type_symbol
 _atom_site_label
 _atom_site_symmetry_multiplicity
 _atom_site_fract_x
 _atom_site_fract_y
 _atom_site_fract_z
 _atom_site_occupancy
  Mg  Mg0  1  0.35256900  0.10231900  0.70663900  1
  Mg  Mg1  1  0.64743100  0.89768100  0.20663900  1
  Mg  Mg2  1  0.35256900  0.39768100  0.20663900  1
  Mg  Mg3  1  0.64743100  0.60231900  0.70663900  1
  Mg  Mg4  1  0.87099000  0.12436200  0.31952500  1
  Mg  Mg5  1  0.12901000  0.87563800  0.81952500  1
  Mg  Mg6  1  0.87099000  0.37563800  0.81952500  1
  Mg  Mg7  1  0.12901000  0.62436200  0.31952500  1
  In  In8  1  0.86219400  0.08890800  0.68217100  1
  In  In9  1  0.13780600  0.91109200  0.18217100  1
  In  In10  1  0.86219400  0.41109200  0.18217100  1
  In  In11  1  0.13780600  0.58890800  0.68217100  1
  In  In12  1  0.36716300  0.12520300  0.33295500  1
  In  In13  1  0.63283700  0.87479700  0.83295500  1
  In  In14  1  0.36716300  0.37479700  0.83295500  1
  In  In15  1  0.63283700  0.62520300  0.33295500  1
  In  In16  1  0.61371200  0.16262700  0.94212300  1
  In  In17  1  0.38628800  0.83737300  0.44212300  1
  In  In18  1  0.61371200  0.33737300  0.44212300  1
  In  In19  1  0.38628800  0.66262700  0.94212300  1
  In  In20  1  0.11822900  0.16238800  0.95514900  1
  In  In21  1  0.88177100  0.83761200  0.45514900  1
  In  In22  1  0.11822900  0.33761200  0.45514900  1
  In  In23  1  0.88177100  0.66238800  0.95514900  1
  Se  Se24  1  0.86513500  0.03242800  0.88219400  1
  Se  Se25  1  0.13486500  0.96757200  0.38219400  1
  Se  Se26  1  0.86513500  0.46757200  0.38219400  1
  Se  Se27  1  0.13486500  0.53242800  0.88219400  1
  Se  Se28  1  0.40640200  0.02676700  0.16152800  1
  Se  Se29  1  0.59359800  0.97323300  0.66152800  1
  Se  Se30  1  0.40640200  0.47323300  0.66152800  1
  Se  Se31  1  0.59359800  0.52676700  0.16152800  1
  Se  Se32  1  0.35594800  0.02632100  0.89975800  1
  Se  Se33  1  0.64405200  0.97367900  0.39975800  1
  Se  Se34  1  0.35594800  0.47367900  0.39975800  1
  Se  Se35  1  0.64405200  0.52632100  0.89975800  1
  Se  Se36  1  0.87892800  0.02632400  0.14907300  1
  Se  Se37  1  0.12107200  0.97367600  0.64907300  1
  Se  Se38  1  0.87892800  0.47367600  0.64907300  1
  Se  Se39  1  0.12107200  0.52632400  0.14907300  1
  Se  Se40  1  0.86593700  0.21215500  0.51143600  1
  Se  Se41  1  0.13406300  0.78784500  0.01143600  1
  Se  Se42  1  0.86593700  0.28784500  0.01143600  1
  Se  Se43  1  0.13406300  0.71215500  0.51143600  1
  Se  Se44  1  0.37220000  0.21292500  0.51833200  1
  Se  Se45  1  0.62780000  0.78707500  0.01833200  1
  Se  Se46  1  0.37220000  0.28707500  0.01833200  1
  Se  Se47  1  0.62780000  0.71292500  0.51833200  1
  Se  Se48  1  0.12196700  0.24530900  0.77178400  1
  Se  Se49  1  0.87803300  0.75469100  0.27178400  1
  Se  Se50  1  0.12196700  0.25469100  0.27178400  1
  Se  Se51  1  0.87803300  0.74530900  0.77178400  1
  Se  Se52  1  0.61930600  0.24788100  0.76433500  1
  Se  Se53  1  0.38069400  0.75211900  0.26433500  1
  Se  Se54  1  0.61930600  0.25211900  0.26433500  1
  Se  Se55  1  0.38069400  0.74788100  0.76433500  1
