# generated using pymatgen
data_Pr2MgS4
_symmetry_space_group_name_H-M   'P 1'
_cell_length_a   3.99393600
_cell_length_b   13.04243200
_cell_length_c   14.17993800
_cell_angle_alpha   90.00000000
_cell_angle_beta   90.00000000
_cell_angle_gamma   90.00000000
_symmetry_Int_Tables_number   1
_chemical_formula_structural   Pr2MgS4
_chemical_formula_sum   'Pr8 Mg4 S16'
_cell_volume   738.64202704
_cell_formula_units_Z   4
loop_
 _symmetry_equiv_pos_site_id
 _symmetry_equiv_pos_as_xyz
  1  'x, y, z'
loop_
 _atom_site_type_symbol
 _atom_site_label
 _atom_site_symmetry_multiplicity
 _atom_site_fract_x
 _atom_site_fract_y
 _atom_site_fract_z
 _atom_site_occupancy
  Pr  Pr0  1  0.25000000  0.12293300  0.07398500  1
  Pr  Pr1  1  0.75000000  0.87706700  0.92601500  1
  Pr  Pr2  1  0.75000000  0.37706700  0.57398500  1
  Pr  Pr3  1  0.25000000  0.62293300  0.42601500  1
  Pr  Pr4  1  0.25000000  0.13010700  0.70869700  1
  Pr  Pr5  1  0.75000000  0.86989300  0.29130300  1
  Pr  Pr6  1  0.75000000  0.36989300  0.20869700  1
  Pr  Pr7  1  0.25000000  0.63010700  0.79130300  1
  Mg  Mg8  1  0.75000000  0.10503800  0.46461200  1
  Mg  Mg9  1  0.25000000  0.89496200  0.53538800  1
  Mg  Mg10  1  0.25000000  0.39496200  0.96461200  1
  Mg  Mg11  1  0.75000000  0.60503800  0.03538800  1
  S  S12  1  0.75000000  0.99975400  0.61295900  1
  S  S13  1  0.25000000  0.00024600  0.38704100  1
  S  S14  1  0.25000000  0.50024600  0.11295900  1
  S  S15  1  0.75000000  0.49975400  0.88704100  1
  S  S16  1  0.25000000  0.02439600  0.88669200  1
  S  S17  1  0.75000000  0.97560400  0.11330800  1
  S  S18  1  0.75000000  0.47560400  0.38669200  1
  S  S19  1  0.25000000  0.52439600  0.61330800  1
  S  S20  1  0.25000000  0.23152600  0.24408500  1
  S  S21  1  0.75000000  0.76847400  0.75591500  1
  S  S22  1  0.75000000  0.26847400  0.74408500  1
  S  S23  1  0.25000000  0.73152600  0.25591500  1
  S  S24  1  0.75000000  0.27185600  0.01723500  1
  S  S25  1  0.25000000  0.72814400  0.98276500  1
  S  S26  1  0.25000000  0.22814400  0.51723500  1
  S  S27  1  0.75000000  0.77185600  0.48276500  1
