# generated using pymatgen
data_Al2FeP2(HO)18
_symmetry_space_group_name_H-M   'P 1'
_cell_length_a   5.36468800
_cell_length_b   7.03277210
_cell_length_c   11.49699263
_cell_angle_alpha   78.16904238
_cell_angle_beta   82.19156415
_cell_angle_gamma   68.74000069
_symmetry_Int_Tables_number   1
_chemical_formula_structural   Al2FeP2(HO)18
_chemical_formula_sum   'Al2 Fe1 P2 H18 O18'
_cell_volume   394.75726654
_cell_formula_units_Z   1
loop_
 _symmetry_equiv_pos_site_id
 _symmetry_equiv_pos_as_xyz
  1  'x, y, z'
loop_
 _atom_site_type_symbol
 _atom_site_label
 _atom_site_symmetry_multiplicity
 _atom_site_fract_x
 _atom_site_fract_y
 _atom_site_fract_z
 _atom_site_occupancy
  Al  Al0  1  0.00000000  0.00000000  0.50000000  1
  Al  Al1  1  0.00000000  0.50000000  0.50000000  1
  Fe  Fe2  1  0.00000000  0.00000000  0.00000000  1
  P  P3  1  0.59445800  0.92668000  0.36105400  1
  P  P4  1  0.40554200  0.07332000  0.63894600  1
  H  H5  1  0.65419700  0.32530400  0.52409000  1
  H  H6  1  0.34580300  0.67469600  0.47591000  1
  H  H7  1  0.71102200  0.62138700  0.75712500  1
  H  H8  1  0.28897800  0.37861300  0.24287500  1
  H  H9  1  0.39187300  0.54262500  0.82666600  1
  H  H10  1  0.60812700  0.45737500  0.17333400  1
  H  H11  1  0.74295100  0.55335100  0.89592600  1
  H  H12  1  0.25704900  0.44664900  0.10407400  1
  H  H13  1  0.95609300  0.31468200  0.08156300  1
  H  H14  1  0.04390700  0.68531800  0.91843700  1
  H  H15  1  0.68370400  0.16236300  0.00755400  1
  H  H16  1  0.31629600  0.83763700  0.99244600  1
  H  H17  1  0.48553700  0.94832800  0.82191600  1
  H  H18  1  0.51446300  0.05167200  0.17808400  1
  H  H19  1  0.72929000  0.64055000  0.15040600  1
  H  H20  1  0.27071000  0.35945000  0.84959400  1
  H  H21  1  0.94521200  0.45923600  0.30658200  1
  H  H22  1  0.05478800  0.54076400  0.69341800  1
  O  O23  1  0.77404400  0.04479700  0.37608900  1
  O  O24  1  0.22595600  0.95520300  0.62391100  1
  O  O25  1  0.67695300  0.70323000  0.42990400  1
  O  O26  1  0.32304700  0.29677000  0.57009600  1
  O  O27  1  0.63001400  0.91473100  0.21824900  1
  O  O28  1  0.36998600  0.08526900  0.78175100  1
  O  O29  1  0.70671800  0.96283200  0.61394200  1
  O  O30  1  0.29328200  0.03716800  0.38605800  1
  O  O31  1  0.85098200  0.28807300  0.51384200  1
  O  O32  1  0.14901800  0.71192700  0.48615800  1
  O  O33  1  0.60941400  0.64263000  0.84028200  1
  O  O34  1  0.39058600  0.35737000  0.15971800  1
  O  O35  1  0.06847200  0.21762200  0.02520600  1
  O  O36  1  0.93152800  0.78237800  0.97479400  1
  O  O37  1  0.89449600  0.54872400  0.65582700  1
  O  O38  1  0.10550400  0.45127600  0.34417300  1
  O  O39  1  0.77747500  0.48995200  0.17109300  1
  O  O40  1  0.22252500  0.51004800  0.82890700  1
