# generated using pymatgen
data_Lu2MgS4
_symmetry_space_group_name_H-M   'P 1'
_cell_length_a   7.09229200
_cell_length_b   8.19378914
_cell_length_c   12.91389420
_cell_angle_alpha   99.24409267
_cell_angle_beta   95.40155176
_cell_angle_gamma   90.01077558
_symmetry_Int_Tables_number   1
_chemical_formula_structural   Lu2MgS4
_chemical_formula_sum   'Lu8 Mg4 S16'
_cell_volume   737.33682259
_cell_formula_units_Z   4
loop_
 _symmetry_equiv_pos_site_id
 _symmetry_equiv_pos_as_xyz
  1  'x, y, z'
loop_
 _atom_site_type_symbol
 _atom_site_label
 _atom_site_symmetry_multiplicity
 _atom_site_fract_x
 _atom_site_fract_y
 _atom_site_fract_z
 _atom_site_occupancy
  Lu  Lu0  1  0.86380600  0.29976600  0.69672000  1
  Lu  Lu1  1  0.13619400  0.70023400  0.30328000  1
  Lu  Lu2  1  0.75806300  0.12640500  0.00043700  1
  Lu  Lu3  1  0.24193700  0.87359500  0.99956300  1
  Lu  Lu4  1  0.63204100  0.44560600  0.30207500  1
  Lu  Lu5  1  0.36795900  0.55439400  0.69792500  1
  Lu  Lu6  1  0.63248300  0.95548000  0.30483800  1
  Lu  Lu7  1  0.36751700  0.04452000  0.69516200  1
  Mg  Mg8  1  0.86683400  0.79985800  0.70018800  1
  Mg  Mg9  1  0.13316600  0.20014200  0.29981200  1
  Mg  Mg10  1  0.75094700  0.62360900  0.99731000  1
  Mg  Mg11  1  0.24905300  0.37639100  0.00269000  1
  S  S12  1  0.90193300  0.35143200  0.89542600  1
  S  S13  1  0.09806700  0.64856800  0.10457400  1
  S  S14  1  0.89548800  0.84636800  0.89237800  1
  S  S15  1  0.10451200  0.15363200  0.10762200  1
  S  S16  1  0.82323000  0.21859700  0.37322300  1
  S  S17  1  0.17677000  0.78140300  0.62677700  1
  S  S18  1  0.81053400  0.71826700  0.37476700  1
  S  S19  1  0.18946600  0.28173300  0.62523300  1
  S  S20  1  0.69295800  0.02464100  0.62724600  1
  S  S21  1  0.30704200  0.97535900  0.37275400  1
  S  S22  1  0.69188900  0.53923300  0.62777800  1
  S  S23  1  0.30811100  0.46076700  0.37222200  1
  S  S24  1  0.60203300  0.90001800  0.10527400  1
  S  S25  1  0.39796700  0.09998200  0.89472600  1
  S  S26  1  0.59919100  0.40390400  0.10343600  1
  S  S27  1  0.40080900  0.59609600  0.89656400  1
