# generated using pymatgen
data_SnNF3
_symmetry_space_group_name_H-M   'P 1'
_cell_length_a   7.06776427
_cell_length_b   7.06776427
_cell_length_c   7.06776412
_cell_angle_alpha   52.21278959
_cell_angle_beta   52.21278959
_cell_angle_gamma   52.21279460
_symmetry_Int_Tables_number   1
_chemical_formula_structural   SnNF3
_chemical_formula_sum   'Sn2 N2 F6'
_cell_volume   203.97142092
_cell_formula_units_Z   2
loop_
 _symmetry_equiv_pos_site_id
 _symmetry_equiv_pos_as_xyz
  1  'x, y, z'
loop_
 _atom_site_type_symbol
 _atom_site_label
 _atom_site_symmetry_multiplicity
 _atom_site_fract_x
 _atom_site_fract_y
 _atom_site_fract_z
 _atom_site_occupancy
  Sn  Sn0  1  0.83214700  0.83214700  0.83214700  1
  Sn  Sn1  1  0.16785300  0.16785300  0.16785300  1
  N  N2  1  0.63201500  0.63201500  0.63201500  1
  N  N3  1  0.36798500  0.36798500  0.36798500  1
  F  F4  1  0.02614200  0.85328600  0.43444900  1
  F  F5  1  0.85328600  0.43444900  0.02614200  1
  F  F6  1  0.43444900  0.02614200  0.85328600  1
  F  F7  1  0.97385800  0.14671400  0.56555100  1
  F  F8  1  0.14671400  0.56555100  0.97385800  1
  F  F9  1  0.56555100  0.97385800  0.14671400  1
