# generated using pymatgen
data_Rb3SbF6
_symmetry_space_group_name_H-M   'P 1'
_cell_length_a   7.25541300
_cell_length_b   7.27719075
_cell_length_c   7.34578838
_cell_angle_alpha   100.56956493
_cell_angle_beta   107.09671945
_cell_angle_gamma   100.76202129
_symmetry_Int_Tables_number   1
_chemical_formula_structural   Rb3SbF6
_chemical_formula_sum   'Rb3 Sb1 F6'
_cell_volume   352.26537891
_cell_formula_units_Z   1
loop_
 _symmetry_equiv_pos_site_id
 _symmetry_equiv_pos_as_xyz
  1  'x, y, z'
loop_
 _atom_site_type_symbol
 _atom_site_label
 _atom_site_symmetry_multiplicity
 _atom_site_fract_x
 _atom_site_fract_y
 _atom_site_fract_z
 _atom_site_occupancy
  Rb  Rb0  1  0.00000000  0.50000000  0.00000000  1
  Rb  Rb1  1  0.50000000  0.00000000  0.00000000  1
  Rb  Rb2  1  0.00000000  0.00000000  0.50000000  1
  Sb  Sb3  1  0.00000000  0.00000000  0.00000000  1
  F  F4  1  0.03991100  0.77671900  0.77449700  1
  F  F5  1  0.96008900  0.22328100  0.22550300  1
  F  F6  1  0.79328800  0.79069800  0.08437000  1
  F  F7  1  0.20671200  0.20930200  0.91563000  1
  F  F8  1  0.76270500  0.08299900  0.79023000  1
  F  F9  1  0.23729500  0.91700100  0.20977000  1
