# generated using pymatgen
data_TiCrAgS4
_symmetry_space_group_name_H-M   'P 1'
_cell_length_a   6.49617200
_cell_length_b   7.60355349
_cell_length_c   13.00941076
_cell_angle_alpha   98.19607390
_cell_angle_beta   94.21221137
_cell_angle_gamma   90.08561719
_symmetry_Int_Tables_number   1
_chemical_formula_structural   TiCrAgS4
_chemical_formula_sum   'Ti4 Cr4 Ag4 S16'
_cell_volume   634.25874172
_cell_formula_units_Z   4
loop_
 _symmetry_equiv_pos_site_id
 _symmetry_equiv_pos_as_xyz
  1  'x, y, z'
loop_
 _atom_site_type_symbol
 _atom_site_label
 _atom_site_symmetry_multiplicity
 _atom_site_fract_x
 _atom_site_fract_y
 _atom_site_fract_z
 _atom_site_occupancy
  Ti  Ti0  1  0.14813900  0.70394900  0.28561800  1
  Ti  Ti1  1  0.76640700  0.10279200  0.00090200  1
  Ti  Ti2  1  0.23811600  0.89981700  0.99747100  1
  Ti  Ti3  1  0.36258200  0.55338200  0.71611500  1
  Cr  Cr4  1  0.84085100  0.29909200  0.72210200  1
  Cr  Cr5  1  0.63270300  0.44436200  0.27915700  1
  Cr  Cr6  1  0.63416700  0.94774500  0.28635000  1
  Cr  Cr7  1  0.36883800  0.05701800  0.71344100  1
  Ag  Ag8  1  0.88300800  0.80466000  0.69583400  1
  Ag  Ag9  1  0.10728900  0.18230300  0.30235100  1
  Ag  Ag10  1  0.75162500  0.63581800  0.99923400  1
  Ag  Ag11  1  0.25905300  0.36353400  0.00104500  1
  S  S12  1  0.87511500  0.32960100  0.89265000  1
  S  S13  1  0.13356300  0.67543900  0.11071100  1
  S  S14  1  0.92168700  0.86743300  0.89554400  1
  S  S15  1  0.08755700  0.13490300  0.10262700  1
  S  S16  1  0.75066100  0.21934200  0.35590800  1
  S  S17  1  0.23807100  0.78405700  0.63574200  1
  S  S18  1  0.80794100  0.70558800  0.33907800  1
  S  S19  1  0.16770800  0.28800600  0.66320600  1
  S  S20  1  0.67354300  0.05985500  0.64470900  1
  S  S21  1  0.33222000  0.94782400  0.36512100  1
  S  S22  1  0.68210000  0.52033100  0.65152500  1
  S  S23  1  0.31896800  0.46711900  0.34231500  1
  S  S24  1  0.58145800  0.93245100  0.10909200  1
  S  S25  1  0.42897000  0.07093800  0.89045900  1
  S  S26  1  0.63100300  0.38574400  0.10911900  1
  S  S27  1  0.37665700  0.61689800  0.89257500  1
