# generated using pymatgen
data_Na(CrS2)2
_symmetry_space_group_name_H-M   'P 1'
_cell_length_a   11.58898200
_cell_length_b   7.26358500
_cell_length_c   12.05719900
_cell_angle_alpha   90.00000000
_cell_angle_beta   90.00000000
_cell_angle_gamma   90.00000000
_symmetry_Int_Tables_number   1
_chemical_formula_structural   Na(CrS2)2
_chemical_formula_sum   'Na8 Cr16 S32'
_cell_volume   1014.94554186
_cell_formula_units_Z   8
loop_
 _symmetry_equiv_pos_site_id
 _symmetry_equiv_pos_as_xyz
  1  'x, y, z'
loop_
 _atom_site_type_symbol
 _atom_site_label
 _atom_site_symmetry_multiplicity
 _atom_site_fract_x
 _atom_site_fract_y
 _atom_site_fract_z
 _atom_site_occupancy
  Na  Na0  1  0.08556400  0.38355200  0.66963800  1
  Na  Na1  1  0.91443600  0.61644800  0.16963800  1
  Na  Na2  1  0.41443600  0.38355200  0.16963800  1
  Na  Na3  1  0.58556400  0.61644800  0.66963800  1
  Na  Na4  1  0.11684600  0.87624000  0.32910900  1
  Na  Na5  1  0.88315400  0.12376000  0.82910900  1
  Na  Na6  1  0.38315400  0.87624000  0.82910900  1
  Na  Na7  1  0.61684600  0.12376000  0.32910900  1
  Cr  Cr8  1  0.11929800  0.86968900  0.69456200  1
  Cr  Cr9  1  0.88070200  0.13031100  0.19456200  1
  Cr  Cr10  1  0.38070200  0.86968900  0.19456200  1
  Cr  Cr11  1  0.61929800  0.13031100  0.69456200  1
  Cr  Cr12  1  0.13467300  0.35097500  0.32510600  1
  Cr  Cr13  1  0.86532700  0.64902500  0.82510600  1
  Cr  Cr14  1  0.36532700  0.35097500  0.82510600  1
  Cr  Cr15  1  0.63467300  0.64902500  0.32510600  1
  Cr  Cr16  1  0.15438200  0.61824000  0.93885500  1
  Cr  Cr17  1  0.84561800  0.38176000  0.43885500  1
  Cr  Cr18  1  0.34561800  0.61824000  0.43885500  1
  Cr  Cr19  1  0.65438200  0.38176000  0.93885500  1
  Cr  Cr20  1  0.13023000  0.10970800  0.99330000  1
  Cr  Cr21  1  0.86977000  0.89029200  0.49330000  1
  Cr  Cr22  1  0.36977000  0.10970800  0.49330000  1
  Cr  Cr23  1  0.63023000  0.89029200  0.99330000  1
  S  S24  1  0.02928200  0.85416700  0.87734600  1
  S  S25  1  0.97071800  0.14583300  0.37734600  1
  S  S26  1  0.47071800  0.85416700  0.37734600  1
  S  S27  1  0.52928200  0.14583300  0.87734600  1
  S  S28  1  0.04750000  0.31165800  0.14750500  1
  S  S29  1  0.95250000  0.68834200  0.64750500  1
  S  S30  1  0.45250000  0.31165800  0.64750500  1
  S  S31  1  0.54750000  0.68834200  0.14750500  1
  S  S32  1  0.00070200  0.43634200  0.89853900  1
  S  S33  1  0.99929800  0.56365800  0.39853900  1
  S  S34  1  0.49929800  0.43634200  0.39853900  1
  S  S35  1  0.50070200  0.56365800  0.89853900  1
  S  S36  1  0.01266900  0.93690300  0.11772400  1
  S  S37  1  0.98733100  0.06309700  0.61772400  1
  S  S38  1  0.48733100  0.93690300  0.61772400  1
  S  S39  1  0.51266900  0.06309700  0.11772400  1
  S  S40  1  0.24178600  0.85521000  0.53378800  1
  S  S41  1  0.75821400  0.14479000  0.03378800  1
  S  S42  1  0.25821400  0.85521000  0.03378800  1
  S  S43  1  0.74178600  0.14479000  0.53378800  1
  S  S44  1  0.23752200  0.36295700  0.49789900  1
  S  S45  1  0.76247800  0.63704300  0.99789900  1
  S  S46  1  0.26247800  0.36295700  0.99789900  1
  S  S47  1  0.73752200  0.63704300  0.49789900  1
  S  S48  1  0.20806100  0.12433200  0.80285600  1
  S  S49  1  0.79193900  0.87566800  0.30285600  1
  S  S50  1  0.29193900  0.12433200  0.30285600  1
  S  S51  1  0.70806100  0.87566800  0.80285600  1
  S  S52  1  0.23940600  0.60770200  0.77077200  1
  S  S53  1  0.76059400  0.39229800  0.27077300  1
  S  S54  1  0.26059400  0.60770200  0.27077300  1
  S  S55  1  0.73940600  0.39229800  0.77077200  1
