# generated using pymatgen
data_Pr2MgSe4
_symmetry_space_group_name_H-M   'P 1'
_cell_length_a   7.73346082
_cell_length_b   7.73346082
_cell_length_c   7.73346082
_cell_angle_alpha   110.95728243
_cell_angle_beta   110.95728243
_cell_angle_gamma   106.53831015
_symmetry_Int_Tables_number   1
_chemical_formula_structural   Pr2MgSe4
_chemical_formula_sum   'Pr4 Mg2 Se8'
_cell_volume   355.34564974
_cell_formula_units_Z   2
loop_
 _symmetry_equiv_pos_site_id
 _symmetry_equiv_pos_as_xyz
  1  'x, y, z'
loop_
 _atom_site_type_symbol
 _atom_site_label
 _atom_site_symmetry_multiplicity
 _atom_site_fract_x
 _atom_site_fract_y
 _atom_site_fract_z
 _atom_site_occupancy
  Pr  Pr0  1  0.87500000  0.75426500  0.37926500  1
  Pr  Pr1  1  0.50426500  0.12500000  0.87926500  1
  Pr  Pr2  1  0.37500000  0.49573500  0.62073500  1
  Pr  Pr3  1  0.24573500  0.62500000  0.12073500  1
  Mg  Mg4  1  0.00000000  0.00000000  0.00000000  1
  Mg  Mg5  1  0.75000000  0.25000000  0.50000000  1
  Se  Se6  1  0.50638400  0.37597800  0.26726500  1
  Se  Se7  1  0.76088100  0.49361600  0.86959400  1
  Se  Se8  1  0.10871300  0.23911900  0.73273500  1
  Se  Se9  1  0.62402200  0.89128700  0.13040600  1
  Se  Se10  1  0.24361600  0.01088100  0.36959400  1
  Se  Se11  1  0.98911900  0.35871300  0.23273500  1
  Se  Se12  1  0.64128700  0.87402200  0.63040600  1
  Se  Se13  1  0.12597800  0.75638400  0.76726500  1
