# generated using pymatgen
data_SrH6(CO3)2
_symmetry_space_group_name_H-M   'P 1'
_cell_length_a   7.21248600
_cell_length_b   7.46693100
_cell_length_c   12.21164300
_cell_angle_alpha   90.00000000
_cell_angle_beta   90.00000000
_cell_angle_gamma   90.00000000
_symmetry_Int_Tables_number   1
_chemical_formula_structural   SrH6(CO3)2
_chemical_formula_sum   'Sr4 H24 C8 O24'
_cell_volume   657.65968601
_cell_formula_units_Z   4
loop_
 _symmetry_equiv_pos_site_id
 _symmetry_equiv_pos_as_xyz
  1  'x, y, z'
loop_
 _atom_site_type_symbol
 _atom_site_label
 _atom_site_symmetry_multiplicity
 _atom_site_fract_x
 _atom_site_fract_y
 _atom_site_fract_z
 _atom_site_occupancy
  Sr  Sr0  1  0.30723400  0.24438700  0.57200000  1
  Sr  Sr1  1  0.80723400  0.25561300  0.42800000  1
  Sr  Sr2  1  0.69276600  0.74438700  0.92800000  1
  Sr  Sr3  1  0.19276600  0.75561300  0.07200000  1
  H  H4  1  0.41052300  0.05947700  0.34232100  1
  H  H5  1  0.91052300  0.44052300  0.65767900  1
  H  H6  1  0.58947700  0.55947700  0.15767900  1
  H  H7  1  0.08947700  0.94052300  0.84232100  1
  H  H8  1  0.53104500  0.95525100  0.42917100  1
  H  H9  1  0.03104500  0.54474900  0.57082900  1
  H  H10  1  0.46895500  0.45525100  0.07082900  1
  H  H11  1  0.96895500  0.04474900  0.92917100  1
  H  H12  1  0.20403100  0.88748600  0.66706300  1
  H  H13  1  0.70403100  0.61251400  0.33293700  1
  H  H14  1  0.79596900  0.38748600  0.83293700  1
  H  H15  1  0.29596900  0.11251400  0.16706300  1
  H  H16  1  0.37110900  0.95360700  0.74364600  1
  H  H17  1  0.87110900  0.54639300  0.25635400  1
  H  H18  1  0.62889100  0.45360700  0.75635400  1
  H  H19  1  0.12889100  0.04639300  0.24364600  1
  H  H20  1  0.97195400  0.79826000  0.42155900  1
  H  H21  1  0.47195400  0.70174000  0.57844100  1
  H  H22  1  0.02804600  0.29826000  0.07844100  1
  H  H23  1  0.52804600  0.20174000  0.92155900  1
  H  H24  1  0.86691900  0.01404600  0.69018200  1
  H  H25  1  0.36691900  0.48595400  0.30981800  1
  H  H26  1  0.13308100  0.51404600  0.80981800  1
  H  H27  1  0.63308100  0.98595400  0.19018200  1
  C  C28  1  0.71325100  0.02353800  0.68739400  1
  C  C29  1  0.21325100  0.47646200  0.31260600  1
  C  C30  1  0.28674900  0.52353800  0.81260600  1
  C  C31  1  0.78674900  0.97646200  0.18739400  1
  C  C32  1  0.04366900  0.85883300  0.49264900  1
  C  C33  1  0.54366900  0.64116700  0.50735100  1
  C  C34  1  0.95633100  0.35883300  0.00735100  1
  C  C35  1  0.45633100  0.14116700  0.99264900  1
  O  O36  1  0.64415600  0.12005000  0.61207000  1
  O  O37  1  0.14415600  0.37995000  0.38793000  1
  O  O38  1  0.35584400  0.62005000  0.88793000  1
  O  O39  1  0.85584400  0.87995000  0.11207000  1
  O  O40  1  0.62246200  0.93706500  0.75908000  1
  O  O41  1  0.12246200  0.56293500  0.24092000  1
  O  O42  1  0.37753800  0.43706500  0.74092000  1
  O  O43  1  0.87753800  0.06293500  0.25908000  1
  O  O44  1  0.05127100  0.02895900  0.49686400  1
  O  O45  1  0.55127100  0.47104000  0.50313600  1
  O  O46  1  0.94872900  0.52896000  0.00313600  1
  O  O47  1  0.44872900  0.97104000  0.99686400  1
  O  O48  1  0.11172900  0.75367500  0.56372300  1
  O  O49  1  0.61172900  0.74632500  0.43627700  1
  O  O50  1  0.88827100  0.25367500  0.93627700  1
  O  O51  1  0.38827100  0.24632500  0.06372300  1
  O  O52  1  0.48500900  0.07864000  0.40957900  1
  O  O53  1  0.98500900  0.42136000  0.59042100  1
  O  O54  1  0.51499100  0.57864000  0.09042100  1
  O  O55  1  0.01499100  0.92136000  0.90957900  1
  O  O56  1  0.24215300  0.98293900  0.72027000  1
  O  O57  1  0.74215300  0.51706100  0.27973000  1
  O  O58  1  0.75784700  0.48293900  0.77973000  1
  O  O59  1  0.25784700  0.01706100  0.22027000  1
