# generated using pymatgen
data_Yb2MgS4
_symmetry_space_group_name_H-M   'P 1'
_cell_length_a   13.71192600
_cell_length_b   7.96566400
_cell_length_c   11.24067500
_cell_angle_alpha   90.00000000
_cell_angle_beta   90.00000000
_cell_angle_gamma   90.00000000
_symmetry_Int_Tables_number   1
_chemical_formula_structural   Yb2MgS4
_chemical_formula_sum   'Yb16 Mg8 S32'
_cell_volume   1227.75817787
_cell_formula_units_Z   8
loop_
 _symmetry_equiv_pos_site_id
 _symmetry_equiv_pos_as_xyz
  1  'x, y, z'
loop_
 _atom_site_type_symbol
 _atom_site_label
 _atom_site_symmetry_multiplicity
 _atom_site_fract_x
 _atom_site_fract_y
 _atom_site_fract_z
 _atom_site_occupancy
  Yb  Yb0  1  0.11823100  0.88077300  0.68976300  1
  Yb  Yb1  1  0.88176900  0.11922700  0.18976300  1
  Yb  Yb2  1  0.38176900  0.88077300  0.18976300  1
  Yb  Yb3  1  0.61823100  0.11922700  0.68976300  1
  Yb  Yb4  1  0.12798500  0.37643400  0.31881800  1
  Yb  Yb5  1  0.87201500  0.62356600  0.81881800  1
  Yb  Yb6  1  0.37201500  0.37643400  0.81881800  1
  Yb  Yb7  1  0.62798500  0.62356600  0.31881800  1
  Yb  Yb8  1  0.13930100  0.62813300  0.99685500  1
  Yb  Yb9  1  0.86069900  0.37186700  0.49685500  1
  Yb  Yb10  1  0.36069900  0.62813300  0.49685500  1
  Yb  Yb11  1  0.63930100  0.37186700  0.99685500  1
  Yb  Yb12  1  0.14165800  0.11675100  0.00317500  1
  Yb  Yb13  1  0.85834200  0.88324900  0.50317500  1
  Yb  Yb14  1  0.35834200  0.11675100  0.50317500  1
  Yb  Yb15  1  0.64165800  0.88324900  0.00317500  1
  Mg  Mg16  1  0.12924600  0.36696800  0.69181600  1
  Mg  Mg17  1  0.87075400  0.63303200  0.19181600  1
  Mg  Mg18  1  0.37075400  0.36696800  0.19181600  1
  Mg  Mg19  1  0.62924600  0.63303200  0.69181600  1
  Mg  Mg20  1  0.13304700  0.89172400  0.32030400  1
  Mg  Mg21  1  0.86695300  0.10827600  0.82030400  1
  Mg  Mg22  1  0.36695300  0.89172400  0.82030400  1
  Mg  Mg23  1  0.63304700  0.10827600  0.32030400  1
  S  S24  1  0.00206500  0.88965800  0.89416800  1
  S  S25  1  0.99793500  0.11034200  0.39416800  1
  S  S26  1  0.49793500  0.88965800  0.39416800  1
  S  S27  1  0.50206500  0.11034200  0.89416800  1
  S  S28  1  0.00659900  0.38137500  0.09721200  1
  S  S29  1  0.99340100  0.61862500  0.59721200  1
  S  S30  1  0.49340100  0.38137500  0.59721200  1
  S  S31  1  0.50659900  0.61862500  0.09721200  1
  S  S32  1  0.00366700  0.36161800  0.90564900  1
  S  S33  1  0.99633300  0.63838200  0.40564900  1
  S  S34  1  0.49633300  0.36161800  0.40564900  1
  S  S35  1  0.50366700  0.63838200  0.90564900  1
  S  S36  1  0.01600800  0.86162400  0.14262700  1
  S  S37  1  0.98399200  0.13837600  0.64262700  1
  S  S38  1  0.48399200  0.86162400  0.64262700  1
  S  S39  1  0.51600800  0.13837600  0.14262700  1
  S  S40  1  0.22783700  0.86937200  0.49810500  1
  S  S41  1  0.77216300  0.13062800  0.99810500  1
  S  S42  1  0.27216300  0.86937200  0.99810500  1
  S  S43  1  0.72783700  0.13062800  0.49810500  1
  S  S44  1  0.23068700  0.37541600  0.51759500  1
  S  S45  1  0.76931300  0.62458400  0.01759500  1
  S  S46  1  0.26931300  0.37541600  0.01759500  1
  S  S47  1  0.73068700  0.62458400  0.51759500  1
  S  S48  1  0.24501600  0.12787600  0.75904300  1
  S  S49  1  0.75498400  0.87212400  0.25904300  1
  S  S50  1  0.25498400  0.12787600  0.25904300  1
  S  S51  1  0.74501600  0.87212400  0.75904300  1
  S  S52  1  0.23720900  0.61986800  0.76187200  1
  S  S53  1  0.76279100  0.38013200  0.26187200  1
  S  S54  1  0.26279100  0.61986800  0.26187200  1
  S  S55  1  0.73720900  0.38013200  0.76187200  1
