# generated using pymatgen
data_Ta2O5
_symmetry_space_group_name_H-M   'P 1'
_cell_length_a   3.86754800
_cell_length_b   3.86277800
_cell_length_c   6.67563649
_cell_angle_alpha   79.31976450
_cell_angle_beta   90.00000000
_cell_angle_gamma   90.00000000
_symmetry_Int_Tables_number   1
_chemical_formula_structural   Ta2O5
_chemical_formula_sum   'Ta2 O5'
_cell_volume   98.00287982
_cell_formula_units_Z   1
loop_
 _symmetry_equiv_pos_site_id
 _symmetry_equiv_pos_as_xyz
  1  'x, y, z'
loop_
 _atom_site_type_symbol
 _atom_site_label
 _atom_site_symmetry_multiplicity
 _atom_site_fract_x
 _atom_site_fract_y
 _atom_site_fract_z
 _atom_site_occupancy
  Ta  Ta0  1  0.00000000  0.32699700  0.78859200  1
  Ta  Ta1  1  0.00000000  0.67300300  0.21140800  1
  O  O2  1  0.50000000  0.27469800  0.78262500  1
  O  O3  1  0.50000000  0.72530200  0.21737500  1
  O  O4  1  0.00000000  0.78361400  0.87571400  1
  O  O5  1  0.00000000  0.21638600  0.12428600  1
  O  O6  1  0.00000000  0.50000000  0.50000000  1
