# generated using pymatgen
data_MgTe3(ClO)6
_symmetry_space_group_name_H-M   'P 1'
_cell_length_a   9.29698100
_cell_length_b   10.09456222
_cell_length_c   10.90820767
_cell_angle_alpha   83.65654903
_cell_angle_beta   82.33362998
_cell_angle_gamma   79.51945785
_symmetry_Int_Tables_number   1
_chemical_formula_structural   MgTe3(ClO)6
_chemical_formula_sum   'Mg1 Te3 Cl6 O6'
_cell_volume   993.73469891
_cell_formula_units_Z   1
loop_
 _symmetry_equiv_pos_site_id
 _symmetry_equiv_pos_as_xyz
  1  'x, y, z'
loop_
 _atom_site_type_symbol
 _atom_site_label
 _atom_site_symmetry_multiplicity
 _atom_site_fract_x
 _atom_site_fract_y
 _atom_site_fract_z
 _atom_site_occupancy
  Mg  Mg0  1  0.00000000  0.00000000  0.00000000  1
  Te  Te1  1  0.00000000  0.00000000  0.50000000  1
  Te  Te2  1  0.50000000  0.50000000  0.00000000  1
  Te  Te3  1  0.50000000  0.00000000  0.00000000  1
  Cl  Cl4  1  0.96624500  0.22437700  0.57717900  1
  Cl  Cl5  1  0.03375500  0.77562300  0.42282100  1
  Cl  Cl6  1  0.70348300  0.50335600  0.83086000  1
  Cl  Cl7  1  0.29651700  0.49664400  0.16914000  1
  Cl  Cl8  1  0.28946600  0.09555900  0.86509200  1
  Cl  Cl9  1  0.71053400  0.90444100  0.13490800  1
  O  O10  1  0.16625900  0.00026100  0.86462200  1
  O  O11  1  0.83374100  0.99973900  0.13537800  1
  O  O12  1  0.85972100  0.14815200  0.88503500  1
  O  O13  1  0.14027900  0.85184800  0.11496500  1
  O  O14  1  0.91951800  0.21512300  0.95366100  1
  O  O15  1  0.08048200  0.78487700  0.04633900  1
