# generated using pymatgen
data_Tb2MgS4
_symmetry_space_group_name_H-M   'P 1'
_cell_length_a   7.26199850
_cell_length_b   8.40905409
_cell_length_c   12.93300184
_cell_angle_alpha   80.40699940
_cell_angle_beta   84.32091543
_cell_angle_gamma   90.00583179
_symmetry_Int_Tables_number   1
_chemical_formula_structural   Tb2MgS4
_chemical_formula_sum   'Tb8 Mg4 S16'
_cell_volume   774.79676827
_cell_formula_units_Z   4
loop_
 _symmetry_equiv_pos_site_id
 _symmetry_equiv_pos_as_xyz
  1  'x, y, z'
loop_
 _atom_site_type_symbol
 _atom_site_label
 _atom_site_symmetry_multiplicity
 _atom_site_fract_x
 _atom_site_fract_y
 _atom_site_fract_z
 _atom_site_occupancy
  Tb  Tb0  1  0.13519200  0.70020800  0.69360500  1
  Tb  Tb1  1  0.86480800  0.29979200  0.30639500  1
  Tb  Tb2  1  0.24140900  0.87211700  0.00064000  1
  Tb  Tb3  1  0.75859100  0.12788300  0.99936000  1
  Tb  Tb4  1  0.36794500  0.55510200  0.30467800  1
  Tb  Tb5  1  0.63205500  0.44489800  0.69532200  1
  Tb  Tb6  1  0.36617800  0.04237300  0.30833700  1
  Tb  Tb7  1  0.63382200  0.95762700  0.69166300  1
  Mg  Mg8  1  0.13391600  0.20048300  0.69995900  1
  Mg  Mg9  1  0.86608400  0.79951700  0.30004100  1
  Mg  Mg10  1  0.24914000  0.37769200  0.99618500  1
  Mg  Mg11  1  0.75086000  0.62230800  0.00381500  1
  S  S12  1  0.09320100  0.64447900  0.89735100  1
  S  S13  1  0.90679900  0.35552100  0.10264900  1
  S  S14  1  0.10771000  0.15589900  0.89215100  1
  S  S15  1  0.89229000  0.84410100  0.10784900  1
  S  S16  1  0.16825700  0.78114000  0.37208400  1
  S  S17  1  0.83174300  0.21886000  0.62791600  1
  S  S18  1  0.19153400  0.28174900  0.37565300  1
  S  S19  1  0.80846600  0.71825100  0.62434700  1
  S  S20  1  0.30296100  0.97970000  0.62940700  1
  S  S21  1  0.69703900  0.02030000  0.37059300  1
  S  S22  1  0.30481700  0.45569800  0.62876300  1
  S  S23  1  0.69518300  0.54430200  0.37123700  1
  S  S24  1  0.39354000  0.10381200  0.10411500  1
  S  S25  1  0.60646000  0.89618800  0.89588500  1
  S  S26  1  0.40497100  0.59232100  0.10136600  1
  S  S27  1  0.59502900  0.40767900  0.89863400  1
