# generated using pymatgen
data_UBr4(NO2)2
_symmetry_space_group_name_H-M   'P 1'
_cell_length_a   6.24376682
_cell_length_b   7.09396433
_cell_length_c   7.65453070
_cell_angle_alpha   110.12212278
_cell_angle_beta   73.60796206
_cell_angle_gamma   113.35938900
_symmetry_Int_Tables_number   1
_chemical_formula_structural   UBr4(NO2)2
_chemical_formula_sum   'U1 Br4 N2 O4'
_cell_volume   288.04370519
_cell_formula_units_Z   1
loop_
 _symmetry_equiv_pos_site_id
 _symmetry_equiv_pos_as_xyz
  1  'x, y, z'
loop_
 _atom_site_type_symbol
 _atom_site_label
 _atom_site_symmetry_multiplicity
 _atom_site_fract_x
 _atom_site_fract_y
 _atom_site_fract_z
 _atom_site_occupancy
  U  U0  1  0.00000000  0.00000000  0.00000000  1
  Br  Br1  1  0.85593300  0.75043200  0.63002200  1
  Br  Br2  1  0.14406700  0.24956800  0.36997800  1
  Br  Br3  1  0.79005100  0.63752800  0.13156500  1
  Br  Br4  1  0.20994900  0.36247200  0.86843500  1
  N  N5  1  0.25033300  0.73253500  0.49234800  1
  N  N6  1  0.74966700  0.26746500  0.50765200  1
  O  O7  1  0.72618000  0.05578200  0.09224900  1
  O  O8  1  0.27382000  0.94421800  0.90775100  1
  O  O9  1  0.33642000  0.79762700  0.36387800  1
  O  O10  1  0.66358000  0.20237300  0.63612200  1
