# generated using pymatgen
data_Nd2MgSe4
_symmetry_space_group_name_H-M   'P 1'
_cell_length_a   7.70827545
_cell_length_b   7.70827545
_cell_length_c   7.70827545
_cell_angle_alpha   110.93420562
_cell_angle_beta   110.93420562
_cell_angle_gamma   106.58327932
_symmetry_Int_Tables_number   1
_chemical_formula_structural   Nd2MgSe4
_chemical_formula_sum   'Nd4 Mg2 Se8'
_cell_volume   351.90608360
_cell_formula_units_Z   2
loop_
 _symmetry_equiv_pos_site_id
 _symmetry_equiv_pos_as_xyz
  1  'x, y, z'
loop_
 _atom_site_type_symbol
 _atom_site_label
 _atom_site_symmetry_multiplicity
 _atom_site_fract_x
 _atom_site_fract_y
 _atom_site_fract_z
 _atom_site_occupancy
  Nd  Nd0  1  0.87500000  0.75442200  0.37942200  1
  Nd  Nd1  1  0.50442200  0.12500000  0.87942200  1
  Nd  Nd2  1  0.37500000  0.49557800  0.62057800  1
  Nd  Nd3  1  0.24557800  0.62500000  0.12057800  1
  Mg  Mg4  1  0.00000000  0.00000000  0.00000000  1
  Mg  Mg5  1  0.75000000  0.25000000  0.50000000  1
  Se  Se6  1  0.50655700  0.37627200  0.26632300  1
  Se  Se7  1  0.75976600  0.49344300  0.86971500  1
  Se  Se8  1  0.10994900  0.24023400  0.73367700  1
  Se  Se9  1  0.62372800  0.89005100  0.13028500  1
  Se  Se10  1  0.24344300  0.00976600  0.36971500  1
  Se  Se11  1  0.99023400  0.35994900  0.23367700  1
  Se  Se12  1  0.64005100  0.87372800  0.63028500  1
  Se  Se13  1  0.12627200  0.75655700  0.76632300  1
