# generated using pymatgen
data_Sb5IO7
_symmetry_space_group_name_H-M   'P 1'
_cell_length_a   13.23471600
_cell_length_b   7.06936600
_cell_length_c   13.48859730
_cell_angle_alpha   63.94975574
_cell_angle_beta   90.00000000
_cell_angle_gamma   90.00000000
_symmetry_Int_Tables_number   1
_chemical_formula_structural   Sb5IO7
_chemical_formula_sum   'Sb20 I4 O28'
_cell_volume   1133.79911043
_cell_formula_units_Z   4
loop_
 _symmetry_equiv_pos_site_id
 _symmetry_equiv_pos_as_xyz
  1  'x, y, z'
loop_
 _atom_site_type_symbol
 _atom_site_label
 _atom_site_symmetry_multiplicity
 _atom_site_fract_x
 _atom_site_fract_y
 _atom_site_fract_z
 _atom_site_occupancy
  Sb  Sb0  1  0.75707700  0.08429500  0.94725900  1
  Sb  Sb1  1  0.24292300  0.08429500  0.44725900  1
  Sb  Sb2  1  0.28391200  0.11795200  0.88047200  1
  Sb  Sb3  1  0.71608800  0.11795200  0.38047200  1
  Sb  Sb4  1  0.77306700  0.85530900  0.72465700  1
  Sb  Sb5  1  0.22693300  0.85530900  0.22465700  1
  Sb  Sb6  1  0.25497300  0.83963500  0.75042900  1
  Sb  Sb7  1  0.74502700  0.83963500  0.25042900  1
  Sb  Sb8  1  0.75979600  0.44320100  0.59202100  1
  Sb  Sb9  1  0.24020400  0.44320100  0.09202100  1
  Sb  Sb10  1  0.26712900  0.40280900  0.59773900  1
  Sb  Sb11  1  0.73287100  0.40280900  0.09773900  1
  Sb  Sb12  1  0.93232900  0.21431000  0.51446400  1
  Sb  Sb13  1  0.06767100  0.21431000  0.01446400  1
  Sb  Sb14  1  0.55159400  0.09911900  0.59733400  1
  Sb  Sb15  1  0.44840600  0.09911900  0.09733400  1
  Sb  Sb16  1  0.44646800  0.75142300  0.42235800  1
  Sb  Sb17  1  0.55353200  0.75142300  0.92235800  1
  Sb  Sb18  1  0.06393800  0.73786100  0.46592300  1
  Sb  Sb19  1  0.93606200  0.73786100  0.96592300  1
  I  I20  1  0.97708300  0.50585900  0.77041600  1
  I  I21  1  0.02291700  0.50585900  0.27041600  1
  I  I22  1  0.50226900  0.50484600  0.70438100  1
  I  I23  1  0.49773100  0.50484600  0.20438100  1
  O  O24  1  0.81493000  0.86224100  0.86516300  1
  O  O25  1  0.18507000  0.86224100  0.36516300  1
  O  O26  1  0.27311700  0.11466400  0.59569700  1
  O  O27  1  0.72688300  0.11466400  0.09569700  1
  O  O28  1  0.83213700  0.02479000  0.49793200  1
  O  O29  1  0.16786300  0.02479000  0.99793200  1
  O  O30  1  0.62399600  0.95963200  0.51984500  1
  O  O31  1  0.37600400  0.95963200  0.01984500  1
  O  O32  1  0.36533800  0.90516000  0.48714000  1
  O  O33  1  0.63466200  0.90516000  0.98714000  1
  O  O34  1  0.14017900  0.87762000  0.54580500  1
  O  O35  1  0.85982100  0.87762000  0.04580500  1
  O  O36  1  0.85268700  0.48504200  0.46757400  1
  O  O37  1  0.14731300  0.48504200  0.96757400  1
  O  O38  1  0.64811900  0.34289600  0.53224800  1
  O  O39  1  0.35188100  0.34289600  0.03224800  1
  O  O40  1  0.34374000  0.52120300  0.45493000  1
  O  O41  1  0.65626000  0.52120300  0.95493000  1
  O  O42  1  0.12793100  0.45481000  0.53501000  1
  O  O43  1  0.87206900  0.45481000  0.03501000  1
  O  O44  1  0.83378700  0.15492800  0.65928500  1
  O  O45  1  0.16621300  0.15492800  0.15928500  1
  O  O46  1  0.63123600  0.95132900  0.74774300  1
  O  O47  1  0.36876400  0.95132900  0.24774300  1
  O  O48  1  0.36394300  0.91963300  0.82671700  1
  O  O49  1  0.63605700  0.91963300  0.32671700  1
  O  O50  1  0.17275500  0.99926400  0.80665700  1
  O  O51  1  0.82724500  0.99926400  0.30665700  1
