data_image0
_chemical_formula_structural       Fe4Mo6O16
_chemical_formula_sum              "Fe4 Mo6 O16"
_cell_length_a       5.76696
_cell_length_b       5.77708
_cell_length_c       9.93414
_cell_angle_alpha    90
_cell_angle_beta     90
_cell_angle_gamma    119.942

_space_group_name_H-M_alt    "P 1"
_space_group_IT_number       1

loop_
  _space_group_symop_operation_xyz
  'x, y, z'

loop_
  _atom_site_type_symbol
  _atom_site_label
  _atom_site_symmetry_multiplicity
  _atom_site_fract_x
  _atom_site_fract_y
  _atom_site_fract_z
  _atom_site_occupancy
  Fe  Fe1       1.0  0.33000  0.66000  0.51300  1.0000
  Fe  Fe2       1.0  0.67000  0.34000  0.01290  1.0000
  Fe  Fe3       1.0  0.33200  0.66400  0.95000  1.0000
  Fe  Fe4       1.0  0.66800  0.33600  0.45000  1.0000
  Mo  Mo1       1.0  0.14700  0.85600  0.24900  1.0000
  Mo  Mo2       1.0  0.85300  0.14400  0.74900  1.0000
  Mo  Mo3       1.0  0.14600  0.29300  0.24800  1.0000
  Mo  Mo4       1.0  0.70900  0.85600  0.24900  1.0000
  Mo  Mo5       1.0  0.29100  0.14400  0.74900  1.0000
  Mo  Mo6       1.0  0.85400  0.70700  0.74800  1.0000
  O   O1        1.0  0.16800  0.83400  0.63100  1.0000
  O   O2        1.0  0.83200  0.16600  0.13100  1.0000
  O   O3        1.0  0.16500  0.33000  0.62900  1.0000
  O   O4        1.0  0.66600  0.83400  0.63100  1.0000
  O   O5        1.0  0.33400  0.16600  0.13100  1.0000
  O   O6        1.0  0.83500  0.67000  0.12900  1.0000
  O   O7        1.0  0.49000  0.51000  0.36100  1.0000
  O   O8        1.0  0.51000  0.49000  0.86100  1.0000
  O   O9        1.0  0.48500  0.97100  0.36800  1.0000
  O   O10       1.0  0.01990  0.51000  0.36100  1.0000
  O   O11       1.0  0.98000  0.49000  0.86100  1.0000
  O   O12       1.0  0.51500  0.02950  0.86800  1.0000
  O   O13       1.0  0.33500  0.67000  0.14600  1.0000
  O   O14       1.0  0.66500  0.33000  0.64600  1.0000
  O   O15       1.0  0.00072  0.00144  0.39300  1.0000
  O   O16       1.0  0.99900  0.99900  0.89300  1.0000
