# generated using pymatgen
data_GaN
_symmetry_space_group_name_H-M   'P 1'
_cell_length_a   11.22754694
_cell_length_b   11.45982188
_cell_length_c   12.15697066
_cell_angle_alpha   88.61837338
_cell_angle_beta   90.03154698
_cell_angle_gamma   89.48532843
_symmetry_Int_Tables_number   1
_chemical_formula_structural   GaN
_chemical_formula_sum   'Ga50 N50'
_cell_volume   1563.66669557
_cell_formula_units_Z   50
loop_
 _symmetry_equiv_pos_site_id
 _symmetry_equiv_pos_as_xyz
  1  'x, y, z'
loop_
 _atom_site_type_symbol
 _atom_site_label
 _atom_site_symmetry_multiplicity
 _atom_site_fract_x
 _atom_site_fract_y
 _atom_site_fract_z
 _atom_site_occupancy
  Ga  Ga0  1  0.90871722  0.94793680  0.43417238  1
  Ga  Ga1  1  0.08348694  0.79572231  0.29869077  1
  Ga  Ga2  1  0.79379542  0.85826069  -0.00145442  1
  Ga  Ga3  1  0.06249928  0.92495878  0.80926889  1
  Ga  Ga4  1  0.22163807  0.17777968  0.12908582  1
  Ga  Ga5  1  0.15931387  0.58579366  0.82968809  1
  Ga  Ga6  1  0.56895095  0.77917743  0.81933661  1
  Ga  Ga7  1  0.93942764  0.14587001  0.25224074  1
  Ga  Ga8  1  0.36948593  0.11478223  0.69828941  1
  Ga  Ga9  1  0.50536012  0.03108344  0.07492932  1
  Ga  Ga10  1  0.37011788  0.83402208  0.58734988  1
  Ga  Ga11  1  0.34276714  0.01391406  0.89265346  1
  Ga  Ga12  1  0.43661746  0.34615643  0.17891931  1
  Ga  Ga13  1  0.71583609  0.37610705  0.23084923  1
  Ga  Ga14  1  0.11318028  0.12022943  0.48169347  1
  Ga  Ga15  1  0.60747619  0.04936434  0.87992789  1
  Ga  Ga16  1  0.19634008  0.99182459  0.64671866  1
  Ga  Ga17  1  0.48918589  0.54887094  0.86291349  1
  Ga  Ga18  1  0.13961890  0.78977139  0.56773371  1
  Ga  Ga19  1  0.08599332  0.34907408  0.49127989  1
  Ga  Ga20  1  0.66511605  0.91226537  0.41765549  1
  Ga  Ga21  1  0.51782232  0.64742352  0.58837296  1
  Ga  Ga22  1  0.88774954  0.56687757  0.30826699  1
  Ga  Ga23  1  0.79784059  0.30335351  0.83104777  1
  Ga  Ga24  1  0.31186121  0.37574621  0.57991172  1
  Ga  Ga25  1  0.34451077  0.79413397  0.81370860  1
  Ga  Ga26  1  0.94559645  0.61982472  0.09136353  1
  Ga  Ga27  1  0.14024538  0.31652222  0.28798722  1
  Ga  Ga28  1  0.47324831  0.83263687  0.29415847  1
  Ga  Ga29  1  0.70525990  0.10746218  0.15170740  1
  Ga  Ga30  1  0.84319484  0.39529445  0.65780734  1
  Ga  Ga31  1  0.81719297  0.16601187  0.56822139  1
  Ga  Ga32  1  0.53615511  0.97560258  0.63852983  1
  Ga  Ga33  1  0.93056349  0.67447959  0.54067486  1
  Ga  Ga34  1  0.27636279  0.92015347  0.11996219  1
  Ga  Ga35  1  0.08639782  0.54844666  0.63278600  1
  Ga  Ga36  1  0.74868719  0.59427835  0.69269779  1
  Ga  Ga37  1  0.78939704  0.89941760  0.67481330  1
  Ga  Ga38  1  0.95947582  0.72727868  0.81281099  1
  Ga  Ga39  1  0.80316066  0.78399736  0.21442926  1
  Ga  Ga40  1  0.76709449  0.38521196  0.44693795  1
  Ga  Ga41  1  0.88336282  0.36102180  0.07795015  1
  Ga  Ga42  1  0.97463075  0.93119365  0.10116035  1
  Ga  Ga43  1  0.57353239  0.26755370  0.69209194  1
  Ga  Ga44  1  0.57846983  0.76611476  0.08335896  1
  Ga  Ga45  1  0.31157315  0.59268564  0.64645200  1
  Ga  Ga46  1  0.28542454  0.77795116  0.39124276  1
  Ga  Ga47  1  0.67909862  0.66826611  0.44742783  1
  Ga  Ga48  1  0.59718563  0.36539956  0.96096515  1
  Ga  Ga49  1  0.73984662  0.58160578  0.95161767  1
  N  N50  1  0.59208619  0.15135867  0.37551982  1
  N  N51  1  0.32677472  0.34709751  0.94800555  1
  N  N52  1  0.36092858  0.02438965  0.38743220  1
  N  N53  1  0.77452770  0.99279110  0.53621440  1
  N  N54  1  0.00392233  0.80820895  0.45645192  1
  N  N55  1  0.84664321  0.73658524  0.67762500  1
  N  N56  1  0.69713411  0.29803571  0.58688898  1
  N  N57  1  0.58860503  0.63047493  0.73715742  1
  N  N58  1  0.83579213  0.01203962  0.21556796  1
  N  N59  1  0.33480275  0.62651687  0.16405612  1
  N  N60  1  0.58187789  0.35834244  0.12311697  1
  N  N61  1  0.58852896  0.66883588  0.95596521  1
  N  N62  1  0.10977986  0.54395612  0.39365436  1
  N  N63  1  0.82427555  0.56732274  0.45313568  1
  N  N64  1  0.12672635  0.30104385  0.73589872  1
  N  N65  1  0.90184573  0.02078448  0.75678621  1
  N  N66  1  0.06828982  0.22080190  0.17630480  1
  N  N67  1  0.67552253  0.67770362  0.28959052  1
  N  N68  1  0.40770563  0.27415790  0.66928017  1
  N  N69  1  0.87110704  0.68657689  0.95405391  1
  N  N70  1  0.12109488  0.68658270  0.05756784  1
  N  N71  1  0.17310030  0.68573834  0.97628149  1
  N  N72  1  0.29294036  0.27782385  0.89289918  1
  N  N73  1  0.12252839  0.91289844  0.17994213  1
  N  N74  1  0.47443145  0.45240299  0.33508714  1
  N  N75  1  0.33007372  0.61330994  0.81197544  1
  N  N76  1  0.91510017  0.31724522  0.52867789  1
  N  N77  1  0.44548450  0.87564914  0.13120371  1
  N  N78  1  0.43635194  0.51638732  0.39476864  1
  N  N79  1  0.09197200  0.45876266  0.93614784  1
  N  N80  1  0.57803366  0.71050081  0.23791338  1
  N  N81  1  0.97662625  0.09423958  0.40035716  1
  N  N82  1  0.80830729  0.92428037  0.29962472  1
  N  N83  1  0.20114262  0.58667348  0.38181743  1
  N  N84  1  0.32230550  0.07187112  0.05580587  1
  N  N85  1  0.95923086  0.69774294  0.23513527  1
  N  N86  1  0.35895425  0.55140813  0.11111838  1
  N  N87  1  0.02788288  0.46669727  0.01296449  1
  N  N88  1  0.97250139  0.19898107  0.93079148  1
  N  N89  1  0.84754905  0.49150873  0.17563120  1
  N  N90  1  0.80956449  0.24117183  0.17333228  1
  N  N91  1  0.51708899  0.21147952  0.39710123  1
  N  N92  1  0.27973971  0.07459074  0.35668334  1
  N  N93  1  0.09060695  0.21143270  0.72285065  1
  N  N94  1  0.87945399  0.12088660  0.73004198  1
  N  N95  1  0.63692676  0.22622717  0.84481277  1
  N  N96  1  0.64491257  0.92388340  0.76261321  1
  N  N97  1  0.03271076  0.12028182  0.94448676  1
  N  N98  1  0.29088255  0.30099765  0.21045332  1
  N  N99  1  0.76911590  0.41353910  0.95458339  1
