# generated using pymatgen
data_ZnCrBiO5
_symmetry_space_group_name_H-M   'P 1'
_cell_length_a   5.31438700
_cell_length_b   10.72320800
_cell_length_c   15.26619100
_cell_angle_alpha   90.00000000
_cell_angle_beta   90.00000000
_cell_angle_gamma   90.00000000
_symmetry_Int_Tables_number   1
_chemical_formula_structural   ZnCrBiO5
_chemical_formula_sum   'Zn8 Cr8 Bi8 O40'
_cell_volume   869.97865821
_cell_formula_units_Z   8
loop_
 _symmetry_equiv_pos_site_id
 _symmetry_equiv_pos_as_xyz
  1  'x, y, z'
loop_
 _atom_site_type_symbol
 _atom_site_label
 _atom_site_symmetry_multiplicity
 _atom_site_fract_x
 _atom_site_fract_y
 _atom_site_fract_z
 _atom_site_occupancy
  Zn  Zn0  1  0.49984000  0.35896300  0.45131400  1
  Zn  Zn1  1  0.99984000  0.14103700  0.45131400  1
  Zn  Zn2  1  0.99984000  0.64103700  0.04868600  1
  Zn  Zn3  1  0.00016000  0.35896300  0.95131400  1
  Zn  Zn4  1  0.50016000  0.14103700  0.95131400  1
  Zn  Zn5  1  0.00016000  0.85896300  0.54868600  1
  Zn  Zn6  1  0.50016000  0.64103700  0.54868600  1
  Zn  Zn7  1  0.49984000  0.85896300  0.04868600  1
  Cr  Cr8  1  0.97270800  0.39742500  0.59048400  1
  Cr  Cr9  1  0.52729200  0.89742500  0.40951600  1
  Cr  Cr10  1  0.02729200  0.60257500  0.40951600  1
  Cr  Cr11  1  0.47270800  0.10257500  0.59048400  1
  Cr  Cr12  1  0.02729200  0.10257500  0.09048400  1
  Cr  Cr13  1  0.97270800  0.89742500  0.90951600  1
  Cr  Cr14  1  0.52729200  0.39742500  0.09048400  1
  Cr  Cr15  1  0.47270800  0.60257500  0.90951600  1
  Bi  Bi16  1  0.97613800  0.85436100  0.22796600  1
  Bi  Bi17  1  0.02386200  0.14563900  0.77203400  1
  Bi  Bi18  1  0.52386200  0.35436100  0.77203400  1
  Bi  Bi19  1  0.02386200  0.64563900  0.72796600  1
  Bi  Bi20  1  0.47613800  0.14563900  0.27203400  1
  Bi  Bi21  1  0.47613800  0.64563900  0.22796600  1
  Bi  Bi22  1  0.52386200  0.85436100  0.72796600  1
  Bi  Bi23  1  0.97613800  0.35436100  0.27203400  1
  O  O24  1  0.92483200  0.33293300  0.69631900  1
  O  O25  1  0.31248000  0.04196800  0.05676600  1
  O  O26  1  0.18752000  0.54196800  0.94323400  1
  O  O27  1  0.28472700  0.77863400  0.14504800  1
  O  O28  1  0.21527300  0.27863400  0.85495200  1
  O  O29  1  0.92483200  0.83293300  0.80368100  1
  O  O30  1  0.21527300  0.77863400  0.64504800  1
  O  O31  1  0.57516800  0.83293300  0.30368100  1
  O  O32  1  0.31248000  0.54196800  0.44323400  1
  O  O33  1  0.07516800  0.66706700  0.30368100  1
  O  O34  1  0.57516800  0.33293300  0.19631900  1
  O  O35  1  0.64277300  0.20038300  0.52649000  1
  O  O36  1  0.81248000  0.95803200  0.44323400  1
  O  O37  1  0.71527300  0.72136600  0.64504800  1
  O  O38  1  0.17179500  0.02359100  0.88254000  1
  O  O39  1  0.81248000  0.45803200  0.05676600  1
  O  O40  1  0.07516800  0.16706700  0.19631900  1
  O  O41  1  0.78472700  0.22136600  0.35495200  1
  O  O42  1  0.14277300  0.79961700  0.97351000  1
  O  O43  1  0.18752000  0.04196800  0.55676600  1
  O  O44  1  0.35722700  0.79961700  0.47351000  1
  O  O45  1  0.82820500  0.97640900  0.11746000  1
  O  O46  1  0.71527300  0.22136600  0.85495200  1
  O  O47  1  0.67179500  0.97640900  0.61746000  1
  O  O48  1  0.35722700  0.29961700  0.02649000  1
  O  O49  1  0.14277300  0.29961700  0.52649000  1
  O  O50  1  0.68752000  0.45803200  0.55676600  1
  O  O51  1  0.68752000  0.95803200  0.94323400  1
  O  O52  1  0.67179500  0.47640900  0.88254000  1
  O  O53  1  0.85722700  0.70038300  0.47351000  1
  O  O54  1  0.85722700  0.20038300  0.02649000  1
  O  O55  1  0.64277300  0.70038300  0.97351000  1
  O  O56  1  0.82820500  0.47640900  0.38254000  1
  O  O57  1  0.78472700  0.72136600  0.14504800  1
  O  O58  1  0.28472700  0.27863400  0.35495200  1
  O  O59  1  0.17179500  0.52359100  0.61746000  1
  O  O60  1  0.32820500  0.52359100  0.11746000  1
  O  O61  1  0.42483200  0.16706700  0.69631900  1
  O  O62  1  0.32820500  0.02359100  0.38254000  1
  O  O63  1  0.42483200  0.66706700  0.80368100  1
