# generated using pymatgen
data_ZnS
_symmetry_space_group_name_H-M   'P 1'
_cell_length_a   12.95682061
_cell_length_b   13.58353760
_cell_length_c   13.53005066
_cell_angle_alpha   88.39182336
_cell_angle_beta   86.95992094
_cell_angle_gamma   95.61167590
_symmetry_Int_Tables_number   1
_chemical_formula_structural   ZnS
_chemical_formula_sum   'Zn50 S50'
_cell_volume   2365.20921388
_cell_formula_units_Z   50
loop_
 _symmetry_equiv_pos_site_id
 _symmetry_equiv_pos_as_xyz
  1  'x, y, z'
loop_
 _atom_site_type_symbol
 _atom_site_label
 _atom_site_symmetry_multiplicity
 _atom_site_fract_x
 _atom_site_fract_y
 _atom_site_fract_z
 _atom_site_occupancy
  Zn  Zn0  1  0.04209631  0.15666733  0.68589438  1
  Zn  Zn1  1  0.34058800  0.57141437  0.54771927  1
  Zn  Zn2  1  0.73334010  0.08260422  0.94542141  1
  Zn  Zn3  1  0.70923686  0.45217029  0.44683243  1
  Zn  Zn4  1  0.07765764  0.83107084  0.65090068  1
  Zn  Zn5  1  0.43501483  0.03087352  0.46247870  1
  Zn  Zn6  1  0.93599142  0.55311589  0.29001007  1
  Zn  Zn7  1  0.36004576  0.96044578  0.19850181  1
  Zn  Zn8  1  0.57330991  0.52419553  0.98652397  1
  Zn  Zn9  1  0.64947403  0.88813775  0.13714100  1
  Zn  Zn10  1  0.91421975  0.31400780  0.54754337  1
  Zn  Zn11  1  0.48058323  0.95680566  0.93528176  1
  Zn  Zn12  1  0.10186231  0.92347196  0.23021459  1
  Zn  Zn13  1  0.93104080  0.29533886  0.73993344  1
  Zn  Zn14  1  0.52749960  0.88588671  0.52453059  1
  Zn  Zn15  1  0.43362305  0.72012087  0.05336827  1
  Zn  Zn16  1  0.00126403  0.80668194  0.81749877  1
  Zn  Zn17  1  0.04506226  0.06294636  0.47803039  1
  Zn  Zn18  1  0.29632131  0.17741942  0.08287683  1
  Zn  Zn19  1  0.40006087  0.57149517  0.21951242  1
  Zn  Zn20  1  0.11238903  0.26481109  0.81995332  1
  Zn  Zn21  1  0.17454548  0.03202885  0.94605400  1
  Zn  Zn22  1  0.59498137  0.21651633  0.55161491  1
  Zn  Zn23  1  0.46385815  0.82181966  0.69953358  1
  Zn  Zn24  1  0.54930290  0.56980278  0.64043510  1
  Zn  Zn25  1  0.94918436  0.56708518  0.89169016  1
  Zn  Zn26  1  0.47547789  0.11192736  0.75769521  1
  Zn  Zn27  1  0.63494757  0.51596553  0.21425798  1
  Zn  Zn28  1  0.74389625  0.18440554  0.40820236  1
  Zn  Zn29  1  0.43453252  0.26801130  0.97670007  1
  Zn  Zn30  1  0.00020339  0.80033391  0.43849740  1
  Zn  Zn31  1  0.63432270  0.93231272  0.67462831  1
  Zn  Zn32  1  0.98334360  0.13946551  0.10726405  1
  Zn  Zn33  1  0.48260067  0.20422958  0.15714358  1
  Zn  Zn34  1  0.65597686  0.29218810  0.86701534  1
  Zn  Zn35  1  0.30633622  0.70029361  0.87420875  1
  Zn  Zn36  1  0.81116890  0.93148392  0.30342617  1
  Zn  Zn37  1  0.22822877  0.33255867  0.55420561  1
  Zn  Zn38  1  0.25469309  0.56288879  0.76556888  1
  Zn  Zn39  1  0.84593605  0.34425787  0.24563228  1
  Zn  Zn40  1  0.74906196  0.62153513  0.82581689  1
  Zn  Zn41  1  0.58386071  0.98019263  0.34776977  1
  Zn  Zn42  1  0.47543533  0.42650011  0.42343594  1
  Zn  Zn43  1  0.13089505  0.71054607  0.50840438  1
  Zn  Zn44  1  0.22592130  0.50184790  0.28721665  1
  Zn  Zn45  1  0.04840070  0.43381157  0.11513359  1
  Zn  Zn46  1  0.94322869  0.97424760  0.04945555  1
  Zn  Zn47  1  0.83099096  0.40180883  0.02359674  1
  Zn  Zn48  1  0.04186151  0.44106121  0.62687548  1
  Zn  Zn49  1  0.81199578  0.99450045  0.63038553  1
  S  S50  1  0.47739095  0.88994695  0.08847858  1
  S  S51  1  0.48870527  0.27237214  0.81575992  1
  S  S52  1  0.25149773  0.94869383  0.44103166  1
  S  S53  1  0.63782661  0.20024355  0.04393413  1
  S  S54  1  0.32700812  0.31352899  0.41080656  1
  S  S55  1  0.22054166  0.01765439  0.11916616  1
  S  S56  1  0.00519664  0.81479260  0.13285767  1
  S  S57  1  0.71438244  0.45482318  0.91194200  1
  S  S58  1  0.79690651  0.20930114  0.82898512  1
  S  S59  1  0.95713896  0.56360231  0.70836617  1
  S  S60  1  0.02724382  0.95550212  0.89441543  1
  S  S61  1  0.50493700  0.74065234  0.85085815  1
  S  S62  1  0.16891320  0.20409727  0.96412938  1
  S  S63  1  0.57579828  0.64300147  0.10644577  1
  S  S64  1  0.87928534  0.70290448  0.34672119  1
  S  S65  1  0.78620168  0.24510349  0.10073442  1
  S  S66  1  0.60411532  0.02127876  0.82317499  1
  S  S67  1  0.00342188  0.42746786  0.95075304  1
  S  S68  1  0.43278464  0.44066620  0.59594542  1
  S  S69  1  0.42887466  0.42211177  0.05209998  1
  S  S70  1  0.59833677  0.55517248  0.37489988  1
  S  S71  1  0.82047440  0.60331478  0.65269204  1
  S  S72  1  0.25455773  0.85748149  0.56607656  1
  S  S73  1  0.86606456  0.78378498  0.21340505  1
  S  S74  1  0.45371077  0.08034393  0.28425780  1
  S  S75  1  -0.00512651  0.99585550  0.63420950  1
  S  S76  1  0.17571167  0.55130737  0.49384063  1
  S  S77  1  0.77255870  0.18382717  0.57265796  1
  S  S78  1  0.80822954  0.49747120  0.17123314  1
  S  S79  1  0.87243727  0.70586178  0.91367801  1
  S  S80  1  0.56717624  0.60953866  0.81912822  1
  S  S81  1  0.18875580  0.40011703  0.71195497  1
  S  S82  1  0.33242417  -0.00419974  0.85332907  1
  S  S83  1  0.00199851  0.28381235  0.19730674  1
  S  S84  1  0.07227151  0.22651833  0.51570646  1
  S  S85  1  0.22452669  0.33066010  0.30071747  1
  S  S86  1  0.46781244  0.70176029  0.57134039  1
  S  S87  1  0.64617648  0.83416631  0.29850419  1
  S  S88  1  0.70429610  0.48711920  0.62508018  1
  S  S89  1  0.30199268  0.85810741  0.78398664  1
  S  S90  1  0.49711806  0.38066536  0.18330038  1
  S  S91  1  0.24581355  0.85824402  0.31713209  1
  S  S92  1  0.09331668  0.56713045  0.20593559  1
  S  S93  1  0.26874567  0.67136978  0.03557239  1
  S  S94  1  0.73888792  0.07905823  0.28859421  1
  S  S95  1  -0.01510724  0.95723806  0.36145829  1
  S  S96  1  0.61472350  0.29977654  0.40141845  1
  S  S97  1  0.87740013  0.41508923  0.40581739  1
  S  S98  1  0.43610131  0.13978621  0.59394013  1
  S  S99  1  0.76707235  0.93388456  0.01245271  1
