# generated using pymatgen
data_Cr(FeO2)3
_symmetry_space_group_name_H-M   'P 1'
_cell_length_a   10.16757023
_cell_length_b   10.22136074
_cell_length_c   10.16764639
_cell_angle_alpha   89.71490053
_cell_angle_beta   91.43533103
_cell_angle_gamma   91.67526470
_symmetry_Int_Tables_number   1
_chemical_formula_structural   Cr(FeO2)3
_chemical_formula_sum   'Cr8 Fe24 O48'
_cell_volume   1055.89433095
_cell_formula_units_Z   8
loop_
 _symmetry_equiv_pos_site_id
 _symmetry_equiv_pos_as_xyz
  1  'x, y, z'
loop_
 _atom_site_type_symbol
 _atom_site_label
 _atom_site_symmetry_multiplicity
 _atom_site_fract_x
 _atom_site_fract_y
 _atom_site_fract_z
 _atom_site_occupancy
  Cr  Cr0  1  0.62654800  0.82172200  0.63522100  1
  Cr  Cr1  1  0.33664900  0.04907300  0.89025400  1
  Cr  Cr2  1  0.55052400  0.29924300  0.94106100  1
  Cr  Cr3  1  0.76200200  0.54667500  0.78730300  1
  Cr  Cr4  1  0.75578000  0.36703900  0.52544700  1
  Cr  Cr5  1  0.30208500  0.61189500  0.16417200  1
  Cr  Cr6  1  0.04379400  0.06854300  0.51320300  1
  Cr  Cr7  1  0.04520900  0.27465800  0.81833100  1
  Fe  Fe8  1  0.12466600  0.78018800  0.43534800  1
  Fe  Fe9  1  0.32777800  0.33309300  0.70305300  1
  Fe  Fe10  1  0.67056300  0.04684200  0.97333100  1
  Fe  Fe11  1  0.02845200  0.53266800  0.66175500  1
  Fe  Fe12  1  0.84638300  0.77135400  0.37474500  1
  Fe  Fe13  1  0.32103000  0.53663500  0.51257300  1
  Fe  Fe14  1  0.45236800  0.91427200  0.34540900  1
  Fe  Fe15  1  0.84803100  0.79810800  0.83022600  1
  Fe  Fe16  1  0.66885700  0.80500700  0.12594400  1
  Fe  Fe17  1  0.02251500  0.55673800  0.95428800  1
  Fe  Fe18  1  0.69494600  0.44934000  0.18739400  1
  Fe  Fe19  1  0.33236300  0.98950000  0.61416200  1
  Fe  Fe20  1  0.32881000  0.22027400  0.37410500  1
  Fe  Fe21  1  0.56904700  0.64813100  0.37000100  1
  Fe  Fe22  1  0.45985300  0.55873400  0.86677500  1
  Fe  Fe23  1  0.80574000  0.12196000  0.73409100  1
  Fe  Fe24  1  0.88415700  0.05509100  0.25846500  1
  Fe  Fe25  1  0.21429600  0.99462300  0.19707000  1
  Fe  Fe26  1  0.87593300  0.27500300  0.05085000  1
  Fe  Fe27  1  0.24748800  0.31419000  0.05480100  1
  Fe  Fe28  1  0.06109800  0.02386300  0.96753200  1
  Fe  Fe29  1  0.04066200  0.51570400  0.23280000  1
  Fe  Fe30  1  0.16546500  0.80138800  0.77154800  1
  Fe  Fe31  1  0.55306600  0.14083300  0.18490000  1
  O  O32  1  0.74441800  0.20829700  0.57539700  1
  O  O33  1  0.80184700  0.88649800  0.23804600  1
  O  O34  1  0.24381500  0.44047900  0.20069600  1
  O  O35  1  0.16357000  0.88393500  0.59914600  1
  O  O36  1  0.54052700  0.92887900  0.17576000  1
  O  O37  1  0.34062300  0.35336100  0.50200800  1
  O  O38  1  0.96150800  0.16392800  0.39079300  1
  O  O39  1  0.99102600  0.66987300  0.33944900  1
  O  O40  1  0.18791600  0.16883100  0.91352800  1
  O  O41  1  0.48064900  0.12423400  0.99824300  1
  O  O42  1  0.54820300  0.32751600  0.13190400  1
  O  O43  1  0.37279100  0.37632800  0.90942300  1
  O  O44  1  0.38282900  0.61652900  0.34757100  1
  O  O45  1  0.67626300  0.45500000  0.63370300  1
  O  O46  1  0.39594000  0.52495300  0.68910500  1
  O  O47  1  0.99107600  0.13159500  0.67114400  1
  O  O48  1  0.22296400  0.09404900  0.47375700  1
  O  O49  1  0.27042500  0.18023600  0.19611100  1
  O  O50  1  0.75249900  0.93684400  0.70111000  1
  O  O51  1  0.25499900  0.85555100  0.31677200  1
  O  O52  1  0.88528100  0.66624900  0.68494900  1
  O  O53  1  0.33487800  0.89150700  0.78579000  1
  O  O54  1  0.68397700  0.64549100  0.22273900  1
  O  O55  1  0.37322500  0.14652800  0.71833600  1
  O  O56  1  0.62179300  0.47585200  0.90460400  1
  O  O57  1  0.92060300  0.43072500  0.80132700  1
  O  O58  1  0.13181400  0.62432000  0.81394300  1
  O  O59  1  0.88337400  0.42275600  0.16492400  1
  O  O60  1  0.75027100  0.14149700  0.14905000  1
  O  O61  1  0.67915100  0.38738200  0.38170100  1
  O  O62  1  0.07663000  0.37214400  0.98886900  1
  O  O63  1  0.01791400  0.88338100  0.84995300  1
  O  O64  1  0.90993000  0.42600600  0.52341300  1
  O  O65  1  0.92049600  0.14503700  0.91076800  1
  O  O66  1  0.15852900  0.61626600  0.53449200  1
  O  O67  1  0.68999600  0.75255100  0.48097400  1
  O  O68  1  0.47810000  0.88889100  0.54692400  1
  O  O69  1  0.03244500  0.02633200  0.15252900  1
  O  O70  1  0.14924800  0.37573100  0.69655900  1
  O  O71  1  0.72579500  0.86807600  0.96160900  1
  O  O72  1  0.23813200  0.94507900  0.02202100  1
  O  O73  1  0.85534500  0.64041600  0.94034000  1
  O  O74  1  0.68078200  0.19867400  0.84927600  1
  O  O75  1  0.61687300  0.69624100  0.75697500  1
  O  O76  1  0.48275300  0.11921700  0.35793500  1
  O  O77  1  0.97320800  0.91107700  0.43672400  1
  O  O78  1  0.13812600  0.64233200  0.09848800  1
  O  O79  1  0.41198300  0.63592700  0.03477300  1
