# generated using pymatgen
data_MgMnN2
_symmetry_space_group_name_H-M   'P 1'
_cell_length_a   5.17812300
_cell_length_b   11.27037400
_cell_length_c   13.38409600
_cell_angle_alpha   90.00000000
_cell_angle_beta   90.00000000
_cell_angle_gamma   90.00000000
_symmetry_Int_Tables_number   1
_chemical_formula_structural   MgMnN2
_chemical_formula_sum   'Mg16 Mn16 N32'
_cell_volume   781.08758227
_cell_formula_units_Z   16
loop_
 _symmetry_equiv_pos_site_id
 _symmetry_equiv_pos_as_xyz
  1  'x, y, z'
loop_
 _atom_site_type_symbol
 _atom_site_label
 _atom_site_symmetry_multiplicity
 _atom_site_fract_x
 _atom_site_fract_y
 _atom_site_fract_z
 _atom_site_occupancy
  Mg  Mg0  1  0.59186800  0.04902200  0.17779300  1
  Mg  Mg1  1  0.09186800  0.45097800  0.82220700  1
  Mg  Mg2  1  0.40813200  0.54902200  0.32220700  1
  Mg  Mg3  1  0.90813200  0.95097800  0.67779300  1
  Mg  Mg4  1  0.40813200  0.95097800  0.82220700  1
  Mg  Mg5  1  0.90813200  0.54902200  0.17779300  1
  Mg  Mg6  1  0.59186800  0.45097800  0.67779300  1
  Mg  Mg7  1  0.09186800  0.04902200  0.32220700  1
  Mg  Mg8  1  0.85560800  0.29612000  0.06646800  1
  Mg  Mg9  1  0.35560800  0.20388000  0.93353200  1
  Mg  Mg10  1  0.14439200  0.79612000  0.43353200  1
  Mg  Mg11  1  0.64439200  0.70388000  0.56646800  1
  Mg  Mg12  1  0.14439200  0.70388000  0.93353200  1
  Mg  Mg13  1  0.64439200  0.79612000  0.06646800  1
  Mg  Mg14  1  0.85560800  0.20388000  0.56646800  1
  Mg  Mg15  1  0.35560800  0.29612000  0.43353200  1
  Mn  Mn16  1  0.62335200  0.95044600  0.43749400  1
  Mn  Mn17  1  0.12335200  0.54955400  0.56250600  1
  Mn  Mn18  1  0.37664800  0.45044600  0.06250600  1
  Mn  Mn19  1  0.87664800  0.04955400  0.93749400  1
  Mn  Mn20  1  0.37664800  0.04955400  0.56250600  1
  Mn  Mn21  1  0.87664800  0.45044600  0.43749400  1
  Mn  Mn22  1  0.62335200  0.54955400  0.93749400  1
  Mn  Mn23  1  0.12335200  0.95044600  0.06250600  1
  Mn  Mn24  1  0.83414200  0.30421800  0.30055700  1
  Mn  Mn25  1  0.33414200  0.19578200  0.69944300  1
  Mn  Mn26  1  0.16585800  0.80421800  0.19944300  1
  Mn  Mn27  1  0.66585800  0.69578200  0.80055700  1
  Mn  Mn28  1  0.16585800  0.69578200  0.69944300  1
  Mn  Mn29  1  0.66585800  0.80421800  0.30055700  1
  Mn  Mn30  1  0.83414200  0.19578200  0.80055700  1
  Mn  Mn31  1  0.33414200  0.30421800  0.19944300  1
  N  N32  1  0.78504500  0.47390400  0.31037200  1
  N  N33  1  0.28504500  0.02609600  0.68962800  1
  N  N34  1  0.21495500  0.97390400  0.18962800  1
  N  N35  1  0.71495500  0.52609600  0.81037200  1
  N  N36  1  0.21495500  0.52609600  0.68962800  1
  N  N37  1  0.71495500  0.97390400  0.31037200  1
  N  N38  1  0.78504500  0.02609600  0.81037200  1
  N  N39  1  0.28504500  0.47390400  0.18962800  1
  N  N40  1  0.76882600  0.29734100  0.44009200  1
  N  N41  1  0.26882600  0.20265900  0.55990800  1
  N  N42  1  0.23117400  0.79734100  0.05990800  1
  N  N43  1  0.73117400  0.70265900  0.94009200  1
  N  N44  1  0.23117400  0.70265900  0.55990800  1
  N  N45  1  0.73117400  0.79734100  0.44009200  1
  N  N46  1  0.76882600  0.20265900  0.94009200  1
  N  N47  1  0.26882600  0.29734100  0.05990800  1
  N  N48  1  0.71868100  0.46952700  0.05129800  1
  N  N49  1  0.21868100  0.03047300  0.94870200  1
  N  N50  1  0.28131900  0.96952700  0.44870200  1
  N  N51  1  0.78131900  0.53047300  0.55129800  1
  N  N52  1  0.28131900  0.53047300  0.94870200  1
  N  N53  1  0.78131900  0.96952700  0.05129800  1
  N  N54  1  0.71868100  0.03047300  0.55129800  1
  N  N55  1  0.21868100  0.46952700  0.44870200  1
  N  N56  1  0.65959300  0.23372100  0.19800000  1
  N  N57  1  0.15959300  0.26627900  0.80200000  1
  N  N58  1  0.34040700  0.73372100  0.30200000  1
  N  N59  1  0.84040700  0.76627900  0.69800000  1
  N  N60  1  0.34040700  0.76627900  0.80200000  1
  N  N61  1  0.84040700  0.73372100  0.19800000  1
  N  N62  1  0.65959300  0.26627900  0.69800000  1
  N  N63  1  0.15959300  0.23372100  0.30200000  1
