# generated using pymatgen
data_CdGeN2
_symmetry_space_group_name_H-M   'P 1'
_cell_length_a   5.52620300
_cell_length_b   11.07878900
_cell_length_c   14.29200100
_cell_angle_alpha   90.00000000
_cell_angle_beta   90.00000000
_cell_angle_gamma   90.00000000
_symmetry_Int_Tables_number   1
_chemical_formula_structural   CdGeN2
_chemical_formula_sum   'Cd16 Ge16 N32'
_cell_volume   875.00828134
_cell_formula_units_Z   16
loop_
 _symmetry_equiv_pos_site_id
 _symmetry_equiv_pos_as_xyz
  1  'x, y, z'
loop_
 _atom_site_type_symbol
 _atom_site_label
 _atom_site_symmetry_multiplicity
 _atom_site_fract_x
 _atom_site_fract_y
 _atom_site_fract_z
 _atom_site_occupancy
  Cd  Cd0  1  0.72311800  0.97384900  0.43874300  1
  Cd  Cd1  1  0.22311800  0.52615100  0.56125700  1
  Cd  Cd2  1  0.27688200  0.47384900  0.06125700  1
  Cd  Cd3  1  0.77688200  0.02615100  0.93874300  1
  Cd  Cd4  1  0.27688200  0.02615100  0.56125700  1
  Cd  Cd5  1  0.77688200  0.47384900  0.43874300  1
  Cd  Cd6  1  0.72311800  0.52615100  0.93874300  1
  Cd  Cd7  1  0.22311800  0.97384900  0.06125700  1
  Cd  Cd8  1  0.79427000  0.25902300  0.31068600  1
  Cd  Cd9  1  0.29427000  0.24097700  0.68931400  1
  Cd  Cd10  1  0.20573000  0.75902300  0.18931400  1
  Cd  Cd11  1  0.70573000  0.74097700  0.81068600  1
  Cd  Cd12  1  0.20573000  0.74097700  0.68931400  1
  Cd  Cd13  1  0.70573000  0.75902300  0.31068600  1
  Cd  Cd14  1  0.79427000  0.24097700  0.81068600  1
  Cd  Cd15  1  0.29427000  0.25902300  0.18931400  1
  Ge  Ge16  1  0.68688800  0.02268400  0.18706500  1
  Ge  Ge17  1  0.18688800  0.47731600  0.81293500  1
  Ge  Ge18  1  0.31311200  0.52268400  0.31293500  1
  Ge  Ge19  1  0.81311200  0.97731600  0.68706500  1
  Ge  Ge20  1  0.31311200  0.97731600  0.81293500  1
  Ge  Ge21  1  0.81311200  0.52268400  0.18706500  1
  Ge  Ge22  1  0.68688800  0.47731600  0.68706500  1
  Ge  Ge23  1  0.18688800  0.02268400  0.31293500  1
  Ge  Ge24  1  0.78809900  0.27902200  0.06151000  1
  Ge  Ge25  1  0.28809900  0.22097800  0.93849000  1
  Ge  Ge26  1  0.21190100  0.77902200  0.43849000  1
  Ge  Ge27  1  0.71190100  0.72097800  0.56151000  1
  Ge  Ge28  1  0.21190100  0.72097800  0.93849000  1
  Ge  Ge29  1  0.71190100  0.77902200  0.06151000  1
  Ge  Ge30  1  0.78809900  0.22097800  0.56151000  1
  Ge  Ge31  1  0.28809900  0.27902200  0.43849000  1
  N  N32  1  0.63520800  0.47590900  0.29234800  1
  N  N33  1  0.13520800  0.02409100  0.70765200  1
  N  N34  1  0.36479200  0.97590900  0.20765200  1
  N  N35  1  0.86479200  0.52409100  0.79234800  1
  N  N36  1  0.36479200  0.52409100  0.70765200  1
  N  N37  1  0.86479200  0.97590900  0.29234800  1
  N  N38  1  0.63520800  0.02409100  0.79234800  1
  N  N39  1  0.13520800  0.47590900  0.20765200  1
  N  N40  1  0.62619100  0.27277100  0.45430000  1
  N  N41  1  0.12619100  0.22722900  0.54570000  1
  N  N42  1  0.37380900  0.77277100  0.04570000  1
  N  N43  1  0.87380900  0.72722900  0.95430000  1
  N  N44  1  0.37380900  0.72722900  0.54570000  1
  N  N45  1  0.87380900  0.77277100  0.45430000  1
  N  N46  1  0.62619100  0.22722900  0.95430000  1
  N  N47  1  0.12619100  0.27277100  0.04570000  1
  N  N48  1  0.69947000  0.44135700  0.08043500  1
  N  N49  1  0.19947000  0.05864300  0.91956500  1
  N  N50  1  0.30053000  0.94135700  0.41956500  1
  N  N51  1  0.80053000  0.55864300  0.58043500  1
  N  N52  1  0.30053000  0.55864300  0.91956500  1
  N  N53  1  0.80053000  0.94135700  0.08043500  1
  N  N54  1  0.69947000  0.05864300  0.58043500  1
  N  N55  1  0.19947000  0.44135700  0.41956500  1
  N  N56  1  0.68949000  0.19211800  0.16827300  1
  N  N57  1  0.18949000  0.30788200  0.83172700  1
  N  N58  1  0.31051000  0.69211800  0.33172700  1
  N  N59  1  0.81051000  0.80788200  0.66827300  1
  N  N60  1  0.31051000  0.80788200  0.83172700  1
  N  N61  1  0.81051000  0.69211800  0.16827300  1
  N  N62  1  0.68949000  0.30788200  0.66827300  1
  N  N63  1  0.18949000  0.19211800  0.33172700  1
