# generated using pymatgen
data_Li2O
_symmetry_space_group_name_H-M   'P 1'
_cell_length_a   9.59822986
_cell_length_b   10.08017171
_cell_length_c   10.38069533
_cell_angle_alpha   88.35489624
_cell_angle_beta   91.68455038
_cell_angle_gamma   86.99374115
_symmetry_Int_Tables_number   1
_chemical_formula_structural   Li2O
_chemical_formula_sum   'Li68 O34'
_cell_volume   1002.07490754
_cell_formula_units_Z   34
loop_
 _symmetry_equiv_pos_site_id
 _symmetry_equiv_pos_as_xyz
  1  'x, y, z'
loop_
 _atom_site_type_symbol
 _atom_site_label
 _atom_site_symmetry_multiplicity
 _atom_site_fract_x
 _atom_site_fract_y
 _atom_site_fract_z
 _atom_site_occupancy
  Li  Li0  1  0.59273100  0.72558500  0.32875000  1
  Li  Li1  1  0.27368200  0.25075500  0.33860800  1
  Li  Li2  1  0.89773400  0.17038500  0.04598800  1
  Li  Li3  1  0.02541700  0.37496500  0.59328400  1
  Li  Li4  1  0.64646200  0.30562900  0.99417000  1
  Li  Li5  1  0.81239800  0.64752200  0.58199200  1
  Li  Li6  1  0.65617500  0.98677200  0.88274800  1
  Li  Li7  1  0.16768900  0.54382700  0.08125000  1
  Li  Li8  1  0.97677200  0.45461100  0.05329600  1
  Li  Li9  1  0.93447100  0.62469300  0.80107900  1
  Li  Li10  1  0.08746200  0.07864000  0.35463200  1
  Li  Li11  1  0.55797200  0.92557500  0.42161500  1
  Li  Li12  1  0.80879800  0.66050400  0.36532000  1
  Li  Li13  1  0.48079000  0.33576700  0.81304600  1
  Li  Li14  1  0.42740900  0.33602600  0.19980800  1
  Li  Li15  1  0.81312600  0.43584400  0.23024800  1
  Li  Li16  1  0.39262200  0.56615800  0.95127000  1
  Li  Li17  1  0.30770100  0.85035400  0.98277400  1
  Li  Li18  1  0.56636900  0.18133900  0.33067000  1
  Li  Li19  1  0.06633400  0.13201400  0.57907700  1
  Li  Li20  1  0.21081500  0.42510300  0.79865400  1
  Li  Li21  1  0.62514300  0.52108200  0.74289100  1
  Li  Li22  1  0.26979400  0.49722600  0.29409000  1
  Li  Li23  1  0.60227500  0.76754400  0.61894700  1
  Li  Li24  1  0.55975700  0.51698100  0.10444000  1
  Li  Li25  1  0.71491300  0.29014800  0.74164100  1
  Li  Li26  1  0.16385100  0.64076000  0.75868300  1
  Li  Li27  1  0.59907500  0.09303800  0.67165700  1
  Li  Li28  1  0.02945700  0.39913300  0.38037900  1
  Li  Li29  1  0.91343000  0.85910200  0.07669600  1
  Li  Li30  1  0.06364700  0.93690100  0.88785700  1
  Li  Li31  1  0.02386700  0.61145200  0.29973200  1
  Li  Li32  1  0.32060300  0.64565800  0.50823700  1
  Li  Li33  1  0.76585800  0.71394000  0.14595800  1
  Li  Li34  1  0.82506600  0.82722100  0.79728500  1
  Li  Li35  1  0.05372900  0.92176500  0.64444100  1
  Li  Li36  1  0.10844400  0.59152700  0.52069300  1
  Li  Li37  1  0.08790100  0.03957200  0.10763500  1
  Li  Li38  1  0.76161200  0.49493400  0.93439300  1
  Li  Li39  1  0.59321300  0.44400200  0.34622700  1
  Li  Li40  1  0.63113600  0.70226500  0.89584200  1
  Li  Li41  1  0.06764700  0.26318600  0.19832800  1
  Li  Li42  1  0.51104600  0.14420700  0.00200900  1
  Li  Li43  1  0.75293500  0.22107000  0.20304000  1
  Li  Li44  1  0.89791000  0.18360500  0.38455300  1
  Li  Li45  1  0.37182000  0.69376900  0.19839100  1
  Li  Li46  1  0.86587100  0.95438600  0.30200200  1
  Li  Li47  1  0.39921800  0.42521000  0.56057900  1
  Li  Li48  1  0.01611400  0.81399300  0.41665300  1
  Li  Li49  1  0.28129800  0.85272800  0.73680100  1
  Li  Li50  1  0.14688100  0.16465200  0.79331100  1
  Li  Li51  1  0.80448100  0.90295300  0.55578700  1
  Li  Li52  1  0.55691900  0.88766800  0.08679100  1
  Li  Li53  1  0.33393100  0.82494900  0.39360800  1
  Li  Li54  1  0.97044900  0.31431500  0.87542900  1
  Li  Li55  1  0.86839100  0.10865800  0.80897900  1
  Li  Li56  1  0.77716000  0.39501300  0.52981700  1
  Li  Li57  1  0.24977700  0.12109200  0.99216600  1
  Li  Li58  1  0.83507900  0.11574800  0.59213600  1
  Li  Li59  1  0.38203000  0.96966200  0.58363900  1
  Li  Li60  1  0.38919200  0.03423600  0.17356000  1
  Li  Li61  1  0.38837200  0.64555600  0.71486900  1
  Li  Li62  1  0.29908500  0.17741800  0.55225800  1
  Li  Li63  1  0.11150000  0.79058200  0.21270500  1
  Li  Li64  1  0.39224500  0.10178500  0.82155900  1
  Li  Li65  1  0.55942600  0.27719000  0.49915000  1
  Li  Li66  1  0.12095500  0.71987500  0.92990800  1
  Li  Li67  1  0.27111200  0.33363800  0.03560600  1
  O  O68  1  0.24288200  0.17788200  0.16944200  1
  O  O69  1  0.19558000  0.69385900  0.36698400  1
  O  O70  1  0.06097000  0.45590000  0.21425100  1
  O  O71  1  0.56729000  0.21510200  0.15007100  1
  O  O72  1  0.49127200  0.09503600  0.50340500  1
  O  O73  1  0.11704200  0.24172700  0.44699100  1
  O  O74  1  0.57182400  0.49464000  0.91728800  1
  O  O75  1  0.73489000  0.29122100  0.38113300  1
  O  O76  1  0.35598400  0.51598300  0.12438200  1
  O  O77  1  0.06811300  0.51741300  0.90813500  1
  O  O78  1  0.67533900  0.57941900  0.23999400  1
  O  O79  1  0.83251300  0.34813500  0.03583900  1
  O  O80  1  0.12000400  0.85542600  0.05102300  1
  O  O81  1  0.96095000  0.99328700  0.48271700  1
  O  O82  1  0.02864700  0.78808000  0.76520800  1
  O  O83  1  0.93737300  0.10967500  0.21876200  1
  O  O84  1  0.58808500  0.39203100  0.63175900  1
  O  O85  1  0.41613100  0.99363600  0.98276800  1
  O  O86  1  0.74314200  0.65737600  0.75052400  1
  O  O87  1  0.60586700  0.17797400  0.84636300  1
  O  O88  1  0.02770500  0.11613300  0.92816500  1
  O  O89  1  0.29546000  0.26759200  0.86687000  1
  O  O90  1  0.41136800  0.37446400  0.38260700  1
  O  O91  1  0.91492400  0.25723500  0.68848000  1
  O  O92  1  0.45888100  0.85468900  0.25813700  1
  O  O93  1  0.76243600  0.98814800  0.70908700  1
  O  O94  1  0.22564200  0.03891500  0.67658200  1
  O  O95  1  0.92019400  0.77624100  0.25366100  1
  O  O96  1  0.93405700  0.53036200  0.48297000  1
  O  O97  1  0.72797100  0.83014500  0.99639500  1
  O  O98  1  0.31383500  0.71278800  0.86276600  1
  O  O99  1  0.70586800  0.78214100  0.46864500  1
  O  O100  1  0.24989700  0.52570000  0.63811800  1
  O  O101  1  0.40397500  0.78733800  0.58172300  1
