# generated using pymatgen
data_YMnN2
_symmetry_space_group_name_H-M   'P 1'
_cell_length_a   6.42772800
_cell_length_b   11.20779800
_cell_length_c   13.01744000
_cell_angle_alpha   90.00000000
_cell_angle_beta   90.00000000
_cell_angle_gamma   90.00000000
_symmetry_Int_Tables_number   1
_chemical_formula_structural   YMnN2
_chemical_formula_sum   'Y16 Mn16 N32'
_cell_volume   937.78519071
_cell_formula_units_Z   16
loop_
 _symmetry_equiv_pos_site_id
 _symmetry_equiv_pos_as_xyz
  1  'x, y, z'
loop_
 _atom_site_type_symbol
 _atom_site_label
 _atom_site_symmetry_multiplicity
 _atom_site_fract_x
 _atom_site_fract_y
 _atom_site_fract_z
 _atom_site_occupancy
  Y  Y0  1  0.53783500  0.07943800  0.30388600  1
  Y  Y1  1  0.03783500  0.42056200  0.69611400  1
  Y  Y2  1  0.46216500  0.57943800  0.19611400  1
  Y  Y3  1  0.96216500  0.92056200  0.80388600  1
  Y  Y4  1  0.46216500  0.92056200  0.69611400  1
  Y  Y5  1  0.96216500  0.57943800  0.30388600  1
  Y  Y6  1  0.53783500  0.42056200  0.80388600  1
  Y  Y7  1  0.03783500  0.07943800  0.19611400  1
  Y  Y8  1  0.90324800  0.27951400  0.44893600  1
  Y  Y9  1  0.40324800  0.22048600  0.55106400  1
  Y  Y10  1  0.09675200  0.77951400  0.05106400  1
  Y  Y11  1  0.59675200  0.72048600  0.94893600  1
  Y  Y12  1  0.09675200  0.72048600  0.55106400  1
  Y  Y13  1  0.59675200  0.77951400  0.44893600  1
  Y  Y14  1  0.90324800  0.22048600  0.94893600  1
  Y  Y15  1  0.40324800  0.27951400  0.05106400  1
  Mn  Mn16  1  0.15481200  0.96045500  0.46119400  1
  Mn  Mn17  1  0.65481200  0.53954500  0.53880600  1
  Mn  Mn18  1  0.84518800  0.46045500  0.03880600  1
  Mn  Mn19  1  0.34518800  0.03954500  0.96119400  1
  Mn  Mn20  1  0.84518800  0.03954500  0.53880600  1
  Mn  Mn21  1  0.34518800  0.46045500  0.46119400  1
  Mn  Mn22  1  0.15481200  0.53954500  0.96119400  1
  Mn  Mn23  1  0.65481200  0.96045500  0.03880600  1
  Mn  Mn24  1  0.26934800  0.33181800  0.28610700  1
  Mn  Mn25  1  0.76934800  0.16818200  0.71389300  1
  Mn  Mn26  1  0.73065200  0.83181800  0.21389300  1
  Mn  Mn27  1  0.23065200  0.66818200  0.78610700  1
  Mn  Mn28  1  0.73065200  0.66818200  0.71389300  1
  Mn  Mn29  1  0.23065200  0.83181800  0.28610700  1
  Mn  Mn30  1  0.26934800  0.16818200  0.78610700  1
  Mn  Mn31  1  0.76934800  0.33181800  0.21389300  1
  N  N32  1  0.16301800  0.37929200  0.54029600  1
  N  N33  1  0.66301800  0.12070800  0.45970400  1
  N  N34  1  0.83698200  0.87929200  0.95970400  1
  N  N35  1  0.33698200  0.62070800  0.04029600  1
  N  N36  1  0.83698200  0.62070800  0.45970400  1
  N  N37  1  0.33698200  0.87929200  0.54029600  1
  N  N38  1  0.16301800  0.12070800  0.04029600  1
  N  N39  1  0.66301800  0.37929200  0.95970400  1
  N  N40  1  0.59703300  0.38868800  0.48424500  1
  N  N41  1  0.09703300  0.11131200  0.51575500  1
  N  N42  1  0.40296700  0.88868700  0.01575500  1
  N  N43  1  0.90296700  0.61131300  0.98424500  1
  N  N44  1  0.40296700  0.61131300  0.51575500  1
  N  N45  1  0.90296700  0.88868700  0.48424500  1
  N  N46  1  0.59703300  0.11131200  0.98424500  1
  N  N47  1  0.09703300  0.38868800  0.01575500  1
  N  N48  1  0.00479000  0.26994300  0.27170000  1
  N  N49  1  0.50479000  0.23005700  0.72830000  1
  N  N50  1  0.99521000  0.76994300  0.22830000  1
  N  N51  1  0.49521000  0.73005700  0.77170000  1
  N  N52  1  0.99521000  0.73005700  0.72830000  1
  N  N53  1  0.49521000  0.76994300  0.27170000  1
  N  N54  1  0.00479000  0.23005700  0.77170000  1
  N  N55  1  0.50479000  0.26994300  0.22830000  1
  N  N56  1  0.77116400  0.48874300  0.17543600  1
  N  N57  1  0.27116400  0.01125700  0.82456400  1
  N  N58  1  0.22883600  0.98874300  0.32456400  1
  N  N59  1  0.72883600  0.51125700  0.67543600  1
  N  N60  1  0.22883600  0.51125700  0.82456400  1
  N  N61  1  0.72883600  0.98874300  0.17543600  1
  N  N62  1  0.77116400  0.01125700  0.67543600  1
  N  N63  1  0.27116400  0.48874300  0.32456400  1
