# generated using pymatgen
data_CaO
_symmetry_space_group_name_H-M   'P 1'
_cell_length_a   12.08329920
_cell_length_b   11.73812587
_cell_length_c   11.81033359
_cell_angle_alpha   87.31984067
_cell_angle_beta   86.93998073
_cell_angle_gamma   98.08408244
_symmetry_Int_Tables_number   1
_chemical_formula_structural   CaO
_chemical_formula_sum   'Ca50 O50'
_cell_volume   1653.61447638
_cell_formula_units_Z   50
loop_
 _symmetry_equiv_pos_site_id
 _symmetry_equiv_pos_as_xyz
  1  'x, y, z'
loop_
 _atom_site_type_symbol
 _atom_site_label
 _atom_site_symmetry_multiplicity
 _atom_site_fract_x
 _atom_site_fract_y
 _atom_site_fract_z
 _atom_site_occupancy
  Ca  Ca0  1  0.54980112  0.15044751  0.71031644  1
  Ca  Ca1  1  0.04425345  0.14568693  0.65541228  1
  Ca  Ca2  1  0.09308514  0.01147996  0.42250995  1
  Ca  Ca3  1  0.12776757  0.19904914  0.93236760  1
  Ca  Ca4  1  0.62833447  0.16224864  0.40048237  1
  Ca  Ca5  1  0.93217533  0.71601055  0.94716502  1
  Ca  Ca6  1  0.99071504  0.60754463  0.67621122  1
  Ca  Ca7  1  0.26231935  0.81447022  0.36992211  1
  Ca  Ca8  1  0.22099091  0.41840271  0.74794183  1
  Ca  Ca9  1  0.15003827  0.92118034  0.92435789  1
  Ca  Ca10  1  0.56057600  0.72575516  0.01152953  1
  Ca  Ca11  1  0.04277915  0.63124493  0.41276929  1
  Ca  Ca12  1  0.96156160  0.40029631  0.92101040  1
  Ca  Ca13  1  0.30391116  0.16415189  0.67916903  1
  Ca  Ca14  1  0.75982544  0.92517224  0.21940574  1
  Ca  Ca15  1  0.20928529  0.35844751  0.11252424  1
  Ca  Ca16  1  0.28174221  0.65259086  0.57801231  1
  Ca  Ca17  1  0.72075715  0.50418822  0.92883365  1
  Ca  Ca18  1  0.47282061  0.36464642  0.55934253  1
  Ca  Ca19  1  0.06776447  0.87668861  0.66940297  1
  Ca  Ca20  1  0.45420536  0.02173436  0.16406038  1
  Ca  Ca21  1  0.83369858  0.40489615  0.45437176  1
  Ca  Ca22  1  0.53945524  0.80897176  0.33868055  1
  Ca  Ca23  1  0.84457787  0.37712032  0.18987656  1
  Ca  Ca24  1  0.51026719  0.73296598  0.76253162  1
  Ca  Ca25  1  0.65096643  0.98051549  0.98750659  1
  Ca  Ca26  1  0.82961928  0.24298287  0.71556345  1
  Ca  Ca27  1  0.39284821  0.94306262  0.88911761  1
  Ca  Ca28  1  0.45152241  0.45697762  0.85825627  1
  Ca  Ca29  1  0.22922744  0.66317227  0.86762905  1
  Ca  Ca30  1  0.91456304  0.03259390  0.95132408  1
  Ca  Ca31  1  0.06043643  0.57987307  0.14429935  1
  Ca  Ca32  1  0.71845063  0.58498040  0.65164509  1
  Ca  Ca33  1  0.28371752  0.74864304  0.11293254  1
  Ca  Ca34  1  0.01728402  0.86444661  0.17209846  1
  Ca  Ca35  1  0.81172193  0.80353051  0.46600493  1
  Ca  Ca36  1  0.60718916  0.53090779  0.37333423  1
  Ca  Ca37  1  0.96189113  0.15638654  0.21164924  1
  Ca  Ca38  1  0.80518272  0.62706686  0.20612054  1
  Ca  Ca39  1  0.39447838  0.22038865  0.94930070  1
  Ca  Ca40  1  0.67242458  0.23630363  0.99265588  1
  Ca  Ca41  1  0.59498226  0.92831042  0.57626659  1
  Ca  Ca42  1  0.11304271  0.33669235  0.46033455  1
  Ca  Ca43  1  0.21400562  0.07286968  0.17166903  1
  Ca  Ca44  1  0.84047593  0.09194334  0.47437280  1
  Ca  Ca45  1  0.31956462  0.92054672  0.61053867  1
  Ca  Ca46  1  0.79855977  0.83587770  0.75212159  1
  Ca  Ca47  1  0.35498459  0.18420588  0.36905971  1
  Ca  Ca48  1  0.31528168  0.54045606  0.31233043  1
  Ca  Ca49  1  0.50945662  0.34772730  0.18709433  1
  O  O50  1  0.38393277  0.72198023  0.26969224  1
  O  O51  1  0.92560270  0.95475869  0.57401522  1
  O  O52  1  0.19503853  0.28699451  0.61844438  1
  O  O53  1  0.57835512  0.88772542  0.14627857  1
  O  O54  1  0.11003029  0.73340930  0.00982828  1
  O  O55  1  0.69636508  0.71710281  0.33040476  1
  O  O56  1  0.25813762  0.09452469  0.86133800  1
  O  O57  1  0.78602735  0.09207321  0.07040549  1
  O  O58  1  0.53188102  0.09983590  0.94349198  1
  O  O59  1  0.88143473  0.53067831  0.04087447  1
  O  O60  1  0.67811498  0.97073984  0.40141840  1
  O  O61  1  0.45562296  0.17483801  0.53118586  1
  O  O62  1  0.23265394  0.53787426  0.14956740  1
  O  O63  1  0.84836367  0.64958168  0.78524210  1
  O  O64  1  0.08702674  0.52163088  0.80000444  1
  O  O65  1  0.70680575  0.12026596  0.61628007  1
  O  O66  1  0.46769239  0.96751547  0.71083655  1
  O  O67  1  0.22470458  0.83081064  0.77190140  1
  O  O68  1  0.65635311  0.43879479  0.53098441  1
  O  O69  1  0.43607736  0.41538844  0.36489117  1
  O  O70  1  0.85429946  0.79811262  0.10320585  1
  O  O71  1  0.97032199  0.89553865  0.84230786  1
  O  O72  1  0.67706009  0.76782302  0.61754867  1
  O  O73  1  0.44684499  0.30103877  0.74659452  1
  O  O74  1  0.17607327  0.03399727  0.59434606  1
  O  O75  1  0.26328574  0.35536245  0.92339603  1
  O  O76  1  0.06075442  0.04331573  0.06244309  1
  O  O77  1  0.65207208  0.84724681  0.87055176  1
  O  O78  1  0.11619520  0.74331436  0.26178134  1
  O  O79  1  0.30026826  0.94548094  0.07075435  1
  O  O80  1  0.41524256  0.80522837  0.50721179  1
  O  O81  1  0.93147304  0.51205106  0.29698316  1
  O  O82  1  0.87857700  0.61085657  0.52992214  1
  O  O83  1  0.93451406  0.96639567  0.30838815  1
  O  O84  1  0.35747547  0.57663110  0.73043667  1
  O  O85  1  0.94193827  0.27535547  0.55594487  1
  O  O86  1  0.01938570  0.31625776  0.08408622  1
  O  O87  1  0.59178688  0.59985950  0.85608163  1
  O  O88  1  0.68187636  0.45828692  0.22419619  1
  O  O89  1  0.13664137  0.75778620  0.54112731  1
  O  O90  1  0.12033792  0.19162635  0.32772303  1
  O  O91  1  0.39916605  0.74733158  0.94138177  1
  O  O92  1  0.81646857  0.23805585  0.33560253  1
  O  O93  1  0.33475390  0.23016574  0.13996109  1
  O  O94  1  0.18535581  0.52837758  0.45958102  1
  O  O95  1  0.78221797  0.34696556  0.85828822  1
  O  O96  1  0.27455505  0.00148492  0.33403597  1
  O  O97  1  0.97582355  0.19210815  0.82572808  1
  O  O98  1  0.52044969  0.17081651  0.26259612  1
  O  O99  1  0.55546249  0.36735781  0.99635839  1
