# generated using pymatgen
data_Cr13Si2(SbO14)2
_symmetry_space_group_name_H-M   'P 1'
_cell_length_a   5.73072786
_cell_length_b   8.62994409
_cell_length_c   11.67843599
_cell_angle_alpha   86.88155321
_cell_angle_beta   75.72601728
_cell_angle_gamma   77.35272600
_symmetry_Int_Tables_number   1
_chemical_formula_structural   Cr13Si2(SbO14)2
_chemical_formula_sum   'Cr13 Si2 Sb2 O28'
_cell_volume   546.15508645
_cell_formula_units_Z   1
loop_
 _symmetry_equiv_pos_site_id
 _symmetry_equiv_pos_as_xyz
  1  'x, y, z'
loop_
 _atom_site_type_symbol
 _atom_site_label
 _atom_site_symmetry_multiplicity
 _atom_site_fract_x
 _atom_site_fract_y
 _atom_site_fract_z
 _atom_site_occupancy
  Cr  Cr0  1  0.93561200  0.62574000  0.69168100  1
  Cr  Cr1  1  0.65563800  0.34935900  0.13386200  1
  Cr  Cr2  1  0.37279500  0.37439200  0.69182000  1
  Cr  Cr3  1  0.06256000  0.37265000  0.30897700  1
  Cr  Cr4  1  0.34733800  0.64875100  0.86560600  1
  Cr  Cr5  1  0.28417500  0.99879400  0.43227600  1
  Cr  Cr6  1  0.20956600  0.64868600  0.13381600  1
  Cr  Cr7  1  0.00159400  0.99905700  0.00027800  1
  Cr  Cr8  1  0.42691000  0.99915900  0.14783700  1
  Cr  Cr9  1  0.79213900  0.34950200  0.86743400  1
  Cr  Cr10  1  0.62559600  0.62384000  0.30781300  1
  Cr  Cr11  1  0.57461800  0.99939200  0.85254900  1
  Cr  Cr12  1  0.71672600  0.99933000  0.56814800  1
  Si  Si13  1  0.24953200  0.31971900  0.99941000  1
  Si  Si14  1  0.75401100  0.67886200  0.00104800  1
  Sb  Sb15  1  0.85069400  0.99853500  0.29839500  1
  Sb  Sb16  1  0.15062100  0.99948500  0.70204900  1
  O  O17  1  0.73942900  0.39278300  0.28051600  1
  O  O18  1  0.15021000  0.36820300  0.42936400  1
  O  O19  1  0.95933000  0.34758300  0.99871200  1
  O  O20  1  0.34656200  0.12749900  0.00013800  1
  O  O21  1  0.84979900  0.63075400  0.57078100  1
  O  O22  1  0.25837500  0.60529100  0.72031600  1
  O  O23  1  0.00605900  0.10370200  0.56724100  1
  O  O24  1  0.99488900  0.89442700  0.43329100  1
  O  O25  1  0.65617300  0.87099500  0.00028300  1
  O  O26  1  0.16117800  0.88210600  0.13601900  1
  O  O27  1  0.28708300  0.39716900  0.11869900  1
  O  O28  1  0.97951700  0.60658300  0.27778800  1
  O  O29  1  0.42848900  0.89447900  0.56734100  1
  O  O30  1  0.70526700  0.11463400  0.13644100  1
  O  O31  1  0.59398300  0.60220800  0.12041700  1
  O  O32  1  0.04424000  0.65098100  0.00190500  1
  O  O33  1  0.29712900  0.88364000  0.86382000  1
  O  O34  1  0.84114600  0.11607800  0.86451500  1
  O  O35  1  0.57265700  0.10357500  0.43295500  1
  O  O36  1  0.16888900  0.12636000  0.28203700  1
  O  O37  1  0.83051500  0.87212200  0.71836000  1
  O  O38  1  0.40898500  0.39615500  0.87982500  1
  O  O39  1  0.45318400  0.12616900  0.71830000  1
  O  O40  1  0.57824800  0.36591600  0.57003800  1
  O  O41  1  0.71574500  0.60116100  0.88204800  1
  O  O42  1  0.54641800  0.87250200  0.28199900  1
  O  O43  1  0.01860400  0.39161800  0.72201000  1
  O  O44  1  0.41879900  0.63398200  0.42934700  1
