# generated using pymatgen
data_GaN
_symmetry_space_group_name_H-M   'P 1'
_cell_length_a   11.80877215
_cell_length_b   11.86207953
_cell_length_c   11.34123478
_cell_angle_alpha   86.23211215
_cell_angle_beta   88.40086529
_cell_angle_gamma   88.56160940
_symmetry_Int_Tables_number   1
_chemical_formula_structural   GaN
_chemical_formula_sum   'Ga50 N50'
_cell_volume   1584.15903591
_cell_formula_units_Z   50
loop_
 _symmetry_equiv_pos_site_id
 _symmetry_equiv_pos_as_xyz
  1  'x, y, z'
loop_
 _atom_site_type_symbol
 _atom_site_label
 _atom_site_symmetry_multiplicity
 _atom_site_fract_x
 _atom_site_fract_y
 _atom_site_fract_z
 _atom_site_occupancy
  Ga  Ga0  1  0.04153447  0.93926253  0.48123013  1
  Ga  Ga1  1  0.05632442  0.83706135  0.22081049  1
  Ga  Ga2  1  0.82506705  0.84730542  0.92753061  1
  Ga  Ga3  1  0.19764015  0.90912774  0.81070057  1
  Ga  Ga4  1  0.16193805  0.09494774  0.11952403  1
  Ga  Ga5  1  0.23355162  0.52023171  0.76875337  1
  Ga  Ga6  1  0.60930058  0.77396137  0.75509167  1
  Ga  Ga7  1  0.93496935  0.08009617  0.22097070  1
  Ga  Ga8  1  0.35299338  0.16362063  0.57346420  1
  Ga  Ga9  1  0.45331408  0.09405943  0.12168786  1
  Ga  Ga10  1  0.41457321  0.89315771  0.67949848  1
  Ga  Ga11  1  0.32762060  0.07409928  0.87043205  1
  Ga  Ga12  1  0.53019203  0.33872125  0.11866476  1
  Ga  Ga13  1  0.79640743  0.34090947  0.29709166  1
  Ga  Ga14  1  0.12139227  0.20927314  0.38115608  1
  Ga  Ga15  1  0.68705820  0.05457241  0.89821241  1
  Ga  Ga16  1  0.21520803  0.00795236  0.58322913  1
  Ga  Ga17  1  0.50331989  0.51028902  0.82408714  1
  Ga  Ga18  1  0.14683850  0.75468372  0.66451839  1
  Ga  Ga19  1  0.90191206  0.19078392  0.43805784  1
  Ga  Ga20  1  0.78463220  0.92716360  0.44791922  1
  Ga  Ga21  1  0.48841335  0.39930389  0.55490803  1
  Ga  Ga22  1  0.89797975  0.53960288  0.43578070  1
  Ga  Ga23  1  0.86597297  0.14317182  0.98449569  1
  Ga  Ga24  1  0.32576765  0.30718798  0.34056278  1
  Ga  Ga25  1  0.36867644  0.75284144  0.88388508  1
  Ga  Ga26  1  0.93333929  0.59071810  0.17035249  1
  Ga  Ga27  1  0.09046191  0.37491662  0.19557270  1
  Ga  Ga28  1  0.53808436  0.88695911  0.30954655  1
  Ga  Ga29  1  0.67624971  0.15075337  0.11761590  1
  Ga  Ga30  1  0.88854056  0.35018806  0.83948896  1
  Ga  Ga31  1  0.76481995  0.22544056  0.63518110  1
  Ga  Ga32  1  0.50416620  0.08526362  0.72036289  1
  Ga  Ga33  1  0.00369287  0.71180751  0.43652240  1
  Ga  Ga34  1  0.33390317  0.88327923  0.08586029  1
  Ga  Ga35  1  0.01489170  0.51167380  0.71496898  1
  Ga  Ga36  1  0.75383989  0.53181057  0.70176149  1
  Ga  Ga37  1  0.87301168  0.76689542  0.69034641  1
  Ga  Ga38  1  0.89515763  0.62871992  0.93996841  1
  Ga  Ga39  1  0.77270030  0.79770779  0.21369033  1
  Ga  Ga40  1  0.67730052  0.42895872  0.46361797  1
  Ga  Ga41  1  0.73138691  0.40349042  0.01567529  1
  Ga  Ga42  1  0.00755684  0.95308018  0.96303896  1
  Ga  Ga43  1  0.33085282  0.31578403  0.75680353  1
  Ga  Ga44  1  0.58464756  0.89217916  0.01439900  1
  Ga  Ga45  1  0.39436737  0.67590699  0.62399580  1
  Ga  Ga46  1  0.27754143  0.84191896  0.43672288  1
  Ga  Ga47  1  0.63402345  0.69350109  0.49912986  1
  Ga  Ga48  1  0.61136370  0.30623310  0.81029298  1
  Ga  Ga49  1  0.65145885  0.65862867  0.96649687  1
  N  N50  1  0.60163223  0.16817361  0.45691262  1
  N  N51  1  0.31623382  0.34864725  0.96198658  1
  N  N52  1  0.39692255  0.04955099  0.37987572  1
  N  N53  1  0.99328908  0.79901930  0.58103312  1
  N  N54  1  0.12043525  0.81857357  0.37330930  1
  N  N55  1  0.89042103  0.61083573  0.75950026  1
  N  N56  1  0.48412293  0.38051114  0.72697501  1
  N  N57  1  0.63316037  0.60560108  0.79061627  1
  N  N58  1  0.75366859  0.02128644  0.20112394  1
  N  N59  1  0.28100971  0.55791573  0.11617374  1
  N  N60  1  0.57539311  0.38863629  0.95417451  1
  N  N61  1  0.52948003  0.77176242  0.91960308  1
  N  N62  1  0.17324338  0.51990134  0.41758573  1
  N  N63  1  0.75446734  0.55721929  0.52574097  1
  N  N64  1  0.04340832  0.28668041  0.63727136  1
  N  N65  1  0.96078653  0.02528550  0.71241282  1
  N  N66  1  0.07211739  0.18882765  0.21641187  1
  N  N67  1  0.63921563  0.56174793  0.27813010  1
  N  N68  1  0.37468210  0.30768651  0.50065044  1
  N  N69  1  0.71647438  0.79502639  0.05606143  1
  N  N70  1  0.11040718  0.72988260  0.08344844  1
  N  N71  1  0.09806205  0.75148971  0.98393754  1
  N  N72  1  0.27218277  0.31517448  0.04633368  1
  N  N73  1  0.04581919  0.97569916  0.12955399  1
  N  N74  1  0.37705487  0.67243425  0.30610277  1
  N  N75  1  0.36715708  0.60798531  0.80302685  1
  N  N76  1  0.75637967  0.36337662  0.73446687  1
  N  N77  1  0.48443544  0.92744475  0.14735275  1
  N  N78  1  0.40460542  0.58829062  0.34732672  1
  N  N79  1  0.13977838  0.52235570  0.93390491  1
  N  N80  1  0.59032815  0.55326556  0.19538310  1
  N  N81  1  0.91867576  0.02451561  0.40031314  1
  N  N82  1  0.71344710  0.94519858  0.28132569  1
  N  N83  1  0.21627022  0.51606058  0.50459650  1
  N  N84  1  0.30681787  0.06158582  0.04700934  1
  N  N85  1  0.92263615  0.74077381  0.25391152  1
  N  N86  1  0.35753265  0.59350538  0.06930981  1
  N  N87  1  0.06302076  0.48003183  0.98225659  1
  N  N88  1  0.09590833  0.17939162  0.95030486  1
  N  N89  1  0.90409915  0.46664026  0.28737965  1
  N  N90  1  0.69938138  0.31082338  0.16031079  1
  N  N91  1  0.60550428  0.15491153  0.36016154  1
  N  N92  1  0.37157543  0.11061665  0.29953308  1
  N  N93  1  0.13589031  0.26150421  0.63861517  1
  N  N94  1  0.90791488  0.10307407  0.73205718  1
  N  N95  1  0.64512078  0.15407147  0.75763992  1
  N  N96  1  0.75666008  0.84200802  0.77272793  1
  N  N97  1  0.10599668  0.24895737  0.87732583  1
  N  N98  1  0.40776230  0.35715099  0.21216311  1
  N  N99  1  0.76802758  0.55530856  0.02429972  1
