# generated using pymatgen
data_Na7VN4
_symmetry_space_group_name_H-M   'P 1'
_cell_length_a   11.18733400
_cell_length_b   11.18733400
_cell_length_c   11.18733400
_cell_angle_alpha   90.00000000
_cell_angle_beta   90.00000000
_cell_angle_gamma   90.00000000
_symmetry_Int_Tables_number   1
_chemical_formula_structural   Na7VN4
_chemical_formula_sum   'Na56 V8 N32'
_cell_volume   1400.16691921
_cell_formula_units_Z   8
loop_
 _symmetry_equiv_pos_site_id
 _symmetry_equiv_pos_as_xyz
  1  'x, y, z'
loop_
 _atom_site_type_symbol
 _atom_site_label
 _atom_site_symmetry_multiplicity
 _atom_site_fract_x
 _atom_site_fract_y
 _atom_site_fract_z
 _atom_site_occupancy
  Na  Na0  1  0.36626000  0.63374000  0.13374000  1
  Na  Na1  1  0.63374000  0.13374000  0.36626000  1
  Na  Na2  1  0.13374000  0.36626000  0.63374000  1
  Na  Na3  1  0.86626000  0.86626000  0.86626000  1
  Na  Na4  1  0.63374000  0.36626000  0.86626000  1
  Na  Na5  1  0.36626000  0.86626000  0.63374000  1
  Na  Na6  1  0.86626000  0.63374000  0.36626000  1
  Na  Na7  1  0.13374000  0.13374000  0.13374000  1
  Na  Na8  1  0.36365700  0.61644800  0.38339800  1
  Na  Na9  1  0.63634300  0.11644800  0.11660200  1
  Na  Na10  1  0.13634300  0.38355200  0.88339800  1
  Na  Na11  1  0.86365700  0.88355200  0.61660200  1
  Na  Na12  1  0.38339800  0.36365700  0.61644800  1
  Na  Na13  1  0.11660200  0.63634300  0.11644800  1
  Na  Na14  1  0.88339800  0.13634300  0.38355200  1
  Na  Na15  1  0.61660200  0.86365700  0.88355200  1
  Na  Na16  1  0.61644800  0.38339800  0.36365700  1
  Na  Na17  1  0.11644800  0.11660200  0.63634300  1
  Na  Na18  1  0.38355200  0.88339800  0.13634300  1
  Na  Na19  1  0.88355200  0.61660200  0.86365700  1
  Na  Na20  1  0.63634300  0.38355200  0.61660200  1
  Na  Na21  1  0.36365700  0.88355200  0.88339800  1
  Na  Na22  1  0.86365700  0.61644800  0.11660200  1
  Na  Na23  1  0.13634300  0.11644800  0.38339800  1
  Na  Na24  1  0.61660200  0.63634300  0.38355200  1
  Na  Na25  1  0.88339800  0.36365700  0.88355200  1
  Na  Na26  1  0.11660200  0.86365700  0.61644800  1
  Na  Na27  1  0.38339800  0.13634300  0.11644800  1
  Na  Na28  1  0.38355200  0.61660200  0.63634300  1
  Na  Na29  1  0.88355200  0.88339800  0.36365700  1
  Na  Na30  1  0.61644800  0.11660200  0.86365700  1
  Na  Na31  1  0.11644800  0.38339800  0.13634300  1
  Na  Na32  1  0.40631200  0.85063700  0.38196700  1
  Na  Na33  1  0.59368800  0.35063700  0.11803300  1
  Na  Na34  1  0.09368800  0.14936300  0.88196700  1
  Na  Na35  1  0.90631200  0.64936300  0.61803300  1
  Na  Na36  1  0.38196700  0.40631200  0.85063700  1
  Na  Na37  1  0.11803300  0.59368800  0.35063700  1
  Na  Na38  1  0.88196700  0.09368800  0.14936300  1
  Na  Na39  1  0.61803300  0.90631200  0.64936300  1
  Na  Na40  1  0.85063700  0.38196700  0.40631200  1
  Na  Na41  1  0.35063700  0.11803300  0.59368800  1
  Na  Na42  1  0.14936300  0.88196700  0.09368800  1
  Na  Na43  1  0.64936300  0.61803300  0.90631200  1
  Na  Na44  1  0.59368800  0.14936300  0.61803300  1
  Na  Na45  1  0.40631200  0.64936300  0.88196700  1
  Na  Na46  1  0.90631200  0.85063700  0.11803300  1
  Na  Na47  1  0.09368800  0.35063700  0.38196700  1
  Na  Na48  1  0.61803300  0.59368800  0.14936300  1
  Na  Na49  1  0.88196700  0.40631200  0.64936300  1
  Na  Na50  1  0.11803300  0.90631200  0.85063700  1
  Na  Na51  1  0.38196700  0.09368800  0.35063700  1
  Na  Na52  1  0.14936300  0.61803300  0.59368800  1
  Na  Na53  1  0.64936300  0.88196700  0.40631200  1
  Na  Na54  1  0.85063700  0.11803300  0.90631200  1
  Na  Na55  1  0.35063700  0.38196700  0.09368800  1
  V  V56  1  0.13932400  0.86067600  0.36067600  1
  V  V57  1  0.86067600  0.36067600  0.13932400  1
  V  V58  1  0.36067600  0.13932400  0.86067600  1
  V  V59  1  0.63932400  0.63932400  0.63932400  1
  V  V60  1  0.86067600  0.13932400  0.63932400  1
  V  V61  1  0.13932400  0.63932400  0.86067600  1
  V  V62  1  0.63932400  0.86067600  0.13932400  1
  V  V63  1  0.36067600  0.36067600  0.36067600  1
  N  N64  1  0.23534100  0.76465900  0.26465900  1
  N  N65  1  0.76465900  0.26465900  0.23534100  1
  N  N66  1  0.26465900  0.23534100  0.76465900  1
  N  N67  1  0.73534100  0.73534100  0.73534100  1
  N  N68  1  0.76465900  0.23534100  0.73534100  1
  N  N69  1  0.23534100  0.73534100  0.76465900  1
  N  N70  1  0.73534100  0.76465900  0.23534100  1
  N  N71  1  0.26465900  0.26465900  0.26465900  1
  N  N72  1  0.04675400  0.96498900  0.26337300  1
  N  N73  1  0.95324600  0.46498900  0.23662700  1
  N  N74  1  0.45324600  0.03501100  0.76337300  1
  N  N75  1  0.54675400  0.53501100  0.73662700  1
  N  N76  1  0.26337300  0.04675400  0.96498900  1
  N  N77  1  0.23662700  0.95324600  0.46498900  1
  N  N78  1  0.76337300  0.45324600  0.03501100  1
  N  N79  1  0.73662700  0.54675400  0.53501100  1
  N  N80  1  0.96498900  0.26337300  0.04675400  1
  N  N81  1  0.46498900  0.23662700  0.95324600  1
  N  N82  1  0.03501100  0.76337300  0.45324600  1
  N  N83  1  0.53501100  0.73662700  0.54675400  1
  N  N84  1  0.95324600  0.03501100  0.73662700  1
  N  N85  1  0.04675400  0.53501100  0.76337300  1
  N  N86  1  0.54675400  0.96498900  0.23662700  1
  N  N87  1  0.45324600  0.46498900  0.26337300  1
  N  N88  1  0.73662700  0.95324600  0.03501100  1
  N  N89  1  0.76337300  0.04675400  0.53501100  1
  N  N90  1  0.23662700  0.54675400  0.96498900  1
  N  N91  1  0.26337300  0.45324600  0.46498900  1
  N  N92  1  0.03501100  0.73662700  0.95324600  1
  N  N93  1  0.53501100  0.76337300  0.04675400  1
  N  N94  1  0.96498900  0.23662700  0.54675400  1
  N  N95  1  0.46498900  0.26337300  0.45324600  1
