# generated using pymatgen
data_GaN
_symmetry_space_group_name_H-M   'P 1'
_cell_length_a   11.94371371
_cell_length_b   11.69800562
_cell_length_c   11.82725790
_cell_angle_alpha   90.16143312
_cell_angle_beta   92.80950449
_cell_angle_gamma   90.09600534
_symmetry_Int_Tables_number   1
_chemical_formula_structural   GaN
_chemical_formula_sum   'Ga50 N50'
_cell_volume   1650.48092863
_cell_formula_units_Z   50
loop_
 _symmetry_equiv_pos_site_id
 _symmetry_equiv_pos_as_xyz
  1  'x, y, z'
loop_
 _atom_site_type_symbol
 _atom_site_label
 _atom_site_symmetry_multiplicity
 _atom_site_fract_x
 _atom_site_fract_y
 _atom_site_fract_z
 _atom_site_occupancy
  Ga  Ga0  1  0.79590245  0.66488871  0.61596786  1
  Ga  Ga1  1  0.26065279  0.27655651  0.35814660  1
  Ga  Ga2  1  0.96956773  0.28520974  0.86271119  1
  Ga  Ga3  1  0.71755758  0.65165857  0.33324109  1
  Ga  Ga4  1  0.46881081  0.27046845  0.31811529  1
  Ga  Ga5  1  0.57788245  0.73728807  0.63156346  1
  Ga  Ga6  1  0.67438595  0.92963673  0.71288839  1
  Ga  Ga7  1  0.12101166  0.43422923  0.41366871  1
  Ga  Ga8  1  0.73377184  0.35327756  0.28590741  1
  Ga  Ga9  1  0.95608123  0.67901750  0.00543148  1
  Ga  Ga10  1  0.88566065  0.82354544  0.84045387  1
  Ga  Ga11  1  0.04591554  0.87251155  0.09725316  1
  Ga  Ga12  1  0.58012375  0.51190096  0.79924873  1
  Ga  Ga13  1  0.72798873  0.31504677  0.98266454  1
  Ga  Ga14  1  0.03309969  0.24595717  0.47995459  1
  Ga  Ga15  1  0.43254108  0.75937669  0.96994422  1
  Ga  Ga16  1  0.78995790  0.16235724  0.38300871  1
  Ga  Ga17  1  0.57919919  0.53298927  0.04266736  1
  Ga  Ga18  1  0.84633820  0.51856753  0.14723035  1
  Ga  Ga19  1  0.08868657  0.15064335  0.74202256  1
  Ga  Ga20  1  0.02624509  0.05590197  0.28663786  1
  Ga  Ga21  1  0.29976612  0.48411916  0.24337387  1
  Ga  Ga22  1  0.05170865  0.32165065  0.22791304  1
  Ga  Ga23  1  0.52322929  0.53386071  0.24403877  1
  Ga  Ga24  1  0.39330793  0.61572982  0.76708742  1
  Ga  Ga25  1  0.47925486  0.04975582  0.32339657  1
  Ga  Ga26  1  0.21942999  0.08994183  0.15647263  1
  Ga  Ga27  1  0.09512875  0.58633559  0.24259575  1
  Ga  Ga28  1  0.01663651  0.81825398  0.60386925  1
  Ga  Ga29  1  0.80779191  0.06468877  0.83125400  1
  Ga  Ga30  1  0.06678216  0.40974303  0.03200931  1
  Ga  Ga31  1  0.44038425  0.74464879  0.32341619  1
  Ga  Ga32  1  0.22796145  0.67102218  0.88861146  1
  Ga  Ga33  1  0.08349079  0.56513510  0.58008294  1
  Ga  Ga34  1  0.56266164  0.88176515  0.17099109  1
  Ga  Ga35  1  0.07745123  0.05204048  0.92884523  1
  Ga  Ga36  1  0.68644952  0.87572518  0.41911834  1
  Ga  Ga37  1  0.68883650  0.73090711  0.11739469  1
  Ga  Ga38  1  0.29639253  0.74169394  0.54662267  1
  Ga  Ga39  1  0.12704059  0.76597984  0.36834966  1
  Ga  Ga40  1  0.93366448  0.14492933  0.05306532  1
  Ga  Ga41  1  0.84195575  0.88318997  0.27482861  1
  Ga  Ga42  1  0.25963790  0.12517575  0.50832121  1
  Ga  Ga43  1  0.00972167  0.59830828  0.78878031  1
  Ga  Ga44  1  0.32690998  0.88483920  0.11560519  1
  Ga  Ga45  1  0.21806373  0.70500966  0.11490719  1
  Ga  Ga46  1  0.02609709  0.99962011  0.51065183  1
  Ga  Ga47  1  0.27232630  0.95425640  0.38205055  1
  Ga  Ga48  1  0.92225001  0.58809186  0.40633364  1
  Ga  Ga49  1  0.71584575  0.70234038  0.88340853  1
  N  N50  1  0.41872725  0.40470897  0.51047361  1
  N  N51  1  0.89961379  0.41330400  0.65028077  1
  N  N52  1  0.69524921  0.44908398  0.53849001  1
  N  N53  1  0.11438998  0.13193574  0.58360091  1
  N  N54  1  0.13448789  0.72361787  0.53996217  1
  N  N55  1  0.92478674  0.73379591  0.70169681  1
  N  N56  1  0.00133478  0.54749498  0.10550944  1
  N  N57  1  0.67822401  0.62811685  0.73093970  1
  N  N58  1  0.41380308  0.98042000  0.68880537  1
  N  N59  1  0.33783868  0.50469510  0.02937367  1
  N  N60  1  0.80556885  0.50549250  0.30875970  1
  N  N61  1  0.57794655  0.69087886  0.97482002  1
  N  N62  1  0.23431918  0.30739843  0.75687566  1
  N  N63  1  0.60797303  0.20089236  0.03901421  1
  N  N64  1  0.46363352  0.05184893  0.90041746  1
  N  N65  1  0.31288567  0.33258734  0.71527210  1
  N  N66  1  0.61196715  0.12644389  0.10523042  1
  N  N67  1  0.71479270  0.99352974  0.54752153  1
  N  N68  1  0.13624134  0.17892458  0.25342265  1
  N  N69  1  0.79622828  0.64297252  0.03896657  1
  N  N70  1  0.32010833  0.22133913  0.06175007  1
  N  N71  1  0.37636809  0.24937732  0.99374023  1
  N  N72  1  0.58677955  0.28868413  0.72319658  1
  N  N73  1  0.87240951  0.73070395  0.32722665  1
  N  N74  1  0.15721793  0.90225962  0.75204975  1
  N  N75  1  0.30370937  0.78862921  0.39377339  1
  N  N76  1  0.68440224  0.72724684  0.50276266  1
  N  N77  1  0.53779491  0.88929603  0.33852864  1
  N  N78  1  0.21215950  0.84157265  0.80577257  1
  N  N79  1  0.91011616  0.27979831  0.14840177  1
  N  N80  1  0.74096603  0.09242614  0.53211557  1
  N  N81  1  0.94063308  0.97495118  0.85810285  1
  N  N82  1  0.35709988  0.04948920  0.65245058  1
  N  N83  1  0.94404849  0.11596030  0.41460476  1
  N  N84  1  0.33770641  0.00635429  0.23496301  1
  N  N85  1  0.10771625  0.93605486  0.37408077  1
  N  N86  1  0.29934061  0.45516022  0.95399335  1
  N  N87  1  0.81095248  0.34769672  0.13004704  1
  N  N88  1  0.92222321  0.32524487  0.61705107  1
  N  N89  1  0.82727266  0.20557974  0.91820830  1
  N  N90  1  0.93607313  0.97698980  0.16877301  1
  N  N91  1  0.46745296  0.47361195  0.55702865  1
  N  N92  1  0.68503114  0.35485637  0.52482494  1
  N  N93  1  0.17739475  0.97382214  0.04667714  1
  N  N94  1  0.57403955  0.38009812  0.28894711  1
  N  N95  1  0.41932749  0.70866416  0.63890671  1
  N  N96  1  0.51889327  0.97627525  0.91949137  1
  N  N97  1  0.61067132  0.05362237  0.17533979  1
  N  N98  1  0.55418166  0.20151684  0.70206109  1
  N  N99  1  0.63483017  0.43472564  0.93212210  1
