# generated using pymatgen
data_BiMoO5
_symmetry_space_group_name_H-M   'P 1'
_cell_length_a   6.23285000
_cell_length_b   11.99877700
_cell_length_c   16.27411400
_cell_angle_alpha   90.00000000
_cell_angle_beta   90.00000000
_cell_angle_gamma   90.00000000
_symmetry_Int_Tables_number   1
_chemical_formula_structural   BiMoO5
_chemical_formula_sum   'Bi8 Mo8 O40'
_cell_volume   1217.08528342
_cell_formula_units_Z   8
loop_
 _symmetry_equiv_pos_site_id
 _symmetry_equiv_pos_as_xyz
  1  'x, y, z'
loop_
 _atom_site_type_symbol
 _atom_site_label
 _atom_site_symmetry_multiplicity
 _atom_site_fract_x
 _atom_site_fract_y
 _atom_site_fract_z
 _atom_site_occupancy
  Bi  Bi0  1  0.92548200  0.81981000  0.21000600  1
  Bi  Bi1  1  0.07451800  0.18019000  0.78999400  1
  Bi  Bi2  1  0.57451800  0.31981000  0.78999400  1
  Bi  Bi3  1  0.07451800  0.68019000  0.71000600  1
  Bi  Bi4  1  0.42548200  0.18019000  0.28999400  1
  Bi  Bi5  1  0.42548200  0.68019000  0.21000600  1
  Bi  Bi6  1  0.57451800  0.81981000  0.71000600  1
  Bi  Bi7  1  0.92548200  0.31981000  0.28999400  1
  Mo  Mo8  1  0.97840300  0.39791500  0.61499100  1
  Mo  Mo9  1  0.52159700  0.89791500  0.38500800  1
  Mo  Mo10  1  0.02159700  0.60208500  0.38500800  1
  Mo  Mo11  1  0.47840300  0.10208500  0.61499100  1
  Mo  Mo12  1  0.02159700  0.10208500  0.11499200  1
  Mo  Mo13  1  0.97840300  0.89791500  0.88500900  1
  Mo  Mo14  1  0.52159700  0.39791500  0.11499200  1
  Mo  Mo15  1  0.47840300  0.60208500  0.88500900  1
  O  O16  1  0.88541800  0.29771900  0.70216200  1
  O  O17  1  0.25114900  0.04599800  0.07239300  1
  O  O18  1  0.24885100  0.54599800  0.92760700  1
  O  O19  1  0.22819900  0.79588700  0.15179300  1
  O  O20  1  0.27180100  0.29588700  0.84820700  1
  O  O21  1  0.88541800  0.79771900  0.79783800  1
  O  O22  1  0.27180100  0.79588700  0.65179300  1
  O  O23  1  0.61458200  0.79771900  0.29783800  1
  O  O24  1  0.25114900  0.54599800  0.42760700  1
  O  O25  1  0.11458200  0.70228100  0.29783800  1
  O  O26  1  0.61458200  0.29771900  0.20216200  1
  O  O27  1  0.62099700  0.17180700  0.54041800  1
  O  O28  1  0.75114900  0.95400200  0.42760700  1
  O  O29  1  0.77180100  0.70411300  0.65179300  1
  O  O30  1  0.14806200  0.01074900  0.83810300  1
  O  O31  1  0.75114900  0.45400200  0.07239300  1
  O  O32  1  0.11458200  0.20228100  0.20216200  1
  O  O33  1  0.72819900  0.20411300  0.34820700  1
  O  O34  1  0.12099700  0.82819300  0.95958200  1
  O  O35  1  0.24885100  0.04599800  0.57239300  1
  O  O36  1  0.37900300  0.82819300  0.45958200  1
  O  O37  1  0.85193800  0.98925100  0.16189700  1
  O  O38  1  0.77180100  0.20411300  0.84820700  1
  O  O39  1  0.64806200  0.98925100  0.66189700  1
  O  O40  1  0.37900300  0.32819300  0.04041800  1
  O  O41  1  0.12099700  0.32819300  0.54041800  1
  O  O42  1  0.74885100  0.45400200  0.57239300  1
  O  O43  1  0.74885100  0.95400200  0.92760700  1
  O  O44  1  0.64806200  0.48925100  0.83810300  1
  O  O45  1  0.87900300  0.67180700  0.45958200  1
  O  O46  1  0.87900300  0.17180700  0.04041800  1
  O  O47  1  0.62099700  0.67180700  0.95958200  1
  O  O48  1  0.85193800  0.48925100  0.33810300  1
  O  O49  1  0.72819900  0.70411300  0.15179300  1
  O  O50  1  0.22819900  0.29588700  0.34820700  1
  O  O51  1  0.14806200  0.51074900  0.66189700  1
  O  O52  1  0.35193800  0.51074900  0.16189700  1
  O  O53  1  0.38541800  0.20228100  0.70216200  1
  O  O54  1  0.35193800  0.01074900  0.33810300  1
  O  O55  1  0.38541800  0.70228100  0.79783800  1
