# generated using pymatgen
data_MoO3
_symmetry_space_group_name_H-M   'P 1'
_cell_length_a   12.94094048
_cell_length_b   12.99434957
_cell_length_c   12.27363726
_cell_angle_alpha   90.87115082
_cell_angle_beta   87.08683392
_cell_angle_gamma   84.37631425
_symmetry_Int_Tables_number   1
_chemical_formula_structural   MoO3
_chemical_formula_sum   'Mo25 O75'
_cell_volume   2050.91272355
_cell_formula_units_Z   25
loop_
 _symmetry_equiv_pos_site_id
 _symmetry_equiv_pos_as_xyz
  1  'x, y, z'
loop_
 _atom_site_type_symbol
 _atom_site_label
 _atom_site_symmetry_multiplicity
 _atom_site_fract_x
 _atom_site_fract_y
 _atom_site_fract_z
 _atom_site_occupancy
  Mo  Mo0  1  0.88317589  0.64442867  0.15338702  1
  Mo  Mo1  1  0.87435917  0.26300357  0.02683621  1
  Mo  Mo2  1  0.09069625  0.41647799  0.72158166  1
  Mo  Mo3  1  0.21406939  0.23994880  0.52252154  1
  Mo  Mo4  1  0.16268942  0.89366452  0.40512599  1
  Mo  Mo5  1  0.14997099  0.63389523  0.52963849  1
  Mo  Mo6  1  0.83041017  0.38291020  0.76264424  1
  Mo  Mo7  1  0.68441831  0.87253574  0.76431419  1
  Mo  Mo8  1  0.46073973  0.02764058  0.12309153  1
  Mo  Mo9  1  0.07058814  0.00151039  0.14620249  1
  Mo  Mo10  1  0.25466505  0.11479202  0.95686198  1
  Mo  Mo11  1  0.73219421  0.02397762  0.10745064  1
  Mo  Mo12  1  0.79249535  0.11603324  0.40341182  1
  Mo  Mo13  1  0.92237507  0.78355091  0.44940850  1
  Mo  Mo14  1  0.61931892  0.56670167  0.24355569  1
  Mo  Mo15  1  0.44720627  0.58333342  0.50046848  1
  Mo  Mo16  1  0.26446325  0.23884378  0.27584103  1
  Mo  Mo17  1  0.14684004  0.02918830  0.64969333  1
  Mo  Mo18  1  0.15062183  0.58309269  0.15365883  1
  Mo  Mo19  1  0.50294270  0.21892758  0.37378952  1
  Mo  Mo20  1  0.46703704  0.71596264  0.86220157  1
  Mo  Mo21  1  0.39360447  0.05870266  0.70520958  1
  Mo  Mo22  1  0.63384664  0.09781999  0.58519338  1
  Mo  Mo23  1  0.68119424  0.70356378  0.51119771  1
  Mo  Mo24  1  0.45206890  0.45543086  0.95544469  1
  O  O25  1  0.80228924  0.15055565  0.06291337  1
  O  O26  1  0.72078296  0.44896977  0.71581526  1
  O  O27  1  0.19187848  0.75757364  0.41832015  1
  O  O28  1  0.90684776  0.71290086  0.27255217  1
  O  O29  1  0.54606894  0.36293738  0.99445400  1
  O  O30  1  0.77679346  0.78385566  0.43339259  1
  O  O31  1  0.91845962  0.11239098  0.44261833  1
  O  O32  1  0.23276513  0.32568088  0.17603145  1
  O  O33  1  0.01157326  0.55709683  0.12167596  1
  O  O34  1  0.86794851  0.72885204  0.04913015  1
  O  O35  1  0.75727632  0.60935657  0.57195023  1
  O  O36  1  0.25632626  0.52730787  0.04491460  1
  O  O37  1  0.36829759  0.77340935  0.94808299  1
  O  O38  1  0.13523853  0.71370370  0.64087802  1
  O  O39  1  0.45204720  0.94574664  0.64637420  1
  O  O40  1  0.21917258  0.34452073  0.62006405  1
  O  O41  1  0.94512791  0.46307646  0.72125181  1
  O  O42  1  0.89332281  0.33053889  0.14489699  1
  O  O43  1  0.52690764  0.11188239  0.47364019  1
  O  O44  1  0.17219435  0.30843259  0.39641500  1
  O  O45  1  0.17600841  0.55034973  0.28648360  1
  O  O46  1  0.32696687  0.18113566  0.44448689  1
  O  O47  1  0.63086448  0.23223083  0.32935093  1
  O  O48  1  0.48895098  0.55517404  0.36082830  1
  O  O49  1  0.07569422  0.29257166  0.76394948  1
  O  O50  1  0.41288400  0.69420755  0.73914445  1
  O  O51  1  0.22515784  0.24038037  0.92469952  1
  O  O52  1  0.72558815  0.00877397  0.48558429  1
  O  O53  1  0.80364263  0.82013619  0.79711948  1
  O  O54  1  0.85318632  0.40216403  0.93106790  1
  O  O55  1  0.97704574  0.92880872  0.10043431  1
  O  O56  1  0.00386940  0.11352145  0.19680303  1
  O  O57  1  0.71654011  0.98473662  0.97281428  1
  O  O58  1  0.09556030  0.94197890  0.54303286  1
  O  O59  1  0.77027191  0.32968553  0.91009357  1
  O  O60  1  0.75575039  0.90770581  0.17101974  1
  O  O61  1  0.41567757  0.20223745  0.25172541  1
  O  O62  1  0.39532859  0.40624985  0.84519472  1
  O  O63  1  0.20499312  0.13003360  0.24609152  1
  O  O64  1  0.57355216  0.80427212  0.84302235  1
  O  O65  1  0.50942880  0.58068149  0.91589050  1
  O  O66  1  0.36754422  0.05011182  0.85343725  1
  O  O67  1  0.99335523  0.21081092  0.97212681  1
  O  O68  1  0.24303014  0.94943149  0.71289023  1
  O  O69  1  0.11207562  0.15606967  0.54658997  1
  O  O70  1  0.41258318  0.96093546  0.23136511  1
  O  O71  1  0.14596561  0.92954702  0.25790558  1
  O  O72  1  0.66129429  0.80251716  0.62707393  1
  O  O73  1  0.45488701  0.33655432  0.43226679  1
  O  O74  1  0.26983761  0.12779687  0.64770556  1
  O  O75  1  0.11429361  0.51328615  0.58349264  1
  O  O76  1  0.54072924  0.63511733  0.15502626  1
  O  O77  1  0.29870095  0.59929893  0.51353102  1
  O  O78  1  0.62024127  0.43690690  0.21369199  1
  O  O79  1  0.05240300  0.05439492  0.75097280  1
  O  O80  1  0.13805306  0.47846397  0.82947193  1
  O  O81  1  0.15201839  0.71472451  0.14830045  1
  O  O82  1  0.76037652  0.58316159  0.17493724  1
  O  O83  1  0.27709379  0.94531173  0.42818680  1
  O  O84  1  0.35143182  0.47466915  0.08064899  1
  O  O85  1  0.49440273  0.14406844  0.68782975  1
  O  O86  1  0.15738782  0.02890727  0.02060218  1
  O  O87  1  0.91808533  0.82564913  0.58227310  1
  O  O88  1  0.49047852  0.93811537  0.01978597  1
  O  O89  1  0.59225417  0.07356122  0.15422141  1
  O  O90  1  0.85570819  0.26940782  0.68873062  1
  O  O91  1  0.35301680  0.12172355  0.06795031  1
  O  O92  1  0.66439449  0.63428270  0.37578141  1
  O  O93  1  0.66734912  0.01167894  0.71138781  1
  O  O94  1  0.01966689  0.66444393  0.45878939  1
  O  O95  1  0.70562466  0.20278506  0.55106537  1
  O  O96  1  0.49408527  0.48326811  0.57771001  1
  O  O97  1  0.52574274  0.68985150  0.53122312  1
  O  O98  1  0.99191873  0.87662632  0.38058705  1
  O  O99  1  0.79060602  0.08471143  0.26095536  1
