# generated using pymatgen
data_MgO
_symmetry_space_group_name_H-M   'P 1'
_cell_length_a   9.69096304
_cell_length_b   10.04789576
_cell_length_c   10.20246436
_cell_angle_alpha   99.04009999
_cell_angle_beta   87.40649867
_cell_angle_gamma   89.30836098
_symmetry_Int_Tables_number   1
_chemical_formula_structural   MgO
_chemical_formula_sum   'Mg40 O40'
_cell_volume   979.92232561
_cell_formula_units_Z   40
loop_
 _symmetry_equiv_pos_site_id
 _symmetry_equiv_pos_as_xyz
  1  'x, y, z'
loop_
 _atom_site_type_symbol
 _atom_site_label
 _atom_site_symmetry_multiplicity
 _atom_site_fract_x
 _atom_site_fract_y
 _atom_site_fract_z
 _atom_site_occupancy
  Mg  Mg0  1  0.42274600  0.81825100  0.33968700  1
  Mg  Mg1  1  0.14129300  0.58181700  0.73196300  1
  Mg  Mg2  1  0.74815900  0.39048000  0.07764700  1
  Mg  Mg3  1  0.55606900  0.95802300  0.65030300  1
  Mg  Mg4  1  0.31433200  0.39373800  0.79682000  1
  Mg  Mg5  1  0.16475600  0.50419500  0.13264400  1
  Mg  Mg6  1  0.60903000  0.33055700  0.76937000  1
  Mg  Mg7  1  0.67068500  0.56175500  0.68311400  1
  Mg  Mg8  1  0.89566600  0.98659700  0.07153100  1
  Mg  Mg9  1  0.02231200  0.12865100  0.37780300  1
  Mg  Mg10  1  0.00392600  0.26241900  0.04032400  1
  Mg  Mg11  1  0.14476300  0.22995000  0.62192900  1
  Mg  Mg12  1  0.01612200  0.67466100  0.51790900  1
  Mg  Mg13  1  0.30470400  0.75295800  0.04336800  1
  Mg  Mg14  1  0.87817100  0.57016900  0.93126500  1
  Mg  Mg15  1  0.95556300  0.68765000  0.17914200  1
  Mg  Mg16  1  0.69182400  0.08558600  0.93487900  1
  Mg  Mg17  1  0.68065400  0.78804900  0.09081800  1
  Mg  Mg18  1  0.42622900  0.74960800  0.79603400  1
  Mg  Mg19  1  0.16134200  0.86789700  0.28495300  1
  Mg  Mg20  1  0.82030300  0.33878000  0.44953200  1
  Mg  Mg21  1  0.72182400  0.95393500  0.36232000  1
  Mg  Mg22  1  0.38115300  0.10753500  0.82759400  1
  Mg  Mg23  1  0.50725000  0.51937800  0.97603300  1
  Mg  Mg24  1  0.80363300  0.57498900  0.34283100  1
  Mg  Mg25  1  0.47142900  0.04427100  0.16789800  1
  Mg  Mg26  1  0.31032200  0.61093500  0.43264000  1
  Mg  Mg27  1  0.21565000  0.91606400  0.59338300  1
  Mg  Mg28  1  0.36009300  0.31237800  0.12116700  1
  Mg  Mg29  1  0.39595900  0.13015300  0.46785000  1
  Mg  Mg30  1  0.69141300  0.19581100  0.24548600  1
  Mg  Mg31  1  0.51740400  0.44509000  0.30035700  1
  Mg  Mg32  1  0.93398500  0.38505000  0.69384500  1
  Mg  Mg33  1  0.12478300  0.41702800  0.37020300  1
  Mg  Mg34  1  0.98039200  0.03263600  0.78797700  1
  Mg  Mg35  1  0.02729900  0.79829100  0.87163700  1
  Mg  Mg36  1  0.64742400  0.75004600  0.49239100  1
  Mg  Mg37  1  0.81342000  0.81120700  0.69707000  1
  Mg  Mg38  1  0.18952700  0.07306000  0.10791300  1
  Mg  Mg39  1  0.78515700  0.12983700  0.60275200  1
  O  O40  1  0.67279700  0.98915200  0.15281500  1
  O  O41  1  0.80764200  0.19699400  0.06614600  1
  O  O42  1  0.93571400  0.61984300  0.76218400  1
  O  O43  1  0.80267600  0.13825600  0.39738500  1
  O  O44  1  0.48568600  0.49597100  0.76432700  1
  O  O45  1  0.60378100  0.75984100  0.69500400  1
  O  O46  1  0.36701000  0.92734700  0.72348900  1
  O  O47  1  0.75453500  0.75080000  0.27872900  1
  O  O48  1  0.50667600  0.64383400  0.39435100  1
  O  O49  1  0.03445400  0.85255600  0.67337500  1
  O  O50  1  0.00435500  0.57711800  0.32698800  1
  O  O51  1  0.94882300  0.46745700  0.06529800  1
  O  O52  1  0.34888000  0.21546400  0.67709100  1
  O  O53  1  0.12144400  0.39707300  0.75915000  1
  O  O54  1  0.33616900  0.91185000  0.19487100  1
  O  O55  1  0.23928500  0.79040100  0.42867200  1
  O  O56  1  0.38279600  0.11832200  0.02353300  1
  O  O57  1  0.71495100  0.46028500  0.90220700  1
  O  O58  1  0.17090200  0.55426600  0.54491700  1
  O  O59  1  0.31016500  0.43474300  0.98984300  1
  O  O60  1  0.15222400  0.70230000  0.14789200  1
  O  O61  1  0.60373000  0.13313400  0.77746500  1
  O  O62  1  0.51928900  0.95920200  0.44947400  1
  O  O63  1  0.88377300  0.76151600  0.02649600  1
  O  O64  1  0.50718700  0.72164700  0.00188400  1
  O  O65  1  0.48502400  0.20749300  0.30878900  1
  O  O66  1  0.95234300  0.18011400  0.69768400  1
  O  O67  1  0.75382100  0.93095000  0.56100600  1
  O  O68  1  0.54931800  0.39587600  0.10774400  1
  O  O69  1  0.19010900  0.07240500  0.47652700  1
  O  O70  1  0.80165300  0.63232800  0.53551600  1
  O  O71  1  0.03062700  0.98971400  0.21960300  1
  O  O72  1  0.13819300  0.27035000  0.18106600  1
  O  O73  1  0.82475600  0.94176600  0.86826500  1
  O  O74  1  0.72612400  0.39808800  0.30482200  1
  O  O75  1  0.30645300  0.46270100  0.28374700  1
  O  O76  1  0.22719100  0.72197800  0.86118200  1
  O  O77  1  0.74057000  0.35767800  0.62727700  1
  O  O78  1  0.06668300  0.05765900  0.95857000  1
  O  O79  1  0.01603500  0.31390600  0.48462200  1
