# generated using pymatgen
data_ZnS
_symmetry_space_group_name_H-M   'P 1'
_cell_length_a   13.05020645
_cell_length_b   13.49052806
_cell_length_c   13.77454829
_cell_angle_alpha   88.98184287
_cell_angle_beta   90.33761070
_cell_angle_gamma   96.86734896
_symmetry_Int_Tables_number   1
_chemical_formula_structural   ZnS
_chemical_formula_sum   'Zn50 S50'
_cell_volume   2407.27098118
_cell_formula_units_Z   50
loop_
 _symmetry_equiv_pos_site_id
 _symmetry_equiv_pos_as_xyz
  1  'x, y, z'
loop_
 _atom_site_type_symbol
 _atom_site_label
 _atom_site_symmetry_multiplicity
 _atom_site_fract_x
 _atom_site_fract_y
 _atom_site_fract_z
 _atom_site_occupancy
  Zn  Zn0  1  0.55675511  0.94996721  0.33078091  1
  Zn  Zn1  1  0.32181847  0.61717322  0.74790492  1
  Zn  Zn2  1  0.39655969  0.82666143  0.57532069  1
  Zn  Zn3  1  0.08065870  0.27313968  0.36694836  1
  Zn  Zn4  1  0.38336860  0.21939367  0.71383372  1
  Zn  Zn5  1  0.07191041  0.04730100  0.71648093  1
  Zn  Zn6  1  0.50635889  0.31387920  0.10670925  1
  Zn  Zn7  1  0.81848181  0.74030830  0.30981473  1
  Zn  Zn8  1  0.94493577  0.41899021  0.57867685  1
  Zn  Zn9  1  0.38466955  0.19001960  0.98461305  1
  Zn  Zn10  1  0.01303836  0.00007456  0.33144834  1
  Zn  Zn11  1  0.10149975  0.12393610  0.10429707  1
  Zn  Zn12  1  0.51724580  0.88885875  0.73161569  1
  Zn  Zn13  1  0.87804152  0.18038301  0.18995324  1
  Zn  Zn14  1  0.08998025  0.18928502  0.82484402  1
  Zn  Zn15  1  0.17382521  0.70360853  0.43124440  1
  Zn  Zn16  1  0.35816415  0.97048394  0.72052885  1
  Zn  Zn17  1  0.68118331  0.53277105  0.90789495  1
  Zn  Zn18  1  0.86882564  0.19288215  0.01515450  1
  Zn  Zn19  1  0.64711787  0.10885690  0.81995577  1
  Zn  Zn20  1  0.71793568  0.90839561  0.52321301  1
  Zn  Zn21  1  0.64618955  0.66312855  0.24431295  1
  Zn  Zn22  1  0.41452311  0.61007589  0.98485221  1
  Zn  Zn23  1  0.43407286  0.94271142  0.89651941  1
  Zn  Zn24  1  0.89256162  0.92517507  0.91920496  1
  Zn  Zn25  1  0.90119890  0.14925745  0.51858754  1
  Zn  Zn26  1  0.76491767  0.45616473  0.14388641  1
  Zn  Zn27  1  0.05031467  0.86271119  0.14447852  1
  Zn  Zn28  1  0.63740385  0.66089159  0.65156045  1
  Zn  Zn29  1  0.86637822  0.04238197  0.78918197  1
  Zn  Zn30  1  0.33035439  0.01514513  0.22310688  1
  Zn  Zn31  1  0.73026530  0.82118767  0.16284817  1
  Zn  Zn32  1  0.91163254  0.62848068  0.73902778  1
  Zn  Zn33  1  0.05419472  0.60234294  0.24292262  1
  Zn  Zn34  1  0.23555722  0.46255290  0.45583860  1
  Zn  Zn35  1  0.84783489  0.38043449  0.83421249  1
  Zn  Zn36  1  0.45298408  0.53319353  0.17317457  1
  Zn  Zn37  1  0.14731746  0.80519159  0.65126385  1
  Zn  Zn38  1  0.72551593  0.80582812  0.87383131  1
  Zn  Zn39  1  0.74356986  0.16973389  0.67913829  1
  Zn  Zn40  1  0.38633160  0.39964744  0.52314701  1
  Zn  Zn41  1  0.19134197  0.99170897  0.93443495  1
  Zn  Zn42  1  0.90208268  0.64725222  0.06189692  1
  Zn  Zn43  1  0.96041281  0.73932926  0.53355286  1
  Zn  Zn44  1  0.24543077  0.73645001  0.02067568  1
  Zn  Zn45  1  0.44887343  0.82588834  0.17340010  1
  Zn  Zn46  1  0.58431285  0.39720971  0.66897132  1
  Zn  Zn47  1  0.57740318  0.28559190  0.94492444  1
  Zn  Zn48  1  0.77303527  0.58321383  0.50343328  1
  Zn  Zn49  1  0.60602026  0.09587558  0.12437265  1
  S  S50  1  0.26773968  0.61984799  0.90148634  1
  S  S51  1  0.81749053  0.28022078  0.56330390  1
  S  S52  1  0.19270213  0.93726090  0.76796218  1
  S  S53  1  0.96357356  0.47833632  0.74156527  1
  S  S54  1  0.73623831  0.66195747  0.78883249  1
  S  S55  1  0.16385060  0.26023951  0.21771312  1
  S  S56  1  0.45053604  0.12298594  0.83895697  1
  S  S57  1  0.70313813  0.00438279  0.39173088  1
  S  S58  1  0.81290654  0.78318559  0.01728851  1
  S  S59  1  0.66487538  0.38254981  0.81863727  1
  S  S60  1  0.23769559  0.29567047  0.73945504  1
  S  S61  1  0.05672741  0.06042123  0.54473371  1
  S  S62  1  0.42656000  0.49074316  0.73711512  1
  S  S63  1  0.60828102  0.91955669  0.87031003  1
  S  S64  1  0.57415415  0.58283816  0.02284158  1
  S  S65  1  0.08173742  0.70380616  0.09852587  1
  S  S66  1  0.87415129  0.58950453  0.22963909  1
  S  S67  1  0.35155341  0.40506906  0.09129505  1
  S  S68  1  0.20516790  0.16803723  0.96602016  1
  S  S69  1  0.61451148  0.52683723  0.55610770  1
  S  S70  1  0.20127125  0.39549345  0.14964045  1
  S  S71  1  0.83587941  0.49236345  0.99255649  1
  S  S72  1  0.57238972  0.80544772  0.60134656  1
  S  S73  1  0.20107420  0.14390868  0.51539878  1
  S  S74  1  0.34937724  0.38243213  0.82717626  1
  S  S75  1  0.91924638  0.22824523  0.85787573  1
  S  S76  1  0.31577058  0.90566485  0.01526193  1
  S  S77  1  0.64757434  0.34172645  0.22414163  1
  S  S78  1  0.11077201  0.83810513  0.47716055  1
  S  S79  1  0.43546179  0.13605626  0.14012256  1
  S  S80  1  0.79456680  0.76022131  0.47421948  1
  S  S81  1  0.91007356  0.88071671  0.24329631  1
  S  S82  1  0.39697537  0.99917778  0.55689434  1
  S  S83  1  0.69976861  0.19878765  0.24315884  1
  S  S84  1  0.19794446  0.58281679  0.33368030  1
  S  S85  1  0.29450108  0.05775442  0.45057150  1
  S  S86  1  0.36293415  0.67649102  0.13912211  1
  S  S87  1  0.27177845  0.69805486  0.61067258  1
  S  S88  1  0.93760668  0.56550821  0.48418231  1
  S  S89  1  0.48299925  0.27620199  0.58640927  1
  S  S90  1  0.60122256  0.92179150  0.13981555  1
  S  S91  1  0.97715315  0.78205093  0.69906755  1
  S  S92  1  0.68693860  0.15902675  0.98243632  1
  S  S93  1  0.15325679  0.00399106  0.22263421  1
  S  S94  1  0.09227198  0.35723436  0.50483635  1
  S  S95  1  0.55476974  0.52864934  0.30172142  1
  S  S96  1  0.03320073  0.97005621  0.01255395  1
  S  S97  1  0.82922479  0.01609282  0.62258766  1
  S  S98  1  0.38991752  0.89062585  0.31669517  1
  S  S99  1  0.94406507  0.14882184  0.34729616  1
