# generated using pymatgen
data_NaMnN
_symmetry_space_group_name_H-M   'P 1'
_cell_length_a   3.09925037
_cell_length_b   3.11956489
_cell_length_c   9.79040600
_cell_angle_alpha   90.00000000
_cell_angle_beta   90.00000000
_cell_angle_gamma   117.78786904
_symmetry_Int_Tables_number   1
_chemical_formula_structural   NaMnN
_chemical_formula_sum   'Na2 Mn2 N2'
_cell_volume   83.74086661
_cell_formula_units_Z   2
loop_
 _symmetry_equiv_pos_site_id
 _symmetry_equiv_pos_as_xyz
  1  'x, y, z'
loop_
 _atom_site_type_symbol
 _atom_site_label
 _atom_site_symmetry_multiplicity
 _atom_site_fract_x
 _atom_site_fract_y
 _atom_site_fract_z
 _atom_site_occupancy
  Na  Na0  1  0.50000000  0.00000000  0.50000000  1
  Na  Na1  1  0.50000000  0.00000000  0.00000000  1
  Mn  Mn2  1  0.13131000  0.37890700  0.25000000  1
  Mn  Mn3  1  0.86869000  0.62109300  0.75000000  1
  N  N4  1  0.20606800  0.28076800  0.75000000  1
  N  N5  1  0.79393200  0.71923200  0.25000000  1
