# generated using pymatgen
data_V2O5
_symmetry_space_group_name_H-M   'P 1'
_cell_length_a   13.01216422
_cell_length_b   11.84205109
_cell_length_c   11.92219025
_cell_angle_alpha   83.15810135
_cell_angle_beta   84.52736388
_cell_angle_gamma   89.20855951
_symmetry_Int_Tables_number   1
_chemical_formula_structural   V2O5
_chemical_formula_sum   'V30 O75'
_cell_volume   1815.69648654
_cell_formula_units_Z   15
loop_
 _symmetry_equiv_pos_site_id
 _symmetry_equiv_pos_as_xyz
  1  'x, y, z'
loop_
 _atom_site_type_symbol
 _atom_site_label
 _atom_site_symmetry_multiplicity
 _atom_site_fract_x
 _atom_site_fract_y
 _atom_site_fract_z
 _atom_site_occupancy
  V  V0  1  0.95234069  0.92700382  0.33029700  1
  V  V1  1  0.12151165  0.82860480  0.72744433  1
  V  V2  1  0.16249779  0.10931474  0.29460348  1
  V  V3  1  0.77679014  0.13811627  0.23837547  1
  V  V4  1  0.95520471  0.02102943  0.81609861  1
  V  V5  1  0.80718893  0.83130230  0.99213039  1
  V  V6  1  0.98888304  0.62001070  0.90456209  1
  V  V7  1  0.35473904  0.68075428  0.12458157  1
  V  V8  1  0.79156927  0.14553583  0.52434474  1
  V  V9  1  0.38545383  0.41376421  0.04162535  1
  V  V10  1  0.46396861  0.02141440  0.62141957  1
  V  V11  1  0.38031563  0.95891918  0.37387980  1
  V  V12  1  0.34507105  0.85327472  0.87094949  1
  V  V13  1  0.38956365  0.13694817  0.98517869  1
  V  V14  1  0.09562187  0.39687170  0.75604605  1
  V  V15  1  0.99354675  0.23125351  0.61571425  1
  V  V16  1  0.82962072  0.72117125  0.25487261  1
  V  V17  1  0.15728704  0.26064859  0.00894388  1
  V  V18  1  0.49598881  0.61271223  0.36525909  1
  V  V19  1  0.56558081  0.21446673  0.76098483  1
  V  V20  1  0.31398893  0.47344864  0.57598613  1
  V  V21  1  0.31787931  0.72357824  0.57782764  1
  V  V22  1  0.72565671  0.60941211  0.50658686  1
  V  V23  1  0.91074539  0.37486802  0.10220558  1
  V  V24  1  0.67995278  0.48894106  0.75332283  1
  V  V25  1  0.15445082  0.36355328  0.43566558  1
  V  V26  1  0.67950373  0.89788502  0.54416764  1
  V  V27  1  0.53563038  0.89121966  0.00674653  1
  V  V28  1  0.76069950  0.57669217  0.99643059  1
  V  V29  1  0.61358679  0.41822156  0.18656702  1
  O  O30  1  0.13959840  0.45911338  0.33140754  1
  O  O31  1  0.13929937  0.16099393  0.16150641  1
  O  O32  1  0.98159579  0.34656309  0.72230256  1
  O  O33  1  0.86774308  0.89659484  0.07682040  1
  O  O34  1  0.80749529  0.60980860  0.37638680  1
  O  O35  1  0.76813190  0.51686027  0.62316623  1
  O  O36  1  0.23540280  0.35795302  0.04526587  1
  O  O37  1  0.02759239  0.72621887  0.77543435  1
  O  O38  1  0.71930359  0.74855454  0.54885908  1
  O  O39  1  0.16477812  0.22361431  0.37577248  1
  O  O40  1  0.67276100  0.87401581  0.00636504  1
  O  O41  1  0.34981816  0.72721836  0.95925357  1
  O  O42  1  0.59853597  0.59284262  0.75087762  1
  O  O43  1  0.51325359  0.42130772  0.09444182  1
  O  O44  1  0.31555442  0.94807340  0.95698452  1
  O  O45  1  0.44284536  0.19491267  0.84931669  1
  O  O46  1  0.39697113  0.59969026  0.49601122  1
  O  O47  1  0.48109280  0.02835347  0.03264646  1
  O  O48  1  0.64768845  0.63564894  0.99948087  1
  O  O49  1  0.25059030  0.74157270  0.17017869  1
  O  O50  1  0.91429262  0.49648111  0.98822193  1
  O  O51  1  0.02692561  0.30597321  0.04664029  1
  O  O52  1  0.34742692  0.82185321  0.44017193  1
  O  O53  1  0.55025503  0.73501925  0.34985454  1
  O  O54  1  0.40864795  0.44835802  0.90776312  1
  O  O55  1  0.07532740  0.99672073  0.34381668  1
  O  O56  1  0.38758371  0.39791445  0.65714342  1
  O  O57  1  0.83041735  0.24810126  0.13338067  1
  O  O58  1  0.65531713  0.94668171  0.41843600  1
  O  O59  1  0.15384022  0.29721470  0.85609284  1
  O  O60  1  0.64146424  0.12854887  0.82851262  1
  O  O61  1  0.85443180  0.69403141  0.91568205  1
  O  O62  1  0.49792470  0.86977124  0.87727999  1
  O  O63  1  0.25816165  0.59705730  0.64781924  1
  O  O64  1  0.74231881  0.81361905  0.28077312  1
  O  O65  1  0.41242482  0.03884653  0.48827660  1
  O  O66  1  0.28362904  0.04077365  0.29502987  1
  O  O67  1  0.74299003  0.45591962  0.11202399  1
  O  O68  1  0.60905516  0.56408633  0.48855389  1
  O  O69  1  0.92719982  0.15422908  0.51402554  1
  O  O70  1  0.80640370  0.68332831  0.11678486  1
  O  O71  1  0.75144953  0.00486790  0.59496297  1
  O  O72  1  0.93849964  0.41934554  0.21810356  1
  O  O73  1  0.91158754  0.14289640  0.73652444  1
  O  O74  1  0.85402325  0.91737422  0.86049521  1
  O  O75  1  0.32838392  0.53466524  0.09914736  1
  O  O76  1  0.88290691  0.03582798  0.25617764  1
  O  O77  1  0.29082389  0.39358172  0.46071646  1
  O  O78  1  0.05329770  0.95783344  0.72027571  1
  O  O79  1  0.05672189  0.66166015  0.99690725  1
  O  O80  1  0.40774726  0.62947774  0.26041933  1
  O  O81  1  0.16955640  0.41885573  0.62416607  1
  O  O82  1  0.47897705  0.95131429  0.28360090  1
  O  O83  1  0.74055096  0.24267162  0.59945336  1
  O  O84  1  0.89646815  0.89997504  0.45810022  1
  O  O85  1  0.25397141  0.14693854  0.98124610  1
  O  O86  1  0.10778004  0.17791302  0.62586131  1
  O  O87  1  0.95116047  0.79382741  0.26926258  1
  O  O88  1  0.75130530  0.16899871  0.38503684  1
  O  O89  1  0.62639495  0.28818113  0.24506296  1
  O  O90  1  0.19053736  0.80643131  0.59935218  1
  O  O91  1  0.52739848  0.14953715  0.63836289  1
  O  O92  1  0.75035411  0.49656610  0.87200296  1
  O  O93  1  0.38450408  0.76681080  0.67362587  1
  O  O94  1  0.40536180  0.24274934  0.06579624  1
  O  O95  1  0.02324288  0.35039700  0.50349430  1
  O  O96  1  0.00863109  0.05541995  0.92480243  1
  O  O97  1  0.68871978  0.07094709  0.18781730  1
  O  O98  1  0.37399531  0.98407022  0.72881921  1
  O  O99  1  0.57854171  0.50660181  0.29246425  1
  O  O100  1  0.55485061  0.90943196  0.62582561  1
  O  O101  1  0.47143123  0.78929121  0.09893724  1
  O  O102  1  0.06944230  0.51702576  0.82256418  1
  O  O103  1  0.60800581  0.35726223  0.75965773  1
  O  O104  1  0.21260924  0.83022482  0.82206421  1
