# generated using pymatgen
data_GaN
_symmetry_space_group_name_H-M   'P 1'
_cell_length_a   11.85182874
_cell_length_b   11.52908041
_cell_length_c   11.52289704
_cell_angle_alpha   86.74721019
_cell_angle_beta   86.93221168
_cell_angle_gamma   91.52295321
_symmetry_Int_Tables_number   1
_chemical_formula_structural   GaN
_chemical_formula_sum   'Ga50 N50'
_cell_volume   1569.01448384
_cell_formula_units_Z   50
loop_
 _symmetry_equiv_pos_site_id
 _symmetry_equiv_pos_as_xyz
  1  'x, y, z'
loop_
 _atom_site_type_symbol
 _atom_site_label
 _atom_site_symmetry_multiplicity
 _atom_site_fract_x
 _atom_site_fract_y
 _atom_site_fract_z
 _atom_site_occupancy
  Ga  Ga0  1  0.91257552  0.95032996  0.44288145  1
  Ga  Ga1  1  0.07948486  0.75397898  0.36553563  1
  Ga  Ga2  1  0.81036585  0.83302770  0.00184056  1
  Ga  Ga3  1  0.07401622  0.83903609  0.95237668  1
  Ga  Ga4  1  0.20464122  0.21847059  0.18982433  1
  Ga  Ga5  1  0.24500919  0.85176096  0.80473288  1
  Ga  Ga6  1  0.61082420  0.77113059  0.75542148  1
  Ga  Ga7  1  0.93886199  0.16260046  0.27025088  1
  Ga  Ga8  1  0.34882864  0.12446268  0.62488156  1
  Ga  Ga9  1  0.43759517  0.10932685  0.10918996  1
  Ga  Ga10  1  0.37810464  0.86966858  0.61415718  1
  Ga  Ga11  1  0.36604663  0.90538092  0.98540797  1
  Ga  Ga12  1  0.46540514  0.30581041  0.18864474  1
  Ga  Ga13  1  0.74690010  0.39507556  0.20262661  1
  Ga  Ga14  1  0.10829003  0.15081886  0.50331117  1
  Ga  Ga15  1  0.63304124  0.00622297  0.93147773  1
  Ga  Ga16  1  0.07365872  0.99021364  0.68523111  1
  Ga  Ga17  1  0.52593775  0.51640130  0.84125388  1
  Ga  Ga18  1  0.06787730  0.77933947  0.61670380  1
  Ga  Ga19  1  0.07258939  0.40682582  0.41168038  1
  Ga  Ga20  1  0.67097067  0.95230077  0.43862389  1
  Ga  Ga21  1  0.47374910  0.37599605  0.59718607  1
  Ga  Ga22  1  0.95197634  0.57255240  0.33084662  1
  Ga  Ga23  1  0.84759892  0.23609675  0.86675508  1
  Ga  Ga24  1  0.27270347  0.29535422  0.42312135  1
  Ga  Ga25  1  0.39021932  0.68948300  0.93044665  1
  Ga  Ga26  1  0.92714183  0.62584902  0.06907689  1
  Ga  Ga27  1  0.25448662  0.51098932  0.28516796  1
  Ga  Ga28  1  0.31600512  0.71053044  0.15127331  1
  Ga  Ga29  1  0.76317967  0.12021817  0.11255478  1
  Ga  Ga30  1  0.88655990  0.41399964  0.63059480  1
  Ga  Ga31  1  0.85557109  0.15405741  0.55839072  1
  Ga  Ga32  1  0.56929021  0.03368171  0.65026176  1
  Ga  Ga33  1  0.80853276  0.70471533  0.52999939  1
  Ga  Ga34  1  0.22518102  0.92903064  0.17958152  1
  Ga  Ga35  1  0.12020619  0.57164479  0.59573179  1
  Ga  Ga36  1  0.68377273  0.49919762  0.69653300  1
  Ga  Ga37  1  0.79345312  0.92956000  0.70433849  1
  Ga  Ga38  1  0.91352302  0.70310385  0.76873169  1
  Ga  Ga39  1  0.79141682  0.76293441  0.30204497  1
  Ga  Ga40  1  0.76842933  0.42834751  0.42266967  1
  Ga  Ga41  1  0.94176647  0.30768978  0.06563885  1
  Ga  Ga42  1  0.97520567  0.90281031  0.14617537  1
  Ga  Ga43  1  0.65751615  0.25380775  0.65757261  1
  Ga  Ga44  1  0.66829001  0.66336193  0.00057406  1
  Ga  Ga45  1  0.37415739  0.63413491  0.67906560  1
  Ga  Ga46  1  0.32684554  0.75687327  0.39465063  1
  Ga  Ga47  1  0.54630767  0.76672467  0.46844777  1
  Ga  Ga48  1  0.60498683  0.32938709  0.98158945  1
  Ga  Ga49  1  0.78600128  0.49028312  0.92522677  1
  N  N50  1  0.59242326  0.20549682  0.38186933  1
  N  N51  1  0.41159348  0.18434339  0.80762965  1
  N  N52  1  0.33289246  0.02207205  0.43648743  1
  N  N53  1  0.78053652  0.00089389  0.54910993  1
  N  N54  1  0.95932285  0.79637840  0.48737392  1
  N  N55  1  0.77351009  0.75821083  0.69377071  1
  N  N56  1  0.78952799  0.30223066  0.54573273  1
  N  N57  1  0.50186369  0.74280473  0.63749379  1
  N  N58  1  0.85459237  0.00875070  0.21318886  1
  N  N59  1  0.32618706  0.41085329  0.00698726  1
  N  N60  1  0.59905437  0.38860856  0.13938885  1
  N  N61  1  0.55381284  0.68117162  0.89540584  1
  N  N62  1  0.29775133  0.55651635  0.55119706  1
  N  N63  1  0.78311629  0.53624076  0.55503247  1
  N  N64  1  0.20842303  0.34855094  0.73167262  1
  N  N65  1  0.92187537  0.02554379  0.75472973  1
  N  N66  1  0.05302012  0.24266201  0.17196222  1
  N  N67  1  0.61753097  0.73920347  0.24893515  1
  N  N68  1  0.38608491  0.26355455  0.52720136  1
  N  N69  1  0.93621882  0.73585043  0.92691914  1
  N  N70  1  0.09550865  0.61615684  0.11159451  1
  N  N71  1  0.15682677  0.69492710  0.07266348  1
  N  N72  1  0.37700635  0.15680834  0.89886362  1
  N  N73  1  0.08575242  0.89133046  0.26238209  1
  N  N74  1  0.50163858  0.50985874  0.34323463  1
  N  N75  1  0.36743098  0.56270691  0.83008191  1
  N  N76  1  0.03710464  0.43473696  0.57230115  1
  N  N77  1  0.49841877  0.98504658  0.02833415  1
  N  N78  1  0.55177527  0.46858884  0.41421058  1
  N  N79  1  0.12274360  0.54474962  0.82892376  1
  N  N80  1  0.58056094  0.70309886  0.16680778  1
  N  N81  1  0.96849083  0.11399465  0.43070548  1
  N  N82  1  0.80616862  0.93827297  0.31386531  1
  N  N83  1  0.31441135  0.58651195  0.44209657  1
  N  N84  1  0.28309620  0.08221409  0.16105621  1
  N  N85  1  0.87239046  0.75654218  0.15518235  1
  N  N86  1  0.24313367  0.36334294  0.00440200  1
  N  N87  1  0.07736072  0.49362495  0.90342998  1
  N  N88  1  0.12604115  0.11771263  0.88738165  1
  N  N89  1  0.86616816  0.46675061  0.07514284  1
  N  N90  1  0.81803404  0.24516079  0.19384634  1
  N  N91  1  0.60054439  0.12026155  0.33899801  1
  N  N92  1  0.24166715  0.03266828  0.41294251  1
  N  N93  1  0.29994572  0.36869536  0.74175824  1
  N  N94  1  0.88903609  0.13887890  0.72905835  1
  N  N95  1  0.70175003  0.16072321  0.96397723  1
  N  N96  1  0.63745972  0.94297085  0.77814240  1
  N  N97  1  0.09112735  0.20681223  0.87526216  1
  N  N98  1  0.31520028  0.33500332  0.25742968  1
  N  N99  1  0.80783926  0.39324084  0.78626757  1
