# generated using pymatgen
data_HfO2
_symmetry_space_group_name_H-M   'P 1'
_cell_length_a   10.91359136
_cell_length_b   11.23709003
_cell_length_c   10.85027468
_cell_angle_alpha   87.59636824
_cell_angle_beta   89.41380394
_cell_angle_gamma   90.51919256
_symmetry_Int_Tables_number   1
_chemical_formula_structural   HfO2
_chemical_formula_sum   'Hf34 O68'
_cell_volume   1329.34492963
_cell_formula_units_Z   34
loop_
 _symmetry_equiv_pos_site_id
 _symmetry_equiv_pos_as_xyz
  1  'x, y, z'
loop_
 _atom_site_type_symbol
 _atom_site_label
 _atom_site_symmetry_multiplicity
 _atom_site_fract_x
 _atom_site_fract_y
 _atom_site_fract_z
 _atom_site_occupancy
  Hf  Hf0  1  0.73319361  0.66894900  0.74505106  1
  Hf  Hf1  1  0.39403395  0.41865266  0.45840185  1
  Hf  Hf2  1  0.65120482  0.53853235  0.23270514  1
  Hf  Hf3  1  0.95650750  0.54206283  0.35764696  1
  Hf  Hf4  1  0.67645024  0.09584808  0.06248267  1
  Hf  Hf5  1  0.41369842  0.72676319  0.55517658  1
  Hf  Hf6  1  0.39637226  0.00000737  0.54357221  1
  Hf  Hf7  1  0.44592427  0.16802908  0.88496597  1
  Hf  Hf8  1  0.16096663  0.38785246  0.95367763  1
  Hf  Hf9  1  0.19977601  0.24646200  0.67853114  1
  Hf  Hf10  1  0.91896760  0.92334246  0.13139227  1
  Hf  Hf11  1  0.09502456  0.85041283  0.44301528  1
  Hf  Hf12  1  0.92626067  0.58503909  0.02124114  1
  Hf  Hf13  1  0.67993212  0.42573803  0.51897376  1
  Hf  Hf14  1  0.91527609  0.25357758  0.44758302  1
  Hf  Hf15  1  0.19169569  0.18455582  0.38400238  1
  Hf  Hf16  1  0.27289142  0.96543548  0.21785111  1
  Hf  Hf17  1  0.92716083  0.45365554  0.70894363  1
  Hf  Hf18  1  0.15218286  0.71949156  0.12622930  1
  Hf  Hf19  1  0.17042075  0.57675643  0.55564688  1
  Hf  Hf20  1  0.44334684  0.62763183  0.04744047  1
  Hf  Hf21  1  0.68144384  0.37062614  0.94568444  1
  Hf  Hf22  1  0.63203385  0.17957923  0.37837207  1
  Hf  Hf23  1  0.19523961  0.68203230  0.82053470  1
  Hf  Hf24  1  0.90878280  0.90725075  0.74665890  1
  Hf  Hf25  1  0.55891032  0.88845779  0.81560341  1
  Hf  Hf26  1  0.58869135  0.86913434  0.24350999  1
  Hf  Hf27  1  0.47313679  0.51353253  0.77513990  1
  Hf  Hf28  1  0.80323337  0.91626026  0.48812829  1
  Hf  Hf29  1  0.68339617  0.13944723  0.68717959  1
  Hf  Hf30  1  0.94081940  0.26472569  0.14583132  1
  Hf  Hf31  1  0.39909685  0.29815921  0.17900237  1
  Hf  Hf32  1  0.15600690  0.95897208  0.91131016  1
  Hf  Hf33  1  0.96297793  0.17587501  0.85793496  1
  O  O34  1  0.34523833  0.54329142  0.91306339  1
  O  O35  1  0.74424250  0.32823956  0.37269107  1
  O  O36  1  0.30415610  0.63457583  0.15496033  1
  O  O37  1  0.54622887  0.05611896  0.47775525  1
  O  O38  1  0.50280340  0.08383361  0.72859415  1
  O  O39  1  0.77372399  0.53189480  0.63140520  1
  O  O40  1  0.50626044  0.44163249  0.61058516  1
  O  O41  1  0.95702302  0.37334650  0.29871184  1
  O  O42  1  0.51724732  0.35000467  0.85265453  1
  O  O43  1  0.02746051  0.59820970  0.19672069  1
  O  O44  1  0.26041792  0.36938574  0.09323707  1
  O  O45  1  0.78133798  0.56638538  0.36406603  1
  O  O46  1  0.50482383  0.20701502  0.05993554  1
  O  O47  1  0.61327681  0.06415113  0.23819028  1
  O  O48  1  0.29993074  0.14318531  0.22623133  1
  O  O49  1  0.22118240  0.76990060  0.55823025  1
  O  O50  1  0.49438607  0.75299510  0.91628389  1
  O  O51  1  0.86123712  0.08869623  0.73543808  1
  O  O52  1  0.41823662  0.87195956  0.67832814  1
  O  O53  1  0.22819518  0.99667323  0.40961683  1
  O  O54  1  0.32192225  0.61925707  0.69523539  1
  O  O55  1  0.26886590  0.34423850  0.34246867  1
  O  O56  1  0.67285520  0.18835628  0.87521020  1
  O  O57  1  0.69868321  0.96454703  0.64436646  1
  O  O58  1  0.96396647  0.98506178  0.92091455  1
  O  O59  1  0.80242825  0.10459770  0.44626943  1
  O  O60  1  0.11590616  0.58256341  0.96020610  1
  O  O61  1  0.57753776  0.69251913  0.18201625  1
  O  O62  1  0.18361717  0.81055378  0.27942483  1
  O  O63  1  0.87799508  0.58907086  0.83984194  1
  O  O64  1  0.31230802  0.04777758  0.92361817  1
  O  O65  1  0.68758061  0.83036736  0.38915923  1
  O  O66  1  0.01316696  0.46362440  0.52383011  1
  O  O67  1  0.06594647  0.22120892  0.00767183  1
  O  O68  1  0.83879487  0.31610360  0.60454367  1
  O  O69  1  0.74579173  0.27686534  0.10064625  1
  O  O70  1  0.08279727  0.83222134  0.78553777  1
  O  O71  1  0.49150590  0.28983699  0.33969077  1
  O  O72  1  0.51442452  0.46228464  0.12338579  1
  O  O73  1  0.30823049  0.16404351  0.55183523  1
  O  O74  1  0.98206097  0.93684192  0.56426839  1
  O  O75  1  0.95938536  0.76452221  0.05660831  1
  O  O76  1  0.56120771  0.67653133  0.66865229  1
  O  O77  1  0.08291654  0.57526856  0.71940276  1
  O  O78  1  0.93902654  0.89725090  0.31966386  1
  O  O79  1  0.28937981  0.28170313  0.83777176  1
  O  O80  1  0.11263763  0.10221509  0.77561939  1
  O  O81  1  0.02894664  0.16880194  0.29495377  1
  O  O82  1  0.55662343  0.50045543  0.39181285  1
  O  O83  1  0.23301080  0.79260340  0.96222802  1
  O  O84  1  0.07653528  0.21996381  0.53056428  1
  O  O85  1  0.56496921  0.00119787  0.95014309  1
  O  O86  1  0.83977918  0.34607792  0.85132212  1
  O  O87  1  0.99051877  0.41581793  0.04614294  1
  O  O88  1  0.25229393  0.40681799  0.59058130  1
  O  O89  1  0.04831311  0.67508278  0.44269720  1
  O  O90  1  0.33611463  0.58856726  0.45184066  1
  O  O91  1  0.73262092  0.90985838  0.12287969  1
  O  O92  1  0.74224396  0.82724965  0.83597985  1
  O  O93  1  0.05878666  0.33088043  0.77730542  1
  O  O94  1  0.83450779  0.77697087  0.62461942  1
  O  O95  1  0.76484453  0.51969344  0.08395868  1
  O  O96  1  0.61794369  0.25490381  0.56051996  1
  O  O97  1  0.63144544  0.54284056  0.86689328  1
  O  O98  1  0.86903595  0.09919015  0.09063019  1
  O  O99  1  0.43597663  0.85742195  0.42829309  1
  O  O100  1  0.42288291  0.89686117  0.16813082  1
  O  O101  1  0.12435219  0.95010984  0.10117934  1
