# generated using pymatgen
data_ZnS
_symmetry_space_group_name_H-M   'P 1'
_cell_length_a   12.86503228
_cell_length_b   12.83719873
_cell_length_c   14.45846089
_cell_angle_alpha   90.22144637
_cell_angle_beta   95.56551039
_cell_angle_gamma   91.15363652
_symmetry_Int_Tables_number   1
_chemical_formula_structural   ZnS
_chemical_formula_sum   'Zn50 S50'
_cell_volume   2376.05027598
_cell_formula_units_Z   50
loop_
 _symmetry_equiv_pos_site_id
 _symmetry_equiv_pos_as_xyz
  1  'x, y, z'
loop_
 _atom_site_type_symbol
 _atom_site_label
 _atom_site_symmetry_multiplicity
 _atom_site_fract_x
 _atom_site_fract_y
 _atom_site_fract_z
 _atom_site_occupancy
  Zn  Zn0  1  0.02469249  0.36439435  0.01098613  1
  Zn  Zn1  1  0.51035295  0.14394914  0.26054560  1
  Zn  Zn2  1  0.43768447  0.01048059  0.05411386  1
  Zn  Zn3  1  0.93355679  0.74353560  0.06074070  1
  Zn  Zn4  1  0.25792313  0.14100251  0.64193480  1
  Zn  Zn5  1  0.64502831  0.62261062  0.78047688  1
  Zn  Zn6  1  0.83874218  0.32179093  0.17954207  1
  Zn  Zn7  1  0.41210658  0.68228780  0.35700932  1
  Zn  Zn8  1  0.89931873  0.46505856  0.77890792  1
  Zn  Zn9  1  0.14770232  0.69677535  0.30843893  1
  Zn  Zn10  1  0.34460298  0.96839949  0.28963114  1
  Zn  Zn11  1  0.06104963  0.07660706  0.04576846  1
  Zn  Zn12  1  0.41570604  0.46298608  0.44891893  1
  Zn  Zn13  1  0.74709244  0.46710216  0.38850386  1
  Zn  Zn14  1  0.79442627  0.19421266  0.90495026  1
  Zn  Zn15  1  0.30876736  0.36366986  0.55179726  1
  Zn  Zn16  1  0.75222361  0.49367867  0.98878423  1
  Zn  Zn17  1  0.57320199  0.33306970  0.73479985  1
  Zn  Zn18  1  0.94620508  0.11639167  0.18360462  1
  Zn  Zn19  1  0.62817529  0.03806724  0.76734382  1
  Zn  Zn20  1  0.08351646  0.13720034  0.45527830  1
  Zn  Zn21  1  0.91463161  0.76349949  0.48499179  1
  Zn  Zn22  1  0.49481975  0.76614229  0.17836192  1
  Zn  Zn23  1  0.68288284  0.09002840  0.59469295  1
  Zn  Zn24  1  0.73434887  0.86284289  0.65601812  1
  Zn  Zn25  1  0.75220701  0.20195243  0.38886178  1
  Zn  Zn26  1  0.05113336  0.94307714  0.17148388  1
  Zn  Zn27  1  0.82681471  0.49084431  0.55098560  1
  Zn  Zn28  1  0.18473973  0.61419683  0.57272385  1
  Zn  Zn29  1  0.86683663  0.07553573  0.59881884  1
  Zn  Zn30  1  0.20438867  0.39364364  0.35544063  1
  Zn  Zn31  1  0.63052264  0.89108674  0.41539573  1
  Zn  Zn32  1  0.79394716  0.61339810  0.26067582  1
  Zn  Zn33  1  0.14399947  0.32225514  0.15304279  1
  Zn  Zn34  1  0.93118474  0.55074329  0.38035477  1
  Zn  Zn35  1  0.24959880  0.89377729  0.15190845  1
  Zn  Zn36  1  0.67402509  0.38573725  0.60607850  1
  Zn  Zn37  1  0.02842330  0.49091350  0.14388757  1
  Zn  Zn38  1  0.20292577  0.86546580  0.52596326  1
  Zn  Zn39  1  0.47209358  0.16266508  0.50123048  1
  Zn  Zn40  1  0.10735090  0.59709114  0.83717264  1
  Zn  Zn41  1  0.21653820  0.78475734  0.82293523  1
  Zn  Zn42  1  0.12350339  0.35123554  0.73549088  1
  Zn  Zn43  1  0.02956580  0.70258376  0.71271682  1
  Zn  Zn44  1  0.64450019  0.01499365  0.15713181  1
  Zn  Zn45  1  0.87987174  0.88611574  0.96014013  1
  Zn  Zn46  1  0.00968003  0.10579676  0.78213575  1
  Zn  Zn47  1  0.35164004  0.54381032  0.78724939  1
  Zn  Zn48  1  0.38587718  0.49371172  0.18085401  1
  Zn  Zn49  1  0.83517024  0.95938017  0.31848745  1
  S  S50  1  0.55861618  0.87678563  0.07539871  1
  S  S51  1  0.51633640  0.00783938  0.62055968  1
  S  S52  1  0.80324171  0.57241866  0.85515048  1
  S  S53  1  0.51790921  0.49237892  0.78970728  1
  S  S54  1  0.56783879  0.48516238  0.14317648  1
  S  S55  1  0.71351351  0.33052938  0.28076363  1
  S  S56  1  0.57856024  0.77894588  0.82312389  1
  S  S57  1  0.02518600  0.95824413  0.33223870  1
  S  S58  1  0.00028009  0.26632013  0.24843259  1
  S  S59  1  0.57247723  0.50259005  0.00240638  1
  S  S60  1  0.41284182  0.23956696  0.63333680  1
  S  S61  1  0.23689620  0.47135066  0.66558368  1
  S  S62  1  0.00598633  0.97224421  0.65787769  1
  S  S63  1  0.62422198  0.19189621  0.84050844  1
  S  S64  1  0.06082393  0.82388112  0.40619910  1
  S  S65  1  0.14647527  0.22549736  0.01839614  1
  S  S66  1  0.10002675  0.77055275  0.15753100  1
  S  S67  1  0.53051570  0.15494388  0.10775966  1
  S  S68  1  0.83794143  0.32768589  0.01601169  1
  S  S69  1  0.90233906  0.11948630  0.45041294  1
  S  S70  1  0.26973642  0.69431771  0.44775341  1
  S  S71  1  0.17147263  0.18256016  0.76581535  1
  S  S72  1  0.22703968  0.03990401  0.51188730  1
  S  S73  1  0.14569411  0.30864930  0.47724253  1
  S  S74  1  0.30594404  0.35247541  0.23814308  1
  S  S75  1  0.87532172  0.22762077  0.71211323  1
  S  S76  1  0.05626314  0.42985367  0.86667080  1
  S  S77  1  0.77850757  0.79804310  0.37552995  1
  S  S78  1  0.27910572  0.63804028  0.89693854  1
  S  S79  1  0.34437955  0.66004026  0.19777353  1
  S  S80  1  0.19887055  0.77097975  0.65950014  1
  S  S81  1  0.86673000  0.58637302  0.11577732  1
  S  S82  1  0.47863737  0.84507081  0.32781362  1
  S  S83  1  0.66258036  0.04459093  0.32841294  1
  S  S84  1  0.08146495  0.52576668  0.30464242  1
  S  S85  1  0.63993201  0.23606995  0.50269201  1
  S  S86  1  0.17579214  0.92957967  0.90217835  1
  S  S87  1  0.61334092  0.62178436  0.21891578  1
  S  S88  1  0.98685710  0.60153501  0.53817279  1
  S  S89  1  0.57338421  0.86982007  0.56793045  1
  S  S90  1  0.82277345  0.99318401  0.15093412  1
  S  S91  1  0.71478790  0.64678919  0.61989537  1
  S  S92  1  0.38647904  0.13143012  0.35776719  1
  S  S93  1  0.30249982  0.90012108  0.00052373  1
  S  S94  1  0.94525704  0.35923084  0.65432832  1
  S  S95  1  0.91509877  0.83410011  0.64210106  1
  S  S96  1  0.70463467  0.88172708  0.81495114  1
  S  S97  1  0.91938810  0.06101690  0.91225052  1
  S  S98  1  0.56575119  0.57917169  0.41736669  1
  S  S99  1  0.57069343  0.58642936  0.56608460  1
