# generated using pymatgen
data_Ge3Mo5N9
_symmetry_space_group_name_H-M   'P 1'
_cell_length_a   7.40606613
_cell_length_b   11.41458976
_cell_length_c   14.86833900
_cell_angle_alpha   90.00000000
_cell_angle_beta   90.00000000
_cell_angle_gamma   140.40998715
_symmetry_Int_Tables_number   1
_chemical_formula_structural   Ge3Mo5N9
_chemical_formula_sum   'Ge12 Mo20 N36'
_cell_volume   801.02713555
_cell_formula_units_Z   4
loop_
 _symmetry_equiv_pos_site_id
 _symmetry_equiv_pos_as_xyz
  1  'x, y, z'
loop_
 _atom_site_type_symbol
 _atom_site_label
 _atom_site_symmetry_multiplicity
 _atom_site_fract_x
 _atom_site_fract_y
 _atom_site_fract_z
 _atom_site_occupancy
  Ge  Ge0  1  0.00000000  0.76116800  0.03823800  1
  Ge  Ge1  1  0.00000000  0.23883200  0.96176200  1
  Ge  Ge2  1  0.00000000  0.73883200  0.53823800  1
  Ge  Ge3  1  0.00000000  0.26116800  0.46176200  1
  Ge  Ge4  1  0.00000000  0.27445000  0.73171300  1
  Ge  Ge5  1  0.00000000  0.72555000  0.26828700  1
  Ge  Ge6  1  0.00000000  0.22555000  0.23171300  1
  Ge  Ge7  1  0.00000000  0.77445000  0.76828700  1
  Ge  Ge8  1  0.50000000  0.81222600  0.75000000  1
  Ge  Ge9  1  0.50000000  0.68777400  0.25000000  1
  Ge  Ge10  1  0.50000000  0.18777500  0.25000000  1
  Ge  Ge11  1  0.50000000  0.31222500  0.75000000  1
  Mo  Mo12  1  0.00000000  0.52268600  0.86124600  1
  Mo  Mo13  1  0.00000000  0.47731400  0.13875400  1
  Mo  Mo14  1  0.00000000  0.97731400  0.36124600  1
  Mo  Mo15  1  0.00000000  0.02268600  0.63875400  1
  Mo  Mo16  1  0.42850200  0.02206400  0.89160300  1
  Mo  Mo17  1  0.42850200  0.40643800  0.10839700  1
  Mo  Mo18  1  0.42850200  0.90643800  0.39160300  1
  Mo  Mo19  1  0.42850200  0.52206400  0.60839700  1
  Mo  Mo20  1  0.57149800  0.97793600  0.10839700  1
  Mo  Mo21  1  0.57149800  0.59356200  0.89160300  1
  Mo  Mo22  1  0.57149800  0.09356200  0.60839700  1
  Mo  Mo23  1  0.57149800  0.47793600  0.39160300  1
  Mo  Mo24  1  0.00000000  0.43573000  0.60974300  1
  Mo  Mo25  1  0.00000000  0.56427000  0.39025700  1
  Mo  Mo26  1  0.00000000  0.06427000  0.10974300  1
  Mo  Mo27  1  0.00000000  0.93573000  0.89025700  1
  Mo  Mo28  1  0.60383300  0.30191600  0.00000000  1
  Mo  Mo29  1  0.60383300  0.80191600  0.50000000  1
  Mo  Mo30  1  0.39616700  0.69808400  0.00000000  1
  Mo  Mo31  1  0.39616700  0.19808400  0.50000000  1
  N  N32  1  0.00000000  0.52070400  0.71706300  1
  N  N33  1  0.00000000  0.47929600  0.28293700  1
  N  N34  1  0.00000000  0.97929600  0.21706300  1
  N  N35  1  0.00000000  0.02070400  0.78293700  1
  N  N36  1  0.00000000  0.31585800  0.85111000  1
  N  N37  1  0.00000000  0.68414200  0.14889000  1
  N  N38  1  0.00000000  0.18414200  0.35111000  1
  N  N39  1  0.00000000  0.81585800  0.64889000  1
  N  N40  1  0.00000000  0.60694000  0.98154400  1
  N  N41  1  0.00000000  0.39306000  0.01845600  1
  N  N42  1  0.00000000  0.89306000  0.48154400  1
  N  N43  1  0.00000000  0.10694000  0.51845600  1
  N  N44  1  0.71701000  0.53162000  0.81562800  1
  N  N45  1  0.71701000  0.18539000  0.18437200  1
  N  N46  1  0.71701000  0.68539000  0.31562800  1
  N  N47  1  0.71701000  0.03162000  0.68437200  1
  N  N48  1  0.28299000  0.46838000  0.18437200  1
  N  N49  1  0.28299000  0.81461000  0.81562800  1
  N  N50  1  0.28299000  0.31461000  0.68437200  1
  N  N51  1  0.28299000  0.96838000  0.31562800  1
  N  N52  1  0.58336400  0.25420000  0.85369800  1
  N  N53  1  0.58336400  0.32916500  0.14630200  1
  N  N54  1  0.58336400  0.82916500  0.35369800  1
  N  N55  1  0.58336400  0.75420000  0.64630200  1
  N  N56  1  0.41663600  0.74580000  0.14630200  1
  N  N57  1  0.41663600  0.67083500  0.85369800  1
  N  N58  1  0.41663600  0.17083500  0.64630200  1
  N  N59  1  0.41663600  0.24580000  0.35369800  1
  N  N60  1  0.35931700  0.02003500  0.02672100  1
  N  N61  1  0.35931700  0.33928100  0.97327900  1
  N  N62  1  0.35931700  0.83928100  0.52672100  1
  N  N63  1  0.35931700  0.52003500  0.47327900  1
  N  N64  1  0.64068300  0.97996500  0.97327900  1
  N  N65  1  0.64068300  0.66071900  0.02672100  1
  N  N66  1  0.64068300  0.16071900  0.47327900  1
  N  N67  1  0.64068300  0.47996500  0.52672100  1
