# generated using pymatgen
data_Y5(GeN3)3
_symmetry_space_group_name_H-M   'P 1'
_cell_length_a   7.75541214
_cell_length_b   11.34026117
_cell_length_c   15.68278600
_cell_angle_alpha   90.00000000
_cell_angle_beta   90.00000000
_cell_angle_gamma   136.98029542
_symmetry_Int_Tables_number   1
_chemical_formula_structural   Y5(GeN3)3
_chemical_formula_sum   'Y20 Ge12 N36'
_cell_volume   941.01077741
_cell_formula_units_Z   4
loop_
 _symmetry_equiv_pos_site_id
 _symmetry_equiv_pos_as_xyz
  1  'x, y, z'
loop_
 _atom_site_type_symbol
 _atom_site_label
 _atom_site_symmetry_multiplicity
 _atom_site_fract_x
 _atom_site_fract_y
 _atom_site_fract_z
 _atom_site_occupancy
  Y  Y0  1  0.00000000  0.50475900  0.82889500  1
  Y  Y1  1  0.00000000  0.49524100  0.17110500  1
  Y  Y2  1  0.00000000  0.99524100  0.32889500  1
  Y  Y3  1  0.00000000  0.00475900  0.67110500  1
  Y  Y4  1  0.41769900  0.97583200  0.87118000  1
  Y  Y5  1  0.41769900  0.44186700  0.12882000  1
  Y  Y6  1  0.41769900  0.94186700  0.37118000  1
  Y  Y7  1  0.41769900  0.47583200  0.62882000  1
  Y  Y8  1  0.58230100  0.02416800  0.12882000  1
  Y  Y9  1  0.58230100  0.55813300  0.87118000  1
  Y  Y10  1  0.58230100  0.05813300  0.62882000  1
  Y  Y11  1  0.58230100  0.52416800  0.37118000  1
  Y  Y12  1  0.00000000  0.51901700  0.61095100  1
  Y  Y13  1  0.00000000  0.48098300  0.38904900  1
  Y  Y14  1  0.00000000  0.98098300  0.11095100  1
  Y  Y15  1  0.00000000  0.01901700  0.88904900  1
  Y  Y16  1  0.58589100  0.29294500  0.00000000  1
  Y  Y17  1  0.58589100  0.79294500  0.50000000  1
  Y  Y18  1  0.41410900  0.70705500  0.00000000  1
  Y  Y19  1  0.41410900  0.20705500  0.50000000  1
  Ge  Ge20  1  0.00000000  0.75509900  0.01319000  1
  Ge  Ge21  1  0.00000000  0.24490100  0.98681000  1
  Ge  Ge22  1  0.00000000  0.74490100  0.51319000  1
  Ge  Ge23  1  0.00000000  0.25509900  0.48681000  1
  Ge  Ge24  1  0.00000000  0.24932700  0.77772000  1
  Ge  Ge25  1  0.00000000  0.75067300  0.22228000  1
  Ge  Ge26  1  0.00000000  0.25067300  0.27772000  1
  Ge  Ge27  1  0.00000000  0.74932700  0.72228000  1
  Ge  Ge28  1  0.50000000  0.78145700  0.75000000  1
  Ge  Ge29  1  0.50000000  0.71854300  0.25000000  1
  Ge  Ge30  1  0.50000000  0.21854300  0.25000000  1
  Ge  Ge31  1  0.50000000  0.28145700  0.75000000  1
  N  N32  1  0.00000000  0.36076100  0.69365400  1
  N  N33  1  0.00000000  0.63923900  0.30634600  1
  N  N34  1  0.00000000  0.13923900  0.19365400  1
  N  N35  1  0.00000000  0.86076100  0.80634600  1
  N  N36  1  0.00000000  0.31728000  0.88334200  1
  N  N37  1  0.00000000  0.68272000  0.11665800  1
  N  N38  1  0.00000000  0.18272000  0.38334200  1
  N  N39  1  0.00000000  0.81728000  0.61665800  1
  N  N40  1  0.00000000  0.63484800  0.93403400  1
  N  N41  1  0.00000000  0.36515200  0.06596600  1
  N  N42  1  0.00000000  0.86515200  0.43403400  1
  N  N43  1  0.00000000  0.13484800  0.56596600  1
  N  N44  1  0.74251600  0.51415300  0.72493900  1
  N  N45  1  0.74251600  0.22836300  0.27506100  1
  N  N46  1  0.74251600  0.72836300  0.22493900  1
  N  N47  1  0.74251600  0.01415300  0.77506100  1
  N  N48  1  0.25748400  0.48584700  0.27506100  1
  N  N49  1  0.25748400  0.77163700  0.72493900  1
  N  N50  1  0.25748400  0.27163700  0.77506100  1
  N  N51  1  0.25748400  0.98584700  0.22493900  1
  N  N52  1  0.55340800  0.23378500  0.85173200  1
  N  N53  1  0.55340800  0.31962300  0.14826800  1
  N  N54  1  0.55340800  0.81962300  0.35173200  1
  N  N55  1  0.55340800  0.73378500  0.64826800  1
  N  N56  1  0.44659200  0.76621500  0.14826800  1
  N  N57  1  0.44659200  0.68037700  0.85173200  1
  N  N58  1  0.44659200  0.18037700  0.64826800  1
  N  N59  1  0.44659200  0.26621500  0.35173200  1
  N  N60  1  0.28352600  0.99903100  0.00516000  1
  N  N61  1  0.28352600  0.28449500  0.99484000  1
  N  N62  1  0.28352600  0.78449500  0.50516000  1
  N  N63  1  0.28352600  0.49903100  0.49484000  1
  N  N64  1  0.71647400  0.00096900  0.99484000  1
  N  N65  1  0.71647400  0.71550500  0.00516000  1
  N  N66  1  0.71647400  0.21550500  0.49484000  1
  N  N67  1  0.71647400  0.50096900  0.50516000  1
