# generated using pymatgen
data_Ta2O5
_symmetry_space_group_name_H-M   'P 1'
_cell_length_a   12.21442545
_cell_length_b   11.83617908
_cell_length_c   11.72240413
_cell_angle_alpha   89.07965010
_cell_angle_beta   91.31480300
_cell_angle_gamma   91.14880024
_symmetry_Int_Tables_number   1
_chemical_formula_structural   Ta2O5
_chemical_formula_sum   'Ta30 O75'
_cell_volume   1693.73975917
_cell_formula_units_Z   15
loop_
 _symmetry_equiv_pos_site_id
 _symmetry_equiv_pos_as_xyz
  1  'x, y, z'
loop_
 _atom_site_type_symbol
 _atom_site_label
 _atom_site_symmetry_multiplicity
 _atom_site_fract_x
 _atom_site_fract_y
 _atom_site_fract_z
 _atom_site_occupancy
  Ta  Ta0  1  0.40379197  0.65043767  0.17628678  1
  Ta  Ta1  1  0.26334144  0.67697616  0.88745509  1
  Ta  Ta2  1  0.61038022  0.57017911  0.92716677  1
  Ta  Ta3  1  0.23057553  0.39007635  0.23014791  1
  Ta  Ta4  1  0.09735623  0.76978911  0.34773036  1
  Ta  Ta5  1  0.48032917  0.83853184  0.89984039  1
  Ta  Ta6  1  0.70084342  0.08657642  0.20254110  1
  Ta  Ta7  1  0.42237674  0.52714126  0.68227331  1
  Ta  Ta8  1  0.99889411  0.74159675  0.03264327  1
  Ta  Ta9  1  0.33920252  0.71482960  0.43385894  1
  Ta  Ta10  1  0.00570986  0.54823664  0.85935252  1
  Ta  Ta11  1  0.72653687  0.51558928  0.67102195  1
  Ta  Ta12  1  0.87628886  0.02671283  0.96259602  1
  Ta  Ta13  1  0.22256449  0.04250791  0.63688555  1
  Ta  Ta14  1  0.56832793  0.29633599  0.08882309  1
  Ta  Ta15  1  0.34642147  0.94892825  0.09056966  1
  Ta  Ta16  1  0.23959433  0.33048556  0.53624849  1
  Ta  Ta17  1  0.19923330  0.09197898  0.32919929  1
  Ta  Ta18  1  0.27784582  0.24232290  0.99782834  1
  Ta  Ta19  1  0.67153848  0.21937566  0.79982133  1
  Ta  Ta20  1  0.08757212  0.72706359  0.62370767  1
  Ta  Ta21  1  0.69408036  0.66548442  0.26169038  1
  Ta  Ta22  1  0.95778696  0.53480327  0.20601345  1
  Ta  Ta23  1  0.82734348  0.79018498  0.51446228  1
  Ta  Ta24  1  0.51884070  0.05302732  0.68154944  1
  Ta  Ta25  1  0.98579817  0.47031604  0.51488838  1
  Ta  Ta26  1  0.73623322  0.37308257  0.28038147  1
  Ta  Ta27  1  0.92615568  0.17463300  0.40433169  1
  Ta  Ta28  1  0.50725655  0.98056349  0.43548228  1
  Ta  Ta29  1  0.96643741  0.97448227  0.66226574  1
  O  O30  1  0.70421051  0.35692743  0.72190811  1
  O  O31  1  0.24047442  0.02119646  0.47532145  1
  O  O32  1  0.94201130  0.09734545  0.54113833  1
  O  O33  1  0.17979725  0.73809004  0.75282736  1
  O  O34  1  0.94505452  0.79391638  0.64928808  1
  O  O35  1  0.04221375  0.11910400  0.31297228  1
  O  O36  1  0.37980272  0.64027444  0.57159521  1
  O  O37  1  0.26636128  0.41230409  0.39406540  1
  O  O38  1  0.30850348  0.55646310  0.77718826  1
  O  O39  1  0.95940528  0.79859468  0.42528247  1
  O  O40  1  0.77863697  0.13126721  0.87333147  1
  O  O41  1  0.58921123  0.72919870  0.94568599  1
  O  O42  1  0.92830745  0.42110824  0.85185682  1
  O  O43  1  0.02018097  0.58429097  0.69487098  1
  O  O44  1  0.91322899  0.96728071  0.80955777  1
  O  O45  1  0.66398190  0.11581022  0.66732616  1
  O  O46  1  0.72905795  0.77265255  0.37678761  1
  O  O47  1  0.93463418  0.69486707  0.89132774  1
  O  O48  1  0.76713425  0.66318640  0.59649724  1
  O  O49  1  0.73855502  0.24420807  0.16884036  1
  O  O50  1  0.18911949  0.21620300  0.43492285  1
  O  O51  1  0.34992050  0.79836216  0.17140518  1
  O  O52  1  0.15848578  0.55278963  0.90566500  1
  O  O53  1  0.81278239  0.93073346  0.57381577  1
  O  O54  1  0.60683500  0.00462917  0.31533872  1
  O  O55  1  0.22942124  0.67784894  0.31397519  1
  O  O56  1  0.73020841  0.56878938  0.82546249  1
  O  O57  1  0.40557616  0.73787185  0.80219885  1
  O  O58  1  0.93450528  0.88328087  0.03430893  1
  O  O59  1  0.10518577  0.90439048  0.61740487  1
  O  O60  1  0.85117448  0.45694822  0.58677925  1
  O  O61  1  0.78682037  0.28036445  0.39664373  1
  O  O62  1  0.50643989  0.50575342  0.83372126  1
  O  O63  1  0.97945413  0.11954347  0.00984123  1
  O  O64  1  0.81372377  0.65606218  0.17150259  1
  O  O65  1  0.26516784  0.27254263  0.85241940  1
  O  O66  1  0.13331116  0.91200181  0.30029448  1
  O  O67  1  0.19643856  0.77090179  0.49807422  1
  O  O68  1  0.14246104  0.75457466  0.99153070  1
  O  O69  1  0.27784767  0.07658588  0.01779060  1
  O  O70  1  0.12062298  0.40698981  0.59080479  1
  O  O71  1  0.26053017  0.19606842  0.63320645  1
  O  O72  1  0.98728540  0.32279903  0.44052573  1
  O  O73  1  0.75753768  0.00922196  0.08267003  1
  O  O74  1  0.44030322  0.64054797  0.34368780  1
  O  O75  1  0.56124988  0.67943441  0.16991219  1
  O  O76  1  0.31891208  0.01789322  0.23982977  1
  O  O77  1  0.32188036  0.85241739  0.94882952  1
  O  O78  1  0.58297803  0.35519704  0.24591219  1
  O  O79  1  0.08559291  0.07629908  0.71380737  1
  O  O80  1  0.49022062  0.94347565  0.04098802  1
  O  O81  1  0.08760373  0.45313843  0.23908009  1
  O  O82  1  0.63576592  0.28374719  0.94553336  1
  O  O83  1  0.98844819  0.56411502  0.04667465  1
  O  O84  1  0.19176333  0.35088592  0.07019535  1
  O  O85  1  0.81978887  0.08593067  0.31398954  1
  O  O86  1  0.92201403  0.52440071  0.36834400  1
  O  O87  1  0.55913949  0.14299334  0.13713831  1
  O  O88  1  0.57499281  0.92423781  0.56274757  1
  O  O89  1  0.36998509  0.63743337  0.01260057  1
  O  O90  1  0.51332138  0.17007431  0.79150382  1
  O  O91  1  0.84531217  0.42676561  0.17470639  1
  O  O92  1  0.42076340  0.30380756  0.04234866  1
  O  O93  1  0.55173755  0.93402759  0.79612366  1
  O  O94  1  0.69569723  0.52697046  0.33627333  1
  O  O95  1  0.06440209  0.61751465  0.49241344  1
  O  O96  1  0.35604572  0.99669999  0.70309585  1
  O  O97  1  0.58117488  0.53037469  0.62367383  1
  O  O98  1  0.40235191  0.86083237  0.41642805  1
  O  O99  1  0.25562338  0.22720549  0.23925635  1
  O  O100  1  0.02318007  0.70177321  0.21158679  1
  O  O101  1  0.37416006  0.39596332  0.61060319  1
  O  O102  1  0.34094054  0.49704482  0.19008755  1
  O  O103  1  0.46701509  0.10531887  0.52101799  1
  O  O104  1  0.61721502  0.47543474  0.05361752  1
