# generated using pymatgen
data_WO2
_symmetry_space_group_name_H-M   'P 1'
_cell_length_a   11.36249479
_cell_length_b   12.20578926
_cell_length_c   11.19379685
_cell_angle_alpha   92.17834997
_cell_angle_beta   94.39775197
_cell_angle_gamma   88.77382612
_symmetry_Int_Tables_number   1
_chemical_formula_structural   WO2
_chemical_formula_sum   'W34 O68'
_cell_volume   1546.49215996
_cell_formula_units_Z   34
loop_
 _symmetry_equiv_pos_site_id
 _symmetry_equiv_pos_as_xyz
  1  'x, y, z'
loop_
 _atom_site_type_symbol
 _atom_site_label
 _atom_site_symmetry_multiplicity
 _atom_site_fract_x
 _atom_site_fract_y
 _atom_site_fract_z
 _atom_site_occupancy
  W  W0  1  0.90598920  0.81043641  0.90450854  1
  W  W1  1  0.68030407  0.09403075  0.23386399  1
  W  W2  1  0.34272849  0.75797823  0.43133471  1
  W  W3  1  0.64612440  0.81215844  0.83342327  1
  W  W4  1  0.44558187  0.14560274  0.44737463  1
  W  W5  1  0.00000909  0.94471502  0.64229603  1
  W  W6  1  0.86207504  0.52991893  0.95891199  1
  W  W7  1  0.93030969  0.19950319  0.57094608  1
  W  W8  1  0.61467206  0.85745089  0.56231621  1
  W  W9  1  0.94065063  0.16556943  0.17804446  1
  W  W10  1  0.89829158  0.66295699  0.28628104  1
  W  W11  1  0.05601796  0.00909710  0.02372814  1
  W  W12  1  0.83871942  0.92103979  0.38475650  1
  W  W13  1  0.16043912  0.33698946  0.76459938  1
  W  W14  1  0.67389117  0.52144972  0.15306932  1
  W  W15  1  0.64497756  0.65756724  0.38165301  1
  W  W16  1  0.82179718  0.46030581  0.40024233  1
  W  W17  1  0.72887121  0.05924572  0.93082203  1
  W  W18  1  0.63557126  0.24745258  0.70180830  1
  W  W19  1  0.88061478  0.69762892  0.56112677  1
  W  W20  1  0.14352007  0.61749197  0.95520838  1
  W  W21  1  0.14969423  0.62947140  0.67066634  1
  W  W22  1  0.44345776  0.29636229  0.16763658  1
  W  W23  1  0.37020963  0.99988700  0.20166310  1
  W  W24  1  0.53641369  0.52223498  0.82966992  1
  W  W25  1  0.39320225  0.40474220  0.55272399  1
  W  W26  1  0.16083404  0.81713603  0.19970123  1
  W  W27  1  0.65304005  0.86135825  0.17190611  1
  W  W28  1  0.13447861  0.05966274  0.42001949  1
  W  W29  1  0.15864514  0.56059636  0.38766268  1
  W  W30  1  0.41638267  0.15819759  0.90845768  1
  W  W31  1  0.38459200  0.59283301  0.13489991  1
  W  W32  1  0.34453105  0.99125456  0.64253868  1
  W  W33  1  0.12849078  0.38167103  0.08063930  1
  O  O34  1  0.11743300  0.08216376  0.91370627  1
  O  O35  1  0.77589030  0.13997895  0.08947783  1
  O  O36  1  0.30127152  0.06649449  0.34861686  1
  O  O37  1  0.66016277  0.84108718  0.36813834  1
  O  O38  1  0.01355518  0.30348770  0.69280906  1
  O  O39  1  0.88934662  0.98464990  0.94182591  1
  O  O40  1  0.52657315  0.06010552  0.31610735  1
  O  O41  1  0.55921102  0.08799328  0.96579521  1
  O  O42  1  0.95630475  0.08706019  0.70142121  1
  O  O43  1  0.76388308  0.40178395  0.23415792  1
  O  O44  1  0.98767536  0.51013757  0.33946357  1
  O  O45  1  0.23860105  0.50183567  0.06088168  1
  O  O46  1  0.71081029  0.70452264  0.56146663  1
  O  O47  1  0.44421395  0.30127515  0.99438284  1
  O  O48  1  0.33117707  0.85465918  0.29350287  1
  O  O49  1  0.82672466  0.60155556  0.11677080  1
  O  O50  1  0.61973879  0.40033795  0.75968611  1
  O  O51  1  0.10174012  0.92072165  0.34865574  1
  O  O52  1  0.58945552  0.23184046  0.18383760  1
  O  O53  1  0.27566617  0.22673023  0.83107754  1
  O  O54  1  0.66647232  0.48819035  0.43680769  1
  O  O55  1  0.00480537  0.31433093  0.14461174  1
  O  O56  1  0.09413801  0.18354504  0.52330375  1
  O  O57  1  0.28596856  0.45343915  0.41708353  1
  O  O58  1  0.11505410  0.51423916  0.54700280  1
  O  O59  1  0.41624357  0.26737674  0.32948492  1
  O  O60  1  0.95998373  0.64095262  0.88464029  1
  O  O61  1  0.43780223  0.55253788  0.94906122  1
  O  O62  1  0.49610238  0.00419215  0.56462331  1
  O  O63  1  0.35813210  0.84478422  0.60261261  1
  O  O64  1  0.56638424  0.65621836  0.19385070  1
  O  O65  1  0.59505051  0.66793467  0.80486302  1
  O  O66  1  0.86636657  0.40583001  0.87491050  1
  O  O67  1  0.03142138  0.84668056  0.05055748  1
  O  O68  1  0.22019566  0.67747873  0.50907916  1
  O  O69  1  0.51474234  0.27946161  0.54644353  1
  O  O70  1  0.24528262  0.70908953  0.07231738  1
  O  O71  1  0.85234715  0.05321437  0.27447165  1
  O  O72  1  0.18787937  0.70978575  0.82174905  1
  O  O73  1  0.82490121  0.82021863  0.22688041  1
  O  O74  1  0.17175969  0.97768727  0.59969147  1
  O  O75  1  0.27122666  0.35544275  0.64834821  1
  O  O76  1  0.95637393  0.03426006  0.48338393  1
  O  O77  1  0.21319436  0.96789956  0.12431401  1
  O  O78  1  0.31007740  0.62901746  0.30432017  1
  O  O79  1  0.02890699  0.51477750  0.04381806  1
  O  O80  1  0.75928861  0.19308983  0.59659810  1
  O  O81  1  0.68265510  0.89528032  0.00042461  1
  O  O82  1  0.67720642  0.51814218  0.96841826  1
  O  O83  1  0.08316310  0.14161759  0.28268948  1
  O  O84  1  0.26137240  0.31871794  0.15672898  1
  O  O85  1  0.31886042  0.12691854  0.56462335  1
  O  O86  1  0.88187455  0.31357208  0.45880764  1
  O  O87  1  0.84448501  0.87527583  0.56901988  1
  O  O88  1  0.38060121  0.13449466  0.10124095  1
  O  O89  1  0.36518619  0.00992816  0.80397733  1
  O  O90  1  0.49814433  0.18462905  0.76247737  1
  O  O91  1  0.03321229  0.76190929  0.62073271  1
  O  O92  1  0.08441478  0.68134593  0.28386816  1
  O  O93  1  0.49543718  0.44443544  0.18067168  1
  O  O94  1  0.43997934  0.52334557  0.67023741  1
  O  O95  1  0.11042855  0.32081319  0.93373432  1
  O  O96  1  0.48194844  0.90833101  0.13365839  1
  O  O97  1  0.68202291  0.95770204  0.78255269  1
  O  O98  1  0.87944136  0.54196487  0.55909546  1
  O  O99  1  0.15323046  0.50070570  0.79630643  1
  O  O100  1  0.50637719  0.73335573  0.47701793  1
  O  O101  1  0.73900957  0.17866224  0.84141677  1
