# generated using pymatgen
data_Ba3ScN3
_symmetry_space_group_name_H-M   'P 1'
_cell_length_a   8.55202700
_cell_length_b   8.55200355
_cell_length_c   5.67649400
_cell_angle_alpha   90.00000000
_cell_angle_beta   90.00000000
_cell_angle_gamma   120.00003787
_symmetry_Int_Tables_number   1
_chemical_formula_structural   Ba3ScN3
_chemical_formula_sum   'Ba6 Sc2 N6'
_cell_volume   359.54030694
_cell_formula_units_Z   2
loop_
 _symmetry_equiv_pos_site_id
 _symmetry_equiv_pos_as_xyz
  1  'x, y, z'
loop_
 _atom_site_type_symbol
 _atom_site_label
 _atom_site_symmetry_multiplicity
 _atom_site_fract_x
 _atom_site_fract_y
 _atom_site_fract_z
 _atom_site_occupancy
  Ba  Ba0  1  0.93146000  0.64834100  0.25000000  1
  Ba  Ba1  1  0.71688000  0.06853900  0.25000000  1
  Ba  Ba2  1  0.35166100  0.28312100  0.25000000  1
  Ba  Ba3  1  0.06854000  0.35165900  0.75000000  1
  Ba  Ba4  1  0.28312000  0.93146100  0.75000000  1
  Ba  Ba5  1  0.64833900  0.71687900  0.75000000  1
  Sc  Sc6  1  0.66666500  0.33333200  0.75000000  1
  Sc  Sc7  1  0.33333500  0.66666800  0.25000000  1
  N  N8  1  0.88069200  0.59327600  0.75000000  1
  N  N9  1  0.71258600  0.11930800  0.75000000  1
  N  N10  1  0.40672600  0.28741800  0.75000000  1
  N  N11  1  0.11930800  0.40672400  0.25000000  1
  N  N12  1  0.28741400  0.88069200  0.25000000  1
  N  N13  1  0.59327400  0.71258200  0.25000000  1
