# generated using pymatgen
data_Zn5(SiN3)2
_symmetry_space_group_name_H-M   'P 1'
_cell_length_a   5.23868993
_cell_length_b   5.59519993
_cell_length_c   13.35994231
_cell_angle_alpha   90.00000151
_cell_angle_beta   92.22039657
_cell_angle_gamma   122.27791350
_symmetry_Int_Tables_number   1
_chemical_formula_structural   Zn5(SiN3)2
_chemical_formula_sum   'Zn10 Si4 N12'
_cell_volume   330.73751686
_cell_formula_units_Z   2
loop_
 _symmetry_equiv_pos_site_id
 _symmetry_equiv_pos_as_xyz
  1  'x, y, z'
loop_
 _atom_site_type_symbol
 _atom_site_label
 _atom_site_symmetry_multiplicity
 _atom_site_fract_x
 _atom_site_fract_y
 _atom_site_fract_z
 _atom_site_occupancy
  Zn  Zn0  1  0.00000000  0.54340100  0.75000000  1
  Zn  Zn1  1  0.00000000  0.45659900  0.25000000  1
  Zn  Zn2  1  0.22899500  0.84971300  0.03754000  1
  Zn  Zn3  1  0.77100500  0.62071900  0.46246000  1
  Zn  Zn4  1  0.77100500  0.15028700  0.96246000  1
  Zn  Zn5  1  0.22899500  0.37928100  0.53754000  1
  Zn  Zn6  1  0.28374400  0.20996200  0.72734600  1
  Zn  Zn7  1  0.71625600  0.92621800  0.77265400  1
  Zn  Zn8  1  0.71625600  0.79003800  0.27265400  1
  Zn  Zn9  1  0.28374400  0.07378200  0.22734600  1
  Si  Si10  1  0.57583000  0.03174100  0.59290700  1
  Si  Si11  1  0.42417000  0.45591100  0.90709300  1
  Si  Si12  1  0.42417000  0.96825900  0.40709300  1
  Si  Si13  1  0.57583000  0.54408900  0.09290700  1
  N  N14  1  0.35596200  0.90655900  0.69747400  1
  N  N15  1  0.64403800  0.55059700  0.80252600  1
  N  N16  1  0.64403800  0.09344100  0.30252600  1
  N  N17  1  0.35596200  0.44940300  0.19747400  1
  N  N18  1  0.49066500  0.22235200  0.50326300  1
  N  N19  1  0.50933500  0.73168700  0.99673700  1
  N  N20  1  0.50933500  0.77764800  0.49673700  1
  N  N21  1  0.49066500  0.26831300  0.00326300  1
  N  N22  1  0.94586700  0.23002600  0.64129900  1
  N  N23  1  0.05413300  0.28415900  0.85870100  1
  N  N24  1  0.05413300  0.76997400  0.35870100  1
  N  N25  1  0.94586700  0.71584100  0.14129900  1
