# generated using pymatgen
data_Sc4Te3N2
_symmetry_space_group_name_H-M   'P 1'
_cell_length_a   6.85909300
_cell_length_b   11.27105700
_cell_length_c   10.64992500
_cell_angle_alpha   90.00000000
_cell_angle_beta   90.00000000
_cell_angle_gamma   90.00000000
_symmetry_Int_Tables_number   1
_chemical_formula_structural   Sc4Te3N2
_chemical_formula_sum   'Sc16 Te12 N8'
_cell_volume   823.33748183
_cell_formula_units_Z   4
loop_
 _symmetry_equiv_pos_site_id
 _symmetry_equiv_pos_as_xyz
  1  'x, y, z'
loop_
 _atom_site_type_symbol
 _atom_site_label
 _atom_site_symmetry_multiplicity
 _atom_site_fract_x
 _atom_site_fract_y
 _atom_site_fract_z
 _atom_site_occupancy
  Sc  Sc0  1  0.57856700  0.25000000  0.87473700  1
  Sc  Sc1  1  0.07856700  0.25000000  0.62526300  1
  Sc  Sc2  1  0.42143300  0.75000000  0.12526300  1
  Sc  Sc3  1  0.92143300  0.75000000  0.37473700  1
  Sc  Sc4  1  0.82577300  0.25000000  0.39092600  1
  Sc  Sc5  1  0.32577300  0.25000000  0.10907400  1
  Sc  Sc6  1  0.17422700  0.75000000  0.60907400  1
  Sc  Sc7  1  0.67422700  0.75000000  0.89092600  1
  Sc  Sc8  1  0.69162700  0.48104900  0.06857100  1
  Sc  Sc9  1  0.19162700  0.01895100  0.43142900  1
  Sc  Sc10  1  0.30837300  0.98104900  0.93142900  1
  Sc  Sc11  1  0.80837300  0.51895100  0.56857100  1
  Sc  Sc12  1  0.30837300  0.51895100  0.93142900  1
  Sc  Sc13  1  0.80837300  0.98104900  0.56857100  1
  Sc  Sc14  1  0.69162700  0.01895100  0.06857100  1
  Sc  Sc15  1  0.19162700  0.48104900  0.43142900  1
  Te  Te16  1  0.89563000  0.25000000  0.12626300  1
  Te  Te17  1  0.39563000  0.25000000  0.37373700  1
  Te  Te18  1  0.10437000  0.75000000  0.87373700  1
  Te  Te19  1  0.60437000  0.75000000  0.62626300  1
  Te  Te20  1  0.58891400  0.56996200  0.32421000  1
  Te  Te21  1  0.08891400  0.93003800  0.17579000  1
  Te  Te22  1  0.41108600  0.06996200  0.67579000  1
  Te  Te23  1  0.91108600  0.43003800  0.82421000  1
  Te  Te24  1  0.41108600  0.43003800  0.67579000  1
  Te  Te25  1  0.91108600  0.06996200  0.82421000  1
  Te  Te26  1  0.58891400  0.93003800  0.32421000  1
  Te  Te27  1  0.08891400  0.56996200  0.17579000  1
  N  N28  1  0.54171900  0.62468700  0.99743000  1
  N  N29  1  0.04171900  0.87531300  0.50257000  1
  N  N30  1  0.45828100  0.12468700  0.00257000  1
  N  N31  1  0.95828100  0.37531300  0.49743000  1
  N  N32  1  0.45828100  0.37531300  0.00257000  1
  N  N33  1  0.95828100  0.12468700  0.49743000  1
  N  N34  1  0.54171900  0.87531300  0.99743000  1
  N  N35  1  0.04171900  0.62468700  0.50257000  1
