# generated using pymatgen
data_YMgWS4
_symmetry_space_group_name_H-M   'P 1'
_cell_length_a   7.67358548
_cell_length_b   7.61013769
_cell_length_c   7.61021312
_cell_angle_alpha   60.16082721
_cell_angle_beta   59.72313073
_cell_angle_gamma   59.72436944
_symmetry_Int_Tables_number   1
_chemical_formula_structural   YMgWS4
_chemical_formula_sum   'Y2 Mg2 W2 S8'
_cell_volume   313.30491196
_cell_formula_units_Z   2
loop_
 _symmetry_equiv_pos_site_id
 _symmetry_equiv_pos_as_xyz
  1  'x, y, z'
loop_
 _atom_site_type_symbol
 _atom_site_label
 _atom_site_symmetry_multiplicity
 _atom_site_fract_x
 _atom_site_fract_y
 _atom_site_fract_z
 _atom_site_occupancy
  Y  Y0  1  0.50000169  0.50001819  0.49997690  1
  Y  Y1  1  0.99999757  0.49998845  0.50001639  1
  Mg  Mg2  1  0.87389570  0.87610728  0.87610271  1
  Mg  Mg3  1  0.12610846  0.12389509  0.12389355  1
  W  W4  1  0.50000000  0.49999347  0.00000261  1
  W  W5  1  0.49999948  0.99999708  0.50000521  1
  S  S6  1  0.71472874  0.75450232  0.75449588  1
  S  S7  1  0.26683906  0.23424142  0.73208818  1
  S  S8  1  0.26683599  0.73209132  0.23423283  1
  S  S9  1  0.72373256  0.24550016  0.24549442  1
  S  S10  1  0.73314716  0.26791491  0.76575527  1
  S  S11  1  0.27627025  0.75449053  0.75450696  1
  S  S12  1  0.28526776  0.24549258  0.24551605  1
  S  S13  1  0.73317957  0.76576222  0.26791406  1
