# generated using pymatgen
data_BaOsN2
_symmetry_space_group_name_H-M   'P 1'
_cell_length_a   7.42061199
_cell_length_b   13.48860525
_cell_length_c   7.78792100
_cell_angle_alpha   90.00000000
_cell_angle_beta   90.00000000
_cell_angle_gamma   24.65161585
_symmetry_Int_Tables_number   1
_chemical_formula_structural   BaOsN2
_chemical_formula_sum   'Ba4 Os4 N8'
_cell_volume   325.13835801
_cell_formula_units_Z   4
loop_
 _symmetry_equiv_pos_site_id
 _symmetry_equiv_pos_as_xyz
  1  'x, y, z'
loop_
 _atom_site_type_symbol
 _atom_site_label
 _atom_site_symmetry_multiplicity
 _atom_site_fract_x
 _atom_site_fract_y
 _atom_site_fract_z
 _atom_site_occupancy
  Ba  Ba0  1  0.00000000  0.14630600  0.57055100  1
  Ba  Ba1  1  0.00000000  0.85369400  0.42944900  1
  Ba  Ba2  1  0.00000000  0.35369400  0.07055100  1
  Ba  Ba3  1  0.00000000  0.64630600  0.92944900  1
  Os  Os4  1  0.00000000  0.40723600  0.62270800  1
  Os  Os5  1  0.00000000  0.59276400  0.37729200  1
  Os  Os6  1  0.00000000  0.09276400  0.12270800  1
  Os  Os7  1  0.00000000  0.90723600  0.87729200  1
  N  N8  1  0.00000000  0.15760300  0.92291900  1
  N  N9  1  0.00000000  0.84239700  0.07708100  1
  N  N10  1  0.00000000  0.34239700  0.42291900  1
  N  N11  1  0.00000000  0.65760300  0.57708100  1
  N  N12  1  0.50000000  0.68128900  0.75000000  1
  N  N13  1  0.50000000  0.81871100  0.25000000  1
  N  N14  1  0.50000000  0.31871100  0.25000000  1
  N  N15  1  0.50000000  0.18128900  0.75000000  1
