# generated using pymatgen
data_Sr2MnN2
_symmetry_space_group_name_H-M   'P 1'
_cell_length_a   9.05372098
_cell_length_b   16.39959713
_cell_length_c   11.38924376
_cell_angle_alpha   90.00000000
_cell_angle_beta   84.02955721
_cell_angle_gamma   90.00000000
_symmetry_Int_Tables_number   1
_chemical_formula_structural   Sr2MnN2
_chemical_formula_sum   'Sr32 Mn16 N32'
_cell_volume   1681.87227590
_cell_formula_units_Z   16
loop_
 _symmetry_equiv_pos_site_id
 _symmetry_equiv_pos_as_xyz
  1  'x, y, z'
loop_
 _atom_site_type_symbol
 _atom_site_label
 _atom_site_symmetry_multiplicity
 _atom_site_fract_x
 _atom_site_fract_y
 _atom_site_fract_z
 _atom_site_occupancy
  Sr  Sr0  1  0.35495221  0.75000000  0.74177587  1
  Sr  Sr1  1  0.64504779  0.25000000  0.25822413  1
  Sr  Sr2  1  0.75111643  0.75000000  0.33586871  1
  Sr  Sr3  1  0.24888357  0.25000000  0.66413129  1
  Sr  Sr4  1  0.02323261  0.61097706  0.80368341  1
  Sr  Sr5  1  0.97676739  0.11097706  0.19631659  1
  Sr  Sr6  1  0.97676739  0.38902294  0.19631659  1
  Sr  Sr7  1  0.02323261  0.88902294  0.80368341  1
  Sr  Sr8  1  0.66208238  0.41048804  0.48185346  1
  Sr  Sr9  1  0.33791762  0.91048804  0.51814654  1
  Sr  Sr10  1  0.33791762  0.58951196  0.51814654  1
  Sr  Sr11  1  0.66208238  0.08951196  0.48185346  1
  Sr  Sr12  1  0.63699993  0.25000000  0.72668654  1
  Sr  Sr13  1  0.36300007  0.75000000  0.27331346  1
  Sr  Sr14  1  0.33726969  0.56557149  0.94741661  1
  Sr  Sr15  1  0.66273031  0.06557149  0.05258339  1
  Sr  Sr16  1  0.66273031  0.43442851  0.05258339  1
  Sr  Sr17  1  0.33726969  0.93442851  0.94741661  1
  Sr  Sr18  1  -0.00000000  0.50000000  0.50000000  1
  Sr  Sr19  1  -0.00000000  -0.00000000  0.50000000  1
  Sr  Sr20  1  0.29988397  0.35338053  0.95189916  1
  Sr  Sr21  1  0.70011603  0.85338053  0.04810084  1
  Sr  Sr22  1  0.70011603  0.64661947  0.04810084  1
  Sr  Sr23  1  0.29988397  0.14661947  0.95189916  1
  Sr  Sr24  1  0.96698715  0.37157628  0.78696828  1
  Sr  Sr25  1  0.03301285  0.87157628  0.21303172  1
  Sr  Sr26  1  0.03301285  0.62842372  0.21303172  1
  Sr  Sr27  1  0.96698715  0.12842372  0.78696828  1
  Sr  Sr28  1  0.71224338  0.62195793  0.62904558  1
  Sr  Sr29  1  0.28775662  0.12195793  0.37095442  1
  Sr  Sr30  1  0.28775662  0.37804207  0.37095442  1
  Sr  Sr31  1  0.71224338  0.87804207  0.62904558  1
  Mn  Mn32  1  0.99602443  0.75000000  0.99917672  1
  Mn  Mn33  1  0.00397557  0.25000000  0.00082328  1
  Mn  Mn34  1  0.68383071  0.54374488  0.28550604  1
  Mn  Mn35  1  0.31616929  0.04374488  0.71449396  1
  Mn  Mn36  1  0.31616929  0.45625512  0.71449396  1
  Mn  Mn37  1  0.68383071  0.95625512  0.28550604  1
  Mn  Mn38  1  0.90012093  0.25000000  0.48715039  1
  Mn  Mn39  1  0.09987907  0.75000000  0.51284961  1
  Mn  Mn40  1  0.57086674  0.45982203  0.76373371  1
  Mn  Mn41  1  0.42913326  0.95982203  0.23626629  1
  Mn  Mn42  1  0.42913326  0.54017797  0.23626629  1
  Mn  Mn43  1  0.57086674  0.04017797  0.76373371  1
  Mn  Mn44  1  0.50739349  0.75000000  0.52179690  1
  Mn  Mn45  1  0.49260651  0.25000000  0.47820310  1
  Mn  Mn46  1  0.73873321  0.25000000  0.99902230  1
  Mn  Mn47  1  0.26126679  0.75000000  0.00097770  1
  N  N48  1  0.68863952  0.25000000  0.49206974  1
  N  N49  1  0.31136048  0.75000000  0.50793026  1
  N  N50  1  0.89024106  0.75000000  0.88444788  1
  N  N51  1  0.10975894  0.25000000  0.11555212  1
  N  N52  1  0.55265807  0.45482297  0.28696101  1
  N  N53  1  0.44734193  0.95482297  0.71303899  1
  N  N54  1  0.44734193  0.54517703  0.71303899  1
  N  N55  1  0.55265807  0.04517703  0.28696101  1
  N  N56  1  0.18251214  0.46797671  0.83615899  1
  N  N57  1  0.81748786  0.96797671  0.16384101  1
  N  N58  1  0.81748786  0.53202329  0.16384101  1
  N  N59  1  0.18251214  0.03202329  0.83615899  1
  N  N60  1  0.75770512  0.55893625  0.42023410  1
  N  N61  1  0.24229488  0.05893625  0.57976590  1
  N  N62  1  0.24229488  0.44106375  0.57976590  1
  N  N63  1  0.75770512  0.94106375  0.42023410  1
  N  N64  1  0.44264294  0.37040190  0.74636329  1
  N  N65  1  0.55735706  0.87040190  0.25363671  1
  N  N66  1  0.55735706  0.62959810  0.25363671  1
  N  N67  1  0.44264294  0.12959810  0.74636329  1
  N  N68  1  0.12713211  0.66292342  0.99524858  1
  N  N69  1  0.87286789  0.16292342  0.00475142  1
  N  N70  1  0.87286789  0.33707658  0.00475142  1
  N  N71  1  0.12713211  0.83707658  0.99524858  1
  N  N72  1  0.87584276  0.75000000  0.13392344  1
  N  N73  1  0.12415724  0.25000000  0.86607656  1
  N  N74  1  0.94293035  0.34683741  0.41185307  1
  N  N75  1  0.05706965  0.84683741  0.58814693  1
  N  N76  1  0.05706965  0.65316259  0.58814693  1
  N  N77  1  0.94293035  0.15316259  0.41185307  1
  N  N78  1  0.06337367  0.75000000  0.36386243  1
  N  N79  1  0.93662633  0.25000000  0.63613757  1
