# generated using pymatgen
data_Ca7Mg2N6
_symmetry_space_group_name_H-M   'P 1'
_cell_length_a   7.03587789
_cell_length_b   12.66041252
_cell_length_c   6.42327283
_cell_angle_alpha   89.99999399
_cell_angle_beta   88.00437804
_cell_angle_gamma   25.88082792
_symmetry_Int_Tables_number   1
_chemical_formula_structural   Ca7Mg2N6
_chemical_formula_sum   'Ca7 Mg2 N6'
_cell_volume   248.95512672
_cell_formula_units_Z   1
loop_
 _symmetry_equiv_pos_site_id
 _symmetry_equiv_pos_as_xyz
  1  'x, y, z'
loop_
 _atom_site_type_symbol
 _atom_site_label
 _atom_site_symmetry_multiplicity
 _atom_site_fract_x
 _atom_site_fract_y
 _atom_site_fract_z
 _atom_site_occupancy
  Ca  Ca0  1  0.00000000  0.50000000  0.00000000  1
  Ca  Ca1  1  0.00000000  0.37754900  0.50000000  1
  Ca  Ca2  1  0.00000000  0.62245100  0.50000000  1
  Ca  Ca3  1  0.69960900  0.97767500  0.82513000  1
  Ca  Ca4  1  0.69960900  0.32271600  0.82513000  1
  Ca  Ca5  1  0.30039100  0.02232500  0.17487000  1
  Ca  Ca6  1  0.30039100  0.67728400  0.17487000  1
  Mg  Mg7  1  0.24190600  0.87904700  0.67306200  1
  Mg  Mg8  1  0.75809400  0.12095300  0.32693800  1
  N  N9  1  0.47974400  0.90507600  0.80371000  1
  N  N10  1  0.47974400  0.61517900  0.80371000  1
  N  N11  1  0.52025600  0.09492400  0.19629000  1
  N  N12  1  0.52025600  0.38482100  0.19629000  1
  N  N13  1  0.48908500  0.75545700  0.34078700  1
  N  N14  1  0.51091500  0.24454300  0.65921300  1
