# generated using pymatgen
data_MnVN2
_symmetry_space_group_name_H-M   'P 1'
_cell_length_a   3.12865937
_cell_length_b   5.17750373
_cell_length_c   14.56826712
_cell_angle_alpha   20.41277202
_cell_angle_beta   90.12320076
_cell_angle_gamma   72.52347537
_symmetry_Int_Tables_number   1
_chemical_formula_structural   MnVN2
_chemical_formula_sum   'Mn1 V1 N2'
_cell_volume   41.03991049
_cell_formula_units_Z   1
loop_
 _symmetry_equiv_pos_site_id
 _symmetry_equiv_pos_as_xyz
  1  'x, y, z'
loop_
 _atom_site_type_symbol
 _atom_site_label
 _atom_site_symmetry_multiplicity
 _atom_site_fract_x
 _atom_site_fract_y
 _atom_site_fract_z
 _atom_site_occupancy
  Mn  Mn0  1  0.99942200  0.75181400  0.05604400  1
  V  V1  1  0.99928500  0.75236000  0.56066000  1
  N  N2  1  0.00030100  0.74813200  0.18782300  1
  N  N3  1  0.00099200  0.74759500  0.69547300  1
