# generated using pymatgen
data_Sr2CaN2
_symmetry_space_group_name_H-M   'P 1'
_cell_length_a   3.80190400
_cell_length_b   3.80245454
_cell_length_c   9.52558500
_cell_angle_alpha   90.00015253
_cell_angle_beta   89.99916729
_cell_angle_gamma   119.99345161
_symmetry_Int_Tables_number   1
_chemical_formula_structural   Sr2CaN2
_chemical_formula_sum   'Sr2 Ca1 N2'
_cell_volume   119.26585310
_cell_formula_units_Z   1
loop_
 _symmetry_equiv_pos_site_id
 _symmetry_equiv_pos_as_xyz
  1  'x, y, z'
loop_
 _atom_site_type_symbol
 _atom_site_label
 _atom_site_symmetry_multiplicity
 _atom_site_fract_x
 _atom_site_fract_y
 _atom_site_fract_z
 _atom_site_occupancy
  Sr  Sr0  1  0.66667600  0.33332900  0.21748400  1
  Sr  Sr1  1  0.33332400  0.66667100  0.78251600  1
  Ca  Ca2  1  0.00000000  0.00000000  0.50000000  1
  N  N3  1  0.66665600  0.33331900  0.66273900  1
  N  N4  1  0.33334400  0.66668100  0.33726100  1
