# generated using pymatgen
data_Mg2Sc3TiS8
_symmetry_space_group_name_H-M   'P 1'
_cell_length_a   7.53950853
_cell_length_b   7.46647653
_cell_length_c   7.53878302
_cell_angle_alpha   59.67467228
_cell_angle_beta   60.00814092
_cell_angle_gamma   59.67924626
_symmetry_Int_Tables_number   1
_chemical_formula_structural   Mg2Sc3TiS8
_chemical_formula_sum   'Mg2 Sc3 Ti1 S8'
_cell_volume   298.63006687
_cell_formula_units_Z   1
loop_
 _symmetry_equiv_pos_site_id
 _symmetry_equiv_pos_as_xyz
  1  'x, y, z'
loop_
 _atom_site_type_symbol
 _atom_site_label
 _atom_site_symmetry_multiplicity
 _atom_site_fract_x
 _atom_site_fract_y
 _atom_site_fract_z
 _atom_site_occupancy
  Mg  Mg0  1  0.87539700  0.87396900  0.87530800  1
  Mg  Mg1  1  0.12461200  0.12602300  0.12471000  1
  Sc  Sc2  1  0.50001400  0.50000300  0.49997700  1
  Sc  Sc3  1  0.49999700  0.49998900  0.99999000  1
  Sc  Sc4  1  0.99998500  0.50000300  0.50002100  1
  Ti  Ti5  1  0.50000400  0.00000600  0.50000700  1
  S  S6  1  0.73686000  0.75161800  0.73679100  1
  S  S7  1  0.26309900  0.24841100  0.72528300  1
  S  S8  1  0.25823800  0.72549800  0.25815900  1
  S  S9  1  0.72524500  0.24851400  0.26309600  1
  S  S10  1  0.74174500  0.27450500  0.74183100  1
  S  S11  1  0.27475100  0.75148600  0.73689300  1
  S  S12  1  0.26313600  0.24837300  0.26322600  1
  S  S13  1  0.73692000  0.75159700  0.27470900  1
