# generated using pymatgen
data_CaOsN2
_symmetry_space_group_name_H-M   'P 1'
_cell_length_a   5.32343600
_cell_length_b   10.78305100
_cell_length_c   15.75239600
_cell_angle_alpha   90.00000000
_cell_angle_beta   90.00000000
_cell_angle_gamma   90.00000000
_symmetry_Int_Tables_number   1
_chemical_formula_structural   CaOsN2
_chemical_formula_sum   'Ca16 Os16 N32'
_cell_volume   904.23292697
_cell_formula_units_Z   16
loop_
 _symmetry_equiv_pos_site_id
 _symmetry_equiv_pos_as_xyz
  1  'x, y, z'
loop_
 _atom_site_type_symbol
 _atom_site_label
 _atom_site_symmetry_multiplicity
 _atom_site_fract_x
 _atom_site_fract_y
 _atom_site_fract_z
 _atom_site_occupancy
  Ca  Ca0  1  0.74814600  0.99567000  0.43990400  1
  Ca  Ca1  1  0.24814600  0.50433000  0.56009600  1
  Ca  Ca2  1  0.25185400  0.49567000  0.06009600  1
  Ca  Ca3  1  0.75185400  0.00433000  0.93990400  1
  Ca  Ca4  1  0.25185400  0.00433000  0.56009600  1
  Ca  Ca5  1  0.75185400  0.49567000  0.43990400  1
  Ca  Ca6  1  0.74814600  0.50433000  0.93990400  1
  Ca  Ca7  1  0.24814600  0.99567000  0.06009600  1
  Ca  Ca8  1  0.89057300  0.28090800  0.31268600  1
  Ca  Ca9  1  0.39057300  0.21909200  0.68731400  1
  Ca  Ca10  1  0.10942700  0.78090800  0.18731400  1
  Ca  Ca11  1  0.60942700  0.71909200  0.81268600  1
  Ca  Ca12  1  0.10942700  0.71909200  0.68731400  1
  Ca  Ca13  1  0.60942700  0.78090800  0.31268600  1
  Ca  Ca14  1  0.89057300  0.21909200  0.81268600  1
  Ca  Ca15  1  0.39057300  0.28090800  0.18731400  1
  Os  Os16  1  0.74664200  0.02868800  0.18630500  1
  Os  Os17  1  0.24664200  0.47131200  0.81369500  1
  Os  Os18  1  0.25335800  0.52868800  0.31369500  1
  Os  Os19  1  0.75335800  0.97131200  0.68630500  1
  Os  Os20  1  0.25335800  0.97131200  0.81369500  1
  Os  Os21  1  0.75335800  0.52868800  0.18630500  1
  Os  Os22  1  0.74664200  0.47131200  0.68630500  1
  Os  Os23  1  0.24664200  0.02868800  0.31369500  1
  Os  Os24  1  0.86814300  0.26684600  0.05404300  1
  Os  Os25  1  0.36814300  0.23315400  0.94595700  1
  Os  Os26  1  0.13185700  0.76684600  0.44595700  1
  Os  Os27  1  0.63185700  0.73315400  0.55404300  1
  Os  Os28  1  0.13185700  0.73315400  0.94595700  1
  Os  Os29  1  0.63185700  0.76684600  0.05404300  1
  Os  Os30  1  0.86814300  0.23315400  0.55404300  1
  Os  Os31  1  0.36814300  0.26684600  0.44595700  1
  N  N32  1  0.60614600  0.47188800  0.29321800  1
  N  N33  1  0.10614600  0.02811200  0.70678200  1
  N  N34  1  0.39385400  0.97188800  0.20678200  1
  N  N35  1  0.89385400  0.52811200  0.79321800  1
  N  N36  1  0.39385400  0.52811200  0.70678200  1
  N  N37  1  0.89385400  0.97188800  0.29321800  1
  N  N38  1  0.60614600  0.02811200  0.79321800  1
  N  N39  1  0.10614600  0.47188800  0.20678200  1
  N  N40  1  0.70448500  0.21532100  0.44345200  1
  N  N41  1  0.20448500  0.28467900  0.55654800  1
  N  N42  1  0.29551500  0.71532100  0.05654800  1
  N  N43  1  0.79551500  0.78467900  0.94345200  1
  N  N44  1  0.29551500  0.78467900  0.55654800  1
  N  N45  1  0.79551500  0.71532100  0.44345200  1
  N  N46  1  0.70448500  0.28467900  0.94345200  1
  N  N47  1  0.20448500  0.21532100  0.05654800  1
  N  N48  1  0.70064400  0.42806700  0.08945900  1
  N  N49  1  0.20064400  0.07193300  0.91054100  1
  N  N50  1  0.29935600  0.92806700  0.41054100  1
  N  N51  1  0.79935600  0.57193300  0.58945900  1
  N  N52  1  0.29935600  0.57193300  0.91054100  1
  N  N53  1  0.79935600  0.92806700  0.08945900  1
  N  N54  1  0.70064400  0.07193300  0.58945900  1
  N  N55  1  0.20064400  0.42806700  0.41054100  1
  N  N56  1  0.80900600  0.20063200  0.17363500  1
  N  N57  1  0.30900600  0.29936800  0.82636500  1
  N  N58  1  0.19099400  0.70063200  0.32636500  1
  N  N59  1  0.69099400  0.79936800  0.67363500  1
  N  N60  1  0.19099400  0.79936800  0.82636500  1
  N  N61  1  0.69099400  0.70063200  0.17363500  1
  N  N62  1  0.80900600  0.29936800  0.67363500  1
  N  N63  1  0.30900600  0.20063200  0.32636500  1
