# generated using pymatgen
data_Mg(GaS2)2
_symmetry_space_group_name_H-M   'P 1'
_cell_length_a   7.34798996
_cell_length_b   7.34794029
_cell_length_c   7.34812200
_cell_angle_alpha   60.00099370
_cell_angle_beta   59.99896335
_cell_angle_gamma   60.00091497
_symmetry_Int_Tables_number   1
_chemical_formula_structural   Mg(GaS2)2
_chemical_formula_sum   'Mg2 Ga4 S8'
_cell_volume   280.54232706
_cell_formula_units_Z   2
loop_
 _symmetry_equiv_pos_site_id
 _symmetry_equiv_pos_as_xyz
  1  'x, y, z'
loop_
 _atom_site_type_symbol
 _atom_site_label
 _atom_site_symmetry_multiplicity
 _atom_site_fract_x
 _atom_site_fract_y
 _atom_site_fract_z
 _atom_site_occupancy
  Mg  Mg0  1  0.87499200  0.87500200  0.87501600  1
  Mg  Mg1  1  0.12501400  0.12499400  0.12499400  1
  Ga  Ga2  1  0.50000200  0.50002700  0.49996200  1
  Ga  Ga3  1  0.50000000  0.49999200  0.99999500  1
  Ga  Ga4  1  0.99999700  0.49998900  0.50001900  1
  Ga  Ga5  1  0.49999100  0.00000100  0.50000900  1
  S  S6  1  0.73875600  0.73874500  0.73873700  1
  S  S7  1  0.26124600  0.26125800  0.71623700  1
  S  S8  1  0.26124300  0.71623800  0.26126600  1
  S  S9  1  0.71624400  0.26125000  0.26125700  1
  S  S10  1  0.73874700  0.28376300  0.73872700  1
  S  S11  1  0.28375700  0.73874300  0.73874600  1
  S  S12  1  0.26124600  0.26124600  0.26127500  1
  S  S13  1  0.73876900  0.73874500  0.28376300  1
