# generated using pymatgen
data_Sr3(RuN2)2
_symmetry_space_group_name_H-M   'P 1'
_cell_length_a   6.25809800
_cell_length_b   10.44205200
_cell_length_c   9.16388800
_cell_angle_alpha   90.00000000
_cell_angle_beta   90.00000000
_cell_angle_gamma   90.00000000
_symmetry_Int_Tables_number   1
_chemical_formula_structural   Sr3(RuN2)2
_chemical_formula_sum   'Sr12 Ru8 N16'
_cell_volume   598.83611482
_cell_formula_units_Z   4
loop_
 _symmetry_equiv_pos_site_id
 _symmetry_equiv_pos_as_xyz
  1  'x, y, z'
loop_
 _atom_site_type_symbol
 _atom_site_label
 _atom_site_symmetry_multiplicity
 _atom_site_fract_x
 _atom_site_fract_y
 _atom_site_fract_z
 _atom_site_occupancy
  Sr  Sr0  1  0.62556300  0.15459100  0.42277200  1
  Sr  Sr1  1  0.87443700  0.84540900  0.42277200  1
  Sr  Sr2  1  0.62556300  0.34540900  0.07722800  1
  Sr  Sr3  1  0.87443700  0.65459100  0.07722800  1
  Sr  Sr4  1  0.37443700  0.84540900  0.57722800  1
  Sr  Sr5  1  0.12556300  0.15459100  0.57722800  1
  Sr  Sr6  1  0.37443700  0.65459100  0.92277200  1
  Sr  Sr7  1  0.12556300  0.34540900  0.92277200  1
  Sr  Sr8  1  0.75000000  0.50000000  0.40543200  1
  Sr  Sr9  1  0.75000000  0.00000000  0.09456800  1
  Sr  Sr10  1  0.25000000  0.50000000  0.59456800  1
  Sr  Sr11  1  0.25000000  0.00000000  0.90543200  1
  Ru  Ru12  1  0.75000000  0.50000000  0.74401500  1
  Ru  Ru13  1  0.75000000  0.00000000  0.75598500  1
  Ru  Ru14  1  0.25000000  0.50000000  0.25598500  1
  Ru  Ru15  1  0.25000000  0.00000000  0.24401500  1
  Ru  Ru16  1  0.69392600  0.25000000  0.75000000  1
  Ru  Ru17  1  0.80607400  0.75000000  0.75000000  1
  Ru  Ru18  1  0.30607400  0.75000000  0.25000000  1
  Ru  Ru19  1  0.19392600  0.25000000  0.25000000  1
  N  N20  1  0.90601400  0.35661800  0.64747400  1
  N  N21  1  0.59398600  0.64338200  0.64747400  1
  N  N22  1  0.90601400  0.14338200  0.85252600  1
  N  N23  1  0.59398600  0.85661800  0.85252600  1
  N  N24  1  0.09398600  0.64338200  0.35252600  1
  N  N25  1  0.40601400  0.35661800  0.35252600  1
  N  N26  1  0.09398600  0.85661800  0.14747400  1
  N  N27  1  0.40601400  0.14338200  0.14747400  1
  N  N28  1  0.48146600  0.40131700  0.81062800  1
  N  N29  1  0.01853400  0.59868300  0.81062800  1
  N  N30  1  0.48146600  0.09868300  0.68937200  1
  N  N31  1  0.01853400  0.90131700  0.68937200  1
  N  N32  1  0.51853400  0.59868300  0.18937200  1
  N  N33  1  0.98146600  0.40131700  0.18937200  1
  N  N34  1  0.51853400  0.90131700  0.31062800  1
  N  N35  1  0.98146600  0.09868300  0.31062800  1
