data_image0
_chemical_formula_structural       Mo4O24Sm8
_chemical_formula_sum              "Mo4 O24 Sm8"
_cell_length_a       10.0137
_cell_length_b       9.77663
_cell_length_c       10.0067
_cell_angle_alpha    77.0846
_cell_angle_beta     112.828
_cell_angle_gamma    148.283

_space_group_name_H-M_alt    "P 1"
_space_group_IT_number       1

loop_
  _space_group_symop_operation_xyz
  'x, y, z'

loop_
  _atom_site_type_symbol
  _atom_site_label
  _atom_site_symmetry_multiplicity
  _atom_site_fract_x
  _atom_site_fract_y
  _atom_site_fract_z
  _atom_site_occupancy
  Mo  Mo1       1.0  0.57800  0.38700  0.50300  1.0000
  Mo  Mo2       1.0  0.61600  0.11300  0.19100  1.0000
  Mo  Mo3       1.0  0.42200  0.61300  0.49700  1.0000
  Mo  Mo4       1.0  0.38400  0.88700  0.80900  1.0000
  O   O1        1.0  0.76600  0.58800  0.37900  1.0000
  O   O2        1.0  0.29000  0.91200  0.17800  1.0000
  O   O3        1.0  0.23400  0.41200  0.62100  1.0000
  O   O4        1.0  0.71000  0.08820  0.82200  1.0000
  O   O5        1.0  0.30900  0.26100  0.52800  1.0000
  O   O6        1.0  0.76800  0.23900  0.04850  1.0000
  O   O7        1.0  0.69100  0.73900  0.47200  1.0000
  O   O8        1.0  0.23200  0.76100  0.95100  1.0000
  O   O9        1.0  0.83400  0.61000  0.68700  1.0000
  O   O10       1.0  0.57700  0.89000  0.22400  1.0000
  O   O11       1.0  0.16600  0.39000  0.31300  1.0000
  O   O12       1.0  0.42300  0.11000  0.77600  1.0000
  O   O13       1.0  0.57000  0.18900  0.54200  1.0000
  O   O14       1.0  0.85300  0.31100  0.38000  1.0000
  O   O15       1.0  0.43000  0.81100  0.45800  1.0000
  O   O16       1.0  0.14700  0.68900  0.62000  1.0000
  O   O17       1.0  0.23300  0.07630  0.31800  1.0000
  O   O18       1.0  0.74100  0.42300  0.15700  1.0000
  O   O19       1.0  0.76700  0.92400  0.68200  1.0000
  O   O20       1.0  0.25900  0.57700  0.84300  1.0000
  O   O21       1.0  0.99900  0.10400  0.07920  1.0000
  O   O22       1.0  0.47600  0.39700  0.89500  1.0000
  O   O23       1.0  0.00099  0.89600  0.92100  1.0000
  O   O24       1.0  0.52400  0.60300  0.10500  1.0000
  Sm  Sm1       1.0  0.17000  0.45900  0.05760  1.0000
  Sm  Sm2       1.0  0.09840  0.04070  0.71100  1.0000
  Sm  Sm3       1.0  0.83000  0.54100  0.94200  1.0000
  Sm  Sm4       1.0  0.90200  0.95900  0.28900  1.0000
  Sm  Sm5       1.0  0.36100  0.25000  0.11100  1.0000
  Sm  Sm6       1.0  0.63900  0.75000  0.88900  1.0000
  Sm  Sm7       1.0  0.87800  0.25000  0.62800  1.0000
  Sm  Sm8       1.0  0.12200  0.75000  0.37200  1.0000
