# generated using pymatgen
data_Ba3(TaN2)2
_symmetry_space_group_name_H-M   'P 1'
_cell_length_a   6.36753600
_cell_length_b   11.11992800
_cell_length_c   10.60132000
_cell_angle_alpha   90.00000000
_cell_angle_beta   90.00000000
_cell_angle_gamma   90.00000000
_symmetry_Int_Tables_number   1
_chemical_formula_structural   Ba3(TaN2)2
_chemical_formula_sum   'Ba12 Ta8 N16'
_cell_volume   750.64280832
_cell_formula_units_Z   4
loop_
 _symmetry_equiv_pos_site_id
 _symmetry_equiv_pos_as_xyz
  1  'x, y, z'
loop_
 _atom_site_type_symbol
 _atom_site_label
 _atom_site_symmetry_multiplicity
 _atom_site_fract_x
 _atom_site_fract_y
 _atom_site_fract_z
 _atom_site_occupancy
  Ba  Ba0  1  0.62035900  0.15921600  0.41902500  1
  Ba  Ba1  1  0.87964100  0.84078400  0.41902500  1
  Ba  Ba2  1  0.62035900  0.34078400  0.08097500  1
  Ba  Ba3  1  0.87964100  0.65921600  0.08097500  1
  Ba  Ba4  1  0.37964100  0.84078400  0.58097500  1
  Ba  Ba5  1  0.12035900  0.15921600  0.58097500  1
  Ba  Ba6  1  0.37964100  0.65921600  0.91902500  1
  Ba  Ba7  1  0.12035900  0.34078400  0.91902500  1
  Ba  Ba8  1  0.75000000  0.50000000  0.40355800  1
  Ba  Ba9  1  0.75000000  0.00000000  0.09644200  1
  Ba  Ba10  1  0.25000000  0.50000000  0.59644200  1
  Ba  Ba11  1  0.25000000  0.00000000  0.90355800  1
  Ta  Ta12  1  0.75000000  0.50000000  0.73686300  1
  Ta  Ta13  1  0.75000000  0.00000000  0.76313700  1
  Ta  Ta14  1  0.25000000  0.50000000  0.26313700  1
  Ta  Ta15  1  0.25000000  0.00000000  0.23686300  1
  Ta  Ta16  1  0.63394300  0.25000000  0.75000000  1
  Ta  Ta17  1  0.86605700  0.75000000  0.75000000  1
  Ta  Ta18  1  0.36605700  0.75000000  0.25000000  1
  Ta  Ta19  1  0.13394300  0.25000000  0.25000000  1
  N  N20  1  0.83375200  0.35066800  0.64161100  1
  N  N21  1  0.66624800  0.64933200  0.64161100  1
  N  N22  1  0.83375200  0.14933200  0.85838900  1
  N  N23  1  0.66624800  0.85066800  0.85838900  1
  N  N24  1  0.16624800  0.64933200  0.35838900  1
  N  N25  1  0.33375200  0.35066800  0.35838900  1
  N  N26  1  0.16624800  0.85066800  0.14161100  1
  N  N27  1  0.33375200  0.14933200  0.14161100  1
  N  N28  1  0.52181400  0.41355300  0.83068200  1
  N  N29  1  0.97818600  0.58644700  0.83068200  1
  N  N30  1  0.52181400  0.08644700  0.66931800  1
  N  N31  1  0.97818600  0.91355300  0.66931800  1
  N  N32  1  0.47818600  0.58644700  0.16931800  1
  N  N33  1  0.02181400  0.41355300  0.16931800  1
  N  N34  1  0.47818600  0.91355300  0.33068200  1
  N  N35  1  0.02181400  0.08644700  0.33068200  1
