# generated using pymatgen
data_CrBi2N3
_symmetry_space_group_name_H-M   'P 1'
_cell_length_a   6.52676634
_cell_length_b   11.76430733
_cell_length_c   12.53598944
_cell_angle_alpha   90.00000096
_cell_angle_beta   89.02940717
_cell_angle_gamma   154.32096043
_symmetry_Int_Tables_number   1
_chemical_formula_structural   CrBi2N3
_chemical_formula_sum   'Cr4 Bi8 N12'
_cell_volume   416.78217861
_cell_formula_units_Z   4
loop_
 _symmetry_equiv_pos_site_id
 _symmetry_equiv_pos_as_xyz
  1  'x, y, z'
loop_
 _atom_site_type_symbol
 _atom_site_label
 _atom_site_symmetry_multiplicity
 _atom_site_fract_x
 _atom_site_fract_y
 _atom_site_fract_z
 _atom_site_occupancy
  Cr  Cr0  1  0.53070300  0.30852500  0.66927000  1
  Cr  Cr1  1  0.46929700  0.77782100  0.83073000  1
  Cr  Cr2  1  0.46929700  0.69147500  0.33073000  1
  Cr  Cr3  1  0.53070300  0.22217900  0.16927000  1
  Bi  Bi4  1  0.48074500  0.08727200  0.88216000  1
  Bi  Bi5  1  0.51925500  0.60652700  0.61784000  1
  Bi  Bi6  1  0.51925500  0.91272800  0.11784000  1
  Bi  Bi7  1  0.48074500  0.39347300  0.38216000  1
  Bi  Bi8  1  0.52953300  0.89280500  0.56010300  1
  Bi  Bi9  1  0.47046700  0.36327100  0.93989700  1
  Bi  Bi10  1  0.47046700  0.10719500  0.43989700  1
  Bi  Bi11  1  0.52953300  0.63672900  0.06010300  1
  N  N12  1  0.00000000  0.58797900  0.75000000  1
  N  N13  1  0.00000000  0.41202100  0.25000000  1
  N  N14  1  0.73299000  0.28368000  0.60943000  1
  N  N15  1  0.26701000  0.55069000  0.89057000  1
  N  N16  1  0.26701000  0.71632000  0.39057000  1
  N  N17  1  0.73299000  0.44931000  0.10943000  1
  N  N18  1  0.40589000  0.04908700  0.06805100  1
  N  N19  1  0.59411000  0.64319700  0.43194900  1
  N  N20  1  0.59411000  0.95091300  0.93194900  1
  N  N21  1  0.40589000  0.35680300  0.56805100  1
  N  N22  1  0.00000000  0.02950700  0.75000000  1
  N  N23  1  0.00000000  0.97049400  0.25000000  1
