# generated using pymatgen
data_Sr7PtN6
_symmetry_space_group_name_H-M   'P 1'
_cell_length_a   6.74291100
_cell_length_b   9.67632661
_cell_length_c   9.67632661
_cell_angle_alpha   80.89601564
_cell_angle_beta   69.60910935
_cell_angle_gamma   69.60910935
_symmetry_Int_Tables_number   1
_chemical_formula_structural   Sr7PtN6
_chemical_formula_sum   'Sr14 Pt2 N12'
_cell_volume   554.21526981
_cell_formula_units_Z   2
loop_
 _symmetry_equiv_pos_site_id
 _symmetry_equiv_pos_as_xyz
  1  'x, y, z'
loop_
 _atom_site_type_symbol
 _atom_site_label
 _atom_site_symmetry_multiplicity
 _atom_site_fract_x
 _atom_site_fract_y
 _atom_site_fract_z
 _atom_site_occupancy
  Sr  Sr0  1  0.26946900  0.95381500  0.04618500  1
  Sr  Sr1  1  0.73053100  0.04618500  0.95381500  1
  Sr  Sr2  1  0.23053100  0.45381500  0.54618500  1
  Sr  Sr3  1  0.76946900  0.54618500  0.45381500  1
  Sr  Sr4  1  0.77015000  0.15087200  0.58678200  1
  Sr  Sr5  1  0.49219600  0.58678200  0.15087200  1
  Sr  Sr6  1  0.72985000  0.91321800  0.34912800  1
  Sr  Sr7  1  0.00780400  0.34912800  0.91321800  1
  Sr  Sr8  1  0.22985000  0.84912800  0.41321800  1
  Sr  Sr9  1  0.50780400  0.41321800  0.84912800  1
  Sr  Sr10  1  0.27015000  0.08678200  0.65087200  1
  Sr  Sr11  1  0.99219600  0.65087200  0.08678200  1
  Sr  Sr12  1  0.25000000  0.25000000  0.25000000  1
  Sr  Sr13  1  0.75000000  0.75000000  0.75000000  1
  Pt  Pt14  1  0.75000000  0.25000000  0.25000000  1
  Pt  Pt15  1  0.25000000  0.75000000  0.75000000  1
  N  N16  1  0.99038000  0.07821400  0.31432800  1
  N  N17  1  0.61707700  0.31432800  0.07821400  1
  N  N18  1  0.50962000  0.18567200  0.42178600  1
  N  N19  1  0.88292300  0.42178600  0.18567200  1
  N  N20  1  0.00962000  0.92178600  0.68567200  1
  N  N21  1  0.38292300  0.68567200  0.92178600  1
  N  N22  1  0.49038000  0.81432800  0.57821400  1
  N  N23  1  0.11707700  0.57821400  0.81432800  1
  N  N24  1  0.89898100  0.35520500  0.64479500  1
  N  N25  1  0.10101900  0.64479500  0.35520500  1
  N  N26  1  0.60101900  0.85520500  0.14479500  1
  N  N27  1  0.39898100  0.14479500  0.85520500  1
