# generated using pymatgen
data_Ru(PbN)4
_symmetry_space_group_name_H-M   'P 1'
_cell_length_a   6.36281526
_cell_length_b   6.48062776
_cell_length_c   10.09044052
_cell_angle_alpha   77.85687003
_cell_angle_beta   86.25975549
_cell_angle_gamma   66.78731926
_symmetry_Int_Tables_number   1
_chemical_formula_structural   Ru(PbN)4
_chemical_formula_sum   'Ru2 Pb8 N8'
_cell_volume   373.76882673
_cell_formula_units_Z   2
loop_
 _symmetry_equiv_pos_site_id
 _symmetry_equiv_pos_as_xyz
  1  'x, y, z'
loop_
 _atom_site_type_symbol
 _atom_site_label
 _atom_site_symmetry_multiplicity
 _atom_site_fract_x
 _atom_site_fract_y
 _atom_site_fract_z
 _atom_site_occupancy
  Ru  Ru0  1  0.78704700  0.86797200  0.82224100  1
  Ru  Ru1  1  0.21295300  0.13202800  0.17775900  1
  Pb  Pb2  1  0.75637100  0.66809200  0.22599900  1
  Pb  Pb3  1  0.24362900  0.33190800  0.77400100  1
  Pb  Pb4  1  0.74705100  0.25144100  0.00208900  1
  Pb  Pb5  1  0.25294900  0.74855900  0.99791100  1
  Pb  Pb6  1  0.75772900  0.44318900  0.60008900  1
  Pb  Pb7  1  0.24227100  0.55681100  0.39991100  1
  Pb  Pb8  1  0.29092000  0.90342700  0.60902900  1
  Pb  Pb9  1  0.70908000  0.09657400  0.39097100  1
  N  N10  1  0.09759600  0.73470200  0.77504500  1
  N  N11  1  0.90240400  0.26529800  0.22495500  1
  N  N12  1  0.84023800  0.84669000  0.01111000  1
  N  N13  1  0.15976200  0.15331000  0.98889000  1
  N  N14  1  0.61403600  0.72815400  0.77669000  1
  N  N15  1  0.38596400  0.27184600  0.22330900  1
  N  N16  1  0.34314000  0.81409400  0.23115400  1
  N  N17  1  0.65686000  0.18590600  0.76884600  1
