# generated using pymatgen
data_PmLu3
_symmetry_space_group_name_H-M   'P 1'
_cell_length_a   7.14616351
_cell_length_b   7.14616351
_cell_length_c   5.61392400
_cell_angle_alpha   90.00000000
_cell_angle_beta   90.00000000
_cell_angle_gamma   119.99999548
_symmetry_Int_Tables_number   1
_chemical_formula_structural   PmLu3
_chemical_formula_sum   'Pm2 Lu6'
_cell_volume   248.28076716
_cell_formula_units_Z   2
loop_
 _symmetry_equiv_pos_site_id
 _symmetry_equiv_pos_as_xyz
  1  'x, y, z'
loop_
 _atom_site_type_symbol
 _atom_site_label
 _atom_site_symmetry_multiplicity
 _atom_site_fract_x
 _atom_site_fract_y
 _atom_site_fract_z
 _atom_site_occupancy
  Pm  Pm0  1  0.66666700  0.33333300  0.25000000  1
  Pm  Pm1  1  0.33333300  0.66666700  0.75000000  1
  Lu  Lu2  1  0.83564400  0.16435600  0.75000000  1
  Lu  Lu3  1  0.32871200  0.16435600  0.75000000  1
  Lu  Lu4  1  0.83564400  0.67128800  0.75000000  1
  Lu  Lu5  1  0.16435600  0.83564400  0.25000000  1
  Lu  Lu6  1  0.67128800  0.83564400  0.25000000  1
  Lu  Lu7  1  0.16435600  0.32871200  0.25000000  1
