# generated using pymatgen
data_MgMoWS4
_symmetry_space_group_name_H-M   'P 1'
_cell_length_a   7.31379515
_cell_length_b   7.07257356
_cell_length_c   7.07857455
_cell_angle_alpha   65.24312111
_cell_angle_beta   58.98046756
_cell_angle_gamma   59.00107513
_symmetry_Int_Tables_number   1
_chemical_formula_structural   MgMoWS4
_chemical_formula_sum   'Mg2 Mo2 W2 S8'
_cell_volume   263.04873368
_cell_formula_units_Z   2
loop_
 _symmetry_equiv_pos_site_id
 _symmetry_equiv_pos_as_xyz
  1  'x, y, z'
loop_
 _atom_site_type_symbol
 _atom_site_label
 _atom_site_symmetry_multiplicity
 _atom_site_fract_x
 _atom_site_fract_y
 _atom_site_fract_z
 _atom_site_occupancy
  Mg  Mg0  1  0.85712700  0.88944500  0.88935600  1
  Mg  Mg1  1  0.10650200  0.14187300  0.14172200  1
  Mo  Mo2  1  0.47829100  0.50971500  0.03455300  1
  Mo  Mo3  1  0.47815800  0.03514100  0.50944700  1
  W  W4  1  0.48183000  0.47446900  0.47475800  1
  W  W5  1  0.07090000  0.47315400  0.47329100  1
  S  S6  1  0.72687400  0.74323600  0.74385900  1
  S  S7  1  0.22661000  0.29519400  0.75294200  1
  S  S8  1  0.22680800  0.75248400  0.29483600  1
  S  S9  1  0.73198300  0.22295200  0.22273000  1
  S  S10  1  0.75469400  0.29428500  0.69907900  1
  S  S11  1  0.28299300  0.74651100  0.74675800  1
  S  S12  1  0.32260600  0.22275800  0.22209600  1
  S  S13  1  0.75462800  0.69878000  0.29457500  1
