# generated using pymatgen
data_Ta3MnN6
_symmetry_space_group_name_H-M   'P 1'
_cell_length_a   5.00122136
_cell_length_b   7.58629200
_cell_length_c   5.50641213
_cell_angle_alpha   90.00000000
_cell_angle_beta   89.27981871
_cell_angle_gamma   90.00000000
_symmetry_Int_Tables_number   1
_chemical_formula_structural   Ta3MnN6
_chemical_formula_sum   'Ta6 Mn2 N12'
_cell_volume   208.90076797
_cell_formula_units_Z   2
loop_
 _symmetry_equiv_pos_site_id
 _symmetry_equiv_pos_as_xyz
  1  'x, y, z'
loop_
 _atom_site_type_symbol
 _atom_site_label
 _atom_site_symmetry_multiplicity
 _atom_site_fract_x
 _atom_site_fract_y
 _atom_site_fract_z
 _atom_site_occupancy
  Ta  Ta0  1  0.04995300  0.25000000  0.92898500  1
  Ta  Ta1  1  0.95004700  0.75000000  0.07101500  1
  Ta  Ta2  1  0.47776100  0.25000000  0.40718200  1
  Ta  Ta3  1  0.52223900  0.75000000  0.59281800  1
  Ta  Ta4  1  0.00000000  0.50000000  0.50000000  1
  Ta  Ta5  1  0.00000000  0.00000000  0.50000000  1
  Mn  Mn6  1  0.50000000  0.50000000  0.00000000  1
  Mn  Mn7  1  0.50000000  0.00000000  0.00000000  1
  N  N8  1  0.84185300  0.25000000  0.57363200  1
  N  N9  1  0.15814700  0.75000000  0.42636800  1
  N  N10  1  0.67107700  0.25000000  0.06473800  1
  N  N11  1  0.32892300  0.75000000  0.93526200  1
  N  N12  1  0.18910200  0.41971600  0.18368000  1
  N  N13  1  0.81089800  0.91971600  0.81632000  1
  N  N14  1  0.81089800  0.58028400  0.81632000  1
  N  N15  1  0.18910200  0.08028400  0.18368000  1
  N  N16  1  0.33031700  0.42360000  0.68914600  1
  N  N17  1  0.66968300  0.92360000  0.31085400  1
  N  N18  1  0.66968300  0.57640000  0.31085400  1
  N  N19  1  0.33031700  0.07640000  0.68914600  1
