# generated using pymatgen
data_Sr4PtN4
_symmetry_space_group_name_H-M   'P 1'
_cell_length_a   6.39694493
_cell_length_b   6.32749845
_cell_length_c   9.14791278
_cell_angle_alpha   68.83537004
_cell_angle_beta   80.56687013
_cell_angle_gamma   75.03280947
_symmetry_Int_Tables_number   1
_chemical_formula_structural   Sr4PtN4
_chemical_formula_sum   'Sr8 Pt2 N8'
_cell_volume   332.55857315
_cell_formula_units_Z   2
loop_
 _symmetry_equiv_pos_site_id
 _symmetry_equiv_pos_as_xyz
  1  'x, y, z'
loop_
 _atom_site_type_symbol
 _atom_site_label
 _atom_site_symmetry_multiplicity
 _atom_site_fract_x
 _atom_site_fract_y
 _atom_site_fract_z
 _atom_site_occupancy
  Sr  Sr0  1  0.79760300  0.56640700  0.15012800  1
  Sr  Sr1  1  0.20239700  0.43359300  0.84987200  1
  Sr  Sr2  1  0.70188500  0.16896100  0.98712800  1
  Sr  Sr3  1  0.29811500  0.83103900  0.01287200  1
  Sr  Sr4  1  0.74413800  0.43380100  0.59463300  1
  Sr  Sr5  1  0.25586200  0.56619900  0.40536700  1
  Sr  Sr6  1  0.22089900  0.97652400  0.62299200  1
  Sr  Sr7  1  0.77910100  0.02347600  0.37700800  1
  Pt  Pt8  1  0.72861500  0.83281900  0.76212700  1
  Pt  Pt9  1  0.27138500  0.16718100  0.23787300  1
  N  N10  1  0.98746900  0.67571200  0.61579100  1
  N  N11  1  0.01253100  0.32428800  0.38420900  1
  N  N12  1  0.96988100  0.85883300  0.87480000  1
  N  N13  1  0.03011900  0.14116700  0.12520000  1
  N  N14  1  0.51695500  0.63657600  0.77751600  1
  N  N15  1  0.48304500  0.36342400  0.22248400  1
  N  N16  1  0.51402300  0.88531100  0.22910700  1
  N  N17  1  0.48597700  0.11468900  0.77089300  1
