# generated using pymatgen
data_Dy3Mg2VS8
_symmetry_space_group_name_H-M   'P 1'
_cell_length_a   7.82571058
_cell_length_b   7.70815932
_cell_length_c   7.82605482
_cell_angle_alpha   59.63047022
_cell_angle_beta   59.98669144
_cell_angle_gamma   59.66491356
_symmetry_Int_Tables_number   1
_chemical_formula_structural   Dy3Mg2VS8
_chemical_formula_sum   'Dy3 Mg2 V1 S8'
_cell_volume   331.99055267
_cell_formula_units_Z   1
loop_
 _symmetry_equiv_pos_site_id
 _symmetry_equiv_pos_as_xyz
  1  'x, y, z'
loop_
 _atom_site_type_symbol
 _atom_site_label
 _atom_site_symmetry_multiplicity
 _atom_site_fract_x
 _atom_site_fract_y
 _atom_site_fract_z
 _atom_site_occupancy
  Dy  Dy0  1  0.50000200  0.50001700  0.49998200  1
  Dy  Dy1  1  0.49999700  0.49999100  0.99999900  1
  Dy  Dy2  1  0.00000000  0.49999300  0.50000700  1
  Mg  Mg3  1  0.87506700  0.87427400  0.87516200  1
  Mg  Mg4  1  0.12493500  0.12572600  0.12484100  1
  V  V5  1  0.50000400  0.00000100  0.50000700  1
  S  S6  1  0.73177100  0.76678200  0.73170500  1
  S  S7  1  0.26904500  0.23215700  0.72994400  1
  S  S8  1  0.25430800  0.73728500  0.25418100  1
  S  S9  1  0.72983800  0.23214800  0.26914500  1
  S  S10  1  0.74567900  0.26271500  0.74580300  1
  S  S11  1  0.27016300  0.76785400  0.73085200  1
  S  S12  1  0.26822500  0.23320400  0.26831600  1
  S  S13  1  0.73097000  0.76784800  0.27005900  1
