# generated using pymatgen
data_V3CrO8
_symmetry_space_group_name_H-M   'P 1'
_cell_length_a   5.83793329
_cell_length_b   5.80904623
_cell_length_c   6.20419563
_cell_angle_alpha   58.83326102
_cell_angle_beta   57.57776979
_cell_angle_gamma   59.99844032
_symmetry_Int_Tables_number   1
_chemical_formula_structural   V3CrO8
_chemical_formula_sum   'V3 Cr1 O8'
_cell_volume   144.57627447
_cell_formula_units_Z   1
loop_
 _symmetry_equiv_pos_site_id
 _symmetry_equiv_pos_as_xyz
  1  'x, y, z'
loop_
 _atom_site_type_symbol
 _atom_site_label
 _atom_site_symmetry_multiplicity
 _atom_site_fract_x
 _atom_site_fract_y
 _atom_site_fract_z
 _atom_site_occupancy
  V  V0  1  0.92082500  0.83707800  0.91128000  1
  V  V1  1  0.16217600  0.07994000  0.16583600  1
  V  V2  1  0.53961300  0.45692800  0.53831100  1
  Cr  Cr3  1  0.54292700  0.46006400  0.03504700  1
  O  O4  1  0.78773000  0.71270400  0.25641500  1
  O  O5  1  0.28773900  0.21094400  0.25677000  1
  O  O6  1  0.80009700  0.70710100  0.81479900  1
  O  O7  1  0.29385600  0.19986500  0.82109000  1
  O  O8  1  0.30550300  0.69918500  0.28052800  1
  O  O9  1  0.77048800  0.23417200  0.28184100  1
  O  O10  1  0.77684700  0.21818000  0.79331900  1
  O  O11  1  0.31219600  0.68385800  0.79159200  1
