# generated using pymatgen
data_CsZnN
_symmetry_space_group_name_H-M   'P 1'
_cell_length_a   12.06643800
_cell_length_b   3.61340200
_cell_length_c   6.76721700
_cell_angle_alpha   90.00000000
_cell_angle_beta   90.00000000
_cell_angle_gamma   90.00000000
_symmetry_Int_Tables_number   1
_chemical_formula_structural   CsZnN
_chemical_formula_sum   'Cs4 Zn4 N4'
_cell_volume   295.05669216
_cell_formula_units_Z   4
loop_
 _symmetry_equiv_pos_site_id
 _symmetry_equiv_pos_as_xyz
  1  'x, y, z'
loop_
 _atom_site_type_symbol
 _atom_site_label
 _atom_site_symmetry_multiplicity
 _atom_site_fract_x
 _atom_site_fract_y
 _atom_site_fract_z
 _atom_site_occupancy
  Cs  Cs0  1  0.65636700  0.25000000  0.05526100  1
  Cs  Cs1  1  0.15636700  0.25000000  0.44473900  1
  Cs  Cs2  1  0.34363300  0.75000000  0.94473900  1
  Cs  Cs3  1  0.84363300  0.75000000  0.55526100  1
  Zn  Zn4  1  0.55645100  0.25000000  0.59570800  1
  Zn  Zn5  1  0.05645100  0.25000000  0.90429200  1
  Zn  Zn6  1  0.44354900  0.75000000  0.40429200  1
  Zn  Zn7  1  0.94354900  0.75000000  0.09570800  1
  N  N8  1  0.91944100  0.25000000  0.17915200  1
  N  N9  1  0.41944100  0.25000000  0.32084800  1
  N  N10  1  0.08055900  0.75000000  0.82084800  1
  N  N11  1  0.58055900  0.75000000  0.67915200  1
