# generated using pymatgen
data_Ca3(NbN2)2
_symmetry_space_group_name_H-M   'P 1'
_cell_length_a   5.88186600
_cell_length_b   10.63543600
_cell_length_c   9.38746500
_cell_angle_alpha   90.00000000
_cell_angle_beta   90.00000000
_cell_angle_gamma   90.00000000
_symmetry_Int_Tables_number   1
_chemical_formula_structural   Ca3(NbN2)2
_chemical_formula_sum   'Ca12 Nb8 N16'
_cell_volume   587.24422631
_cell_formula_units_Z   4
loop_
 _symmetry_equiv_pos_site_id
 _symmetry_equiv_pos_as_xyz
  1  'x, y, z'
loop_
 _atom_site_type_symbol
 _atom_site_label
 _atom_site_symmetry_multiplicity
 _atom_site_fract_x
 _atom_site_fract_y
 _atom_site_fract_z
 _atom_site_occupancy
  Ca  Ca0  1  0.61492600  0.15588100  0.41971400  1
  Ca  Ca1  1  0.88507400  0.84411900  0.41971400  1
  Ca  Ca2  1  0.61492600  0.34411900  0.08028600  1
  Ca  Ca3  1  0.88507400  0.65588100  0.08028600  1
  Ca  Ca4  1  0.38507400  0.84411900  0.58028600  1
  Ca  Ca5  1  0.11492600  0.15588100  0.58028600  1
  Ca  Ca6  1  0.38507400  0.65588100  0.91971400  1
  Ca  Ca7  1  0.11492600  0.34411900  0.91971400  1
  Ca  Ca8  1  0.75000000  0.50000000  0.40032900  1
  Ca  Ca9  1  0.75000000  0.00000000  0.09967100  1
  Ca  Ca10  1  0.25000000  0.50000000  0.59967100  1
  Ca  Ca11  1  0.25000000  0.00000000  0.90032900  1
  Nb  Nb12  1  0.75000000  0.50000000  0.73682100  1
  Nb  Nb13  1  0.75000000  0.00000000  0.76317900  1
  Nb  Nb14  1  0.25000000  0.50000000  0.26317900  1
  Nb  Nb15  1  0.25000000  0.00000000  0.23682100  1
  Nb  Nb16  1  0.62296800  0.25000000  0.75000000  1
  Nb  Nb17  1  0.87703200  0.75000000  0.75000000  1
  Nb  Nb18  1  0.37703200  0.75000000  0.25000000  1
  Nb  Nb19  1  0.12296800  0.25000000  0.25000000  1
  N  N20  1  0.84342600  0.34823000  0.61601400  1
  N  N21  1  0.65657400  0.65177100  0.61601400  1
  N  N22  1  0.84342600  0.15177100  0.88398600  1
  N  N23  1  0.65657400  0.84822900  0.88398600  1
  N  N24  1  0.15657400  0.65177100  0.38398600  1
  N  N25  1  0.34342600  0.34823000  0.38398600  1
  N  N26  1  0.15657400  0.84822900  0.11601400  1
  N  N27  1  0.34342600  0.15177100  0.11601400  1
  N  N28  1  0.48523900  0.41765500  0.84073600  1
  N  N29  1  0.01476100  0.58234500  0.84073600  1
  N  N30  1  0.48523900  0.08234500  0.65926400  1
  N  N31  1  0.01476100  0.91765500  0.65926400  1
  N  N32  1  0.51476100  0.58234500  0.15926400  1
  N  N33  1  0.98523900  0.41765500  0.15926400  1
  N  N34  1  0.51476100  0.91765500  0.34073600  1
  N  N35  1  0.98523900  0.08234500  0.34073600  1
