# generated using pymatgen
data_V(C2N3)3
_symmetry_space_group_name_H-M   'P 1'
_cell_length_a   7.44907528
_cell_length_b   13.09822884
_cell_length_c   11.54201900
_cell_angle_alpha   90.00000000
_cell_angle_beta   90.00000000
_cell_angle_gamma   28.45580593
_symmetry_Int_Tables_number   1
_chemical_formula_structural   V(C2N3)3
_chemical_formula_sum   'V2 C12 N18'
_cell_volume   536.58940029
_cell_formula_units_Z   2
loop_
 _symmetry_equiv_pos_site_id
 _symmetry_equiv_pos_as_xyz
  1  'x, y, z'
loop_
 _atom_site_type_symbol
 _atom_site_label
 _atom_site_symmetry_multiplicity
 _atom_site_fract_x
 _atom_site_fract_y
 _atom_site_fract_z
 _atom_site_occupancy
  V  V0  1  0.00000000  0.27698400  0.25000000  1
  V  V1  1  0.00000000  0.72301600  0.75000000  1
  C  C2  1  0.67968800  0.77924400  0.25000000  1
  C  C3  1  0.67968800  0.54106800  0.75000000  1
  C  C4  1  0.32031200  0.22075600  0.75000000  1
  C  C5  1  0.32031200  0.45893200  0.25000000  1
  C  C6  1  0.68128300  0.30659600  0.90597200  1
  C  C7  1  0.68128300  0.01212200  0.09402800  1
  C  C8  1  0.68128300  0.30659600  0.59402800  1
  C  C9  1  0.68128300  0.01212200  0.40597200  1
  C  C10  1  0.31871700  0.69340400  0.09402800  1
  C  C11  1  0.31871700  0.98787800  0.90597200  1
  C  C12  1  0.31871700  0.69340400  0.40597200  1
  C  C13  1  0.31871700  0.98787800  0.59402800  1
  N  N14  1  0.00000000  0.57228500  0.25000000  1
  N  N15  1  0.00000000  0.42771500  0.75000000  1
  N  N16  1  0.37698000  0.96764000  0.25000000  1
  N  N17  1  0.37698000  0.65538100  0.75000000  1
  N  N18  1  0.62302000  0.03236000  0.75000000  1
  N  N19  1  0.62302000  0.34461900  0.25000000  1
  N  N20  1  0.00000000  0.12081000  0.95005300  1
  N  N21  1  0.00000000  0.87919000  0.04994700  1
  N  N22  1  0.00000000  0.12081000  0.54994700  1
  N  N23  1  0.00000000  0.87919000  0.45005300  1
  N  N24  1  0.37973400  0.47834500  0.87025300  1
  N  N25  1  0.37973400  0.14192100  0.12974700  1
  N  N26  1  0.37973400  0.47834500  0.62974700  1
  N  N27  1  0.37973400  0.14192100  0.37025300  1
  N  N28  1  0.62026600  0.52165500  0.12974700  1
  N  N29  1  0.62026600  0.85807900  0.87025300  1
  N  N30  1  0.62026600  0.52165500  0.37025300  1
  N  N31  1  0.62026600  0.85807900  0.62974700  1
