# generated using pymatgen
data_ZrCrAgS4
_symmetry_space_group_name_H-M   'P 1'
_cell_length_a   6.65721302
_cell_length_b   7.76938783
_cell_length_c   12.90699858
_cell_angle_alpha   81.86674264
_cell_angle_beta   85.57143176
_cell_angle_gamma   89.81113823
_symmetry_Int_Tables_number   1
_chemical_formula_structural   ZrCrAgS4
_chemical_formula_sum   'Zr4 Cr4 Ag4 S16'
_cell_volume   658.87432946
_cell_formula_units_Z   4
loop_
 _symmetry_equiv_pos_site_id
 _symmetry_equiv_pos_as_xyz
  1  'x, y, z'
loop_
 _atom_site_type_symbol
 _atom_site_label
 _atom_site_symmetry_multiplicity
 _atom_site_fract_x
 _atom_site_fract_y
 _atom_site_fract_z
 _atom_site_occupancy
  Zr  Zr0  1  0.85612500  0.29486200  0.30663200  1
  Zr  Zr1  1  0.24001000  0.87395400  0.99994200  1
  Zr  Zr2  1  0.75957300  0.11379900  0.99979100  1
  Zr  Zr3  1  0.63242000  0.45108900  0.69639500  1
  Cr  Cr4  1  0.15314000  0.70566800  0.70280100  1
  Cr  Cr5  1  0.36091500  0.55320600  0.29597800  1
  Cr  Cr6  1  0.36604900  0.04774700  0.29626900  1
  Cr  Cr7  1  0.62787500  0.94386600  0.70115500  1
  Ag  Ag8  1  0.13395700  0.19900400  0.69566800  1
  Ag  Ag9  1  0.87884600  0.79776500  0.30799800  1
  Ag  Ag10  1  0.25160400  0.38598000  0.00000200  1
  Ag  Ag11  1  0.74373300  0.63600100  0.99982500  1
  S  S12  1  0.11654500  0.66820700  0.87642500  1
  S  S13  1  0.87750300  0.33648900  0.11784200  1
  S  S14  1  0.09471600  0.14250700  0.89611300  1
  S  S15  1  0.90645800  0.85589200  0.10788300  1
  S  S16  1  0.23363400  0.78554400  0.35833100  1
  S  S17  1  0.78484500  0.20278900  0.62519300  1
  S  S18  1  0.21017700  0.28602700  0.35944500  1
  S  S19  1  0.83201600  0.72643000  0.64128200  1
  S  S20  1  0.32588800  0.94130800  0.63691600  1
  S  S21  1  0.66256700  0.03393500  0.37436700  1
  S  S22  1  0.29983200  0.48528900  0.62733000  1
  S  S23  1  0.66286100  0.53220400  0.37016500  1
  S  S24  1  0.41160100  0.07478800  0.11621100  1
  S  S25  1  0.58222600  0.92365400  0.88184200  1
  S  S26  1  0.37997800  0.60688300  0.12166900  1
  S  S27  1  0.61490700  0.39511500  0.88652700  1
