# generated using pymatgen
data_Ca3Ti3N5
_symmetry_space_group_name_H-M   'P 1'
_cell_length_a   5.81337272
_cell_length_b   7.71803964
_cell_length_c   8.12011741
_cell_angle_alpha   108.26892254
_cell_angle_beta   104.02850288
_cell_angle_gamma   103.62371410
_symmetry_Int_Tables_number   1
_chemical_formula_structural   Ca3Ti3N5
_chemical_formula_sum   'Ca6 Ti6 N10'
_cell_volume   315.87691123
_cell_formula_units_Z   2
loop_
 _symmetry_equiv_pos_site_id
 _symmetry_equiv_pos_as_xyz
  1  'x, y, z'
loop_
 _atom_site_type_symbol
 _atom_site_label
 _atom_site_symmetry_multiplicity
 _atom_site_fract_x
 _atom_site_fract_y
 _atom_site_fract_z
 _atom_site_occupancy
  Ca  Ca0  1  0.74242600  0.42954300  0.57793700  1
  Ca  Ca1  1  0.25757400  0.57045700  0.42206300  1
  Ca  Ca2  1  0.65274300  0.82144400  0.87178200  1
  Ca  Ca3  1  0.34725700  0.17855600  0.12821800  1
  Ca  Ca4  1  0.70385900  0.65875600  0.22322100  1
  Ca  Ca5  1  0.29614100  0.34124400  0.77677900  1
  Ti  Ti6  1  0.89272900  0.31566200  0.99220800  1
  Ti  Ti7  1  0.10727100  0.68433800  0.00779200  1
  Ti  Ti8  1  0.72431500  0.98623600  0.59415200  1
  Ti  Ti9  1  0.27568500  0.01376400  0.40584800  1
  Ti  Ti10  1  0.10905500  0.86478300  0.70479500  1
  Ti  Ti11  1  0.89094500  0.13521700  0.29520500  1
  N  N12  1  0.99859000  0.09561800  0.84044300  1
  N  N13  1  0.00141000  0.90438200  0.15955700  1
  N  N14  1  0.73517800  0.72525900  0.54220700  1
  N  N15  1  0.26482200  0.27474100  0.45779300  1
  N  N16  1  0.76172600  0.49886500  0.90247400  1
  N  N17  1  0.23827400  0.50113500  0.09752600  1
  N  N18  1  0.39613900  0.94804500  0.62958500  1
  N  N19  1  0.60386100  0.05195500  0.37041500  1
  N  N20  1  0.19044400  0.66546600  0.78365900  1
  N  N21  1  0.80955600  0.33453400  0.21634100  1
