# generated using pymatgen
data_Ba(SbN2)2
_symmetry_space_group_name_H-M   'P 1'
_cell_length_a   11.52029700
_cell_length_b   11.52029700
_cell_length_c   11.52029700
_cell_angle_alpha   90.00000000
_cell_angle_beta   90.00000000
_cell_angle_gamma   90.00000000
_symmetry_Int_Tables_number   1
_chemical_formula_structural   Ba(SbN2)2
_chemical_formula_sum   'Ba12 Sb24 N48'
_cell_volume   1528.94205601
_cell_formula_units_Z   12
loop_
 _symmetry_equiv_pos_site_id
 _symmetry_equiv_pos_as_xyz
  1  'x, y, z'
loop_
 _atom_site_type_symbol
 _atom_site_label
 _atom_site_symmetry_multiplicity
 _atom_site_fract_x
 _atom_site_fract_y
 _atom_site_fract_z
 _atom_site_occupancy
  Ba  Ba0  1  0.50000000  0.50000000  0.00000000  1
  Ba  Ba1  1  0.50000000  0.00000000  0.50000000  1
  Ba  Ba2  1  0.00000000  0.50000000  0.50000000  1
  Ba  Ba3  1  0.00000000  0.00000000  0.00000000  1
  Ba  Ba4  1  0.12352100  0.87647900  0.37647900  1
  Ba  Ba5  1  0.87647900  0.37647900  0.12352100  1
  Ba  Ba6  1  0.37647900  0.12352100  0.87647900  1
  Ba  Ba7  1  0.62352100  0.62352100  0.62352100  1
  Ba  Ba8  1  0.87647900  0.12352100  0.62352100  1
  Ba  Ba9  1  0.12352100  0.62352100  0.87647900  1
  Ba  Ba10  1  0.62352100  0.87647900  0.12352100  1
  Ba  Ba11  1  0.37647900  0.37647900  0.37647900  1
  Sb  Sb12  1  0.39339000  0.70343000  0.34405200  1
  Sb  Sb13  1  0.60661000  0.20343000  0.15594800  1
  Sb  Sb14  1  0.10661000  0.29657000  0.84405200  1
  Sb  Sb15  1  0.89339000  0.79657000  0.65594800  1
  Sb  Sb16  1  0.34405200  0.39339000  0.70343000  1
  Sb  Sb17  1  0.15594800  0.60661000  0.20343000  1
  Sb  Sb18  1  0.84405200  0.10661000  0.29657000  1
  Sb  Sb19  1  0.65594800  0.89339000  0.79657000  1
  Sb  Sb20  1  0.70343000  0.34405200  0.39339000  1
  Sb  Sb21  1  0.20343000  0.15594800  0.60661000  1
  Sb  Sb22  1  0.29657000  0.84405200  0.10661000  1
  Sb  Sb23  1  0.79657000  0.65594800  0.89339000  1
  Sb  Sb24  1  0.60661000  0.29657000  0.65594800  1
  Sb  Sb25  1  0.39339000  0.79657000  0.84405200  1
  Sb  Sb26  1  0.89339000  0.70343000  0.15594800  1
  Sb  Sb27  1  0.10661000  0.20343000  0.34405200  1
  Sb  Sb28  1  0.65594800  0.60661000  0.29657000  1
  Sb  Sb29  1  0.84405200  0.39339000  0.79657000  1
  Sb  Sb30  1  0.15594800  0.89339000  0.70343000  1
  Sb  Sb31  1  0.34405200  0.10661000  0.20343000  1
  Sb  Sb32  1  0.29657000  0.65594800  0.60661000  1
  Sb  Sb33  1  0.79657000  0.84405200  0.39339000  1
  Sb  Sb34  1  0.70343000  0.15594800  0.89339000  1
  Sb  Sb35  1  0.20343000  0.34405200  0.10661000  1
  N  N36  1  0.37225300  0.85827500  0.26604500  1
  N  N37  1  0.62774700  0.35827500  0.23395500  1
  N  N38  1  0.12774700  0.14172500  0.76604500  1
  N  N39  1  0.87225300  0.64172500  0.73395500  1
  N  N40  1  0.26604500  0.37225300  0.85827500  1
  N  N41  1  0.23395500  0.62774700  0.35827500  1
  N  N42  1  0.76604500  0.12774700  0.14172500  1
  N  N43  1  0.73395500  0.87225300  0.64172500  1
  N  N44  1  0.85827500  0.26604500  0.37225300  1
  N  N45  1  0.35827500  0.23395500  0.62774700  1
  N  N46  1  0.14172500  0.76604500  0.12774700  1
  N  N47  1  0.64172500  0.73395500  0.87225300  1
  N  N48  1  0.62774700  0.14172500  0.73395500  1
  N  N49  1  0.37225300  0.64172500  0.76604500  1
  N  N50  1  0.87225300  0.85827500  0.23395500  1
  N  N51  1  0.12774700  0.35827500  0.26604500  1
  N  N52  1  0.73395500  0.62774700  0.14172500  1
  N  N53  1  0.76604500  0.37225300  0.64172500  1
  N  N54  1  0.23395500  0.87225300  0.85827500  1
  N  N55  1  0.26604500  0.12774700  0.35827500  1
  N  N56  1  0.14172500  0.73395500  0.62774700  1
  N  N57  1  0.64172500  0.76604500  0.37225300  1
  N  N58  1  0.85827500  0.23395500  0.87225300  1
  N  N59  1  0.35827500  0.26604500  0.12774700  1
  N  N60  1  0.42428900  0.73237400  0.51358700  1
  N  N61  1  0.57571100  0.23237400  0.98641300  1
  N  N62  1  0.07571100  0.26762600  0.01358700  1
  N  N63  1  0.92428900  0.76762600  0.48641300  1
  N  N64  1  0.51358700  0.42428900  0.73237400  1
  N  N65  1  0.98641300  0.57571100  0.23237400  1
  N  N66  1  0.01358700  0.07571100  0.26762600  1
  N  N67  1  0.48641300  0.92428900  0.76762600  1
  N  N68  1  0.73237400  0.51358700  0.42428900  1
  N  N69  1  0.23237400  0.98641300  0.57571100  1
  N  N70  1  0.26762600  0.01358700  0.07571100  1
  N  N71  1  0.76762600  0.48641300  0.92428900  1
  N  N72  1  0.57571100  0.26762600  0.48641300  1
  N  N73  1  0.42428900  0.76762600  0.01358700  1
  N  N74  1  0.92428900  0.73237400  0.98641300  1
  N  N75  1  0.07571100  0.23237400  0.51358700  1
  N  N76  1  0.48641300  0.57571100  0.26762600  1
  N  N77  1  0.01358700  0.42428900  0.76762600  1
  N  N78  1  0.98641300  0.92428900  0.73237400  1
  N  N79  1  0.51358700  0.07571100  0.23237400  1
  N  N80  1  0.26762600  0.48641300  0.57571100  1
  N  N81  1  0.76762600  0.01358700  0.42428900  1
  N  N82  1  0.73237400  0.98641300  0.92428900  1
  N  N83  1  0.23237400  0.51358700  0.07571100  1
