# generated using pymatgen
data_MgGe7N10
_symmetry_space_group_name_H-M   'P 1'
_cell_length_a   7.01809501
_cell_length_b   7.33345600
_cell_length_c   10.30813670
_cell_angle_alpha   90.00000000
_cell_angle_beta   104.88137130
_cell_angle_gamma   90.00000000
_symmetry_Int_Tables_number   1
_chemical_formula_structural   MgGe7N10
_chemical_formula_sum   'Mg2 Ge14 N20'
_cell_volume   512.73365100
_cell_formula_units_Z   2
loop_
 _symmetry_equiv_pos_site_id
 _symmetry_equiv_pos_as_xyz
  1  'x, y, z'
loop_
 _atom_site_type_symbol
 _atom_site_label
 _atom_site_symmetry_multiplicity
 _atom_site_fract_x
 _atom_site_fract_y
 _atom_site_fract_z
 _atom_site_occupancy
  Mg  Mg0  1  0.99409700  0.91552500  0.69865200  1
  Mg  Mg1  1  0.99409700  0.08447500  0.19865200  1
  Ge  Ge2  1  0.54207300  0.97743500  0.82019700  1
  Ge  Ge3  1  0.54207300  0.02256500  0.32019700  1
  Ge  Ge4  1  0.33758600  0.02108900  0.01730500  1
  Ge  Ge5  1  0.33758600  0.97891100  0.51730500  1
  Ge  Ge6  1  0.11301100  0.39498900  0.07169000  1
  Ge  Ge7  1  0.11301100  0.60501100  0.57169000  1
  Ge  Ge8  1  0.66222000  0.35431700  0.99436800  1
  Ge  Ge9  1  0.66222000  0.64568300  0.49436800  1
  Ge  Ge10  1  0.84136000  0.61706100  0.81251100  1
  Ge  Ge11  1  0.84136000  0.38293900  0.31251100  1
  Ge  Ge12  1  0.30255200  0.62204800  0.88144700  1
  Ge  Ge13  1  0.30255200  0.37795200  0.38144700  1
  Ge  Ge14  1  0.48837700  0.36421700  0.68555200  1
  Ge  Ge15  1  0.48837700  0.63578300  0.18555200  1
  N  N16  1  0.76102100  0.85672800  0.80365700  1
  N  N17  1  0.76102100  0.14327200  0.30365700  1
  N  N18  1  0.55271900  0.12796300  0.96948900  1
  N  N19  1  0.55271900  0.87203700  0.46948900  1
  N  N20  1  0.29883500  0.87475100  0.85663500  1
  N  N21  1  0.29883500  0.12524900  0.35663500  1
  N  N22  1  0.13142000  0.14826200  0.04362000  1
  N  N23  1  0.13142000  0.85173800  0.54362000  1
  N  N24  1  0.29503100  0.51146100  0.72097600  1
  N  N25  1  0.29503100  0.48853900  0.22097600  1
  N  N26  1  0.43687900  0.12051000  0.66971100  1
  N  N27  1  0.43687900  0.87949000  0.16971100  1
  N  N28  1  0.88748800  0.36993700  0.13638700  1
  N  N29  1  0.88748800  0.63006300  0.63638700  1
  N  N30  1  0.07952200  0.57467100  0.93967000  1
  N  N31  1  0.07952200  0.42532900  0.43967000  1
  N  N32  1  0.70849700  0.40416600  0.82665700  1
  N  N33  1  0.70849700  0.59583400  0.32665700  1
  N  N34  1  0.50961400  0.54891700  0.02077300  1
  N  N35  1  0.50961400  0.45108300  0.52077300  1
