# generated using pymatgen
data_VSi7N10
_symmetry_space_group_name_H-M   'P 1'
_cell_length_a   6.74115483
_cell_length_b   6.90182500
_cell_length_c   9.71967172
_cell_angle_alpha   90.00000000
_cell_angle_beta   105.42565947
_cell_angle_gamma   90.00000000
_symmetry_Int_Tables_number   1
_chemical_formula_structural   VSi7N10
_chemical_formula_sum   'V2 Si14 N20'
_cell_volume   435.92947544
_cell_formula_units_Z   2
loop_
 _symmetry_equiv_pos_site_id
 _symmetry_equiv_pos_as_xyz
  1  'x, y, z'
loop_
 _atom_site_type_symbol
 _atom_site_label
 _atom_site_symmetry_multiplicity
 _atom_site_fract_x
 _atom_site_fract_y
 _atom_site_fract_z
 _atom_site_occupancy
  V  V0  1  0.99666900  0.91771500  0.70170400  1
  V  V1  1  0.99666900  0.08228500  0.20170400  1
  Si  Si2  1  0.53875300  0.97911600  0.82175200  1
  Si  Si3  1  0.53875300  0.02088400  0.32175200  1
  Si  Si4  1  0.34998200  0.02217800  0.01801400  1
  Si  Si5  1  0.34998200  0.97782200  0.51801400  1
  Si  Si6  1  0.11228200  0.39850000  0.07236300  1
  Si  Si7  1  0.11228200  0.60150000  0.57236300  1
  Si  Si8  1  0.65976300  0.36027300  0.99034400  1
  Si  Si9  1  0.65976300  0.63972700  0.49034400  1
  Si  Si10  1  0.84348300  0.61856200  0.81018500  1
  Si  Si11  1  0.84348300  0.38143800  0.31018500  1
  Si  Si12  1  0.29726700  0.61816300  0.88074400  1
  Si  Si13  1  0.29726700  0.38183700  0.38074400  1
  Si  Si14  1  0.48455300  0.36734600  0.68532200  1
  Si  Si15  1  0.48455300  0.63265400  0.18532200  1
  N  N16  1  0.74337200  0.84286500  0.81406800  1
  N  N17  1  0.74337200  0.15713500  0.31406800  1
  N  N18  1  0.55582900  0.13289300  0.96857600  1
  N  N19  1  0.55582900  0.86710700  0.46857600  1
  N  N20  1  0.30743200  0.87076400  0.86051800  1
  N  N21  1  0.30743200  0.12923600  0.36051800  1
  N  N22  1  0.15621700  0.16072500  0.04219100  1
  N  N23  1  0.15621700  0.83927500  0.54219100  1
  N  N24  1  0.28788900  0.50352900  0.72201000  1
  N  N25  1  0.28788900  0.49647100  0.22201000  1
  N  N26  1  0.44599300  0.12089900  0.66874100  1
  N  N27  1  0.44599300  0.87910100  0.16874100  1
  N  N28  1  0.88578100  0.36984000  0.13232100  1
  N  N29  1  0.88578100  0.63016000  0.63232100  1
  N  N30  1  0.07701400  0.56826300  0.93453100  1
  N  N31  1  0.07701400  0.43173700  0.43453100  1
  N  N32  1  0.70040900  0.41499300  0.82446400  1
  N  N33  1  0.70040900  0.58500700  0.32446400  1
  N  N34  1  0.49961100  0.54103400  0.02145200  1
  N  N35  1  0.49961100  0.45896600  0.52145200  1
