# generated using pymatgen
data_KFe5N4
_symmetry_space_group_name_H-M   'P 1'
_cell_length_a   10.39773900
_cell_length_b   5.06186900
_cell_length_c   16.75356200
_cell_angle_alpha   90.00000000
_cell_angle_beta   90.00000000
_cell_angle_gamma   90.00000000
_symmetry_Int_Tables_number   1
_chemical_formula_structural   KFe5N4
_chemical_formula_sum   'K8 Fe40 N32'
_cell_volume   881.77335312
_cell_formula_units_Z   8
loop_
 _symmetry_equiv_pos_site_id
 _symmetry_equiv_pos_as_xyz
  1  'x, y, z'
loop_
 _atom_site_type_symbol
 _atom_site_label
 _atom_site_symmetry_multiplicity
 _atom_site_fract_x
 _atom_site_fract_y
 _atom_site_fract_z
 _atom_site_occupancy
  K  K0  1  0.82465000  0.11078400  0.49976700  1
  K  K1  1  0.32465000  0.38921600  0.50023300  1
  K  K2  1  0.17535000  0.61078400  0.00023300  1
  K  K3  1  0.67535000  0.88921600  0.99976700  1
  K  K4  1  0.17535000  0.88921600  0.50023300  1
  K  K5  1  0.67535000  0.61078400  0.49976700  1
  K  K6  1  0.82465000  0.38921600  0.99976700  1
  K  K7  1  0.32465000  0.11078400  0.00023300  1
  Fe  Fe8  1  0.84758000  0.22195900  0.18440200  1
  Fe  Fe9  1  0.34758100  0.27804100  0.81559800  1
  Fe  Fe10  1  0.15242000  0.72195900  0.31559800  1
  Fe  Fe11  1  0.65242000  0.77804100  0.68440200  1
  Fe  Fe12  1  0.15242000  0.77804100  0.81559800  1
  Fe  Fe13  1  0.65242000  0.72195900  0.18440200  1
  Fe  Fe14  1  0.84758000  0.27804100  0.68440200  1
  Fe  Fe15  1  0.34758100  0.22195900  0.31559800  1
  Fe  Fe16  1  0.66065900  0.62664200  0.32167500  1
  Fe  Fe17  1  0.16065900  0.87335800  0.67832500  1
  Fe  Fe18  1  0.33934100  0.12664200  0.17832500  1
  Fe  Fe19  1  0.83934100  0.37335800  0.82167500  1
  Fe  Fe20  1  0.33934100  0.37335800  0.67832500  1
  Fe  Fe21  1  0.83934100  0.12664200  0.32167500  1
  Fe  Fe22  1  0.66065900  0.87335800  0.82167500  1
  Fe  Fe23  1  0.16065900  0.62664200  0.17832500  1
  Fe  Fe24  1  0.90523200  0.65829400  0.29326600  1
  Fe  Fe25  1  0.40523200  0.84170600  0.70673400  1
  Fe  Fe26  1  0.09476800  0.15829400  0.20673400  1
  Fe  Fe27  1  0.59476800  0.34170600  0.79326600  1
  Fe  Fe28  1  0.09476800  0.34170600  0.70673400  1
  Fe  Fe29  1  0.59476800  0.15829400  0.29326600  1
  Fe  Fe30  1  0.90523200  0.84170600  0.79326600  1
  Fe  Fe31  1  0.40523200  0.65829400  0.20673400  1
  Fe  Fe32  1  0.53959500  0.08491700  0.43242200  1
  Fe  Fe33  1  0.03959500  0.41508300  0.56757800  1
  Fe  Fe34  1  0.46040500  0.58491700  0.06757800  1
  Fe  Fe35  1  0.96040500  0.91508300  0.93242200  1
  Fe  Fe36  1  0.46040500  0.91508300  0.56757800  1
  Fe  Fe37  1  0.96040500  0.58491700  0.43242200  1
  Fe  Fe38  1  0.53959500  0.41508300  0.93242200  1
  Fe  Fe39  1  0.03959500  0.08491700  0.06757800  1
  Fe  Fe40  1  0.57330200  0.21004000  0.14002300  1
  Fe  Fe41  1  0.07330200  0.28996000  0.85997700  1
  Fe  Fe42  1  0.42669800  0.71004000  0.35997700  1
  Fe  Fe43  1  0.92669800  0.78996000  0.64002300  1
  Fe  Fe44  1  0.42669800  0.78996000  0.85997700  1
  Fe  Fe45  1  0.92669800  0.71004000  0.14002300  1
  Fe  Fe46  1  0.57330200  0.28996000  0.64002300  1
  Fe  Fe47  1  0.07330200  0.21004000  0.35997700  1
  N  N48  1  0.00057800  0.37469200  0.13792700  1
  N  N49  1  0.50057800  0.12530800  0.86207300  1
  N  N50  1  0.99942200  0.87469200  0.36207300  1
  N  N51  1  0.49942200  0.62530800  0.63792700  1
  N  N52  1  0.99942200  0.62530800  0.86207300  1
  N  N53  1  0.49942200  0.87469200  0.13792700  1
  N  N54  1  0.00057800  0.12530800  0.63792700  1
  N  N55  1  0.50057800  0.37469200  0.36207300  1
  N  N56  1  0.57422100  0.33039900  0.03857400  1
  N  N57  1  0.07422100  0.16960100  0.96142600  1
  N  N58  1  0.42577900  0.83039900  0.46142600  1
  N  N59  1  0.92577900  0.66960100  0.53857400  1
  N  N60  1  0.42577900  0.66960100  0.96142600  1
  N  N61  1  0.92577900  0.83039900  0.03857400  1
  N  N62  1  0.57422100  0.16960100  0.53857400  1
  N  N63  1  0.07422100  0.33039900  0.46142600  1
  N  N64  1  0.68110700  0.35308000  0.21397500  1
  N  N65  1  0.18110700  0.14692000  0.78602500  1
  N  N66  1  0.31889300  0.85308000  0.28602500  1
  N  N67  1  0.81889300  0.64692000  0.71397500  1
  N  N68  1  0.31889300  0.64692000  0.78602500  1
  N  N69  1  0.81889300  0.85308000  0.21397500  1
  N  N70  1  0.68110700  0.14692000  0.71397500  1
  N  N71  1  0.18110700  0.35308000  0.28602500  1
  N  N72  1  0.82006700  0.46365400  0.36794500  1
  N  N73  1  0.32006700  0.03634600  0.63205500  1
  N  N74  1  0.17993300  0.96365400  0.13205500  1
  N  N75  1  0.67993300  0.53634600  0.86794500  1
  N  N76  1  0.17993300  0.53634600  0.63205500  1
  N  N77  1  0.67993300  0.96365400  0.36794500  1
  N  N78  1  0.82006700  0.03634600  0.86794500  1
  N  N79  1  0.32006700  0.46365400  0.13205500  1
