# generated using pymatgen
data_Mn3Cr8N9
_symmetry_space_group_name_H-M   'P 1'
_cell_length_a   6.37218026
_cell_length_b   7.68618770
_cell_length_c   16.31920428
_cell_angle_alpha   90.00000000
_cell_angle_beta   98.91818387
_cell_angle_gamma   90.00000000
_symmetry_Int_Tables_number   1
_chemical_formula_structural   Mn3Cr8N9
_chemical_formula_sum   'Mn12 Cr32 N36'
_cell_volume   789.61558917
_cell_formula_units_Z   4
loop_
 _symmetry_equiv_pos_site_id
 _symmetry_equiv_pos_as_xyz
  1  'x, y, z'
loop_
 _atom_site_type_symbol
 _atom_site_label
 _atom_site_symmetry_multiplicity
 _atom_site_fract_x
 _atom_site_fract_y
 _atom_site_fract_z
 _atom_site_occupancy
  Mn  Mn0  1  0.53565851  0.09475920  0.74842554  1
  Mn  Mn1  1  0.46434149  0.59475920  0.75157446  1
  Mn  Mn2  1  0.46434149  0.90524080  0.25157446  1
  Mn  Mn3  1  0.53565851  0.40524080  0.24842554  1
  Mn  Mn4  1  0.82409330  0.83522590  0.52955250  1
  Mn  Mn5  1  0.17590670  0.33522590  0.97044750  1
  Mn  Mn6  1  0.17590670  0.16477410  0.47044750  1
  Mn  Mn7  1  0.82409330  0.66477410  0.02955250  1
  Mn  Mn8  1  0.84835526  0.40550559  0.53215696  1
  Mn  Mn9  1  0.15164474  0.90550559  0.96784304  1
  Mn  Mn10  1  0.15164474  0.59449441  0.46784304  1
  Mn  Mn11  1  0.84835526  0.09449441  0.03215696  1
  Cr  Cr12  1  0.56606251  0.86518971  0.09533357  1
  Cr  Cr13  1  0.43393749  0.36518971  0.40466643  1
  Cr  Cr14  1  0.43393749  0.13481029  0.90466643  1
  Cr  Cr15  1  0.56606251  0.63481029  0.59533357  1
  Cr  Cr16  1  0.54037927  0.12592813  0.57648120  1
  Cr  Cr17  1  0.45962073  0.62592813  0.92351880  1
  Cr  Cr18  1  0.45962073  0.87407187  0.42351880  1
  Cr  Cr19  1  0.54037927  0.37407187  0.07648120  1
  Cr  Cr20  1  0.83984528  0.86037199  0.72944945  1
  Cr  Cr21  1  0.16015472  0.36037199  0.77055055  1
  Cr  Cr22  1  0.16015472  0.13962801  0.27055055  1
  Cr  Cr23  1  0.83984528  0.63962801  0.22944945  1
  Cr  Cr24  1  0.74562054  0.34222276  0.68248520  1
  Cr  Cr25  1  0.25437946  0.84222276  0.81751480  1
  Cr  Cr26  1  0.25437946  0.65777724  0.31751480  1
  Cr  Cr27  1  0.74562054  0.15777724  0.18248520  1
  Cr  Cr28  1  0.69192899  0.36714626  0.87398527  1
  Cr  Cr29  1  0.30807101  0.86714626  0.62601473  1
  Cr  Cr30  1  0.30807101  0.63285374  0.12601473  1
  Cr  Cr31  1  0.69192899  0.13285374  0.37398527  1
  Cr  Cr32  1  0.94437104  0.11063372  0.83777253  1
  Cr  Cr33  1  0.05562896  0.61063372  0.66222747  1
  Cr  Cr34  1  0.05562896  0.88936628  0.16222747  1
  Cr  Cr35  1  0.94437104  0.38936628  0.33777253  1
  Cr  Cr36  1  0.03719862  0.10258178  0.66190316  1
  Cr  Cr37  1  0.96280138  0.60258178  0.83809684  1
  Cr  Cr38  1  0.96280138  0.89741822  0.33809684  1
  Cr  Cr39  1  0.03719862  0.39741822  0.16190316  1
  Cr  Cr40  1  0.28484083  0.36705694  0.59851908  1
  Cr  Cr41  1  0.71515917  0.86705694  0.90148092  1
  Cr  Cr42  1  0.71515917  0.63294306  0.40148092  1
  Cr  Cr43  1  0.28484083  0.13294306  0.09851908  1
  N  N44  1  0.58513009  0.38130472  0.57543450  1
  N  N45  1  0.41486991  0.88130472  0.92456550  1
  N  N46  1  0.41486991  0.61869528  0.42456550  1
  N  N47  1  0.58513009  0.11869528  0.07543450  1
  N  N48  1  0.43215785  0.27158487  0.80772779  1
  N  N49  1  0.56784215  0.77158487  0.69227221  1
  N  N50  1  0.56784215  0.72841513  0.19227221  1
  N  N51  1  0.43215785  0.22841513  0.30772779  1
  N  N52  1  0.74318429  0.11999611  0.91767180  1
  N  N53  1  0.25681571  0.61999611  0.58232820  1
  N  N54  1  0.25681571  0.88000389  0.08232820  1
  N  N55  1  0.74318429  0.38000389  0.41767180  1
  N  N56  1  0.53556611  0.87050821  0.54701002  1
  N  N57  1  0.46443389  0.37050821  0.95298998  1
  N  N58  1  0.46443389  0.12949179  0.45298998  1
  N  N59  1  0.53556611  0.62949179  0.04701002  1
  N  N60  1  0.74206247  0.09046545  0.67792396  1
  N  N61  1  0.25793753  0.59046545  0.82207604  1
  N  N62  1  0.25793753  0.90953455  0.32207604  1
  N  N63  1  0.74206247  0.40953455  0.17792396  1
  N  N64  1  0.02899698  0.35865546  0.65553974  1
  N  N65  1  0.97100302  0.85865546  0.84446026  1
  N  N66  1  0.97100302  0.64134454  0.34446026  1
  N  N67  1  0.02899698  0.14134454  0.15553974  1
  N  N68  1  0.00987605  0.34668916  0.86586771  1
  N  N69  1  0.99012395  0.84668916  0.63413229  1
  N  N70  1  0.99012395  0.65331084  0.13413229  1
  N  N71  1  0.00987605  0.15331084  0.36586771  1
  N  N72  1  0.24320839  0.10649690  0.58280397  1
  N  N73  1  0.75679161  0.60649690  0.91719603  1
  N  N74  1  0.75679161  0.89350310  0.41719603  1
  N  N75  1  0.24320839  0.39350310  0.08280397  1
  N  N76  1  0.27531887  0.98755565  0.72854116  1
  N  N77  1  0.72468113  0.48755565  0.77145884  1
  N  N78  1  0.72468113  0.01244435  0.27145884  1
  N  N79  1  0.27531887  0.51244435  0.22854116  1
