# generated using pymatgen
data_Ba3Ti3N5
_symmetry_space_group_name_H-M   'P 1'
_cell_length_a   6.15636892
_cell_length_b   7.77753183
_cell_length_c   9.17171229
_cell_angle_alpha   108.17310697
_cell_angle_beta   101.31175389
_cell_angle_gamma   96.87202766
_symmetry_Int_Tables_number   1
_chemical_formula_structural   Ba3Ti3N5
_chemical_formula_sum   'Ba6 Ti6 N10'
_cell_volume   401.36253484
_cell_formula_units_Z   2
loop_
 _symmetry_equiv_pos_site_id
 _symmetry_equiv_pos_as_xyz
  1  'x, y, z'
loop_
 _atom_site_type_symbol
 _atom_site_label
 _atom_site_symmetry_multiplicity
 _atom_site_fract_x
 _atom_site_fract_y
 _atom_site_fract_z
 _atom_site_occupancy
  Ba  Ba0  1  0.83211800  0.44244300  0.62178200  1
  Ba  Ba1  1  0.16788200  0.55755700  0.37821800  1
  Ba  Ba2  1  0.64599000  0.85553700  0.87648900  1
  Ba  Ba3  1  0.35401000  0.14446300  0.12351100  1
  Ba  Ba4  1  0.64987800  0.66052400  0.22086900  1
  Ba  Ba5  1  0.35012200  0.33947600  0.77913100  1
  Ti  Ti6  1  0.91099700  0.31309500  0.96857300  1
  Ti  Ti7  1  0.08900300  0.68690500  0.03142700  1
  Ti  Ti8  1  0.70190800  0.98166100  0.58383600  1
  Ti  Ti9  1  0.29809200  0.01833900  0.41616400  1
  Ti  Ti10  1  0.11152300  0.89726000  0.70664000  1
  Ti  Ti11  1  0.88847700  0.10274000  0.29336000  1
  N  N12  1  0.95519300  0.11591900  0.78182500  1
  N  N13  1  0.04480700  0.88408100  0.21817500  1
  N  N14  1  0.83156300  0.76106700  0.54680900  1
  N  N15  1  0.16843700  0.23893300  0.45319100  1
  N  N16  1  0.79382500  0.52575000  0.93216700  1
  N  N17  1  0.20617500  0.47425000  0.06783300  1
  N  N18  1  0.38403200  0.94326800  0.61500600  1
  N  N19  1  0.61596800  0.05673200  0.38499400  1
  N  N20  1  0.16842600  0.78577000  0.86968500  1
  N  N21  1  0.83157400  0.21423000  0.13031500  1
