# generated using pymatgen
data_Si2SN2
_symmetry_space_group_name_H-M   'P 1'
_cell_length_a   6.82716107
_cell_length_b   7.04201308
_cell_length_c   5.34639964
_cell_angle_alpha   90.00000510
_cell_angle_beta   114.61380733
_cell_angle_gamma   121.04660575
_symmetry_Int_Tables_number   1
_chemical_formula_structural   Si2SN2
_chemical_formula_sum   'Si4 S2 N4'
_cell_volume   192.44368379
_cell_formula_units_Z   2
loop_
 _symmetry_equiv_pos_site_id
 _symmetry_equiv_pos_as_xyz
  1  'x, y, z'
loop_
 _atom_site_type_symbol
 _atom_site_label
 _atom_site_symmetry_multiplicity
 _atom_site_fract_x
 _atom_site_fract_y
 _atom_site_fract_z
 _atom_site_occupancy
  Si  Si0  1  0.04785800  0.18546900  0.93847900  1
  Si  Si1  1  0.04785800  0.86238900  0.93847900  1
  Si  Si2  1  0.57927600  0.95040300  0.00394600  1
  Si  Si3  1  0.57927600  0.62887200  0.00394600  1
  S  S4  1  0.68546600  0.34273200  0.71161300  1
  S  S5  1  0.86383100  0.93191600  0.41789600  1
  N  N6  1  0.32799200  0.92114700  0.00620900  1
  N  N7  1  0.32799200  0.40684500  0.00620900  1
  N  N8  1  0.78952600  0.19159800  0.92061100  1
  N  N9  1  0.78952600  0.59792800  0.92061100  1
