# generated using pymatgen
data_Mg2AlW3S8
_symmetry_space_group_name_H-M   'P 1'
_cell_length_a   7.43896703
_cell_length_b   7.48881486
_cell_length_c   7.43847090
_cell_angle_alpha   56.24140719
_cell_angle_beta   55.68870031
_cell_angle_gamma   56.17945970
_symmetry_Int_Tables_number   1
_chemical_formula_structural   Mg2AlW3S8
_chemical_formula_sum   'Mg2 Al1 W3 S8'
_cell_volume   266.10018466
_cell_formula_units_Z   1
loop_
 _symmetry_equiv_pos_site_id
 _symmetry_equiv_pos_as_xyz
  1  'x, y, z'
loop_
 _atom_site_type_symbol
 _atom_site_label
 _atom_site_symmetry_multiplicity
 _atom_site_fract_x
 _atom_site_fract_y
 _atom_site_fract_z
 _atom_site_occupancy
  Mg  Mg0  1  0.89050000  0.88508274  0.88980454  1
  Mg  Mg1  1  0.14169695  0.13618586  0.14052542  1
  Al  Al2  1  0.48279964  0.48146518  0.48318905  1
  W  W3  1  0.53756188  0.52934647  0.93537045  1
  W  W4  1  0.93433398  0.52960134  0.53758657  1
  W  W5  1  0.52852988  0.94902974  0.52785197  1
  S  S6  1  0.75499777  0.76293034  0.75536708  1
  S  S7  1  0.24579481  0.25283644  0.72287421  1
  S  S8  1  0.24909516  0.72239842  0.25019373  1
  S  S9  1  0.72331798  0.25233321  0.24620126  1
  S  S10  1  0.72182497  0.28366781  0.72241987  1
  S  S11  1  0.29467015  0.72144124  0.72312370  1
  S  S12  1  0.27207860  0.27274090  0.27151454  1
  S  S13  1  0.72280222  0.72093530  0.29397862  1
