# generated using pymatgen
data_SrSn7N10
_symmetry_space_group_name_H-M   'P 1'
_cell_length_a   7.84515803
_cell_length_b   8.04988000
_cell_length_c   11.45072442
_cell_angle_alpha   90.00000000
_cell_angle_beta   105.74015265
_cell_angle_gamma   90.00000000
_symmetry_Int_Tables_number   1
_chemical_formula_structural   SrSn7N10
_chemical_formula_sum   'Sr2 Sn14 N20'
_cell_volume   696.02629875
_cell_formula_units_Z   2
loop_
 _symmetry_equiv_pos_site_id
 _symmetry_equiv_pos_as_xyz
  1  'x, y, z'
loop_
 _atom_site_type_symbol
 _atom_site_label
 _atom_site_symmetry_multiplicity
 _atom_site_fract_x
 _atom_site_fract_y
 _atom_site_fract_z
 _atom_site_occupancy
  Sr  Sr0  1  0.96896100  0.97197300  0.67890400  1
  Sr  Sr1  1  0.96896100  0.02802700  0.17890400  1
  Sn  Sn2  1  0.54226700  0.96982100  0.82208900  1
  Sn  Sn3  1  0.54226700  0.03017900  0.32208900  1
  Sn  Sn4  1  0.34160000  0.02419600  0.01667900  1
  Sn  Sn5  1  0.34160000  0.97580400  0.51667900  1
  Sn  Sn6  1  0.11416000  0.39413700  0.07065300  1
  Sn  Sn7  1  0.11416000  0.60586300  0.57065300  1
  Sn  Sn8  1  0.66550500  0.35134200  0.99655100  1
  Sn  Sn9  1  0.66550500  0.64865800  0.49655100  1
  Sn  Sn10  1  0.84438200  0.61976800  0.81217400  1
  Sn  Sn11  1  0.84438200  0.38023200  0.31217400  1
  Sn  Sn12  1  0.30067300  0.62358400  0.88142000  1
  Sn  Sn13  1  0.30067300  0.37641600  0.38142000  1
  Sn  Sn14  1  0.48764200  0.36441300  0.68713100  1
  Sn  Sn15  1  0.48764200  0.63558700  0.18713100  1
  N  N16  1  0.76479100  0.86065800  0.80590800  1
  N  N17  1  0.76479100  0.13934200  0.30590800  1
  N  N18  1  0.57712500  0.11069600  0.98202400  1
  N  N19  1  0.57712500  0.88930400  0.48202400  1
  N  N20  1  0.30281400  0.87816400  0.85618300  1
  N  N21  1  0.30281400  0.12183600  0.35618300  1
  N  N22  1  0.12558800  0.14908900  0.02908300  1
  N  N23  1  0.12558800  0.85091100  0.52908300  1
  N  N24  1  0.29030400  0.50619800  0.72233400  1
  N  N25  1  0.29030400  0.49380200  0.22233400  1
  N  N26  1  0.42263800  0.11858800  0.67360400  1
  N  N27  1  0.42263800  0.88141200  0.17360400  1
  N  N28  1  0.89330300  0.35989400  0.13847000  1
  N  N29  1  0.89330300  0.64010600  0.63847000  1
  N  N30  1  0.08077300  0.58529900  0.94450500  1
  N  N31  1  0.08077300  0.41470100  0.44450500  1
  N  N32  1  0.71274800  0.40088000  0.82858000  1
  N  N33  1  0.71274800  0.59912000  0.32858000  1
  N  N34  1  0.50702500  0.54376800  0.02300900  1
  N  N35  1  0.50702500  0.45623200  0.52300900  1
