# generated using pymatgen
data_Ba7CN6
_symmetry_space_group_name_H-M   'P 1'
_cell_length_a   12.31430100
_cell_length_b   7.12068900
_cell_length_c   13.92225200
_cell_angle_alpha   90.00000000
_cell_angle_beta   90.00000000
_cell_angle_gamma   90.00000000
_symmetry_Int_Tables_number   1
_chemical_formula_structural   Ba7CN6
_chemical_formula_sum   'Ba28 C4 N24'
_cell_volume   1220.79087238
_cell_formula_units_Z   4
loop_
 _symmetry_equiv_pos_site_id
 _symmetry_equiv_pos_as_xyz
  1  'x, y, z'
loop_
 _atom_site_type_symbol
 _atom_site_label
 _atom_site_symmetry_multiplicity
 _atom_site_fract_x
 _atom_site_fract_y
 _atom_site_fract_z
 _atom_site_occupancy
  Ba  Ba0  1  0.04996600  0.74489100  0.99204100  1
  Ba  Ba1  1  0.45003400  0.75510900  0.49204100  1
  Ba  Ba2  1  0.54996600  0.75510900  0.00795900  1
  Ba  Ba3  1  0.95003400  0.74489100  0.50795900  1
  Ba  Ba4  1  0.95003400  0.25510900  0.00795900  1
  Ba  Ba5  1  0.54996600  0.24489100  0.50795900  1
  Ba  Ba6  1  0.45003400  0.24489100  0.99204100  1
  Ba  Ba7  1  0.04996600  0.25510900  0.49204100  1
  Ba  Ba8  1  0.20654300  0.86740400  0.62143800  1
  Ba  Ba9  1  0.29345700  0.63259600  0.12143800  1
  Ba  Ba10  1  0.70654300  0.63259600  0.37856200  1
  Ba  Ba11  1  0.79345700  0.86740400  0.87856200  1
  Ba  Ba12  1  0.79345700  0.13259600  0.37856200  1
  Ba  Ba13  1  0.70654300  0.36740400  0.87856200  1
  Ba  Ba14  1  0.29345700  0.36740400  0.62143800  1
  Ba  Ba15  1  0.20654300  0.13259600  0.12143800  1
  Ba  Ba16  1  0.30332900  0.63258800  0.85230600  1
  Ba  Ba17  1  0.19667100  0.86741200  0.35230600  1
  Ba  Ba18  1  0.80332900  0.86741200  0.14769400  1
  Ba  Ba19  1  0.69667100  0.63258800  0.64769400  1
  Ba  Ba20  1  0.69667100  0.36741200  0.14769400  1
  Ba  Ba21  1  0.80332900  0.13258800  0.64769400  1
  Ba  Ba22  1  0.19667100  0.13258800  0.85230600  1
  Ba  Ba23  1  0.30332900  0.36741200  0.35230600  1
  Ba  Ba24  1  0.00000000  0.48586400  0.75000000  1
  Ba  Ba25  1  0.50000000  0.01413600  0.25000000  1
  Ba  Ba26  1  0.00000000  0.51413600  0.25000000  1
  Ba  Ba27  1  0.50000000  0.98586400  0.75000000  1
  C  C28  1  0.00000000  0.92984800  0.75000000  1
  C  C29  1  0.50000000  0.57015200  0.25000000  1
  C  C30  1  0.00000000  0.07015200  0.25000000  1
  C  C31  1  0.50000000  0.42984800  0.75000000  1
  N  N32  1  0.09736300  0.80258700  0.78695700  1
  N  N33  1  0.40263700  0.69741300  0.28695700  1
  N  N34  1  0.59736300  0.69741300  0.21304300  1
  N  N35  1  0.90263700  0.80258700  0.71304300  1
  N  N36  1  0.90263700  0.19741300  0.21304300  1
  N  N37  1  0.59736300  0.30258700  0.71304300  1
  N  N38  1  0.40263700  0.30258700  0.78695700  1
  N  N39  1  0.09736300  0.19741300  0.28695700  1
  N  N40  1  0.15315500  0.60924000  0.49327600  1
  N  N41  1  0.34684500  0.89076000  0.99327600  1
  N  N42  1  0.65315500  0.89076000  0.50672400  1
  N  N43  1  0.84684500  0.60924000  0.00672400  1
  N  N44  1  0.84684500  0.39076000  0.50672400  1
  N  N45  1  0.65315500  0.10924000  0.00672400  1
  N  N46  1  0.34684500  0.10924000  0.49327600  1
  N  N47  1  0.15315500  0.39076000  0.99327600  1
  N  N48  1  0.46989200  0.55379200  0.66424000  1
  N  N49  1  0.03010800  0.94620800  0.16424000  1
  N  N50  1  0.96989200  0.94620800  0.33576000  1
  N  N51  1  0.53010800  0.55379200  0.83576000  1
  N  N52  1  0.53010800  0.44620800  0.33576000  1
  N  N53  1  0.96989200  0.05379200  0.83576000  1
  N  N54  1  0.03010800  0.05379200  0.66424000  1
  N  N55  1  0.46989200  0.44620800  0.16424000  1
