# generated using pymatgen
data_PrAl22O34
_symmetry_space_group_name_H-M   'P 1'
_cell_length_a   11.81030812
_cell_length_b   5.65079947
_cell_length_c   9.78404863
_cell_angle_alpha   89.95616482
_cell_angle_beta   74.21902627
_cell_angle_gamma   90.06551921
_symmetry_Int_Tables_number   1
_chemical_formula_structural   PrAl22O34
_chemical_formula_sum   'Pr1 Al22 O34'
_cell_volume   628.35261768
_cell_formula_units_Z   1
loop_
 _symmetry_equiv_pos_site_id
 _symmetry_equiv_pos_as_xyz
  1  'x, y, z'
loop_
 _atom_site_type_symbol
 _atom_site_label
 _atom_site_symmetry_multiplicity
 _atom_site_fract_x
 _atom_site_fract_y
 _atom_site_fract_z
 _atom_site_occupancy
  Pr  Pr0  1  0.51976900  0.43802700  0.30672200  1
  Al  Al1  1  0.78189600  0.99832000  0.90344200  1
  Al  Al2  1  0.95268200  0.50065400  0.84842400  1
  Al  Al3  1  0.64571200  0.49782200  0.95267800  1
  Al  Al4  1  0.78140500  0.24631200  0.65605500  1
  Al  Al5  1  0.21871300  0.25282700  0.84391300  1
  Al  Al6  1  0.22005200  0.74890800  0.84328100  1
  Al  Al7  1  0.04984300  0.99955600  0.65009000  1
  Al  Al8  1  0.94976900  0.00009000  0.35114800  1
  Al  Al9  1  0.35400500  0.00207300  0.54651000  1
  Al  Al10  1  0.64436300  0.99981000  0.44858400  1
  Al  Al11  1  0.78129700  0.74967100  0.65699500  1
  Al  Al12  1  0.21617900  0.50115600  0.59796300  1
  Al  Al13  1  0.78999500  0.50061200  0.40313700  1
  Al  Al14  1  0.20848400  0.24524000  0.34690200  1
  Al  Al15  1  0.99856100  0.50006000  0.50235000  1
  Al  Al16  1  0.79560400  0.24840300  0.14949700  1
  Al  Al17  1  0.79101300  0.75007100  0.15234900  1
  Al  Al18  1  0.21572800  0.99994900  0.09611200  1
  Al  Al19  1  0.21261900  0.75223300  0.34556700  1
  Al  Al20  1  0.35157100  0.49982300  0.05379400  1
  Al  Al21  1  0.05408900  0.50043400  0.14908400  1
  Al  Al22  1  0.00319400  0.99829800  0.99674600  1
  O  O23  1  0.90165300  0.23736600  0.95506200  1
  O  O24  1  0.90041400  0.76226200  0.95526500  1
  O  O25  1  0.88655300  0.99905400  0.70376400  1
  O  O26  1  0.28496000  0.00112200  0.90639300  1
  O  O27  1  0.70702200  0.24895100  0.84691600  1
  O  O28  1  0.09952400  0.99886000  0.80901800  1
  O  O29  1  0.70693600  0.99709500  0.59464000  1
  O  O30  1  0.70603900  0.74831500  0.84761300  1
  O  O31  1  0.29527900  0.50043400  0.90247700  1
  O  O32  1  0.89987600  0.50075100  0.69064200  1
  O  O33  1  0.49986500  0.09465400  0.46926300  1
  O  O34  1  0.89908000  0.26473800  0.45385400  1
  O  O35  1  0.28909300  0.25011000  0.65372800  1
  O  O36  1  0.71568600  0.49819500  0.59210700  1
  O  O37  1  0.11377800  0.50210200  0.79603300  1
  O  O38  1  0.89886500  0.73468800  0.45334300  1
  O  O39  1  0.29479800  0.74968200  0.65218900  1
  O  O40  1  0.70985800  0.25621300  0.34053000  1
  O  O41  1  0.28729500  0.00056500  0.40279200  1
  O  O42  1  0.09859900  0.26527300  0.54501700  1
  O  O43  1  0.90048900  0.99888400  0.19062300  1
  O  O44  1  0.89145700  0.50174500  0.20346500  1
  O  O45  1  0.28856100  0.49612900  0.40348000  1
  O  O46  1  0.10859600  0.99907600  0.29791100  1
  O  O47  1  0.71882900  0.00005800  0.09426600  1
  O  O48  1  0.70166000  0.73831000  0.34391900  1
  O  O49  1  0.10053000  0.73333100  0.54511100  1
  O  O50  1  0.09912100  0.49968200  0.31291200  1
  O  O51  1  0.70881200  0.49724200  0.10371000  1
  O  O52  1  0.28715400  0.24914100  0.15788100  1
  O  O53  1  0.49944800  0.49501600  0.05334100  1
  O  O54  1  0.28727500  0.75049600  0.15656700  1
  O  O55  1  0.10004900  0.23533500  0.04519000  1
  O  O56  1  0.10042000  0.76477500  0.04499300  1
