# generated using pymatgen
data_SrCa7TiMn7O23
_symmetry_space_group_name_H-M   'P 1'
_cell_length_a   10.89782388
_cell_length_b   15.40463718
_cell_length_c   10.79776950
_cell_angle_alpha   90.07747705
_cell_angle_beta   90.29285391
_cell_angle_gamma   90.07431539
_symmetry_Int_Tables_number   1
_chemical_formula_structural   SrCa7TiMn7O23
_chemical_formula_sum   'Sr4 Ca28 Ti4 Mn28 O92'
_cell_volume   1812.67052172
_cell_formula_units_Z   4
loop_
 _symmetry_equiv_pos_site_id
 _symmetry_equiv_pos_as_xyz
  1  'x, y, z'
loop_
 _atom_site_type_symbol
 _atom_site_label
 _atom_site_symmetry_multiplicity
 _atom_site_fract_x
 _atom_site_fract_y
 _atom_site_fract_z
 _atom_site_occupancy
  Sr  Sr0  1  0.01329772  0.11937331  0.50569249  1
  Sr  Sr1  1  0.49653104  0.38189457  0.99652431  1
  Sr  Sr2  1  0.23968441  0.38511254  0.25312176  1
  Sr  Sr3  1  0.24748565  0.11806072  0.26461191  1
  Ca  Ca4  1  0.01092283  0.11775843  0.99204236  1
  Ca  Ca5  1  0.02035010  0.62562603  0.49706549  1
  Ca  Ca6  1  0.02061879  0.62618498  0.99462147  1
  Ca  Ca7  1  0.52653356  0.12924230  0.50638763  1
  Ca  Ca8  1  0.53633681  0.12157669  0.97237590  1
  Ca  Ca9  1  0.52467959  0.62510573  0.49781847  1
  Ca  Ca10  1  0.52160502  0.62512913  0.99472610  1
  Ca  Ca11  1  0.47923067  0.38452137  0.51105094  1
  Ca  Ca12  1  0.48648106  0.86767942  0.99605750  1
  Ca  Ca13  1  0.48151892  0.86479441  0.51548601  1
  Ca  Ca14  1  0.96787451  0.38606437  0.99896789  1
  Ca  Ca15  1  0.97563709  0.38104933  0.50688324  1
  Ca  Ca16  1  0.97404956  0.87098126  0.00358850  1
  Ca  Ca17  1  0.97303869  0.87187967  0.50719438  1
  Ca  Ca18  1  0.22378800  0.38081969  0.72743966  1
  Ca  Ca19  1  0.22760032  0.86869143  0.24666073  1
  Ca  Ca20  1  0.22671446  0.86958861  0.74382505  1
  Ca  Ca21  1  0.73597252  0.38734515  0.24697491  1
  Ca  Ca22  1  0.72868392  0.38045315  0.74755337  1
  Ca  Ca23  1  0.73434460  0.86565154  0.24724254  1
  Ca  Ca24  1  0.72859466  0.87184843  0.74545153  1
  Ca  Ca25  1  0.27320881  0.11555600  0.73392119  1
  Ca  Ca26  1  0.27374917  0.62672611  0.25595743  1
  Ca  Ca27  1  0.27211596  0.62501897  0.75488846  1
  Ca  Ca28  1  0.77154876  0.11694351  0.24969481  1
  Ca  Ca29  1  0.77415646  0.12344639  0.75681483  1
  Ca  Ca30  1  0.77094889  0.62504623  0.25457575  1
  Ca  Ca31  1  0.77074185  0.62584477  0.75423711  1
  Ti  Ti32  1  0.99593321  0.99171103  0.24988489  1
  Ti  Ti33  1  0.25088815  0.99311512  0.99349970  1
  Ti  Ti34  1  0.25630228  0.24560328  0.95933967  1
  Ti  Ti35  1  0.98401424  0.25174266  0.26821455  1
  Mn  Mn36  1  0.99529542  0.99600485  0.75292067  1
  Mn  Mn37  1  0.00076473  0.50333723  0.24900159  1
  Mn  Mn38  1  0.00020023  0.50170783  0.74983441  1
  Mn  Mn39  1  0.50918725  0.98416707  0.24052541  1
  Mn  Mn40  1  0.50227471  0.99796965  0.74794378  1
  Mn  Mn41  1  0.50143451  0.50616487  0.25133985  1
  Mn  Mn42  1  0.49992625  0.50296647  0.74871415  1
  Mn  Mn43  1  0.24238209  0.99162856  0.50742707  1
  Mn  Mn44  1  0.24934490  0.50399887  0.00150325  1
  Mn  Mn45  1  0.25022076  0.50424486  0.50127492  1
  Mn  Mn46  1  0.75047477  0.99719461  0.99564049  1
  Mn  Mn47  1  0.74478546  0.99951153  0.50134975  1
  Mn  Mn48  1  0.75016759  0.50452386  0.00074356  1
  Mn  Mn49  1  0.75063249  0.50145424  0.50089262  1
  Mn  Mn50  1  0.25173068  0.25094434  0.49889524  1
  Mn  Mn51  1  0.25002005  0.74799104  0.00155986  1
  Mn  Mn52  1  0.25049797  0.74893893  0.50018666  1
  Mn  Mn53  1  0.75225331  0.24962245  0.99896551  1
  Mn  Mn54  1  0.74763298  0.25058513  0.50663594  1
  Mn  Mn55  1  0.74982450  0.74930586  0.00004971  1
  Mn  Mn56  1  0.75040998  0.74882989  0.50024607  1
  Mn  Mn57  1  0.99465653  0.25194785  0.74558404  1
  Mn  Mn58  1  0.00037999  0.74695238  0.25003240  1
  Mn  Mn59  1  0.00020748  0.74919058  0.75034622  1
  Mn  Mn60  1  0.52213831  0.25828276  0.26563867  1
  Mn  Mn61  1  0.50507958  0.25007911  0.74287587  1
  Mn  Mn62  1  0.49982106  0.74845099  0.25208083  1
  Mn  Mn63  1  0.50039642  0.74801388  0.75139953  1
  O  O64  1  0.09871630  0.26855455  0.60205451  1
  O  O65  1  0.10574953  0.77193322  0.10456971  1
  O  O66  1  0.10584499  0.77213943  0.60316304  1
  O  O67  1  0.59259152  0.25175299  0.10711296  1
  O  O68  1  0.59801300  0.26795312  0.59421624  1
  O  O69  1  0.60728009  0.77296630  0.10870424  1
  O  O70  1  0.60799391  0.76658194  0.60686294  1
  O  O71  1  0.39954830  0.22127459  0.37188594  1
  O  O72  1  0.40626945  0.23142775  0.89036083  1
  O  O73  1  0.39603736  0.72640376  0.39722231  1
  O  O74  1  0.39676944  0.73040868  0.89794562  1
  O  O75  1  0.88977885  0.23410166  0.40099200  1
  O  O76  1  0.90014333  0.23494737  0.90311871  1
  O  O77  1  0.89670023  0.72978717  0.39557360  1
  O  O78  1  0.89567425  0.73010514  0.89601348  1
  O  O79  1  0.14334725  0.24278767  0.34934613  1
  O  O80  1  0.14457443  0.23026115  0.84028634  1
  O  O81  1  0.14688714  0.73067301  0.35137104  1
  O  O82  1  0.14720154  0.73043538  0.85288179  1
  O  O83  1  0.65425766  0.21950486  0.35718366  1
  O  O84  1  0.64915093  0.22959279  0.85141253  1
  O  O85  1  0.64688968  0.72853369  0.35401321  1
  O  O86  1  0.64470176  0.72895589  0.85608920  1
  O  O87  1  0.35157572  0.26425546  0.64613554  1
  O  O88  1  0.35747788  0.77299305  0.14557779  1
  O  O89  1  0.35531371  0.76943609  0.64608634  1
  O  O90  1  0.86012680  0.27189556  0.14234250  1
  O  O91  1  0.84952560  0.27361324  0.64962099  1
  O  O92  1  0.85699066  0.76957613  0.14430806  1
  O  O93  1  0.85651356  0.77125653  0.64489669  1
  O  O94  1  0.36158334  0.49031055  0.14198120  1
  O  O95  1  0.35531802  0.48442728  0.64498410  1
  O  O96  1  0.35729595  0.99131138  0.15785349  1
  O  O97  1  0.35515989  0.97873446  0.64574946  1
  O  O98  1  0.85752488  0.48248813  0.14368684  1
  O  O99  1  0.85591166  0.47924055  0.64510576  1
  O  O100  1  0.85347856  0.98028287  0.14266782  1
  O  O101  1  0.85252298  0.97770036  0.64648533  1
  O  O102  1  0.13643321  0.00571762  0.36342127  1
  O  O103  1  0.14548920  0.02257793  0.86150883  1
  O  O104  1  0.14589203  0.52154456  0.35315337  1
  O  O105  1  0.14754823  0.51615155  0.85235744  1
  O  O106  1  0.62181954  0.03031279  0.35520267  1
  O  O107  1  0.64855742  0.01981225  0.84915575  1
  O  O108  1  0.64673507  0.52060364  0.35530230  1
  O  O109  1  0.64387565  0.52026051  0.85655148  1
  O  O110  1  0.39474850  0.02099413  0.89612140  1
  O  O111  1  0.39491137  0.52190995  0.39579738  1
  O  O112  1  0.39398315  0.51775011  0.89376348  1
  O  O113  1  0.88083666  0.01661525  0.38705235  1
  O  O114  1  0.89530447  0.01464545  0.89876843  1
  O  O115  1  0.89714906  0.51847748  0.39568131  1
  O  O116  1  0.89577457  0.51865476  0.89653534  1
  O  O117  1  0.10210573  0.48399745  0.10346199  1
  O  O118  1  0.10481002  0.48142221  0.60396857  1
  O  O119  1  0.10911753  0.98475768  0.10927495  1
  O  O120  1  0.09897118  0.97833673  0.61573414  1
  O  O121  1  0.61334414  0.48644203  0.11299537  1
  O  O122  1  0.60736036  0.48350003  0.60415332  1
  O  O123  1  0.60381741  0.98599531  0.09349926  1
  O  O124  1  0.59788045  0.98073272  0.59829497  1
  O  O125  1  0.00667317  0.37684737  0.27659220  1
  O  O126  1  0.01126159  0.37597338  0.78766761  1
  O  O127  1  0.00392522  0.87132661  0.28373835  1
  O  O128  1  0.01114129  0.87331876  0.79248080  1
  O  O129  1  0.50036340  0.37967914  0.28074974  1
  O  O130  1  0.50932187  0.37556196  0.77180831  1
  O  O131  1  0.50915663  0.87121063  0.30111264  1
  O  O132  1  0.51065067  0.87414705  0.78497652  1
  O  O133  1  0.49257343  0.12357788  0.71556518  1
  O  O134  1  0.49166272  0.62885946  0.20994818  1
  O  O135  1  0.49037689  0.62577951  0.71264588  1
  O  O136  1  0.99855379  0.13060644  0.21652824  1
  O  O137  1  0.98602140  0.12511339  0.72513807  1
  O  O138  1  0.98782805  0.62571585  0.20915461  1
  O  O139  1  0.98925873  0.62528641  0.71212359  1
  O  O140  1  0.23220171  0.15013872  0.05330997  1
  O  O141  1  0.25688487  0.11790139  0.51738433  1
  O  O142  1  0.23737799  0.62922035  0.03955407  1
  O  O143  1  0.23722541  0.62698107  0.54004310  1
  O  O144  1  0.74764461  0.12363273  0.03514415  1
  O  O145  1  0.74464183  0.12542237  0.54323946  1
  O  O146  1  0.74100417  0.62713533  0.03857536  1
  O  O147  1  0.74382954  0.62492339  0.53886470  1
  O  O148  1  0.26437283  0.37740395  0.47607301  1
  O  O149  1  0.25062357  0.35829409  0.00912901  1
  O  O150  1  0.26935166  0.87384910  0.45874487  1
  O  O151  1  0.26199702  0.87726508  0.96526977  1
  O  O152  1  0.75621566  0.37497860  0.46128509  1
  O  O153  1  0.74771068  0.37549113  0.96720005  1
  O  O154  1  0.75509003  0.87425231  0.46133670  1
  O  O155  1  0.75604824  0.87393661  0.96088559  1
