# generated using pymatgen
data_Y4Si2Ni13(SbO14)2
_symmetry_space_group_name_H-M   'P 1'
_cell_length_a   5.58093984
_cell_length_b   9.26354035
_cell_length_c   12.17945853
_cell_angle_alpha   87.71043294
_cell_angle_beta   76.69377384
_cell_angle_gamma   79.89466313
_symmetry_Int_Tables_number   1
_chemical_formula_structural   Y4Si2Ni13(SbO14)2
_chemical_formula_sum   'Y4 Si2 Ni13 Sb2 O28'
_cell_volume   603.25885264
_cell_formula_units_Z   1
loop_
 _symmetry_equiv_pos_site_id
 _symmetry_equiv_pos_as_xyz
  1  'x, y, z'
loop_
 _atom_site_type_symbol
 _atom_site_label
 _atom_site_symmetry_multiplicity
 _atom_site_fract_x
 _atom_site_fract_y
 _atom_site_fract_z
 _atom_site_occupancy
  Y  Y0  1  0.07164400  0.65628300  0.41160600  1
  Y  Y1  1  0.51702500  0.34389700  0.41140400  1
  Y  Y2  1  0.92779700  0.34434200  0.58895600  1
  Y  Y3  1  0.48259500  0.65572200  0.58826700  1
  Si  Si4  1  0.23988900  0.29115900  0.99975800  1
  Si  Si5  1  0.76039800  0.70859600  0.00048400  1
  Ni  Ni6  1  0.92110000  0.64022600  0.74035700  1
  Ni  Ni7  1  0.66028200  0.32461200  0.12352500  1
  Ni  Ni8  1  0.33537400  0.36090700  0.73977500  1
  Ni  Ni9  1  0.07858500  0.35899600  0.26010400  1
  Ni  Ni10  1  0.33839200  0.67804500  0.87622300  1
  Ni  Ni11  1  0.29010800  0.00053900  0.41825200  1
  Ni  Ni12  1  0.21748600  0.67550700  0.12294000  1
  Ni  Ni13  1  0.00025500  0.99999400  0.00047800  1
  Ni  Ni14  1  0.43004600  0.99937100  0.14235100  1
  Ni  Ni15  1  0.78295400  0.32223200  0.87715400  1
  Ni  Ni16  1  0.66432600  0.63980900  0.26019400  1
  Ni  Ni17  1  0.57187000  0.99962900  0.85609100  1
  Ni  Ni18  1  0.70643900  0.00166500  0.58052500  1
  Sb  Sb19  1  0.86126000  0.99998900  0.27823500  1
  Sb  Sb20  1  0.13846000  0.00006700  0.72016400  1
  O  O21  1  0.72516500  0.40370800  0.25437600  1
  O  O22  1  0.12278800  0.38989500  0.41747900  1
  O  O23  1  0.94581300  0.34382900  0.99995800  1
  O  O24  1  0.30246600  0.10954300  0.99975600  1
  O  O25  1  0.87636300  0.61001100  0.58294900  1
  O  O26  1  0.27519500  0.59665400  0.74573500  1
  O  O27  1  0.00725500  0.10405300  0.58543600  1
  O  O28  1  0.99274400  0.89634600  0.41257100  1
  O  O29  1  0.69885400  0.89021200  0.00072000  1
  O  O30  1  0.12518700  0.89141800  0.14893800  1
  O  O31  1  0.30768400  0.35705400  0.11012400  1
  O  O32  1  0.02383200  0.59595300  0.25435500  1
  O  O33  1  0.40449600  0.89590400  0.58544600  1
  O  O34  1  0.72628300  0.10894200  0.14959300  1
  O  O35  1  0.58303400  0.64261200  0.11111900  1
  O  O36  1  0.05460100  0.65534300  0.99984300  1
  O  O37  1  0.27433300  0.89259400  0.84921600  1
  O  O38  1  0.87472300  0.10783400  0.84949200  1
  O  O39  1  0.59446600  0.10360900  0.41356400  1
  O  O40  1  0.13040300  0.12196600  0.28232500  1
  O  O41  1  0.86867900  0.87848500  0.71684400  1
  O  O42  1  0.41777000  0.35574400  0.88870900  1
  O  O43  1  0.41135800  0.12237000  0.71533800  1
  O  O44  1  0.53961500  0.38992100  0.58266700  1
  O  O45  1  0.69074100  0.64493400  0.88992100  1
  O  O46  1  0.58820600  0.87826800  0.28192000  1
  O  O47  1  0.97508700  0.40468900  0.74660200  1
  O  O48  1  0.45996200  0.60981300  0.41700000  1
