# generated using pymatgen
data_SrCa7Mn8O23
_symmetry_space_group_name_H-M   'P 1'
_cell_length_a   7.64193002
_cell_length_b   7.64193002
_cell_length_c   7.71701000
_cell_angle_alpha   90.00000000
_cell_angle_beta   90.00000000
_cell_angle_gamma   90.00910203
_symmetry_Int_Tables_number   1
_chemical_formula_structural   SrCa7Mn8O23
_chemical_formula_sum   'Sr1 Ca7 Mn8 O23'
_cell_volume   450.66639051
_cell_formula_units_Z   1
loop_
 _symmetry_equiv_pos_site_id
 _symmetry_equiv_pos_as_xyz
  1  'x, y, z'
loop_
 _atom_site_type_symbol
 _atom_site_label
 _atom_site_symmetry_multiplicity
 _atom_site_fract_x
 _atom_site_fract_y
 _atom_site_fract_z
 _atom_site_occupancy
  Sr  Sr0  1  0.25643200  0.25643200  0.25000000  1
  Ca  Ca1  1  0.26518500  0.26518500  0.75000000  1
  Ca  Ca2  1  0.25976400  0.74331100  0.25000000  1
  Ca  Ca3  1  0.26518100  0.73809600  0.75000000  1
  Ca  Ca4  1  0.74331100  0.25976400  0.25000000  1
  Ca  Ca5  1  0.73809600  0.26518100  0.75000000  1
  Ca  Ca6  1  0.74231200  0.74231200  0.25000000  1
  Ca  Ca7  1  0.73518800  0.73518800  0.75000000  1
  Mn  Mn8  1  0.99870800  0.99870800  0.99013100  1
  Mn  Mn9  1  0.99870800  0.99870800  0.50986900  1
  Mn  Mn10  1  0.99919300  0.50181900  0.00300200  1
  Mn  Mn11  1  0.99919300  0.50181900  0.49699800  1
  Mn  Mn12  1  0.50181900  0.99919300  0.00300200  1
  Mn  Mn13  1  0.50181900  0.99919300  0.49699800  1
  Mn  Mn14  1  0.50084500  0.50084500  0.00038000  1
  Mn  Mn15  1  0.50084500  0.50084500  0.49962000  1
  O  O16  1  0.99491200  0.99491200  0.75000000  1
  O  O17  1  0.99583000  0.49704700  0.25000000  1
  O  O18  1  0.99784500  0.50471500  0.75000000  1
  O  O19  1  0.49704700  0.99583000  0.25000000  1
  O  O20  1  0.50471500  0.99784500  0.75000000  1
  O  O21  1  0.50302900  0.50302900  0.25000000  1
  O  O22  1  0.50120300  0.50120300  0.75000000  1
  O  O23  1  0.24602000  0.99507100  0.02369400  1
  O  O24  1  0.24602000  0.99507100  0.47630600  1
  O  O25  1  0.24999000  0.50323900  0.98946300  1
  O  O26  1  0.24999000  0.50323900  0.51053700  1
  O  O27  1  0.75447100  0.99922800  0.03559100  1
  O  O28  1  0.75447100  0.99922800  0.46440900  1
  O  O29  1  0.74968000  0.50171000  0.99244600  1
  O  O30  1  0.74968000  0.50171000  0.50755400  1
  O  O31  1  0.99507100  0.24602000  0.02369400  1
  O  O32  1  0.99507100  0.24602000  0.47630600  1
  O  O33  1  0.99922800  0.75447100  0.03559100  1
  O  O34  1  0.99922800  0.75447100  0.46440900  1
  O  O35  1  0.50323900  0.24999000  0.98946300  1
  O  O36  1  0.50323900  0.24999000  0.51053700  1
  O  O37  1  0.50171000  0.74968000  0.99244600  1
  O  O38  1  0.50171000  0.74968000  0.50755400  1
