# generated using pymatgen
data_MgV(Si2O5)2
_symmetry_space_group_name_H-M   'P 1'
_cell_length_a   7.33714300
_cell_length_b   7.33714300
_cell_length_c   14.97201900
_cell_angle_alpha   90.00000000
_cell_angle_beta   90.00000000
_cell_angle_gamma   90.00000000
_symmetry_Int_Tables_number   1
_chemical_formula_structural   MgV(Si2O5)2
_chemical_formula_sum   'Mg4 V4 Si16 O40'
_cell_volume   805.99869119
_cell_formula_units_Z   4
loop_
 _symmetry_equiv_pos_site_id
 _symmetry_equiv_pos_as_xyz
  1  'x, y, z'
loop_
 _atom_site_type_symbol
 _atom_site_label
 _atom_site_symmetry_multiplicity
 _atom_site_fract_x
 _atom_site_fract_y
 _atom_site_fract_z
 _atom_site_occupancy
  Mg  Mg0  1  0.50000000  0.50000000  0.50000000  1
  Mg  Mg1  1  0.00000000  0.00000000  0.50000000  1
  Mg  Mg2  1  0.00000000  0.00000000  0.00000000  1
  Mg  Mg3  1  0.50000000  0.50000000  0.00000000  1
  V  V4  1  0.50000000  0.00000000  0.57178800  1
  V  V5  1  0.00000000  0.50000000  0.92821200  1
  V  V6  1  0.00000000  0.50000000  0.42821200  1
  V  V7  1  0.50000000  0.00000000  0.07178800  1
  Si  Si8  1  0.15955200  0.24083200  0.64562400  1
  Si  Si9  1  0.84044800  0.75916800  0.64562400  1
  Si  Si10  1  0.24083200  0.15955200  0.85437600  1
  Si  Si11  1  0.74083200  0.34044800  0.64562400  1
  Si  Si12  1  0.25916800  0.65955200  0.64562400  1
  Si  Si13  1  0.34044800  0.74083200  0.85437600  1
  Si  Si14  1  0.65955200  0.25916800  0.85437600  1
  Si  Si15  1  0.75916800  0.84044800  0.85437600  1
  Si  Si16  1  0.34044800  0.25916800  0.35437600  1
  Si  Si17  1  0.65955200  0.74083200  0.35437600  1
  Si  Si18  1  0.25916800  0.34044800  0.14562400  1
  Si  Si19  1  0.75916800  0.15955200  0.35437600  1
  Si  Si20  1  0.24083200  0.84044800  0.35437600  1
  Si  Si21  1  0.15955200  0.75916800  0.14562400  1
  Si  Si22  1  0.84044800  0.24083200  0.14562400  1
  Si  Si23  1  0.74083200  0.65955200  0.14562400  1
  O  O24  1  0.22967200  0.08823700  0.57527100  1
  O  O25  1  0.77032800  0.91176300  0.57527100  1
  O  O26  1  0.08823700  0.22967200  0.92472900  1
  O  O27  1  0.58823700  0.27032800  0.57527100  1
  O  O28  1  0.41176300  0.72967200  0.57527100  1
  O  O29  1  0.27032800  0.58823700  0.92472900  1
  O  O30  1  0.72967200  0.41176300  0.92472900  1
  O  O31  1  0.91176300  0.77032800  0.92472900  1
  O  O32  1  0.27032800  0.41176300  0.42472900  1
  O  O33  1  0.72967200  0.58823700  0.42472900  1
  O  O34  1  0.41176300  0.27032800  0.07527100  1
  O  O35  1  0.91176300  0.22967200  0.42472900  1
  O  O36  1  0.08823700  0.77032800  0.42472900  1
  O  O37  1  0.22967200  0.91176300  0.07527100  1
  O  O38  1  0.77032800  0.08823700  0.07527100  1
  O  O39  1  0.25074800  0.05996000  0.37393000  1
  O  O40  1  0.58823700  0.72967200  0.07527100  1
  O  O41  1  0.75074800  0.55996000  0.62607000  1
  O  O42  1  0.44004000  0.24925200  0.87393000  1
  O  O43  1  0.94004000  0.25074800  0.62607000  1
  O  O44  1  0.05996000  0.74925200  0.62607000  1
  O  O45  1  0.25074800  0.94004000  0.87393000  1
  O  O46  1  0.74925200  0.05996000  0.87393000  1
  O  O47  1  0.55996000  0.75074800  0.87393000  1
  O  O48  1  0.69223000  0.69223000  0.25000000  1
  O  O49  1  0.80777000  0.19223000  0.25000000  1
  O  O50  1  0.19223000  0.80777000  0.25000000  1
  O  O51  1  0.30777000  0.30777000  0.25000000  1
  O  O52  1  0.80777000  0.80777000  0.75000000  1
  O  O53  1  0.69223000  0.30777000  0.75000000  1
  O  O54  1  0.30777000  0.69223000  0.75000000  1
  O  O55  1  0.19223000  0.19223000  0.75000000  1
  O  O56  1  0.94004000  0.74925200  0.12607000  1
  O  O57  1  0.75074800  0.44004000  0.12607000  1
  O  O58  1  0.24925200  0.55996000  0.12607000  1
  O  O59  1  0.44004000  0.75074800  0.37393000  1
  O  O60  1  0.55996000  0.24925200  0.37393000  1
  O  O61  1  0.05996000  0.25074800  0.12607000  1
  O  O62  1  0.74925200  0.94004000  0.37393000  1
  O  O63  1  0.24925200  0.44004000  0.62607000  1
