# generated using pymatgen
data_Sr3Nb3N5
_symmetry_space_group_name_H-M   'P 1'
_cell_length_a   6.20075106
_cell_length_b   8.04946553
_cell_length_c   8.21389993
_cell_angle_alpha   107.58959734
_cell_angle_beta   101.96405509
_cell_angle_gamma   102.06999369
_symmetry_Int_Tables_number   1
_chemical_formula_structural   Sr3Nb3N5
_chemical_formula_sum   'Sr6 Nb6 N10'
_cell_volume   365.72725421
_cell_formula_units_Z   2
loop_
 _symmetry_equiv_pos_site_id
 _symmetry_equiv_pos_as_xyz
  1  'x, y, z'
loop_
 _atom_site_type_symbol
 _atom_site_label
 _atom_site_symmetry_multiplicity
 _atom_site_fract_x
 _atom_site_fract_y
 _atom_site_fract_z
 _atom_site_occupancy
  Sr  Sr0  1  0.74758100  0.43450600  0.57635700  1
  Sr  Sr1  1  0.25241900  0.56549400  0.42364300  1
  Sr  Sr2  1  0.63793400  0.82629300  0.87839100  1
  Sr  Sr3  1  0.36206600  0.17370700  0.12160900  1
  Sr  Sr4  1  0.68762900  0.66996100  0.22784600  1
  Sr  Sr5  1  0.31237100  0.33003900  0.77215400  1
  Nb  Nb6  1  0.90330600  0.31720500  0.99920400  1
  Nb  Nb7  1  0.09669400  0.68279500  0.00079600  1
  Nb  Nb8  1  0.72339400  0.00912500  0.59886700  1
  Nb  Nb9  1  0.27660600  0.99087500  0.40113300  1
  Nb  Nb10  1  0.09579100  0.87176500  0.70056000  1
  Nb  Nb11  1  0.90420900  0.12823600  0.29944000  1
  N  N12  1  0.00092800  0.09929300  0.84089100  1
  N  N13  1  0.99907200  0.90070700  0.15910900  1
  N  N14  1  0.73650500  0.74712300  0.56446400  1
  N  N15  1  0.26349500  0.25287700  0.43553600  1
  N  N16  1  0.77086000  0.50946900  0.91201000  1
  N  N17  1  0.22914000  0.49053100  0.08799000  1
  N  N18  1  0.40124800  0.96420900  0.64889700  1
  N  N19  1  0.59875200  0.03579100  0.35110300  1
  N  N20  1  0.17548600  0.65649800  0.76758600  1
  N  N21  1  0.82451400  0.34350200  0.23241400  1
