# generated using pymatgen
data_Ti2Zn3(SiO4)3
_symmetry_space_group_name_H-M   'P 1'
_cell_length_a   10.36336920
_cell_length_b   10.36336920
_cell_length_c   10.36336920
_cell_angle_alpha   109.47122063
_cell_angle_beta   109.47122063
_cell_angle_gamma   109.47122063
_symmetry_Int_Tables_number   1
_chemical_formula_structural   Ti2Zn3(SiO4)3
_chemical_formula_sum   'Ti8 Zn12 Si12 O48'
_cell_volume   856.80308386
_cell_formula_units_Z   4
loop_
 _symmetry_equiv_pos_site_id
 _symmetry_equiv_pos_as_xyz
  1  'x, y, z'
loop_
 _atom_site_type_symbol
 _atom_site_label
 _atom_site_symmetry_multiplicity
 _atom_site_fract_x
 _atom_site_fract_y
 _atom_site_fract_z
 _atom_site_occupancy
  Ti  Ti0  1  0.50000000  0.00000000  0.00000000  1
  Ti  Ti1  1  0.50000000  0.50000000  0.00000000  1
  Ti  Ti2  1  0.00000000  0.50000000  0.50000000  1
  Ti  Ti3  1  0.00000000  0.00000000  0.50000000  1
  Ti  Ti4  1  0.50000000  0.50000000  0.50000000  1
  Ti  Ti5  1  0.00000000  0.50000000  0.00000000  1
  Ti  Ti6  1  0.50000000  0.00000000  0.50000000  1
  Ti  Ti7  1  0.00000000  0.00000000  0.00000000  1
  Zn  Zn8  1  0.25000000  0.37500000  0.12500000  1
  Zn  Zn9  1  0.75000000  0.12500000  0.37500000  1
  Zn  Zn10  1  0.37500000  0.12500000  0.25000000  1
  Zn  Zn11  1  0.12500000  0.37500000  0.75000000  1
  Zn  Zn12  1  0.25000000  0.87500000  0.62500000  1
  Zn  Zn13  1  0.12500000  0.25000000  0.37500000  1
  Zn  Zn14  1  0.62500000  0.25000000  0.87500000  1
  Zn  Zn15  1  0.75000000  0.62500000  0.87500000  1
  Zn  Zn16  1  0.87500000  0.75000000  0.62500000  1
  Zn  Zn17  1  0.87500000  0.62500000  0.25000000  1
  Zn  Zn18  1  0.62500000  0.87500000  0.75000000  1
  Zn  Zn19  1  0.37500000  0.75000000  0.12500000  1
  Si  Si20  1  0.12500000  0.75000000  0.87500000  1
  Si  Si21  1  0.87500000  0.25000000  0.12500000  1
  Si  Si22  1  0.75000000  0.37500000  0.62500000  1
  Si  Si23  1  0.12500000  0.87500000  0.25000000  1
  Si  Si24  1  0.25000000  0.12500000  0.87500000  1
  Si  Si25  1  0.37500000  0.62500000  0.75000000  1
  Si  Si26  1  0.37500000  0.25000000  0.62500000  1
  Si  Si27  1  0.87500000  0.12500000  0.75000000  1
  Si  Si28  1  0.62500000  0.37500000  0.25000000  1
  Si  Si29  1  0.75000000  0.87500000  0.12500000  1
  Si  Si30  1  0.25000000  0.62500000  0.37500000  1
  Si  Si31  1  0.62500000  0.75000000  0.37500000  1
  O  O32  1  0.58515600  0.89282100  0.37736900  1
  O  O33  1  0.37736900  0.58515600  0.89282100  1
  O  O34  1  0.29221300  0.30766500  0.91484400  1
  O  O35  1  0.48454800  0.60717900  0.19233500  1
  O  O36  1  0.30766500  0.89282100  0.01545200  1
  O  O37  1  0.12263100  0.01545200  0.20778700  1
  O  O38  1  0.37736900  0.29221300  0.48454800  1
  O  O39  1  0.89282100  0.37736900  0.58515600  1
  O  O40  1  0.19233500  0.20778700  0.58515600  1
  O  O41  1  0.48454800  0.37736900  0.29221300  1
  O  O42  1  0.89282100  0.01545200  0.30766500  1
  O  O43  1  0.60717900  0.91484400  0.12263100  1
  O  O44  1  0.91484400  0.12263100  0.60717900  1
  O  O45  1  0.29221300  0.48454800  0.37736900  1
  O  O46  1  0.58515600  0.19233500  0.20778700  1
  O  O47  1  0.20778700  0.58515600  0.19233500  1
  O  O48  1  0.01545200  0.30766500  0.89282100  1
  O  O49  1  0.91484400  0.29221300  0.30766500  1
  O  O50  1  0.01545200  0.20778700  0.12263100  1
  O  O51  1  0.80766500  0.79221300  0.41484400  1
  O  O52  1  0.19233500  0.48454800  0.60717900  1
  O  O53  1  0.60717900  0.19233500  0.48454800  1
  O  O54  1  0.20778700  0.12263100  0.01545200  1
  O  O55  1  0.12263100  0.60717900  0.91484400  1
  O  O56  1  0.41484400  0.10717900  0.62263100  1
  O  O57  1  0.62263100  0.41484400  0.10717900  1
  O  O58  1  0.70778700  0.69233500  0.08515600  1
  O  O59  1  0.51545200  0.39282100  0.80766500  1
  O  O60  1  0.69233500  0.10717900  0.98454800  1
  O  O61  1  0.87736900  0.98454800  0.79221300  1
  O  O62  1  0.62263100  0.70778700  0.51545200  1
  O  O63  1  0.10717900  0.62263100  0.41484400  1
  O  O64  1  0.87736900  0.39282100  0.08515600  1
  O  O65  1  0.79221300  0.87736900  0.98454800  1
  O  O66  1  0.39282100  0.80766500  0.51545200  1
  O  O67  1  0.69233500  0.08515600  0.70778700  1
  O  O68  1  0.80766500  0.51545200  0.39282100  1
  O  O69  1  0.98454800  0.79221300  0.87736900  1
  O  O70  1  0.08515600  0.70778700  0.69233500  1
  O  O71  1  0.98454800  0.69233500  0.10717900  1
  O  O72  1  0.79221300  0.41484400  0.80766500  1
  O  O73  1  0.41484400  0.80766500  0.79221300  1
  O  O74  1  0.70778700  0.51545200  0.62263100  1
  O  O75  1  0.08515600  0.87736900  0.39282100  1
  O  O76  1  0.39282100  0.08515600  0.87736900  1
  O  O77  1  0.10717900  0.98454800  0.69233500  1
  O  O78  1  0.51545200  0.62263100  0.70778700  1
  O  O79  1  0.30766500  0.91484400  0.29221300  1
