# generated using pymatgen
data_Ba2Mn2AlF11
_symmetry_space_group_name_H-M   'P 1'
_cell_length_a   7.48577138
_cell_length_b   7.48577138
_cell_length_c   14.49887800
_cell_angle_alpha   90.00000000
_cell_angle_beta   90.00000000
_cell_angle_gamma   119.99999450
_symmetry_Int_Tables_number   1
_chemical_formula_structural   Ba2Mn2AlF11
_chemical_formula_sum   'Ba6 Mn6 Al3 F33'
_cell_volume   703.61999059
_cell_formula_units_Z   3
loop_
 _symmetry_equiv_pos_site_id
 _symmetry_equiv_pos_as_xyz
  1  'x, y, z'
loop_
 _atom_site_type_symbol
 _atom_site_label
 _atom_site_symmetry_multiplicity
 _atom_site_fract_x
 _atom_site_fract_y
 _atom_site_fract_z
 _atom_site_occupancy
  Ba  Ba0  1  0.86614900  0.85665000  0.66623400  1
  Ba  Ba1  1  0.50675100  0.15592500  0.79996400  1
  Ba  Ba2  1  0.99050200  0.13385100  0.99956800  1
  Ba  Ba3  1  0.84407500  0.35082600  0.46663100  1
  Ba  Ba4  1  0.64917400  0.49324900  0.13329700  1
  Ba  Ba5  1  0.14335000  0.00949800  0.33290100  1
  Mn  Mn6  1  0.96230300  0.66012900  0.88863400  1
  Mn  Mn7  1  0.12627400  0.43183000  0.72530400  1
  Mn  Mn8  1  0.56817000  0.69444300  0.39197100  1
  Mn  Mn9  1  0.69782600  0.03769700  0.22196800  1
  Mn  Mn10  1  0.30555700  0.87372600  0.05863800  1
  Mn  Mn11  1  0.33987100  0.30217400  0.55530100  1
  Al  Al12  1  0.50189200  0.67997700  0.87190800  1
  Al  Al13  1  0.17808500  0.49810800  0.20524100  1
  Al  Al14  1  0.32002300  0.82191500  0.53857500  1
  F  F15  1  0.99427700  0.75385200  0.02770300  1
  F  F16  1  0.82788700  0.35464700  0.92598300  1
  F  F17  1  0.75957600  0.00572300  0.36103700  1
  F  F18  1  0.42570700  0.08407500  0.48945000  1
  F  F19  1  0.87152100  0.90503800  0.18239200  1
  F  F20  1  0.23774100  0.29270300  0.18678000  1
  F  F21  1  0.91592500  0.34163200  0.15611700  1
  F  F22  1  0.70729700  0.94503800  0.85344700  1
  F  F23  1  0.03351700  0.12847900  0.51572600  1
  F  F24  1  0.61285200  0.00912200  0.08330200  1
  F  F25  1  0.65836800  0.57429300  0.82278400  1
  F  F26  1  0.24614800  0.24042400  0.69437000  1
  F  F27  1  0.61125500  0.68158500  0.98101900  1
  F  F28  1  0.36754900  0.16873400  0.02080400  1
  F  F29  1  0.07033100  0.38874500  0.31435300  1
  F  F30  1  0.64535300  0.47324000  0.59264900  1
  F  F31  1  0.33174700  0.78517700  0.91269000  1
  F  F32  1  0.39627100  0.38714800  0.41663500  1
  F  F33  1  0.30767100  0.73470300  0.41890800  1
  F  F34  1  0.31841500  0.92966900  0.64768600  1
  F  F35  1  0.42703200  0.69232900  0.75224100  1
  F  F36  1  0.83126600  0.19881400  0.68747100  1
  F  F37  1  0.80118600  0.63245100  0.35413800  1
  F  F38  1  0.45343100  0.66825300  0.24602400  1
  F  F39  1  0.99087800  0.60372900  0.74996800  1
  F  F40  1  0.09496200  0.96648300  0.84905900  1
  F  F41  1  0.52676000  0.17211300  0.25931600  1
  F  F42  1  0.27382400  0.42339000  0.87689300  1
  F  F43  1  0.14956700  0.72617600  0.21022600  1
  F  F44  1  0.26529700  0.57296800  0.08557400  1
  F  F45  1  0.05496200  0.76225900  0.52011300  1
  F  F46  1  0.21482300  0.54656900  0.57935700  1
  F  F47  1  0.57661000  0.85043300  0.54355900  1
