# generated using pymatgen
data_SrCa7Ti3Mn5O22
_symmetry_space_group_name_H-M   'P 1'
_cell_length_a   7.81134784
_cell_length_b   7.71770830
_cell_length_c   7.78189498
_cell_angle_alpha   89.95585507
_cell_angle_beta   90.30831878
_cell_angle_gamma   90.07725638
_symmetry_Int_Tables_number   1
_chemical_formula_structural   SrCa7Ti3Mn5O22
_chemical_formula_sum   'Sr1 Ca7 Ti3 Mn5 O22'
_cell_volume   469.12966219
_cell_formula_units_Z   1
loop_
 _symmetry_equiv_pos_site_id
 _symmetry_equiv_pos_as_xyz
  1  'x, y, z'
loop_
 _atom_site_type_symbol
 _atom_site_label
 _atom_site_symmetry_multiplicity
 _atom_site_fract_x
 _atom_site_fract_y
 _atom_site_fract_z
 _atom_site_occupancy
  Sr  Sr0  1  0.24576800  0.25032300  0.25416400  1
  Ca  Ca1  1  0.26939200  0.27142100  0.75087700  1
  Ca  Ca2  1  0.23982700  0.73334700  0.26805900  1
  Ca  Ca3  1  0.28453200  0.73789000  0.76361200  1
  Ca  Ca4  1  0.75265200  0.25213300  0.24108300  1
  Ca  Ca5  1  0.73796200  0.28096500  0.74547600  1
  Ca  Ca6  1  0.75809200  0.73906200  0.25891600  1
  Ca  Ca7  1  0.75319700  0.75251300  0.75081400  1
  Ti  Ti8  1  0.00551200  0.99622300  0.98039800  1
  Ti  Ti9  1  0.99548400  0.99665500  0.51272000  1
  Ti  Ti10  1  0.50636600  0.99799800  0.99943800  1
  Mn  Mn11  1  0.99589900  0.50332100  0.02020400  1
  Mn  Mn12  1  0.99793200  0.49838400  0.51438500  1
  Mn  Mn13  1  0.50266600  0.99460700  0.48158100  1
  Mn  Mn14  1  0.50167800  0.50496700  0.99442700  1
  Mn  Mn15  1  0.50502100  0.50295000  0.50920700  1
  O  O16  1  0.96474800  0.97311900  0.74750300  1
  O  O17  1  0.04267400  0.49298500  0.26807400  1
  O  O18  1  0.94774000  0.51140400  0.77156900  1
  O  O19  1  0.49569900  0.05247200  0.23328500  1
  O  O20  1  0.51177400  0.94660500  0.72352100  1
  O  O21  1  0.54014900  0.54582600  0.75046600  1
  O  O22  1  0.24678500  0.00931300  0.94984600  1
  O  O23  1  0.21509900  0.98319900  0.42665700  1
  O  O24  1  0.25239900  0.49445400  0.97429200  1
  O  O25  1  0.25656400  0.51849700  0.54187300  1
  O  O26  1  0.74286700  0.98357900  0.99171500  1
  O  O27  1  0.78785900  0.01017900  0.40411800  1
  O  O28  1  0.73780100  0.50355100  0.06276600  1
  O  O29  1  0.74261600  0.47282100  0.45720700  1
  O  O30  1  0.98801200  0.21945900  0.06189000  1
  O  O31  1  0.01580700  0.24871500  0.54161100  1
  O  O32  1  0.00681400  0.78441500  0.08602900  1
  O  O33  1  0.97269500  0.74224300  0.50020300  1
  O  O34  1  0.50867000  0.25745700  0.95514800  1
  O  O35  1  0.48670200  0.24918500  0.53296500  1
  O  O36  1  0.47735500  0.74737200  0.04487700  1
  O  O37  1  0.50718900  0.74039200  0.42902300  1
