# generated using pymatgen
data_Ca8Ti2Mn6O21
_symmetry_space_group_name_H-M   'P 1'
_cell_length_a   11.03161871
_cell_length_b   15.54874247
_cell_length_c   11.03848297
_cell_angle_alpha   90.09695125
_cell_angle_beta   91.65688279
_cell_angle_gamma   90.66095639
_symmetry_Int_Tables_number   1
_chemical_formula_structural   Ca8Ti2Mn6O21
_chemical_formula_sum   'Ca32 Ti8 Mn24 O84'
_cell_volume   1892.48523583
_cell_formula_units_Z   4
loop_
 _symmetry_equiv_pos_site_id
 _symmetry_equiv_pos_as_xyz
  1  'x, y, z'
loop_
 _atom_site_type_symbol
 _atom_site_label
 _atom_site_symmetry_multiplicity
 _atom_site_fract_x
 _atom_site_fract_y
 _atom_site_fract_z
 _atom_site_occupancy
  Ca  Ca0  1  0.97612278  0.11848686  0.52980260  1
  Ca  Ca1  1  0.97948327  0.11727233  0.01881504  1
  Ca  Ca2  1  0.99575616  0.62347423  0.51475608  1
  Ca  Ca3  1  0.01681906  0.62027564  0.99796748  1
  Ca  Ca4  1  0.53899763  0.12043334  0.48004972  1
  Ca  Ca5  1  0.54441409  0.12419660  0.98390084  1
  Ca  Ca6  1  0.53443027  0.62815245  0.51248109  1
  Ca  Ca7  1  0.53259227  0.62189733  0.97392298  1
  Ca  Ca8  1  0.51115466  0.38354152  0.98726770  1
  Ca  Ca9  1  0.49269018  0.37744127  0.52244758  1
  Ca  Ca10  1  0.51954029  0.85713841  0.97329184  1
  Ca  Ca11  1  0.49939993  0.86078230  0.49881910  1
  Ca  Ca12  1  0.96537580  0.39243129  0.00781250  1
  Ca  Ca13  1  0.96150108  0.38956035  0.50129482  1
  Ca  Ca14  1  0.95494051  0.87274252  0.99875610  1
  Ca  Ca15  1  0.96734543  0.86687035  0.51392746  1
  Ca  Ca16  1  0.24446570  0.39339333  0.22606302  1
  Ca  Ca17  1  0.23910163  0.40637025  0.77009230  1
  Ca  Ca18  1  0.23750014  0.88297454  0.28022669  1
  Ca  Ca19  1  0.23291807  0.85591485  0.73715384  1
  Ca  Ca20  1  0.75713149  0.38236902  0.25014562  1
  Ca  Ca21  1  0.73230805  0.38805303  0.75739516  1
  Ca  Ca22  1  0.74113470  0.85921546  0.24979927  1
  Ca  Ca23  1  0.72489793  0.86410971  0.74037866  1
  Ca  Ca24  1  0.22530319  0.12136900  0.22378318  1
  Ca  Ca25  1  0.22333144  0.12132187  0.72877754  1
  Ca  Ca26  1  0.23556467  0.62056656  0.26991127  1
  Ca  Ca27  1  0.26507438  0.62636307  0.73688201  1
  Ca  Ca28  1  0.76803717  0.12074097  0.24963396  1
  Ca  Ca29  1  0.77105397  0.12387105  0.75153667  1
  Ca  Ca30  1  0.78284644  0.62182249  0.26090831  1
  Ca  Ca31  1  0.77267240  0.62411875  0.75724731  1
  Ti  Ti32  1  0.98774408  0.99329537  0.26233849  1
  Ti  Ti33  1  0.99289754  0.99180496  0.76225008  1
  Ti  Ti34  1  0.23761835  0.98380418  0.01074111  1
  Ti  Ti35  1  0.23773645  0.00154836  0.51150260  1
  Ti  Ti36  1  0.26473481  0.23794667  0.94246789  1
  Ti  Ti37  1  0.25530403  0.24265439  0.43805462  1
  Ti  Ti38  1  0.98695897  0.25316934  0.27150523  1
  Ti  Ti39  1  0.99100105  0.25941027  0.77810611  1
  Mn  Mn40  1  0.00658512  0.50126568  0.25153604  1
  Mn  Mn41  1  0.99715708  0.50049272  0.75710554  1
  Mn  Mn42  1  0.50082912  0.98916260  0.21779600  1
  Mn  Mn43  1  0.50043681  0.99816655  0.72025773  1
  Mn  Mn44  1  0.50844680  0.48867332  0.24696603  1
  Mn  Mn45  1  0.49768717  0.50057817  0.75114439  1
  Mn  Mn46  1  0.25813401  0.52091996  0.01037684  1
  Mn  Mn47  1  0.23431870  0.49114747  0.51226306  1
  Mn  Mn48  1  0.74206391  0.99734932  0.98932043  1
  Mn  Mn49  1  0.74385768  0.99591450  0.48919587  1
  Mn  Mn50  1  0.75032181  0.50335546  0.00464149  1
  Mn  Mn51  1  0.74386383  0.49969638  0.50389666  1
  Mn  Mn52  1  0.26358139  0.74951169  0.98413341  1
  Mn  Mn53  1  0.25027882  0.74170319  0.49573185  1
  Mn  Mn54  1  0.74850629  0.25007003  0.00736057  1
  Mn  Mn55  1  0.74512496  0.24965572  0.50455326  1
  Mn  Mn56  1  0.75364703  0.74528667  0.00129433  1
  Mn  Mn57  1  0.75325891  0.74568239  0.50311305  1
  Mn  Mn58  1  0.00179409  0.75162308  0.26419212  1
  Mn  Mn59  1  0.00176956  0.74750210  0.75232907  1
  Mn  Mn60  1  0.50806968  0.25784444  0.25857839  1
  Mn  Mn61  1  0.51001138  0.24685536  0.75446903  1
  Mn  Mn62  1  0.50215287  0.75127867  0.26240381  1
  Mn  Mn63  1  0.50017661  0.74414867  0.74514666  1
  O  O64  1  0.10834692  0.77105708  0.59826491  1
  O  O65  1  0.56941039  0.25495353  0.09360794  1
  O  O66  1  0.56597272  0.24742071  0.58871556  1
  O  O67  1  0.59032864  0.76144608  0.11526573  1
  O  O68  1  0.60828930  0.76130769  0.60209593  1
  O  O69  1  0.38387622  0.18760178  0.36306267  1
  O  O70  1  0.38942886  0.18193974  0.86379952  1
  O  O71  1  0.39575904  0.70602381  0.38428880  1
  O  O72  1  0.40711840  0.72853552  0.89383517  1
  O  O73  1  0.92676604  0.23921519  0.41845742  1
  O  O74  1  0.92716241  0.24248749  0.92350307  1
  O  O75  1  0.89409613  0.73125715  0.40633316  1
  O  O76  1  0.90440600  0.73332037  0.89942492  1
  O  O77  1  0.16791064  0.25578000  0.29231927  1
  O  O78  1  0.17509258  0.25848888  0.79974519  1
  O  O79  1  0.16488938  0.75031298  0.33598392  1
  O  O80  1  0.15022634  0.73582522  0.84621132  1
  O  O81  1  0.65735718  0.22408829  0.35237736  1
  O  O82  1  0.66217989  0.22954592  0.85484269  1
  O  O83  1  0.65242739  0.72612681  0.35608119  1
  O  O84  1  0.64684621  0.73056236  0.85431430  1
  O  O85  1  0.35244953  0.75494247  0.63953176  1
  O  O86  1  0.85197225  0.26081872  0.16104632  1
  O  O87  1  0.86465462  0.26911432  0.66046455  1
  O  O88  1  0.87030737  0.77359565  0.14327192  1
  O  O89  1  0.85646301  0.77330079  0.64831813  1
  O  O90  1  0.36268349  0.51667915  0.16385246  1
  O  O91  1  0.35654925  0.48711792  0.64068413  1
  O  O92  1  0.35595215  0.03311092  0.11815999  1
  O  O93  1  0.36586741  0.04995955  0.60831386  1
  O  O94  1  0.85949334  0.48689152  0.14288898  1
  O  O95  1  0.85366751  0.47799923  0.64133214  1
  O  O96  1  0.85941575  0.97720693  0.15762261  1
  O  O97  1  0.86496885  0.98098359  0.65620728  1
  O  O98  1  0.17549791  0.01597465  0.35419854  1
  O  O99  1  0.18390360  0.00871765  0.85600271  1
  O  O100  1  0.16373366  0.49318970  0.35376066  1
  O  O101  1  0.15456637  0.52668806  0.86718517  1
  O  O102  1  0.62938740  0.02365089  0.33096533  1
  O  O103  1  0.62987190  0.03545300  0.83508977  1
  O  O104  1  0.62577882  0.52657059  0.36404662  1
  O  O105  1  0.64291509  0.51733346  0.85819091  1
  O  O106  1  0.39604165  0.51106038  0.90355169  1
  O  O107  1  0.89921643  0.01421866  0.40021145  1
  O  O108  1  0.90096572  0.00808757  0.90247015  1
  O  O109  1  0.89876873  0.51571377  0.38834225  1
  O  O110  1  0.89149237  0.51831080  0.89879384  1
  O  O111  1  0.11231148  0.48006336  0.10753349  1
  O  O112  1  0.09912744  0.47013348  0.62372459  1
  O  O113  1  0.10708940  0.97193917  0.10715989  1
  O  O114  1  0.11109248  0.98915898  0.61296663  1
  O  O115  1  0.61254887  0.48254182  0.11113394  1
  O  O116  1  0.60367133  0.48353310  0.61537604  1
  O  O117  1  0.59223289  0.98581646  0.07083565  1
  O  O118  1  0.59811385  0.98352956  0.57344041  1
  O  O119  1  0.99457868  0.37213722  0.27628203  1
  O  O120  1  0.01210788  0.37778539  0.80416743  1
  O  O121  1  0.01597469  0.87698234  0.29927846  1
  O  O122  1  0.02068956  0.87587670  0.79184466  1
  O  O123  1  0.45430701  0.37988214  0.30750565  1
  O  O124  1  0.49224079  0.37463405  0.77561334  1
  O  O125  1  0.45261486  0.87349762  0.28108318  1
  O  O126  1  0.49621989  0.87114705  0.76366465  1
  O  O127  1  0.48868752  0.62258960  0.71790625  1
  O  O128  1  0.00351644  0.12407018  0.22852698  1
  O  O129  1  0.00457828  0.12769015  0.74264003  1
  O  O130  1  0.01009669  0.63111532  0.22170433  1
  O  O131  1  0.98864965  0.62577462  0.71961093  1
  O  O132  1  0.18358733  0.15931833  0.02910820  1
  O  O133  1  0.18029874  0.16363588  0.52992523  1
  O  O134  1  0.22439931  0.64924716  0.06626286  1
  O  O135  1  0.21739944  0.61302172  0.51933077  1
  O  O136  1  0.75723053  0.12235221  0.03640473  1
  O  O137  1  0.75521714  0.12325911  0.53768752  1
  O  O138  1  0.74078079  0.62504216  0.04485818  1
  O  O139  1  0.75174491  0.62386590  0.54365967  1
  O  O140  1  0.27374181  0.35002267  0.50281359  1
  O  O141  1  0.29947309  0.33930892  0.01676351  1
  O  O142  1  0.28911449  0.89270757  0.49053623  1
  O  O143  1  0.29638757  0.87502248  0.99429820  1
  O  O144  1  0.74529842  0.37493736  0.46284203  1
  O  O145  1  0.74964756  0.37711491  0.97331316  1
  O  O146  1  0.75200318  0.87112985  0.45969627  1
  O  O147  1  0.74448249  0.87193044  0.95906544  1
