# generated using pymatgen
data_Sr2AlCu2BiO7
_symmetry_space_group_name_H-M   'P 1'
_cell_length_a   5.29113070
_cell_length_b   5.32586349
_cell_length_c   13.00938607
_cell_angle_alpha   101.80406149
_cell_angle_beta   101.68556218
_cell_angle_gamma   90.07030229
_symmetry_Int_Tables_number   1
_chemical_formula_structural   Sr2AlCu2BiO7
_chemical_formula_sum   'Sr4 Al2 Cu4 Bi2 O14'
_cell_volume   351.06409526
_cell_formula_units_Z   2
loop_
 _symmetry_equiv_pos_site_id
 _symmetry_equiv_pos_as_xyz
  1  'x, y, z'
loop_
 _atom_site_type_symbol
 _atom_site_label
 _atom_site_symmetry_multiplicity
 _atom_site_fract_x
 _atom_site_fract_y
 _atom_site_fract_z
 _atom_site_occupancy
  Sr  Sr0  1  0.33360900  0.36700400  0.72502600  1
  Sr  Sr1  1  0.61338700  0.63446600  0.27647700  1
  Sr  Sr2  1  0.83373700  0.86050400  0.72493000  1
  Sr  Sr3  1  0.11322300  0.14312900  0.27642600  1
  Al  Al4  1  0.98699200  0.00808000  0.00056300  1
  Al  Al5  1  0.48639500  0.49826600  0.00075100  1
  Cu  Cu6  1  0.92426900  0.44881200  0.88985300  1
  Cu  Cu7  1  0.04042300  0.55885000  0.11094000  1
  Cu  Cu8  1  0.42474000  0.94548100  0.89011000  1
  Cu  Cu9  1  0.54072000  0.05586200  0.11097800  1
  Bi  Bi10  1  0.24462400  0.74459800  0.50079000  1
  Bi  Bi11  1  0.74409400  0.25939800  0.50093100  1
  O  O12  1  0.15962500  0.33873500  0.50108700  1
  O  O13  1  0.66012900  0.66532800  0.50090500  1
  O  O14  1  0.25152000  0.27332800  0.90176200  1
  O  O15  1  0.35927300  0.72844400  0.10049200  1
  O  O16  1  0.75183300  0.13152200  0.90090000  1
  O  O17  1  0.85864000  0.87535800  0.09954000  1
  O  O18  1  0.60312800  0.62574000  0.89773600  1
  O  O19  1  0.71355900  0.37614400  0.10316700  1
  O  O20  1  0.10379000  0.77603700  0.89806200  1
  O  O21  1  0.21383600  0.23127500  0.10382300  1
  O  O22  1  0.32016300  0.84294600  0.68506200  1
  O  O23  1  0.63929700  0.16118200  0.31677800  1
  O  O24  1  0.82036900  0.34656500  0.68522000  1
  O  O25  1  0.13807600  0.65842300  0.31666900  1
