# generated using pymatgen
data_Zn3Co2(Si2O7)2
_symmetry_space_group_name_H-M   'P 1'
_cell_length_a   9.26080206
_cell_length_b   9.26080206
_cell_length_c   9.81465650
_cell_angle_alpha   59.77885908
_cell_angle_beta   59.77885908
_cell_angle_gamma   48.36635751
_symmetry_Int_Tables_number   1
_chemical_formula_structural   Zn3Co2(Si2O7)2
_chemical_formula_sum   'Zn6 Co4 Si8 O28'
_cell_volume   524.68338426
_cell_formula_units_Z   2
loop_
 _symmetry_equiv_pos_site_id
 _symmetry_equiv_pos_as_xyz
  1  'x, y, z'
loop_
 _atom_site_type_symbol
 _atom_site_label
 _atom_site_symmetry_multiplicity
 _atom_site_fract_x
 _atom_site_fract_y
 _atom_site_fract_z
 _atom_site_occupancy
  Zn  Zn0  1  0.06950100  0.26384700  0.11016100  1
  Zn  Zn1  1  0.73615300  0.93049900  0.38983900  1
  Zn  Zn2  1  0.26384700  0.06950100  0.61016100  1
  Zn  Zn3  1  0.38788700  0.61211300  0.75000000  1
  Zn  Zn4  1  0.93049900  0.73615300  0.88983900  1
  Zn  Zn5  1  0.61211300  0.38788700  0.25000000  1
  Co  Co6  1  0.78930800  0.21069200  0.75000000  1
  Co  Co7  1  0.21069200  0.78930800  0.25000000  1
  Co  Co8  1  0.00000000  0.00000000  0.00000000  1
  Co  Co9  1  0.00000000  0.00000000  0.50000000  1
  Si  Si10  1  0.54126400  0.08905500  0.70780800  1
  Si  Si11  1  0.08905500  0.54126400  0.20780800  1
  Si  Si12  1  0.52134900  0.24050300  0.10184700  1
  Si  Si13  1  0.24050300  0.52134900  0.60184700  1
  Si  Si14  1  0.91094500  0.45873600  0.79219200  1
  Si  Si15  1  0.47865100  0.75949700  0.89815300  1
  Si  Si16  1  0.75949700  0.47865100  0.39815300  1
  Si  Si17  1  0.45873600  0.91094500  0.29219200  1
  O  O18  1  0.83257700  0.30198300  0.32869600  1
  O  O19  1  0.97024800  0.88952900  0.41175900  1
  O  O20  1  0.45018400  0.64278400  0.09251900  1
  O  O21  1  0.88952900  0.97024800  0.91175900  1
  O  O22  1  0.23701300  0.98439400  0.30417000  1
  O  O23  1  0.05737400  0.51582000  0.62280800  1
  O  O24  1  0.64278400  0.45018400  0.59251900  1
  O  O25  1  0.01560600  0.76298700  0.19583000  1
  O  O26  1  0.94262600  0.48418000  0.37719200  1
  O  O27  1  0.62362000  0.68154000  0.27361600  1
  O  O28  1  0.02975200  0.11047100  0.58824100  1
  O  O29  1  0.76298700  0.01560600  0.69583000  1
  O  O30  1  0.48418000  0.94262600  0.87719200  1
  O  O31  1  0.30198300  0.83257700  0.82869600  1
  O  O32  1  0.68154000  0.62362000  0.77361600  1
  O  O33  1  0.98439400  0.23701300  0.80417000  1
  O  O34  1  0.91201300  0.48798000  0.94233600  1
  O  O35  1  0.37638000  0.31846000  0.72638400  1
  O  O36  1  0.51202000  0.08798700  0.55766400  1
  O  O37  1  0.31846000  0.37638000  0.22638400  1
  O  O38  1  0.51582000  0.05737400  0.12280800  1
  O  O39  1  0.11047100  0.02975200  0.08824100  1
  O  O40  1  0.48798000  0.91201300  0.44233600  1
  O  O41  1  0.54981600  0.35721600  0.90748100  1
  O  O42  1  0.08798700  0.51202000  0.05766400  1
  O  O43  1  0.35721600  0.54981600  0.40748100  1
  O  O44  1  0.69801700  0.16742300  0.17130400  1
  O  O45  1  0.16742300  0.69801700  0.67130400  1
