# generated using pymatgen
data_Sr3Ca5Mn8O20
_symmetry_space_group_name_H-M   'P 1'
_cell_length_a   7.84251795
_cell_length_b   7.83893555
_cell_length_c   7.72811869
_cell_angle_alpha   88.41948975
_cell_angle_beta   88.15225617
_cell_angle_gamma   90.49589842
_symmetry_Int_Tables_number   1
_chemical_formula_structural   Sr3Ca5Mn8O20
_chemical_formula_sum   'Sr3 Ca5 Mn8 O20'
_cell_volume   474.65214691
_cell_formula_units_Z   1
loop_
 _symmetry_equiv_pos_site_id
 _symmetry_equiv_pos_as_xyz
  1  'x, y, z'
loop_
 _atom_site_type_symbol
 _atom_site_label
 _atom_site_symmetry_multiplicity
 _atom_site_fract_x
 _atom_site_fract_y
 _atom_site_fract_z
 _atom_site_occupancy
  Sr  Sr0  1  0.24974700  0.24607500  0.25076000  1
  Sr  Sr1  1  0.25876400  0.26463700  0.73780800  1
  Sr  Sr2  1  0.75029100  0.26292300  0.25816400  1
  Ca  Ca3  1  0.25983400  0.74091700  0.26443500  1
  Ca  Ca4  1  0.25401100  0.73637200  0.71620700  1
  Ca  Ca5  1  0.73546500  0.25177200  0.72133400  1
  Ca  Ca6  1  0.74068300  0.74319700  0.27746300  1
  Ca  Ca7  1  0.73527500  0.73813100  0.71890600  1
  Mn  Mn8  1  0.00131500  0.99302700  0.99552800  1
  Mn  Mn9  1  0.99887100  0.99730200  0.51882300  1
  Mn  Mn10  1  0.00105500  0.49255200  0.99900500  1
  Mn  Mn11  1  0.00207300  0.50794600  0.49189300  1
  Mn  Mn12  1  0.48720300  0.99490300  0.00496500  1
  Mn  Mn13  1  0.50534100  0.00007900  0.49380900  1
  Mn  Mn14  1  0.50644900  0.50990300  0.99246500  1
  Mn  Mn15  1  0.50064400  0.50257900  0.50302300  1
  O  O16  1  0.93955100  0.93621600  0.77396000  1
  O  O17  1  0.00352400  0.52493700  0.24118800  1
  O  O18  1  0.00907800  0.53045400  0.74857800  1
  O  O19  1  0.53085100  0.01847600  0.24349600  1
  O  O20  1  0.51837800  0.98585100  0.75363500  1
  O  O21  1  0.49909600  0.52527200  0.74702400  1
  O  O22  1  0.22803100  0.96244800  0.06076900  1
  O  O23  1  0.24954400  0.99695100  0.51041800  1
  O  O24  1  0.25670500  0.51446700  0.01193200  1
  O  O25  1  0.25988600  0.50183400  0.47909600  1
  O  O26  1  0.75794200  0.99390900  0.47338700  1
  O  O27  1  0.75156400  0.51934500  0.01957500  1
  O  O28  1  0.74436100  0.50789700  0.48815900  1
  O  O29  1  0.98138100  0.23205000  0.02269100  1
  O  O30  1  0.99427600  0.24910800  0.51213600  1
  O  O31  1  0.00573300  0.76105900  0.45885100  1
  O  O32  1  0.50536800  0.25503800  0.99513300  1
  O  O33  1  0.50523100  0.25838600  0.49937400  1
  O  O34  1  0.52405300  0.74906600  0.04651800  1
  O  O35  1  0.49842400  0.74492100  0.46949300  1
