# generated using pymatgen
data_Sr3(MoN2)2
_symmetry_space_group_name_H-M   'P 1'
_cell_length_a   6.00089658
_cell_length_b   10.56397962
_cell_length_c   9.81565319
_cell_angle_alpha   90.00000000
_cell_angle_beta   90.00000000
_cell_angle_gamma   90.00000000
_symmetry_Int_Tables_number   1
_chemical_formula_structural   Sr3(MoN2)2
_chemical_formula_sum   'Sr12 Mo8 N16'
_cell_volume   622.24713003
_cell_formula_units_Z   4
loop_
 _symmetry_equiv_pos_site_id
 _symmetry_equiv_pos_as_xyz
  1  'x, y, z'
loop_
 _atom_site_type_symbol
 _atom_site_label
 _atom_site_symmetry_multiplicity
 _atom_site_fract_x
 _atom_site_fract_y
 _atom_site_fract_z
 _atom_site_occupancy
  Sr  Sr0  1  0.62157909  0.15844316  0.41945541  1
  Sr  Sr1  1  0.87842091  0.84155684  0.41945541  1
  Sr  Sr2  1  0.62157909  0.34155684  0.08054459  1
  Sr  Sr3  1  0.87842091  0.65844316  0.08054459  1
  Sr  Sr4  1  0.37842091  0.84155684  0.58054459  1
  Sr  Sr5  1  0.12157909  0.15844316  0.58054459  1
  Sr  Sr6  1  0.37842091  0.65844316  0.91945541  1
  Sr  Sr7  1  0.12157909  0.34155684  0.91945541  1
  Sr  Sr8  1  0.75000000  0.50000000  0.39970981  1
  Sr  Sr9  1  0.75000000  -0.00000000  0.10029019  1
  Sr  Sr10  1  0.25000000  0.50000000  0.60029019  1
  Sr  Sr11  1  0.25000000  0.00000000  0.89970981  1
  Mo  Mo12  1  0.75000000  0.50000000  0.73667169  1
  Mo  Mo13  1  0.75000000  -0.00000000  0.76332831  1
  Mo  Mo14  1  0.25000000  0.50000000  0.26332831  1
  Mo  Mo15  1  0.25000000  -0.00000000  0.23667169  1
  Mo  Mo16  1  0.63629839  0.25000000  0.75000000  1
  Mo  Mo17  1  0.86370161  0.75000000  0.75000000  1
  Mo  Mo18  1  0.36370161  0.75000000  0.25000000  1
  Mo  Mo19  1  0.13629839  0.25000000  0.25000000  1
  N  N20  1  0.84773064  0.34921644  0.62670634  1
  N  N21  1  0.65226936  0.65078356  0.62670634  1
  N  N22  1  0.84773064  0.15078356  0.87329366  1
  N  N23  1  0.65226936  0.84921644  0.87329366  1
  N  N24  1  0.15226936  0.65078356  0.37329366  1
  N  N25  1  0.34773064  0.34921644  0.37329366  1
  N  N26  1  0.15226936  0.84921644  0.12670634  1
  N  N27  1  0.34773064  0.15078356  0.12670634  1
  N  N28  1  0.50877557  0.41655040  0.83901695  1
  N  N29  1  0.99122443  0.58344960  0.83901695  1
  N  N30  1  0.50877557  0.08344960  0.66098305  1
  N  N31  1  0.99122443  0.91655040  0.66098305  1
  N  N32  1  0.49122443  0.58344960  0.16098305  1
  N  N33  1  0.00877557  0.41655040  0.16098305  1
  N  N34  1  0.49122443  0.91655040  0.33901695  1
  N  N35  1  0.00877557  0.08344960  0.33901695  1
