# generated using pymatgen
data_Li2Co(Si2O5)2
_symmetry_space_group_name_H-M   'P 1'
_cell_length_a   9.57034800
_cell_length_b   14.53410800
_cell_length_c   6.97047700
_cell_angle_alpha   90.00000000
_cell_angle_beta   90.00000000
_cell_angle_gamma   90.00000000
_symmetry_Int_Tables_number   1
_chemical_formula_structural   Li2Co(Si2O5)2
_chemical_formula_sum   'Li8 Co4 Si16 O40'
_cell_volume   969.56875488
_cell_formula_units_Z   4
loop_
 _symmetry_equiv_pos_site_id
 _symmetry_equiv_pos_as_xyz
  1  'x, y, z'
loop_
 _atom_site_type_symbol
 _atom_site_label
 _atom_site_symmetry_multiplicity
 _atom_site_fract_x
 _atom_site_fract_y
 _atom_site_fract_z
 _atom_site_occupancy
  Li  Li0  1  0.08592500  0.81933000  0.66095300  1
  Li  Li1  1  0.10629300  0.51156000  0.92653600  1
  Li  Li2  1  0.39370700  0.48844000  0.42653600  1
  Li  Li3  1  0.41407500  0.18067000  0.16095300  1
  Li  Li4  1  0.58592500  0.68067000  0.33904700  1
  Li  Li5  1  0.60629300  0.98844000  0.07346400  1
  Li  Li6  1  0.89370700  0.01156000  0.57346400  1
  Li  Li7  1  0.91407500  0.31933000  0.83904700  1
  Co  Co8  1  0.18733900  0.33186700  0.98512100  1
  Co  Co9  1  0.31266100  0.66813300  0.48512100  1
  Co  Co10  1  0.68733900  0.16813300  0.01487900  1
  Co  Co11  1  0.81266100  0.83186700  0.51487900  1
  Si  Si12  1  0.04838200  0.56283800  0.47847200  1
  Si  Si13  1  0.06348700  0.89307300  0.25358300  1
  Si  Si14  1  0.09249800  0.21217900  0.29235500  1
  Si  Si15  1  0.11978000  0.15789700  0.71572300  1
  Si  Si16  1  0.38022000  0.84210300  0.21572300  1
  Si  Si17  1  0.40750200  0.78782100  0.79235500  1
  Si  Si18  1  0.43651300  0.10692700  0.75358300  1
  Si  Si19  1  0.45161800  0.43716200  0.97847200  1
  Si  Si20  1  0.54838200  0.93716200  0.52152800  1
  Si  Si21  1  0.56348700  0.60692700  0.74641700  1
  Si  Si22  1  0.59249800  0.28782100  0.70764500  1
  Si  Si23  1  0.61978000  0.34210300  0.28427700  1
  Si  Si24  1  0.88022000  0.65789700  0.78427700  1
  Si  Si25  1  0.90750200  0.71217900  0.20764500  1
  Si  Si26  1  0.93651300  0.39307300  0.24641700  1
  Si  Si27  1  0.95161800  0.06283800  0.02152800  1
  O  O28  1  0.00022300  0.80207700  0.14383300  1
  O  O29  1  0.99082100  0.15463100  0.14520000  1
  O  O30  1  0.00810500  0.40739000  0.03739400  1
  O  O31  1  0.99809800  0.08287200  0.79301200  1
  O  O32  1  0.04406900  0.97666800  0.09892400  1
  O  O33  1  0.11358000  0.14676700  0.48164200  1
  O  O34  1  0.08997100  0.26130800  0.78720100  1
  O  O35  1  0.21503000  0.54786100  0.46740200  1
  O  O36  1  0.23044600  0.88012200  0.29225700  1
  O  O37  1  0.23758000  0.24152700  0.18916300  1
  O  O38  1  0.26242000  0.75847300  0.68916300  1
  O  O39  1  0.26955400  0.11987800  0.79225700  1
  O  O40  1  0.28497000  0.45213900  0.96740200  1
  O  O41  1  0.41002900  0.73869200  0.28720100  1
  O  O42  1  0.38642000  0.85323300  0.98164200  1
  O  O43  1  0.45593100  0.02333200  0.59892400  1
  O  O44  1  0.50190200  0.91712800  0.29301200  1
  O  O45  1  0.49189500  0.59261000  0.53739400  1
  O  O46  1  0.50917900  0.84536900  0.64520000  1
  O  O47  1  0.49977700  0.19792300  0.64383300  1
  O  O48  1  0.50022300  0.69792300  0.85616700  1
  O  O49  1  0.49082100  0.34536900  0.85480000  1
  O  O50  1  0.50810500  0.09261000  0.96260600  1
  O  O51  1  0.49809800  0.41712800  0.20698800  1
  O  O52  1  0.54406900  0.52333200  0.90107600  1
  O  O53  1  0.61358000  0.35323300  0.51835800  1
  O  O54  1  0.58997100  0.23869200  0.21279900  1
  O  O55  1  0.71503000  0.95213900  0.53259800  1
  O  O56  1  0.73044600  0.61987800  0.70774300  1
  O  O57  1  0.73758000  0.25847300  0.81083700  1
  O  O58  1  0.76242000  0.74152700  0.31083700  1
  O  O59  1  0.76955400  0.38012200  0.20774300  1
  O  O60  1  0.78497000  0.04786100  0.03259800  1
  O  O61  1  0.91002900  0.76130800  0.71279900  1
  O  O62  1  0.88642000  0.64676700  0.01835800  1
  O  O63  1  0.95593100  0.47666900  0.40107600  1
  O  O64  1  0.00190200  0.58287200  0.70698800  1
  O  O65  1  0.99189500  0.90739000  0.46260600  1
  O  O66  1  0.00917900  0.65463100  0.35480000  1
  O  O67  1  0.99977700  0.30207700  0.35616700  1
