# generated using pymatgen
data_AlSb(WO4)2
_symmetry_space_group_name_H-M   'P 1'
_cell_length_a   5.07966684
_cell_length_b   5.39012264
_cell_length_c   6.84197158
_cell_angle_alpha   117.28612622
_cell_angle_beta   119.55156812
_cell_angle_gamma   82.10908728
_symmetry_Int_Tables_number   1
_chemical_formula_structural   AlSb(WO4)2
_chemical_formula_sum   'Al1 Sb1 W2 O8'
_cell_volume   143.87146686
_cell_formula_units_Z   1
loop_
 _symmetry_equiv_pos_site_id
 _symmetry_equiv_pos_as_xyz
  1  'x, y, z'
loop_
 _atom_site_type_symbol
 _atom_site_label
 _atom_site_symmetry_multiplicity
 _atom_site_fract_x
 _atom_site_fract_y
 _atom_site_fract_z
 _atom_site_occupancy
  Al  Al0  1  0.62897600  0.77043800  0.05592400  1
  Sb  Sb1  1  0.14946800  0.30123000  0.15204900  1
  W  W2  1  0.89643000  0.40012600  0.63157100  1
  W  W3  1  0.40480300  0.98801200  0.57493400  1
  O  O4  1  0.21684800  0.67374000  0.89588000  1
  O  O5  1  0.55976900  0.59765100  0.43873200  1
  O  O6  1  0.14144100  0.11841400  0.73363300  1
  O  O7  1  0.57255400  0.04958100  0.34409100  1
  O  O8  1  0.65253600  0.92892400  0.88157900  1
  O  O9  1  0.01202700  0.71327200  0.26862400  1
  O  O10  1  0.10063500  0.25572200  0.41713600  1
  O  O11  1  0.66051200  0.38139100  0.80194400  1
