# generated using pymatgen
data_Ca3Mn2(SiO4)3
_symmetry_space_group_name_H-M   'P 1'
_cell_length_a   10.59098022
_cell_length_b   10.59098019
_cell_length_c   10.59098060
_cell_angle_alpha   107.10356251
_cell_angle_beta   110.66786202
_cell_angle_gamma   110.66786548
_symmetry_Int_Tables_number   1
_chemical_formula_structural   Ca3Mn2(SiO4)3
_chemical_formula_sum   'Ca12 Mn8 Si12 O48'
_cell_volume   913.34091924
_cell_formula_units_Z   4
loop_
 _symmetry_equiv_pos_site_id
 _symmetry_equiv_pos_as_xyz
  1  'x, y, z'
loop_
 _atom_site_type_symbol
 _atom_site_label
 _atom_site_symmetry_multiplicity
 _atom_site_fract_x
 _atom_site_fract_y
 _atom_site_fract_z
 _atom_site_occupancy
  Ca  Ca0  1  0.37887800  0.75000000  0.12887800  1
  Ca  Ca1  1  0.12112200  0.25000000  0.37112200  1
  Ca  Ca2  1  0.37887800  0.12887800  0.25000000  1
  Ca  Ca3  1  0.12112200  0.37112200  0.75000000  1
  Ca  Ca4  1  0.87887800  0.75000000  0.62887800  1
  Ca  Ca5  1  0.75000000  0.12500000  0.37500000  1
  Ca  Ca6  1  0.75000000  0.62500000  0.87500000  1
  Ca  Ca7  1  0.62112200  0.25000000  0.87112200  1
  Ca  Ca8  1  0.25000000  0.87500000  0.62500000  1
  Ca  Ca9  1  0.87887800  0.62887800  0.25000000  1
  Ca  Ca10  1  0.62112200  0.87112200  0.75000000  1
  Ca  Ca11  1  0.25000000  0.37500000  0.12500000  1
  Mn  Mn12  1  0.00000000  0.00000000  0.00000000  1
  Mn  Mn13  1  0.00000000  0.50000000  0.00000000  1
  Mn  Mn14  1  0.00000000  0.00000000  0.50000000  1
  Mn  Mn15  1  0.00000000  0.50000000  0.50000000  1
  Mn  Mn16  1  0.50000000  0.00000000  0.50000000  1
  Mn  Mn17  1  0.50000000  0.50000000  0.00000000  1
  Mn  Mn18  1  0.50000000  0.50000000  0.50000000  1
  Mn  Mn19  1  0.50000000  0.00000000  0.00000000  1
  Si  Si20  1  0.25000000  0.12500000  0.87500000  1
  Si  Si21  1  0.75000000  0.87500000  0.12500000  1
  Si  Si22  1  0.37440000  0.25000000  0.62440000  1
  Si  Si23  1  0.62560000  0.37560000  0.25000000  1
  Si  Si24  1  0.12560000  0.75000000  0.87560000  1
  Si  Si25  1  0.87440000  0.12440000  0.75000000  1
  Si  Si26  1  0.75000000  0.37500000  0.62500000  1
  Si  Si27  1  0.37440000  0.62440000  0.75000000  1
  Si  Si28  1  0.12560000  0.87560000  0.25000000  1
  Si  Si29  1  0.87440000  0.25000000  0.12440000  1
  Si  Si30  1  0.62560000  0.75000000  0.37560000  1
  Si  Si31  1  0.25000000  0.62500000  0.37500000  1
  O  O32  1  0.29897500  0.49398700  0.38696200  1
  O  O33  1  0.01111600  0.29865400  0.89165700  1
  O  O34  1  0.11858300  0.60759400  0.91804000  1
  O  O35  1  0.20102500  0.58798600  0.19501200  1
  O  O36  1  0.20102500  0.11303800  0.00601300  1
  O  O37  1  0.59300400  0.20134600  0.21246200  1
  O  O38  1  0.60702600  0.19501200  0.49398700  1
  O  O39  1  0.18955400  0.20054400  0.58196000  1
  O  O40  1  0.89297400  0.38696200  0.58798600  1
  O  O41  1  0.31044600  0.91804000  0.29945600  1
  O  O42  1  0.90699600  0.28753800  0.29865400  1
  O  O43  1  0.01111600  0.21246200  0.11945700  1
  O  O44  1  0.18955400  0.48901000  0.60759400  1
  O  O45  1  0.59300400  0.89165700  0.38054300  1
  O  O46  1  0.11858300  0.01099000  0.20054400  1
  O  O47  1  0.48888400  0.60834300  0.20134600  1
  O  O48  1  0.38141700  0.58196000  0.89240600  1
  O  O49  1  0.89297400  0.00601300  0.30498800  1
  O  O50  1  0.60702600  0.91201400  0.11303800  1
  O  O51  1  0.10702600  0.61303800  0.41201400  1
  O  O52  1  0.90699600  0.11945700  0.60834300  1
  O  O53  1  0.38141700  0.29945600  0.48901000  1
  O  O54  1  0.31044600  0.89240600  0.01099000  1
  O  O55  1  0.29897500  0.30498800  0.91201400  1
  O  O56  1  0.70102500  0.50601300  0.61303800  1
  O  O57  1  0.98888400  0.70134600  0.10834300  1
  O  O58  1  0.88141700  0.39240600  0.08196000  1
  O  O59  1  0.79897500  0.41201400  0.80498800  1
  O  O60  1  0.79897500  0.88696200  0.99398700  1
  O  O61  1  0.40699600  0.79865400  0.78753800  1
  O  O62  1  0.39297400  0.80498800  0.50601300  1
  O  O63  1  0.81044600  0.79945600  0.41804000  1
  O  O64  1  0.70102500  0.69501200  0.08798600  1
  O  O65  1  0.68955400  0.10759400  0.98901000  1
  O  O66  1  0.61858300  0.70054400  0.51099000  1
  O  O67  1  0.51111600  0.61945700  0.71246200  1
  O  O68  1  0.09300400  0.88054300  0.39165700  1
  O  O69  1  0.39297400  0.08798600  0.88696200  1
  O  O70  1  0.10702600  0.99398700  0.69501200  1
  O  O71  1  0.61858300  0.41804000  0.10759400  1
  O  O72  1  0.51111600  0.39165700  0.79865400  1
  O  O73  1  0.88141700  0.98901000  0.79945600  1
  O  O74  1  0.40699600  0.10834300  0.61945700  1
  O  O75  1  0.81044600  0.51099000  0.39240600  1
  O  O76  1  0.98888400  0.78753800  0.88054300  1
  O  O77  1  0.09300400  0.71246200  0.70134600  1
  O  O78  1  0.68955400  0.08196000  0.70054400  1
  O  O79  1  0.48888400  0.38054300  0.28753800  1
