# generated using pymatgen
data_SrCa7Mn8O22
_symmetry_space_group_name_H-M   'P 1'
_cell_length_a   10.89923102
_cell_length_b   15.60789716
_cell_length_c   10.84352675
_cell_angle_alpha   90.06839730
_cell_angle_beta   90.81462149
_cell_angle_gamma   90.27755642
_symmetry_Int_Tables_number   1
_chemical_formula_structural   SrCa7Mn8O22
_chemical_formula_sum   'Sr4 Ca28 Mn32 O88'
_cell_volume   1844.42698972
_cell_formula_units_Z   4
loop_
 _symmetry_equiv_pos_site_id
 _symmetry_equiv_pos_as_xyz
  1  'x, y, z'
loop_
 _atom_site_type_symbol
 _atom_site_label
 _atom_site_symmetry_multiplicity
 _atom_site_fract_x
 _atom_site_fract_y
 _atom_site_fract_z
 _atom_site_occupancy
  Sr  Sr0  1  0.00417657  0.11713556  0.49953639  1
  Sr  Sr1  1  0.49807247  0.38757607  0.99984419  1
  Sr  Sr2  1  0.23996133  0.38815930  0.26076312  1
  Sr  Sr3  1  0.23076620  0.11634880  0.24259548  1
  Ca  Ca4  1  0.00138231  0.10865971  0.00141829  1
  Ca  Ca5  1  0.01833899  0.62716054  0.49495904  1
  Ca  Ca6  1  0.01848944  0.62726194  0.99599037  1
  Ca  Ca7  1  0.53700032  0.12652418  0.48533108  1
  Ca  Ca8  1  0.54160221  0.12591688  0.98256515  1
  Ca  Ca9  1  0.52263289  0.62550047  0.49813668  1
  Ca  Ca10  1  0.52216827  0.62513822  0.99887478  1
  Ca  Ca11  1  0.49524550  0.39234926  0.50282460  1
  Ca  Ca12  1  0.49224006  0.85717754  0.00125876  1
  Ca  Ca13  1  0.49382740  0.85692304  0.50155425  1
  Ca  Ca14  1  0.96654562  0.38763406  0.99929819  1
  Ca  Ca15  1  0.96291041  0.38635216  0.49812386  1
  Ca  Ca16  1  0.97111657  0.87230347  0.00909445  1
  Ca  Ca17  1  0.97144611  0.87304877  0.50861432  1
  Ca  Ca18  1  0.23100871  0.39531453  0.75640928  1
  Ca  Ca19  1  0.22385167  0.87141312  0.25284886  1
  Ca  Ca20  1  0.22358710  0.87092738  0.75118582  1
  Ca  Ca21  1  0.74230943  0.39281057  0.25322942  1
  Ca  Ca22  1  0.73712271  0.38910979  0.74962631  1
  Ca  Ca23  1  0.74281797  0.86104063  0.25196353  1
  Ca  Ca24  1  0.74170319  0.86173655  0.75006303  1
  Ca  Ca25  1  0.22614847  0.11121080  0.74354720  1
  Ca  Ca26  1  0.26895096  0.62955329  0.25776021  1
  Ca  Ca27  1  0.26943549  0.62928620  0.75827530  1
  Ca  Ca28  1  0.77876031  0.11895612  0.25013893  1
  Ca  Ca29  1  0.78286661  0.11926052  0.75481804  1
  Ca  Ca30  1  0.77143886  0.62586170  0.25404995  1
  Ca  Ca31  1  0.77120903  0.62504211  0.75670541  1
  Mn  Mn32  1  0.99119557  0.99163602  0.25384130  1
  Mn  Mn33  1  0.99242340  0.99123684  0.75515532  1
  Mn  Mn34  1  0.00218489  0.50381531  0.24791123  1
  Mn  Mn35  1  0.00067935  0.50302094  0.74793446  1
  Mn  Mn36  1  0.50997707  0.98296086  0.23239850  1
  Mn  Mn37  1  0.50925441  0.98364157  0.73494959  1
  Mn  Mn38  1  0.49991361  0.50672081  0.25237612  1
  Mn  Mn39  1  0.49689413  0.50584523  0.75059588  1
  Mn  Mn40  1  0.24182601  0.99441793  0.00785483  1
  Mn  Mn41  1  0.24431212  0.99443808  0.51280120  1
  Mn  Mn42  1  0.24960396  0.50691882  0.00379522  1
  Mn  Mn43  1  0.24913955  0.50678764  0.50582043  1
  Mn  Mn44  1  0.74518344  0.99692067  0.99536638  1
  Mn  Mn45  1  0.74300280  0.99812676  0.49632482  1
  Mn  Mn46  1  0.75033477  0.50481420  0.00160275  1
  Mn  Mn47  1  0.74823834  0.50497864  0.50276959  1
  Mn  Mn48  1  0.26163239  0.24023913  0.94887948  1
  Mn  Mn49  1  0.26808902  0.24014516  0.47059575  1
  Mn  Mn50  1  0.25051648  0.75211320  0.00471011  1
  Mn  Mn51  1  0.25094889  0.75201677  0.50524663  1
  Mn  Mn52  1  0.75597934  0.24968104  0.00495819  1
  Mn  Mn53  1  0.74928699  0.25104825  0.50630623  1
  Mn  Mn54  1  0.75103338  0.74730372  0.00084402  1
  Mn  Mn55  1  0.75123665  0.74698342  0.50152757  1
  Mn  Mn56  1  0.98551720  0.25546649  0.25916882  1
  Mn  Mn57  1  0.99229370  0.25534443  0.75978969  1
  Mn  Mn58  1  0.00213420  0.74858456  0.25135129  1
  Mn  Mn59  1  0.00178327  0.74823766  0.75092795  1
  Mn  Mn60  1  0.52556573  0.25781971  0.25876365  1
  Mn  Mn61  1  0.52216708  0.25571106  0.75310344  1
  Mn  Mn62  1  0.50022139  0.74690927  0.25371949  1
  Mn  Mn63  1  0.50026065  0.74635768  0.75380052  1
  O  O64  1  0.10833128  0.77637180  0.10602823  1
  O  O65  1  0.10795452  0.77602865  0.60559392  1
  O  O66  1  0.58372774  0.25133002  0.09709570  1
  O  O67  1  0.58024188  0.25825682  0.59087705  1
  O  O68  1  0.61092089  0.76558144  0.11227884  1
  O  O69  1  0.61083223  0.76474182  0.61239286  1
  O  O70  1  0.40191342  0.20747023  0.35499654  1
  O  O71  1  0.40636687  0.19900497  0.85100957  1
  O  O72  1  0.39801391  0.72929507  0.39958747  1
  O  O73  1  0.39812368  0.72918797  0.89976916  1
  O  O74  1  0.89530718  0.24247058  0.41546993  1
  O  O75  1  0.91172609  0.23759754  0.92355821  1
  O  O76  1  0.89313689  0.72853533  0.39272841  1
  O  O77  1  0.89329713  0.72835096  0.89257936  1
  O  O78  1  0.14300577  0.24258256  0.34304761  1
  O  O79  1  0.16672766  0.24920194  0.79659749  1
  O  O80  1  0.14847585  0.73517642  0.35463776  1
  O  O81  1  0.14775447  0.73430243  0.85465700  1
  O  O82  1  0.65446810  0.21698742  0.35328762  1
  O  O83  1  0.65755622  0.22170655  0.84978463  1
  O  O84  1  0.64484678  0.72605850  0.35820362  1
  O  O85  1  0.64430710  0.72562599  0.85818407  1
  O  O86  1  0.35789122  0.77448246  0.14905719  1
  O  O87  1  0.35799415  0.77361517  0.64949153  1
  O  O88  1  0.84335534  0.27598434  0.15490743  1
  O  O89  1  0.84801876  0.27492500  0.65330330  1
  O  O90  1  0.86023905  0.76789120  0.14145784  1
  O  O91  1  0.86059800  0.76864656  0.64131827  1
  O  O92  1  0.36046482  0.48891071  0.14239271  1
  O  O93  1  0.35428926  0.48838138  0.64709061  1
  O  O94  1  0.35253744  0.99222980  0.15879128  1
  O  O95  1  0.34948735  0.99247704  0.66897201  1
  O  O96  1  0.86034877  0.48342634  0.14020341  1
  O  O97  1  0.85752401  0.48158043  0.64180148  1
  O  O98  1  0.84442185  0.97746545  0.14526759  1
  O  O99  1  0.84597322  0.97904919  0.64699397  1
  O  O100  1  0.14053583  0.00986933  0.36849345  1
  O  O101  1  0.13967551  0.01132434  0.86518904  1
  O  O102  1  0.14594686  0.52018839  0.35636381  1
  O  O103  1  0.14659980  0.51913102  0.85396744  1
  O  O104  1  0.62549381  0.03030346  0.34289637  1
  O  O105  1  0.63048023  0.02875531  0.84233176  1
  O  O106  1  0.64296420  0.52276506  0.35895879  1
  O  O107  1  0.64166835  0.51859114  0.85801372  1
  O  O108  1  0.39435879  0.51680063  0.39696651  1
  O  O109  1  0.39273982  0.52012174  0.89434251  1
  O  O110  1  0.88049231  0.01499716  0.38965000  1
  O  O111  1  0.88593232  0.01464427  0.89392718  1
  O  O112  1  0.89258620  0.51710655  0.39339267  1
  O  O113  1  0.89390156  0.51855364  0.89312064  1
  O  O114  1  0.10689770  0.47997540  0.10438774  1
  O  O115  1  0.10601567  0.47651555  0.60504264  1
  O  O116  1  0.09699158  0.98204709  0.11751858  1
  O  O117  1  0.09843229  0.97987116  0.62009613  1
  O  O118  1  0.61509218  0.48934597  0.11652037  1
  O  O119  1  0.60829193  0.48773272  0.61167444  1
  O  O120  1  0.58817278  0.99101042  0.07763651  1
  O  O121  1  0.58499360  0.99136300  0.57865688  1
  O  O122  1  0.00580954  0.37918297  0.28151212  1
  O  O123  1  0.00849202  0.37865444  0.78587736  1
  O  O124  1  -0.00000900  0.87033250  0.29195880  1
  O  O125  1  0.00038414  0.87057089  0.79314670  1
  O  O126  1  0.50065258  0.37891245  0.27787356  1
  O  O127  1  0.49501516  0.37741420  0.76930408  1
  O  O128  1  0.51799620  0.86951702  0.29128222  1
  O  O129  1  0.51855351  0.86916851  0.79080575  1
  O  O130  1  0.48630167  0.62781731  0.21300006  1
  O  O131  1  0.48689211  0.62710821  0.71186569  1
  O  O132  1  0.99468636  0.13242896  0.21628582  1
  O  O133  1  0.00001370  0.13035261  0.72799608  1
  O  O134  1  0.99457762  0.62512410  0.21246911  1
  O  O135  1  0.99368495  0.62442261  0.71103103  1
  O  O136  1  0.23759827  0.12869004  0.01663238  1
  O  O137  1  0.25481277  0.12542497  0.53176031  1
  O  O138  1  0.23648087  0.63234405  0.04038933  1
  O  O139  1  0.23648459  0.63200220  0.54056148  1
  O  O140  1  0.75075744  0.12380080  0.03614639  1
  O  O141  1  0.74639381  0.12559505  0.54156770  1
  O  O142  1  0.74462978  0.62572607  0.03763360  1
  O  O143  1  0.74473274  0.62513962  0.54068465  1
  O  O144  1  0.28202625  0.35603272  0.49734846  1
  O  O145  1  0.26726820  0.35575427  0.98583335  1
  O  O146  1  0.28166240  0.88117159  0.46443993  1
  O  O147  1  0.27957901  0.88080472  0.96162323  1
  O  O148  1  0.74064870  0.37681476  0.46874649  1
  O  O149  1  0.74645569  0.37498114  0.96679575  1
  O  O150  1  0.74814531  0.87274549  0.46624200  1
  O  O151  1  0.74932848  0.87280312  0.96378298  1
