# generated using pymatgen
data_Li2V(Si2O5)3
_symmetry_space_group_name_H-M   'P 1'
_cell_length_a   7.24074200
_cell_length_b   7.44053777
_cell_length_c   15.29571011
_cell_angle_alpha   75.41063469
_cell_angle_beta   90.00000000
_cell_angle_gamma   60.88436262
_symmetry_Int_Tables_number   1
_chemical_formula_structural   Li2V(Si2O5)3
_chemical_formula_sum   'Li4 V2 Si12 O30'
_cell_volume   689.35546763
_cell_formula_units_Z   2
loop_
 _symmetry_equiv_pos_site_id
 _symmetry_equiv_pos_as_xyz
  1  'x, y, z'
loop_
 _atom_site_type_symbol
 _atom_site_label
 _atom_site_symmetry_multiplicity
 _atom_site_fract_x
 _atom_site_fract_y
 _atom_site_fract_z
 _atom_site_occupancy
  Li  Li0  1  0.85570800  0.81878100  0.92857400  1
  Li  Li1  1  0.35439200  0.60193800  0.84653900  1
  Li  Li2  1  0.32551100  0.81878100  0.42857400  1
  Li  Li3  1  0.04367000  0.60193800  0.34653900  1
  V  V4  1  0.32048000  0.90450400  0.90992500  1
  V  V5  1  0.77501700  0.90450400  0.40992500  1
  Si  Si6  1  0.63987700  0.79878500  0.74567400  1
  Si  Si7  1  0.07280400  0.88653500  0.57129200  1
  Si  Si8  1  0.56133700  0.79878500  0.24567400  1
  Si  Si9  1  0.04066200  0.88653500  0.07129200  1
  Si  Si10  1  0.16755100  0.47323900  0.55293600  1
  Si  Si11  1  0.00495400  0.34243200  0.74237600  1
  Si  Si12  1  0.35921000  0.47323900  0.05293600  1
  Si  Si13  1  0.65261400  0.34243200  0.24237600  1
  Si  Si14  1  0.92929900  0.98316600  0.75521100  1
  Si  Si15  1  0.41278300  0.02382500  0.53913100  1
  Si  Si16  1  0.08753600  0.98316600  0.25521100  1
  Si  Si17  1  0.56339200  0.02382500  0.03913100  1
  O  O18  1  0.55846300  0.91834400  0.95842000  1
  O  O19  1  0.07448500  0.85463900  0.85534100  1
  O  O20  1  0.06030900  0.86582500  0.67980400  1
  O  O21  1  0.47425000  0.78043700  0.81155100  1
  O  O22  1  0.54331200  0.86981800  0.63912500  1
  O  O23  1  0.52319200  0.91834400  0.45842000  1
  O  O24  1  0.43388700  0.59756200  0.97067100  1
  O  O25  1  0.07087500  0.85463900  0.35534100  1
  O  O26  1  0.86121900  0.56655700  0.76656300  1
  O  O27  1  0.07386600  0.86582500  0.17980400  1
  O  O28  1  0.74531300  0.78043700  0.31155100  1
  O  O29  1  0.24810600  0.64373400  0.56128600  1
  O  O30  1  0.58687000  0.86981800  0.13912500  1
  O  O31  1  0.96855100  0.59756200  0.47067100  1
  O  O32  1  0.11453300  0.38230000  0.65222400  1
  O  O33  1  0.57222400  0.56655700  0.26656300  1
  O  O34  1  0.18699500  0.17607900  0.83027700  1
  O  O35  1  0.85943500  0.23794300  0.72382700  1
  O  O36  1  0.10816000  0.64373400  0.06128600  1
  O  O37  1  0.36176800  0.27040600  0.52505200  1
  O  O38  1  0.50316700  0.38230000  0.15222400  1
  O  O39  1  0.71115900  0.96697400  0.76462400  1
  O  O40  1  0.63692600  0.17607900  0.33027700  1
  O  O41  1  0.90262100  0.23794300  0.22382700  1
  O  O42  1  0.17938900  0.03392000  0.52877500  1
  O  O43  1  0.84495000  0.97333700  0.51370900  1
  O  O44  1  0.36782800  0.27040600  0.02505200  1
  O  O45  1  0.32186500  0.96697400  0.26462400  1
  O  O46  1  0.78669100  0.03392000  0.02877500  1
  O  O47  1  0.18171300  0.97333700  0.01370900  1
