# generated using pymatgen
data_Sr8Cr3N8
_symmetry_space_group_name_H-M   'P 1'
_cell_length_a   9.91809874
_cell_length_b   5.34588653
_cell_length_c   7.61048089
_cell_angle_alpha   89.99999686
_cell_angle_beta   74.02022149
_cell_angle_gamma   74.36538800
_symmetry_Int_Tables_number   1
_chemical_formula_structural   Sr8Cr3N8
_chemical_formula_sum   'Sr8 Cr3 N8'
_cell_volume   372.36851636
_cell_formula_units_Z   1
loop_
 _symmetry_equiv_pos_site_id
 _symmetry_equiv_pos_as_xyz
  1  'x, y, z'
loop_
 _atom_site_type_symbol
 _atom_site_label
 _atom_site_symmetry_multiplicity
 _atom_site_fract_x
 _atom_site_fract_y
 _atom_site_fract_z
 _atom_site_occupancy
  Sr  Sr0  1  0.05925900  0.97037100  0.72997000  1
  Sr  Sr1  1  0.94074100  0.02962900  0.27003000  1
  Sr  Sr2  1  0.66692100  0.66653900  0.46912100  1
  Sr  Sr3  1  0.33307900  0.33346100  0.53087900  1
  Sr  Sr4  1  0.80519200  0.59740500  0.95239900  1
  Sr  Sr5  1  0.19480800  0.40259500  0.04760100  1
  Sr  Sr6  1  0.60296600  0.19851700  0.80143700  1
  Sr  Sr7  1  0.39703400  0.80148300  0.19856300  1
  Cr  Cr8  1  0.00000000  0.50000000  0.50000000  1
  Cr  Cr9  1  0.37392400  0.81303800  0.79681200  1
  Cr  Cr10  1  0.62607600  0.18696200  0.20318800  1
  N  N11  1  0.21557200  0.89221500  0.98430800  1
  N  N12  1  0.78442800  0.10778500  0.01569200  1
  N  N13  1  0.35965800  0.82017100  0.57585800  1
  N  N14  1  0.64034200  0.17982900  0.42414200  1
  N  N15  1  0.54589500  0.72705300  0.83243400  1
  N  N16  1  0.45410500  0.27294700  0.16756600  1
  N  N17  1  0.05107700  0.47446100  0.70882800  1
  N  N18  1  0.94892300  0.52553900  0.29117200  1
