# generated using pymatgen
data_KAl2P2H4O11
_symmetry_space_group_name_H-M   'P 1'
_cell_length_a   9.01917500
_cell_length_b   9.85650400
_cell_length_c   10.22726800
_cell_angle_alpha   90.00000000
_cell_angle_beta   89.99922593
_cell_angle_gamma   90.00000000
_symmetry_Int_Tables_number   1
_chemical_formula_structural   KAl2P2H4O11
_chemical_formula_sum   'K4 Al8 P8 H16 O44'
_cell_volume   909.17890946
_cell_formula_units_Z   4
loop_
 _symmetry_equiv_pos_site_id
 _symmetry_equiv_pos_as_xyz
  1  'x, y, z'
loop_
 _atom_site_type_symbol
 _atom_site_label
 _atom_site_symmetry_multiplicity
 _atom_site_fract_x
 _atom_site_fract_y
 _atom_site_fract_z
 _atom_site_occupancy
  K  K0  1  0.25618200  0.00025900  0.38659900  1
  K  K1  1  0.24382200  0.99974800  0.88660000  1
  K  K2  1  0.75617800  0.49974700  0.61339900  1
  K  K3  1  0.74381900  0.50025900  0.11339900  1
  Al  Al4  1  0.08015400  0.71168400  0.63739400  1
  Al  Al5  1  0.13197500  0.51279700  0.17166100  1
  Al  Al6  1  0.36802700  0.48720200  0.67166000  1
  Al  Al7  1  0.41984500  0.28831600  0.13739400  1
  Al  Al8  1  0.58015500  0.78831600  0.36260600  1
  Al  Al9  1  0.63197300  0.98720200  0.82834000  1
  Al  Al10  1  0.86802500  0.01279700  0.32833900  1
  Al  Al11  1  0.91984600  0.21168400  0.86260600  1
  P  P12  1  0.08254900  0.50924400  0.85864000  1
  P  P13  1  0.08284500  0.20089800  0.14547600  1
  P  P14  1  0.41715400  0.79910200  0.64548100  1
  P  P15  1  0.41745200  0.49075500  0.35863900  1
  P  P16  1  0.58254800  0.99075500  0.14136000  1
  P  P17  1  0.58284600  0.29910200  0.85452000  1
  P  P18  1  0.91715500  0.70089800  0.35452400  1
  P  P19  1  0.91745000  0.00924400  0.64136000  1
  H  H20  1  0.04891900  0.40042600  0.46452700  1
  H  H21  1  0.00521600  0.75920200  0.98411000  1
  H  H22  1  0.18754300  0.28590300  0.70793900  1
  H  H23  1  0.15919700  0.77272300  0.13515500  1
  H  H24  1  0.34080800  0.22727600  0.63515000  1
  H  H25  1  0.31245900  0.71409900  0.20794400  1
  H  H26  1  0.49478900  0.24079400  0.48410900  1
  H  H27  1  0.45108000  0.59957100  0.96452700  1
  H  H28  1  0.54892000  0.09957100  0.53547300  1
  H  H29  1  0.50521200  0.74079400  0.01589200  1
  H  H30  1  0.68754200  0.21409900  0.29205600  1
  H  H31  1  0.65919200  0.72727600  0.86485000  1
  H  H32  1  0.84080400  0.27272300  0.36484500  1
  H  H33  1  0.81245700  0.78590300  0.79206100  1
  H  H34  1  0.99478400  0.25920200  0.51589000  1
  H  H35  1  0.95108100  0.90042600  0.03547300  1
  O  O36  1  0.03442400  0.36430400  0.81974700  1
  O  O37  1  0.02504000  0.09351000  0.24174000  1
  O  O38  1  0.99661100  0.61958500  0.77707200  1
  O  O39  1  0.02727200  0.17004100  0.00553100  1
  O  O40  1  0.04700900  0.54182500  0.00294900  1
  O  O41  1  0.03502800  0.34404800  0.18642700  1
  O  O42  1  0.04019900  0.84641800  0.01788600  1
  O  O43  1  0.19261300  0.55626000  0.60833500  1
  O  O44  1  0.22444300  0.69395900  0.15460300  1
  O  O45  1  0.25501600  0.18045100  0.14342200  1
  O  O46  1  0.25187300  0.52347300  0.83003400  1
  O  O47  1  0.24813000  0.47652700  0.33003800  1
  O  O48  1  0.24498400  0.81954800  0.64343200  1
  O  O49  1  0.27555900  0.30604100  0.65460400  1
  O  O50  1  0.30739100  0.44374000  0.10833700  1
  O  O51  1  0.45980300  0.15358300  0.51789200  1
  O  O52  1  0.46497100  0.65595300  0.68643100  1
  O  O53  1  0.45299200  0.45817600  0.50294700  1
  O  O54  1  0.47272800  0.82995900  0.50553500  1
  O  O55  1  0.50338800  0.38041700  0.27707200  1
  O  O56  1  0.47495900  0.90648900  0.74174500  1
  O  O57  1  0.46557600  0.63569300  0.31974600  1
  O  O58  1  0.53442300  0.13569200  0.18025400  1
  O  O59  1  0.52504200  0.40648800  0.75825500  1
  O  O60  1  0.49661300  0.88041600  0.22292600  1
  O  O61  1  0.52727200  0.32996000  0.99446600  1
  O  O62  1  0.54700700  0.95817600  0.99705300  1
  O  O63  1  0.53502900  0.15595300  0.81356900  1
  O  O64  1  0.54019700  0.65358300  0.98210800  1
  O  O65  1  0.69260900  0.94374100  0.39166300  1
  O  O66  1  0.72444100  0.80604100  0.84539600  1
  O  O67  1  0.75501600  0.31954800  0.85656800  1
  O  O68  1  0.75187000  0.97652700  0.16996100  1
  O  O69  1  0.74812600  0.02347300  0.66996500  1
  O  O70  1  0.74498400  0.68045200  0.35657800  1
  O  O71  1  0.77555700  0.19395900  0.34539700  1
  O  O72  1  0.80738700  0.05626000  0.89166400  1
  O  O73  1  0.95980100  0.34641800  0.48211400  1
  O  O74  1  0.96497100  0.84404800  0.31357300  1
  O  O75  1  0.95299000  0.04182500  0.49705100  1
  O  O76  1  0.97272800  0.67004100  0.49447000  1
  O  O77  1  0.00338800  0.11958600  0.72292800  1
  O  O78  1  0.97496100  0.59351000  0.25826000  1
  O  O79  1  0.96557600  0.86430400  0.68025400  1
