# generated using pymatgen
data_CaCu(SiO3)2
_symmetry_space_group_name_H-M   'P 1'
_cell_length_a   5.42280700
_cell_length_b   9.71025400
_cell_length_c   19.04297600
_cell_angle_alpha   90.00000000
_cell_angle_beta   90.00000000
_cell_angle_gamma   90.00000000
_symmetry_Int_Tables_number   1
_chemical_formula_structural   CaCu(SiO3)2
_chemical_formula_sum   'Ca8 Cu8 Si16 O48'
_cell_volume   1002.74281397
_cell_formula_units_Z   8
loop_
 _symmetry_equiv_pos_site_id
 _symmetry_equiv_pos_as_xyz
  1  'x, y, z'
loop_
 _atom_site_type_symbol
 _atom_site_label
 _atom_site_symmetry_multiplicity
 _atom_site_fract_x
 _atom_site_fract_y
 _atom_site_fract_z
 _atom_site_occupancy
  Ca  Ca0  1  0.60884500  0.14640500  0.37701400  1
  Ca  Ca1  1  0.39115500  0.85359500  0.62298600  1
  Ca  Ca2  1  0.60884500  0.64640500  0.12298600  1
  Ca  Ca3  1  0.10884500  0.85359500  0.12298600  1
  Ca  Ca4  1  0.89115500  0.14640500  0.87701400  1
  Ca  Ca5  1  0.39115500  0.35359500  0.87701400  1
  Ca  Ca6  1  0.10884500  0.35359500  0.37701400  1
  Ca  Ca7  1  0.89115500  0.64640500  0.62298600  1
  Cu  Cu8  1  0.38231400  0.98696000  0.87500100  1
  Cu  Cu9  1  0.61768600  0.01304000  0.12499900  1
  Cu  Cu10  1  0.88231400  0.01304000  0.62499900  1
  Cu  Cu11  1  0.11768600  0.98696000  0.37500100  1
  Cu  Cu12  1  0.38231400  0.48696000  0.62499900  1
  Cu  Cu13  1  0.61768600  0.51304000  0.37500100  1
  Cu  Cu14  1  0.88231400  0.51304000  0.87500100  1
  Cu  Cu15  1  0.11768600  0.48696000  0.12499900  1
  Si  Si16  1  0.57344900  0.66682600  0.77677100  1
  Si  Si17  1  0.75765300  0.83328800  0.47454400  1
  Si  Si18  1  0.74234700  0.83328800  0.97454400  1
  Si  Si19  1  0.92655100  0.16682600  0.22322900  1
  Si  Si20  1  0.07344900  0.33317400  0.72322900  1
  Si  Si21  1  0.42655100  0.83317400  0.27677100  1
  Si  Si22  1  0.25765300  0.66671200  0.47454400  1
  Si  Si23  1  0.75765300  0.33328800  0.02545600  1
  Si  Si24  1  0.74234700  0.33328800  0.52545600  1
  Si  Si25  1  0.92655100  0.66682600  0.27677100  1
  Si  Si26  1  0.42655100  0.33317400  0.22322900  1
  Si  Si27  1  0.57344900  0.16682600  0.72322900  1
  Si  Si28  1  0.24234700  0.16671200  0.52545600  1
  Si  Si29  1  0.07344900  0.83317400  0.77677100  1
  Si  Si30  1  0.24234700  0.66671200  0.97454400  1
  Si  Si31  1  0.25765300  0.16671200  0.02545600  1
  O  O32  1  0.90383900  0.51779900  0.31630300  1
  O  O33  1  0.32475200  0.03073200  0.07126200  1
  O  O34  1  0.09616100  0.48220100  0.68369700  1
  O  O35  1  0.75656600  0.35203000  0.93971700  1
  O  O36  1  0.25656600  0.14797000  0.93971700  1
  O  O37  1  0.96853200  0.21373000  0.04487500  1
  O  O38  1  0.94649400  0.66020100  0.19197800  1
  O  O39  1  0.05350600  0.83979900  0.69197800  1
  O  O40  1  0.75656600  0.85203000  0.56028300  1
  O  O41  1  0.94649400  0.16020100  0.30802200  1
  O  O42  1  0.40383900  0.48220100  0.18369700  1
  O  O43  1  0.74343400  0.35203000  0.43971700  1
  O  O44  1  0.67524800  0.96926800  0.92873800  1
  O  O45  1  0.44649400  0.83979900  0.19197800  1
  O  O46  1  0.59616100  0.01779900  0.68369700  1
  O  O47  1  0.32475200  0.53073200  0.42873800  1
  O  O48  1  0.40383900  0.98220100  0.31630300  1
  O  O49  1  0.16642400  0.75816200  0.30514900  1
  O  O50  1  0.33357600  0.75816200  0.80514900  1
  O  O51  1  0.53146800  0.71373000  0.95512500  1
  O  O52  1  0.74343400  0.85203000  0.06028300  1
  O  O53  1  0.55350600  0.66020100  0.69197800  1
  O  O54  1  0.82475200  0.46926800  0.07126200  1
  O  O55  1  0.16642400  0.25816200  0.19485100  1
  O  O56  1  0.24343400  0.14797000  0.43971700  1
  O  O57  1  0.55350600  0.16020100  0.80802200  1
  O  O58  1  0.67524800  0.46926800  0.57126200  1
  O  O59  1  0.25656600  0.64797000  0.56028300  1
  O  O60  1  0.17524800  0.53073200  0.92873800  1
  O  O61  1  0.66642400  0.74183800  0.30514900  1
  O  O62  1  0.09616100  0.98220100  0.81630300  1
  O  O63  1  0.83357600  0.74183800  0.80514900  1
  O  O64  1  0.83357600  0.24183800  0.69485100  1
  O  O65  1  0.82475200  0.96926800  0.42873800  1
  O  O66  1  0.24343400  0.64797000  0.06028300  1
  O  O67  1  0.17524800  0.03073200  0.57126200  1
  O  O68  1  0.33357600  0.25816200  0.69485100  1
  O  O69  1  0.03146800  0.78627000  0.95512500  1
  O  O70  1  0.46853200  0.78627000  0.45512500  1
  O  O71  1  0.66642400  0.24183800  0.19485100  1
  O  O72  1  0.46853200  0.28627000  0.04487500  1
  O  O73  1  0.53146800  0.21373000  0.54487500  1
  O  O74  1  0.03146800  0.28627000  0.54487500  1
  O  O75  1  0.44649400  0.33979900  0.30802200  1
  O  O76  1  0.59616100  0.51779900  0.81630300  1
  O  O77  1  0.96853200  0.71373000  0.45512500  1
  O  O78  1  0.05350600  0.33979900  0.80802200  1
  O  O79  1  0.90383900  0.01779900  0.18369700  1
