# generated using pymatgen
data_Mg3Si4(NiO7)2
_symmetry_space_group_name_H-M   'P 1'
_cell_length_a   9.24079732
_cell_length_b   9.24079732
_cell_length_c   9.66681504
_cell_angle_alpha   58.80249321
_cell_angle_beta   58.80249321
_cell_angle_gamma   47.55797102
_symmetry_Int_Tables_number   1
_chemical_formula_structural   Mg3Si4(NiO7)2
_chemical_formula_sum   'Mg6 Si8 Ni4 O28'
_cell_volume   502.18160342
_cell_formula_units_Z   2
loop_
 _symmetry_equiv_pos_site_id
 _symmetry_equiv_pos_as_xyz
  1  'x, y, z'
loop_
 _atom_site_type_symbol
 _atom_site_label
 _atom_site_symmetry_multiplicity
 _atom_site_fract_x
 _atom_site_fract_y
 _atom_site_fract_z
 _atom_site_occupancy
  Mg  Mg0  1  0.09447600  0.25076000  0.10121200  1
  Mg  Mg1  1  0.74924000  0.90552400  0.39878800  1
  Mg  Mg2  1  0.25076000  0.09447600  0.60121200  1
  Mg  Mg3  1  0.37817400  0.62182600  0.75000000  1
  Mg  Mg4  1  0.90552400  0.74924000  0.89878800  1
  Mg  Mg5  1  0.62182600  0.37817400  0.25000000  1
  Si  Si6  1  0.53720100  0.09874000  0.70579800  1
  Si  Si7  1  0.09874000  0.53720100  0.20579800  1
  Si  Si8  1  0.53220100  0.22771200  0.10124800  1
  Si  Si9  1  0.22771200  0.53220100  0.60124800  1
  Si  Si10  1  0.90126000  0.46279900  0.79420200  1
  Si  Si11  1  0.46779900  0.77228900  0.89875200  1
  Si  Si12  1  0.77228900  0.46779900  0.39875200  1
  Si  Si13  1  0.46279900  0.90126000  0.29420200  1
  Ni  Ni14  1  0.78125800  0.21874200  0.75000000  1
  Ni  Ni15  1  0.21874200  0.78125800  0.25000000  1
  Ni  Ni16  1  0.00000000  0.00000000  0.00000000  1
  Ni  Ni17  1  0.00000000  0.00000000  0.50000000  1
  O  O18  1  0.85063200  0.29225300  0.32553700  1
  O  O19  1  0.97960300  0.87734500  0.41790800  1
  O  O20  1  0.46115000  0.63248100  0.09044700  1
  O  O21  1  0.87734500  0.97960300  0.91790800  1
  O  O22  1  0.24160800  0.97079500  0.30600900  1
  O  O23  1  0.05763300  0.50892300  0.61770900  1
  O  O24  1  0.63248100  0.46115000  0.59044700  1
  O  O25  1  0.02920500  0.75839200  0.19399100  1
  O  O26  1  0.94236700  0.49107700  0.38229100  1
  O  O27  1  0.64162500  0.67406900  0.26318300  1
  O  O28  1  0.02039700  0.12265500  0.58209200  1
  O  O29  1  0.75839200  0.02920500  0.69399100  1
  O  O30  1  0.49107700  0.94236700  0.88229100  1
  O  O31  1  0.29225300  0.85063200  0.82553700  1
  O  O32  1  0.67406900  0.64162500  0.76318300  1
  O  O33  1  0.97079500  0.24160800  0.80600900  1
  O  O34  1  0.91003600  0.48302700  0.94540600  1
  O  O35  1  0.35837500  0.32593100  0.73681700  1
  O  O36  1  0.51697300  0.08996400  0.55459400  1
  O  O37  1  0.32593100  0.35837500  0.23681700  1
  O  O38  1  0.50892300  0.05763300  0.11770900  1
  O  O39  1  0.12265500  0.02039700  0.08209200  1
  O  O40  1  0.48302700  0.91003600  0.44540600  1
  O  O41  1  0.53885000  0.36751900  0.90955300  1
  O  O42  1  0.08996400  0.51697300  0.05459400  1
  O  O43  1  0.36751900  0.53885000  0.40955300  1
  O  O44  1  0.70774700  0.14936800  0.17446300  1
  O  O45  1  0.14936800  0.70774700  0.67446300  1
