# generated using pymatgen
data_Fe3O4
_symmetry_space_group_name_H-M   'P 1'
_cell_length_a   6.07397757
_cell_length_b   6.06343856
_cell_length_c   10.50651222
_cell_angle_alpha   89.34312783
_cell_angle_beta   72.73995396
_cell_angle_gamma   59.80948284
_symmetry_Int_Tables_number   1
_chemical_formula_structural   Fe3O4
_chemical_formula_sum   'Fe12 O16'
_cell_volume   314.92018922
_cell_formula_units_Z   4
loop_
 _symmetry_equiv_pos_site_id
 _symmetry_equiv_pos_as_xyz
  1  'x, y, z'
loop_
 _atom_site_type_symbol
 _atom_site_label
 _atom_site_symmetry_multiplicity
 _atom_site_fract_x
 _atom_site_fract_y
 _atom_site_fract_z
 _atom_site_occupancy
  Fe  Fe0  1  0.49910400  0.74862800  0.75096300  1
  Fe  Fe1  1  0.50243800  0.99737200  0.49692900  1
  Fe  Fe2  1  0.99870900  0.25056600  0.75070800  1
  Fe  Fe3  1  0.49967800  0.74743800  0.24688700  1
  Fe  Fe4  1  0.49936200  0.25159700  0.75195700  1
  Fe  Fe5  1  0.12606500  0.19384500  0.06259900  1
  Fe  Fe6  1  0.12391000  0.69513300  0.56358500  1
  Fe  Fe7  1  0.87461200  0.30732200  0.43778000  1
  Fe  Fe8  1  0.87480000  0.80519700  0.93690600  1
  Fe  Fe9  1  0.49973400  0.25110000  0.24909000  1
  Fe  Fe10  1  0.49840100  0.50251600  0.00134600  1
  Fe  Fe11  1  0.00163000  0.74912400  0.24918500  1
  O  O12  1  0.25506000  0.38142900  0.12600900  1
  O  O13  1  0.24756500  0.89579600  0.62564200  1
  O  O14  1  0.73568600  0.11846400  0.38216500  1
  O  O15  1  0.76320400  0.60356300  0.86667200  1
  O  O16  1  0.74022800  0.86941900  0.12999600  1
  O  O17  1  0.75351700  0.36354500  0.63398300  1
  O  O18  1  0.73857900  0.39147200  0.13235300  1
  O  O19  1  0.72675300  0.89072300  0.62636800  1
  O  O20  1  0.26682000  0.10763700  0.37824800  1
  O  O21  1  0.26642100  0.61094500  0.86380900  1
  O  O22  1  0.25924600  0.87288600  0.13079600  1
  O  O23  1  0.25790600  0.35555500  0.62779100  1
  O  O24  1  0.25838300  0.63162600  0.37185200  1
  O  O25  1  0.24881900  0.13548500  0.86410000  1
  O  O26  1  0.72821000  0.64356300  0.38049400  1
  O  O27  1  0.75516100  0.12805400  0.86178500  1
