# generated using pymatgen
data_Y(FeO2)2
_symmetry_space_group_name_H-M   'P 1'
_cell_length_a   3.51352579
_cell_length_b   8.80436770
_cell_length_c   6.12630561
_cell_angle_alpha   104.11920638
_cell_angle_beta   89.99942655
_cell_angle_gamma   89.99879096
_symmetry_Int_Tables_number   1
_chemical_formula_structural   Y(FeO2)2
_chemical_formula_sum   'Y2 Fe4 O8'
_cell_volume   183.78827856
_cell_formula_units_Z   2
loop_
 _symmetry_equiv_pos_site_id
 _symmetry_equiv_pos_as_xyz
  1  'x, y, z'
loop_
 _atom_site_type_symbol
 _atom_site_label
 _atom_site_symmetry_multiplicity
 _atom_site_fract_x
 _atom_site_fract_y
 _atom_site_fract_z
 _atom_site_occupancy
  Y  Y0  1  0.50000000  0.00485300  0.50528700  1
  Y  Y1  1  0.00000500  0.99518300  0.99470600  1
  Fe  Fe2  1  0.49994700  0.35811600  0.29030900  1
  Fe  Fe3  1  0.00003100  0.64186000  0.20958800  1
  Fe  Fe4  1  0.99996700  0.35889800  0.78750200  1
  Fe  Fe5  1  0.50002000  0.64112000  0.71256300  1
  O  O6  1  0.50000400  0.61502000  0.35564200  1
  O  O7  1  0.00000900  0.61272300  0.89111400  1
  O  O8  1  0.50000000  0.38729900  0.60893200  1
  O  O9  1  0.00000500  0.38490900  0.14436000  1
  O  O10  1  0.50000100  0.12830400  0.20901200  1
  O  O11  1  0.99999000  0.12142700  0.71235600  1
  O  O12  1  0.50001400  0.87860900  0.78762600  1
  O  O13  1  0.00000700  0.87168000  0.29100300  1
