# generated using pymatgen
data_Ba2YMn3O7
_symmetry_space_group_name_H-M   'P 1'
_cell_length_a   5.67364743
_cell_length_b   12.47106267
_cell_length_c   5.67367569
_cell_angle_alpha   77.35976319
_cell_angle_beta   92.18390399
_cell_angle_gamma   77.35989222
_symmetry_Int_Tables_number   1
_chemical_formula_structural   Ba2YMn3O7
_chemical_formula_sum   'Ba4 Y2 Mn6 O14'
_cell_volume   380.66323207
_cell_formula_units_Z   2
loop_
 _symmetry_equiv_pos_site_id
 _symmetry_equiv_pos_as_xyz
  1  'x, y, z'
loop_
 _atom_site_type_symbol
 _atom_site_label
 _atom_site_symmetry_multiplicity
 _atom_site_fract_x
 _atom_site_fract_y
 _atom_site_fract_z
 _atom_site_occupancy
  Ba  Ba0  1  0.59074400  0.81843800  0.09073500  1
  Ba  Ba1  1  0.09075200  0.81843800  0.59077000  1
  Ba  Ba2  1  0.90911000  0.18183800  0.40912900  1
  Ba  Ba3  1  0.40909100  0.18183800  0.90908900  1
  Y  Y4  1  0.75011800  0.49981000  0.25009400  1
  Y  Y5  1  0.25010200  0.49981000  0.75008700  1
  Mn  Mn6  1  0.00011800  0.99978000  0.00013800  1
  Mn  Mn7  1  0.82646800  0.34712300  0.82646300  1
  Mn  Mn8  1  0.32597400  0.34812200  0.32595900  1
  Mn  Mn9  1  0.49971600  0.00054900  0.49969700  1
  Mn  Mn10  1  0.17358100  0.65279000  0.17356700  1
  Mn  Mn11  1  0.67418000  0.65159100  0.67415700  1
  O  O12  1  0.76578900  0.00041000  0.23388200  1
  O  O13  1  0.23382600  0.00041100  0.76584500  1
  O  O14  1  0.94072700  0.61860100  0.94069900  1
  O  O15  1  0.44066300  0.61857900  0.44063900  1
  O  O16  1  0.55963400  0.38118800  0.55961300  1
  O  O17  1  0.05923600  0.38119400  0.05921600  1
  O  O18  1  0.93981000  0.62052700  0.43960800  1
  O  O19  1  0.43962700  0.62053300  0.93978800  1
  O  O20  1  0.56068400  0.37906000  0.06029700  1
  O  O21  1  0.06030600  0.37905200  0.56068500  1
  O  O22  1  0.08263000  0.83465900  0.08268200  1
  O  O23  1  0.58523000  0.82938600  0.58522700  1
  O  O24  1  0.91710500  0.16575900  0.91716300  1
  O  O25  1  0.41477800  0.17051100  0.41477500  1
