# generated using pymatgen
data_Mn2Bi3O7
_symmetry_space_group_name_H-M   'P 1'
_cell_length_a   5.80791902
_cell_length_b   5.86709700
_cell_length_c   10.71502926
_cell_angle_alpha   105.88514525
_cell_angle_beta   90.00685182
_cell_angle_gamma   89.99777968
_symmetry_Int_Tables_number   1
_chemical_formula_structural   Mn2Bi3O7
_chemical_formula_sum   'Mn4 Bi6 O14'
_cell_volume   351.17816730
_cell_formula_units_Z   2
loop_
 _symmetry_equiv_pos_site_id
 _symmetry_equiv_pos_as_xyz
  1  'x, y, z'
loop_
 _atom_site_type_symbol
 _atom_site_label
 _atom_site_symmetry_multiplicity
 _atom_site_fract_x
 _atom_site_fract_y
 _atom_site_fract_z
 _atom_site_occupancy
  Mn  Mn0  1  0.51162700  0.62746400  0.78563300  1
  Mn  Mn1  1  0.51143800  0.84184000  0.21434600  1
  Mn  Mn2  1  0.00324700  0.37877400  0.20804500  1
  Mn  Mn3  1  0.00311400  0.17048600  0.79167300  1
  Bi  Bi4  1  0.41681200  0.12739200  0.00007600  1
  Bi  Bi5  1  0.91327900  0.83369200  0.00008100  1
  Bi  Bi6  1  0.03889300  0.96973200  0.37335200  1
  Bi  Bi7  1  0.03906400  0.59632200  0.62667200  1
  Bi  Bi8  1  0.53354500  0.05228500  0.62945600  1
  Bi  Bi9  1  0.53340000  0.42301000  0.37058700  1
  O  O10  1  0.53515600  0.75328600  0.00000000  1
  O  O11  1  0.03340600  0.20826100  0.99998700  1
  O  O12  1  0.42705300  0.07966400  0.43609800  1
  O  O13  1  0.42700900  0.64349400  0.56394800  1
  O  O14  1  0.93571100  0.95098300  0.57591100  1
  O  O15  1  0.93567300  0.37518100  0.42410600  1
  O  O16  1  0.27688000  0.63218400  0.25533100  1
  O  O17  1  0.27711500  0.37679300  0.74468700  1
  O  O18  1  0.75256000  0.39532200  0.73888900  1
  O  O19  1  0.75229800  0.65670000  0.26116300  1
  O  O20  1  0.27941400  0.07335600  0.18605400  1
  O  O21  1  0.27960100  0.88725100  0.81395800  1
  O  O22  1  0.76192500  0.88025700  0.81421600  1
  O  O23  1  0.76177900  0.06627000  0.18573100  1
