# generated using pymatgen
data_Sr3Co2(ClO2)2
_symmetry_space_group_name_H-M   'P 1'
_cell_length_a   4.22010704
_cell_length_b   11.68436621
_cell_length_c   7.85242915
_cell_angle_alpha   99.59253563
_cell_angle_beta   90.00905881
_cell_angle_gamma   79.60684143
_symmetry_Int_Tables_number   1
_chemical_formula_structural   Sr3Co2(ClO2)2
_chemical_formula_sum   'Sr6 Co4 Cl4 O8'
_cell_volume   375.34123437
_cell_formula_units_Z   2
loop_
 _symmetry_equiv_pos_site_id
 _symmetry_equiv_pos_as_xyz
  1  'x, y, z'
loop_
 _atom_site_type_symbol
 _atom_site_label
 _atom_site_symmetry_multiplicity
 _atom_site_fract_x
 _atom_site_fract_y
 _atom_site_fract_z
 _atom_site_occupancy
  Sr  Sr0  1  0.99959500  0.00002100  0.49995300  1
  Sr  Sr1  1  0.00032600  0.00002000  0.00004800  1
  Sr  Sr2  1  0.14832200  0.70336900  0.42064700  1
  Sr  Sr3  1  0.14981000  0.70015600  0.93037600  1
  Sr  Sr4  1  0.85154000  0.29661200  0.57931200  1
  Sr  Sr5  1  0.85036500  0.29987500  0.06970500  1
  Co  Co6  1  0.41615000  0.16767800  0.29210200  1
  Co  Co7  1  0.58377200  0.83230600  0.70790300  1
  Co  Co8  1  0.42576200  0.14848500  0.78767200  1
  Co  Co9  1  0.57416100  0.85157400  0.21241800  1
  Cl  Cl10  1  0.30423600  0.39159700  0.35149900  1
  Cl  Cl11  1  0.29376800  0.41270300  0.84719200  1
  Cl  Cl12  1  0.69583100  0.60843400  0.64852200  1
  Cl  Cl13  1  0.70639500  0.58720900  0.15274100  1
  O  O14  1  0.07916500  0.84180200  0.71073200  1
  O  O15  1  0.07785000  0.84435200  0.21067000  1
  O  O16  1  0.57499800  0.85005200  0.45661300  1
  O  O17  1  0.57628500  0.84765000  0.96719500  1
  O  O18  1  0.92086000  0.15819800  0.28925200  1
  O  O19  1  0.92217500  0.15562700  0.78933800  1
  O  O20  1  0.42490700  0.14988500  0.54327000  1
  O  O21  1  0.42372500  0.15239600  0.03283900  1
