# generated using pymatgen
data_Ca2FeWO6
_symmetry_space_group_name_H-M   'P 1'
_cell_length_a   5.64459419
_cell_length_b   5.61574329
_cell_length_c   9.69364846
_cell_angle_alpha   106.06759764
_cell_angle_beta   105.91568016
_cell_angle_gamma   60.00246172
_symmetry_Int_Tables_number   1
_chemical_formula_structural   Ca2FeWO6
_chemical_formula_sum   'Ca4 Fe2 W2 O12'
_cell_volume   252.28909481
_cell_formula_units_Z   2
loop_
 _symmetry_equiv_pos_site_id
 _symmetry_equiv_pos_as_xyz
  1  'x, y, z'
loop_
 _atom_site_type_symbol
 _atom_site_label
 _atom_site_symmetry_multiplicity
 _atom_site_fract_x
 _atom_site_fract_y
 _atom_site_fract_z
 _atom_site_occupancy
  Ca  Ca0  1  0.40879900  0.39383600  0.13576800  1
  Ca  Ca1  1  0.91060600  0.89490000  0.63691400  1
  Ca  Ca2  1  0.65453800  0.64014500  0.88451800  1
  Ca  Ca3  1  0.15770800  0.13962200  0.38495500  1
  Fe  Fe4  1  0.25497600  0.23924900  0.75076200  1
  Fe  Fe5  1  0.75645800  0.73769200  0.25123300  1
  W  W6  1  0.99699100  0.98183800  0.99932500  1
  W  W7  1  0.49835500  0.48214600  0.49847000  1
  O  O8  1  0.89217700  0.30728400  0.57054100  1
  O  O9  1  0.39078700  0.80432700  0.07063000  1
  O  O10  1  0.52546600  0.68076200  0.37265600  1
  O  O11  1  0.02334700  0.18002200  0.87454900  1
  O  O12  1  0.41520600  0.79061700  0.66031400  1
  O  O13  1  0.91465700  0.28547900  0.16107600  1
  O  O14  1  0.09606200  0.62949800  0.42785600  1
  O  O15  1  0.59551100  0.12610200  0.92707300  1
  O  O16  1  0.54578400  0.17207300  0.33318100  1
  O  O17  1  0.04623300  0.66720500  0.83365000  1
  O  O18  1  0.46017200  0.25663200  0.60777600  1
  O  O19  1  0.95689700  0.75553200  0.10910700  1
