# generated using pymatgen
data_FePH6NO5
_symmetry_space_group_name_H-M   'P 1'
_cell_length_a   4.85908944
_cell_length_b   5.70511839
_cell_length_c   9.03602628
_cell_angle_alpha   89.94673216
_cell_angle_beta   90.17351795
_cell_angle_gamma   91.10128190
_symmetry_Int_Tables_number   1
_chemical_formula_structural   FePH6NO5
_chemical_formula_sum   'Fe2 P2 H12 N2 O10'
_cell_volume   250.44631930
_cell_formula_units_Z   2
loop_
 _symmetry_equiv_pos_site_id
 _symmetry_equiv_pos_as_xyz
  1  'x, y, z'
loop_
 _atom_site_type_symbol
 _atom_site_label
 _atom_site_symmetry_multiplicity
 _atom_site_fract_x
 _atom_site_fract_y
 _atom_site_fract_z
 _atom_site_occupancy
  Fe  Fe0  1  0.00748400  0.99926800  0.97748200  1
  Fe  Fe1  1  0.50372100  0.49936000  0.02298500  1
  P  P2  1  0.07365400  0.49909300  0.80408300  1
  P  P3  1  0.57630600  0.00147400  0.19541900  1
  H  H4  1  0.80948200  0.49998800  0.54414100  1
  H  H5  1  0.30805900  0.99961600  0.45530800  1
  H  H6  1  0.45294000  0.49812800  0.54842300  1
  H  H7  1  0.95108900  0.99840200  0.45108100  1
  H  H8  1  0.62483100  0.65123900  0.41586800  1
  H  H9  1  0.62221200  0.35239000  0.41367200  1
  H  H10  1  0.12269500  0.85147900  0.58528500  1
  H  H11  1  0.12612700  0.15025200  0.58393500  1
  H  H12  1  0.08349300  0.63877600  0.19301500  1
  H  H13  1  0.06245000  0.36412500  0.18960900  1
  H  H14  1  0.56872300  0.86347300  0.81096400  1
  H  H15  1  0.58037500  0.13831200  0.80898100  1
  N  N16  1  0.62769600  0.50014200  0.47988600  1
  N  N17  1  0.12744600  0.00018800  0.51960400  1
  O  O18  1  0.76452200  0.49720600  0.83384000  1
  O  O19  1  0.26617400  0.99714500  0.16536200  1
  O  O20  1  0.12668300  0.49930600  0.63416600  1
  O  O21  1  0.62811600  0.99260000  0.36553600  1
  O  O22  1  0.19408900  0.49692200  0.20336700  1
  O  O23  1  0.69503200  0.99925000  0.79603900  1
  O  O24  1  0.22513800  0.71499100  0.87920800  1
  O  O25  1  0.21653800  0.28143600  0.87790500  1
  O  O26  1  0.72246800  0.78988600  0.11741300  1
  O  O27  1  0.72185800  0.22555500  0.12742400  1
