# generated using pymatgen
data_Mg3FeO4
_symmetry_space_group_name_H-M   'P 1'
_cell_length_a   3.04265284
_cell_length_b   10.09958494
_cell_length_c   5.21414730
_cell_angle_alpha   93.81852360
_cell_angle_beta   89.95728618
_cell_angle_gamma   98.63857306
_symmetry_Int_Tables_number   1
_chemical_formula_structural   Mg3FeO4
_chemical_formula_sum   'Mg6 Fe2 O8'
_cell_volume   158.05195466
_cell_formula_units_Z   2
loop_
 _symmetry_equiv_pos_site_id
 _symmetry_equiv_pos_as_xyz
  1  'x, y, z'
loop_
 _atom_site_type_symbol
 _atom_site_label
 _atom_site_symmetry_multiplicity
 _atom_site_fract_x
 _atom_site_fract_y
 _atom_site_fract_z
 _atom_site_occupancy
  Mg  Mg0  1  0.25000800  0.50001300  0.75007900  1
  Mg  Mg1  1  0.74995400  0.50000400  0.24995800  1
  Mg  Mg2  1  0.12565900  0.25372300  0.38179100  1
  Mg  Mg3  1  0.62598200  0.25362600  0.88189700  1
  Mg  Mg4  1  0.37400000  0.74633500  0.11794300  1
  Mg  Mg5  1  0.87440600  0.74626600  0.61824900  1
  Fe  Fe6  1  0.50001400  0.00001900  0.50004500  1
  Fe  Fe7  1  0.99991100  0.00002200  0.99991400  1
  O  O8  1  0.43371800  0.86608800  0.79616900  1
  O  O9  1  0.93342400  0.86693400  0.29651500  1
  O  O10  1  0.06671400  0.13302300  0.70350900  1
  O  O11  1  0.56631200  0.13388300  0.20388200  1
  O  O12  1  0.31466200  0.62309300  0.43348900  1
  O  O13  1  0.81471700  0.62304600  0.93362800  1
  O  O14  1  0.18528400  0.37696800  0.06636100  1
  O  O15  1  0.68523500  0.37695800  0.56657000  1
