# generated using pymatgen
data_YCr(WO4)2
_symmetry_space_group_name_H-M   'P 1'
_cell_length_a   5.13184004
_cell_length_b   10.95564426
_cell_length_c   6.11020334
_cell_angle_alpha   81.35368599
_cell_angle_beta   69.08711774
_cell_angle_gamma   81.04074061
_symmetry_Int_Tables_number   1
_chemical_formula_structural   YCr(WO4)2
_chemical_formula_sum   'Y2 Cr2 W4 O16'
_cell_volume   315.31051630
_cell_formula_units_Z   2
loop_
 _symmetry_equiv_pos_site_id
 _symmetry_equiv_pos_as_xyz
  1  'x, y, z'
loop_
 _atom_site_type_symbol
 _atom_site_label
 _atom_site_symmetry_multiplicity
 _atom_site_fract_x
 _atom_site_fract_y
 _atom_site_fract_z
 _atom_site_occupancy
  Y  Y0  1  0.51231500  0.35251500  0.75264100  1
  Y  Y1  1  0.51242900  0.85257200  0.25261600  1
  Cr  Cr2  1  0.03251200  0.61163000  0.48629900  1
  Cr  Cr3  1  0.03242500  0.11155000  0.98644400  1
  W  W4  1  0.29488200  0.69768400  0.88751700  1
  W  W5  1  0.77051800  0.52993100  0.08970500  1
  W  W6  1  0.29475400  0.19769600  0.38760400  1
  W  W7  1  0.77043100  0.02993000  0.58980700  1
  O  O8  1  0.30186200  0.34672800  0.48817100  1
  O  O9  1  0.30197100  0.84667500  0.98822500  1
  O  O10  1  0.26230800  0.23161600  0.07003700  1
  O  O11  1  0.26234500  0.73160800  0.56995300  1
  O  O12  1  0.37810300  0.10353300  0.69096400  1
  O  O13  1  0.37812000  0.60347400  0.19077800  1
  O  O14  1  0.16831300  0.01999300  0.38867500  1
  O  O15  1  0.16838500  0.51999600  0.88862500  1
  O  O16  1  0.79453300  0.48738000  0.38753000  1
  O  O17  1  0.79445200  0.98732600  0.88761600  1
  O  O18  1  0.72786500  0.38438400  0.00097000  1
  O  O19  1  0.72788800  0.88440400  0.50097500  1
  O  O20  1  0.68881300  0.11816200  0.27546800  1
  O  O21  1  0.68904900  0.61816800  0.77538700  1
  O  O22  1  0.86776900  0.20576800  0.58887700  1
  O  O23  1  0.86776300  0.70577700  0.08880900  1
