# generated using pymatgen
data_Co2PO5
_symmetry_space_group_name_H-M   'P 1'
_cell_length_a   5.38046622
_cell_length_b   5.37981775
_cell_length_c   7.22921208
_cell_angle_alpha   110.23563235
_cell_angle_beta   113.70498007
_cell_angle_gamma   89.80610218
_symmetry_Int_Tables_number   1
_chemical_formula_structural   Co2PO5
_chemical_formula_sum   'Co4 P2 O10'
_cell_volume   177.51905862
_cell_formula_units_Z   2
loop_
 _symmetry_equiv_pos_site_id
 _symmetry_equiv_pos_as_xyz
  1  'x, y, z'
loop_
 _atom_site_type_symbol
 _atom_site_label
 _atom_site_symmetry_multiplicity
 _atom_site_fract_x
 _atom_site_fract_y
 _atom_site_fract_z
 _atom_site_occupancy
  Co  Co0  1  0.00000000  0.00000000  0.50000000  1
  Co  Co1  1  0.50000000  0.00000000  0.50000000  1
  Co  Co2  1  0.00000000  0.00000000  0.00000000  1
  Co  Co3  1  0.00000000  0.50000000  0.00000000  1
  P  P4  1  0.63133600  0.37884100  0.24975900  1
  P  P5  1  0.36866400  0.62115900  0.75024100  1
  O  O6  1  0.15542800  0.90322300  0.24930300  1
  O  O7  1  0.84457200  0.09677700  0.75069700  1
  O  O8  1  0.82458600  0.31591800  0.13367500  1
  O  O9  1  0.30132100  0.78330600  0.60042400  1
  O  O10  1  0.31537400  0.31324600  0.62715900  1
  O  O11  1  0.32114200  0.29559300  0.09360400  1
  O  O12  1  0.17541400  0.68408200  0.86632400  1
  O  O13  1  0.69867900  0.21669300  0.39957600  1
  O  O14  1  0.68462600  0.68675400  0.37284100  1
  O  O15  1  0.67885700  0.70440800  0.90639600  1
