# generated using pymatgen
data_Na(CoO2)3
_symmetry_space_group_name_H-M   'P 1'
_cell_length_a   4.90009501
_cell_length_b   5.91252481
_cell_length_c   8.46932236
_cell_angle_alpha   89.99996518
_cell_angle_beta   89.99998473
_cell_angle_gamma   73.67293110
_symmetry_Int_Tables_number   1
_chemical_formula_structural   Na(CoO2)3
_chemical_formula_sum   'Na2 Co6 O12'
_cell_volume   235.47739868
_cell_formula_units_Z   2
loop_
 _symmetry_equiv_pos_site_id
 _symmetry_equiv_pos_as_xyz
  1  'x, y, z'
loop_
 _atom_site_type_symbol
 _atom_site_label
 _atom_site_symmetry_multiplicity
 _atom_site_fract_x
 _atom_site_fract_y
 _atom_site_fract_z
 _atom_site_occupancy
  Na  Na0  1  0.00000000  0.49999900  0.17155200  1
  Na  Na1  1  0.50000100  0.50000000  0.66389200  1
  Co  Co2  1  0.00000000  0.00000000  0.66608200  1
  Co  Co3  1  0.50000000  0.00000000  0.83332600  1
  Co  Co4  1  0.50000000  0.00000000  0.49937200  1
  Co  Co5  1  0.50000000  0.00000000  0.16681000  1
  Co  Co6  1  0.00000000  0.00000000  0.33408600  1
  Co  Co7  1  0.00000000  0.00000000  0.99947100  1
  O  O8  1  0.78192000  0.17095000  0.16558600  1
  O  O9  1  0.27541200  0.17125800  0.66925300  1
  O  O10  1  0.21807900  0.82905000  0.16558700  1
  O  O11  1  0.72458800  0.82874200  0.66925300  1
  O  O12  1  0.27204100  0.16957200  0.99807600  1
  O  O13  1  0.77818000  0.17074700  0.50256600  1
  O  O14  1  0.27129300  0.17055100  0.33249800  1
  O  O15  1  0.77356400  0.17202200  0.83139100  1
  O  O16  1  0.72870700  0.82944900  0.33249800  1
  O  O17  1  0.22643600  0.82797900  0.83139100  1
  O  O18  1  0.72795900  0.83042700  0.99807600  1
  O  O19  1  0.22182000  0.82925400  0.50256600  1
