# generated using pymatgen
data_Sr2VMoO6
_symmetry_space_group_name_H-M   'P 1'
_cell_length_a   5.67268159
_cell_length_b   5.70570084
_cell_length_c   7.91512601
_cell_angle_alpha   89.99458537
_cell_angle_beta   89.99836085
_cell_angle_gamma   89.93323985
_symmetry_Int_Tables_number   1
_chemical_formula_structural   Sr2VMoO6
_chemical_formula_sum   'Sr4 V2 Mo2 O12'
_cell_volume   256.18573310
_cell_formula_units_Z   2
loop_
 _symmetry_equiv_pos_site_id
 _symmetry_equiv_pos_as_xyz
  1  'x, y, z'
loop_
 _atom_site_type_symbol
 _atom_site_label
 _atom_site_symmetry_multiplicity
 _atom_site_fract_x
 _atom_site_fract_y
 _atom_site_fract_z
 _atom_site_occupancy
  Sr  Sr0  1  0.49985900  0.00296000  0.23052600  1
  Sr  Sr1  1  0.99999000  0.49699900  0.23051400  1
  Sr  Sr2  1  0.50007900  0.99699300  0.76949900  1
  Sr  Sr3  1  0.00008600  0.50303900  0.76948400  1
  V  V4  1  0.49994500  0.49997500  0.99982500  1
  V  V5  1  0.00004300  0.99985100  0.00013600  1
  Mo  Mo6  1  0.00000300  0.00006600  0.49994700  1
  Mo  Mo7  1  0.50000200  0.50000200  0.50000000  1
  O  O8  1  0.00321600  0.95237100  0.23822300  1
  O  O9  1  0.49692000  0.54761400  0.23822300  1
  O  O10  1  0.99677300  0.04765500  0.76182600  1
  O  O11  1  0.50308600  0.45238900  0.76171700  1
  O  O12  1  0.25006500  0.24998000  0.02030900  1
  O  O13  1  0.74995100  0.75000400  0.97968400  1
  O  O14  1  0.24997300  0.74994800  0.97713100  1
  O  O15  1  0.75001600  0.25004000  0.02286600  1
  O  O16  1  0.24947100  0.25055100  0.46704600  1
  O  O17  1  0.75050000  0.74950800  0.53300700  1
  O  O18  1  0.25053400  0.75062600  0.53808200  1
  O  O19  1  0.74948700  0.24942900  0.46195500  1
