# generated using pymatgen
data_Nd3Fe29
_symmetry_space_group_name_H-M   'P 1'
_cell_length_a   6.47937181
_cell_length_b   6.47937146
_cell_length_c   10.50996188
_cell_angle_alpha   85.39888516
_cell_angle_beta   85.39888917
_cell_angle_gamma   82.94232024
_symmetry_Int_Tables_number   1
_chemical_formula_structural   Nd3Fe29
_chemical_formula_sum   'Nd3 Fe29'
_cell_volume   435.37198825
_cell_formula_units_Z   1
loop_
 _symmetry_equiv_pos_site_id
 _symmetry_equiv_pos_as_xyz
  1  'x, y, z'
loop_
 _atom_site_type_symbol
 _atom_site_label
 _atom_site_symmetry_multiplicity
 _atom_site_fract_x
 _atom_site_fract_y
 _atom_site_fract_z
 _atom_site_occupancy
  Nd  Nd0  1  0.81335900  0.81335900  0.59925800  1
  Nd  Nd1  1  0.18664100  0.18664100  0.40074200  1
  Nd  Nd2  1  0.00000000  0.00000000  0.00000000  1
  Fe  Fe3  1  0.50000000  0.00000000  0.00000000  1
  Fe  Fe4  1  0.00000000  0.50000000  0.00000000  1
  Fe  Fe5  1  0.81109500  0.31616500  0.59624900  1
  Fe  Fe6  1  0.50000000  0.50000000  0.50000000  1
  Fe  Fe7  1  0.29184200  0.29184200  0.85996100  1
  Fe  Fe8  1  0.70815800  0.70815800  0.14003900  1
  Fe  Fe9  1  0.52097600  0.52097600  0.74718400  1
  Fe  Fe10  1  0.47902400  0.47902400  0.25281600  1
  Fe  Fe11  1  0.31626500  0.86570900  0.19609300  1
  Fe  Fe12  1  0.13429100  0.68373500  0.80390700  1
  Fe  Fe13  1  0.68373500  0.13429100  0.80390700  1
  Fe  Fe14  1  0.86570900  0.31626500  0.19609300  1
  Fe  Fe15  1  0.53974500  0.83044700  0.37509200  1
  Fe  Fe16  1  0.16955300  0.46025500  0.62490800  1
  Fe  Fe17  1  0.46025500  0.16955300  0.62490800  1
  Fe  Fe18  1  0.83044700  0.53974500  0.37509200  1
  Fe  Fe19  1  0.63992600  0.36007400  0.00000000  1
  Fe  Fe20  1  0.36007400  0.63992600  0.00000000  1
  Fe  Fe21  1  0.28021300  0.28021300  0.10626100  1
  Fe  Fe22  1  0.71978700  0.71978700  0.89373900  1
  Fe  Fe23  1  0.09711800  0.59112100  0.19764700  1
  Fe  Fe24  1  0.40887900  0.90288200  0.80235300  1
  Fe  Fe25  1  0.90288200  0.40887900  0.80235300  1
  Fe  Fe26  1  0.59112100  0.09711800  0.19764700  1
  Fe  Fe27  1  0.90447000  0.90447000  0.29096000  1
  Fe  Fe28  1  0.09553000  0.09553000  0.70904000  1
  Fe  Fe29  1  0.31616500  0.81109500  0.59624900  1
  Fe  Fe30  1  0.18890500  0.68383500  0.40375100  1
  Fe  Fe31  1  0.68383500  0.18890500  0.40375100  1
