# generated using pymatgen
data_K2ZrF6
_symmetry_space_group_name_H-M   'P 1'
_cell_length_a   6.76125508
_cell_length_b   6.76125508
_cell_length_c   7.01592400
_cell_angle_alpha   90.00000000
_cell_angle_beta   90.00000000
_cell_angle_gamma   120.63656967
_symmetry_Int_Tables_number   1
_chemical_formula_structural   K2ZrF6
_chemical_formula_sum   'K4 Zr2 F12'
_cell_volume   275.96148568
_cell_formula_units_Z   2
loop_
 _symmetry_equiv_pos_site_id
 _symmetry_equiv_pos_as_xyz
  1  'x, y, z'
loop_
 _atom_site_type_symbol
 _atom_site_label
 _atom_site_symmetry_multiplicity
 _atom_site_fract_x
 _atom_site_fract_y
 _atom_site_fract_z
 _atom_site_occupancy
  K  K0  1  0.65706400  0.34293600  0.50090100  1
  K  K1  1  0.34293600  0.65706400  0.49909900  1
  K  K2  1  0.34293600  0.65706400  0.00090100  1
  K  K3  1  0.65706400  0.34293600  0.99909900  1
  Zr  Zr4  1  0.05084000  0.94916000  0.25000000  1
  Zr  Zr5  1  0.94916000  0.05084000  0.75000000  1
  F  F6  1  0.90085500  0.09914500  0.04596700  1
  F  F7  1  0.09914500  0.90085500  0.95403300  1
  F  F8  1  0.09914500  0.90085500  0.54596700  1
  F  F9  1  0.90085500  0.09914500  0.45403300  1
  F  F10  1  0.99286900  0.38665400  0.75000000  1
  F  F11  1  0.38665400  0.99286900  0.25000000  1
  F  F12  1  0.71831600  0.69970200  0.75000000  1
  F  F13  1  0.69970200  0.71831600  0.25000000  1
  F  F14  1  0.28168400  0.30029800  0.25000000  1
  F  F15  1  0.30029800  0.28168400  0.75000000  1
  F  F16  1  0.61334600  0.00713100  0.75000000  1
  F  F17  1  0.00713100  0.61334600  0.25000000  1
