# generated using pymatgen
data_Ca2Fe3O8
_symmetry_space_group_name_H-M   'P 1'
_cell_length_a   6.12547773
_cell_length_b   9.14207854
_cell_length_c   6.83040048
_cell_angle_alpha   76.50196077
_cell_angle_beta   116.64112173
_cell_angle_gamma   109.47803339
_symmetry_Int_Tables_number   1
_chemical_formula_structural   Ca2Fe3O8
_chemical_formula_sum   'Ca4 Fe6 O16'
_cell_volume   320.72272764
_cell_formula_units_Z   2
loop_
 _symmetry_equiv_pos_site_id
 _symmetry_equiv_pos_as_xyz
  1  'x, y, z'
loop_
 _atom_site_type_symbol
 _atom_site_label
 _atom_site_symmetry_multiplicity
 _atom_site_fract_x
 _atom_site_fract_y
 _atom_site_fract_z
 _atom_site_occupancy
  Ca  Ca0  1  0.72263000  0.89197900  0.55168100  1
  Ca  Ca1  1  0.72081500  0.39186300  0.05183200  1
  Ca  Ca2  1  0.27736200  0.10833100  0.44824300  1
  Ca  Ca3  1  0.27954500  0.60825900  0.94852000  1
  Fe  Fe4  1  0.99578500  0.25004100  0.75010200  1
  Fe  Fe5  1  0.26233700  0.49992100  0.49936000  1
  Fe  Fe6  1  0.26340500  0.99985000  0.00047700  1
  Fe  Fe7  1  0.99806700  0.74995200  0.25068500  1
  Fe  Fe8  1  0.73696400  0.49876000  0.50030200  1
  Fe  Fe9  1  0.73798000  0.00045300  0.99981300  1
  O  O10  1  0.39883700  0.37774900  0.39850900  1
  O  O11  1  0.40433700  0.87937000  0.89855700  1
  O  O12  1  0.62529400  0.62061900  0.59960100  1
  O  O13  1  0.62392600  0.12167600  0.10158600  1
  O  O14  1  0.88842300  0.35187400  0.45449100  1
  O  O15  1  0.89082200  0.85075800  0.95354400  1
  O  O16  1  0.08984800  0.64923400  0.54673100  1
  O  O17  1  0.08285200  0.14784900  0.04477600  1
  O  O18  1  0.31567700  0.90049300  0.30652600  1
  O  O19  1  0.31466000  0.39920500  0.80700200  1
  O  O20  1  0.89272300  0.90040600  0.31000100  1
  O  O21  1  0.89307800  0.40066300  0.81001800  1
  O  O22  1  0.10916600  0.10046800  0.69369800  1
  O  O23  1  0.10821900  0.59953400  0.19229300  1
  O  O24  1  0.68360100  0.10031100  0.68976600  1
  O  O25  1  0.68364200  0.60038300  0.19188000  1
