# generated using pymatgen
data_TmAl3(BO3)4
_symmetry_space_group_name_H-M   'P 1'
_cell_length_a   5.91260939
_cell_length_b   5.91260939
_cell_length_c   5.91260903
_cell_angle_alpha   104.33874635
_cell_angle_beta   104.33874635
_cell_angle_gamma   104.33874097
_symmetry_Int_Tables_number   1
_chemical_formula_structural   TmAl3(BO3)4
_chemical_formula_sum   'Tm1 Al3 B4 O12'
_cell_volume   183.20815383
_cell_formula_units_Z   1
loop_
 _symmetry_equiv_pos_site_id
 _symmetry_equiv_pos_as_xyz
  1  'x, y, z'
loop_
 _atom_site_type_symbol
 _atom_site_label
 _atom_site_symmetry_multiplicity
 _atom_site_fract_x
 _atom_site_fract_y
 _atom_site_fract_z
 _atom_site_occupancy
  Tm  Tm0  1  0.00000000  0.00000000  0.00000000  1
  Al  Al1  1  0.44500000  0.00000000  0.55500000  1
  Al  Al2  1  0.55500000  0.44500000  0.00000000  1
  Al  Al3  1  0.00000000  0.55500000  0.44500000  1
  B  B4  1  0.94418700  0.05581300  0.50000000  1
  B  B5  1  0.50000000  0.94418700  0.05581300  1
  B  B6  1  0.05581300  0.50000000  0.94418700  1
  B  B7  1  0.50000000  0.50000000  0.50000000  1
  O  O8  1  0.90762200  0.50000000  0.09237800  1
  O  O9  1  0.50000000  0.09237800  0.90762200  1
  O  O10  1  0.09237800  0.90762200  0.50000000  1
  O  O11  1  0.64869200  0.50000000  0.35130800  1
  O  O12  1  0.50000000  0.35130800  0.64869200  1
  O  O13  1  0.35130800  0.64869200  0.50000000  1
  O  O14  1  0.02871400  0.63100500  0.78175800  1
  O  O15  1  0.63100500  0.78175800  0.02871400  1
  O  O16  1  0.78175800  0.02871400  0.63100500  1
  O  O17  1  0.36899500  0.97128600  0.21824200  1
  O  O18  1  0.97128600  0.21824200  0.36899500  1
  O  O19  1  0.21824200  0.36899500  0.97128600  1
