# generated using pymatgen
data_V3(O2F)2
_symmetry_space_group_name_H-M   'P 1'
_cell_length_a   4.67742535
_cell_length_b   9.18194904
_cell_length_c   4.70493563
_cell_angle_alpha   91.10227946
_cell_angle_beta   90.16534160
_cell_angle_gamma   89.53331413
_symmetry_Int_Tables_number   1
_chemical_formula_structural   V3(O2F)2
_chemical_formula_sum   'V6 O8 F4'
_cell_volume   202.02216896
_cell_formula_units_Z   2
loop_
 _symmetry_equiv_pos_site_id
 _symmetry_equiv_pos_as_xyz
  1  'x, y, z'
loop_
 _atom_site_type_symbol
 _atom_site_label
 _atom_site_symmetry_multiplicity
 _atom_site_fract_x
 _atom_site_fract_y
 _atom_site_fract_z
 _atom_site_occupancy
  V  V0  1  0.99878700  0.00067700  0.99708000  1
  V  V1  1  0.50014500  0.50030000  0.49862700  1
  V  V2  1  0.53122200  0.84528100  0.45815000  1
  V  V3  1  0.97651900  0.34612600  0.96445700  1
  V  V4  1  0.03141100  0.65837900  0.02405600  1
  V  V5  1  0.47550300  0.16204200  0.53272700  1
  O  O6  1  0.80852300  0.48647200  0.19422100  1
  O  O7  1  0.30305600  0.99566000  0.30726700  1
  O  O8  1  0.68948000  0.99372100  0.70523900  1
  O  O9  1  0.19358800  0.49681500  0.79637700  1
  O  O10  1  0.80944900  0.83077800  0.19802600  1
  O  O11  1  0.32293600  0.67185200  0.31380500  1
  O  O12  1  0.68755100  0.33294300  0.68868400  1
  O  O13  1  0.17240900  0.17469600  0.82268900  1
  F  F14  1  0.78141900  0.17044400  0.20300200  1
  F  F15  1  0.28846600  0.33156900  0.29607600  1
  F  F16  1  0.71178000  0.67342900  0.70301700  1
  F  F17  1  0.21775600  0.82881700  0.79650200  1
