# generated using pymatgen
data_Sr3ZnCoO6
_symmetry_space_group_name_H-M   'P 1'
_cell_length_a   6.58157471
_cell_length_b   9.43565514
_cell_length_c   9.72398078
_cell_angle_alpha   86.71703755
_cell_angle_beta   88.34430640
_cell_angle_gamma   94.17216729
_symmetry_Int_Tables_number   1
_chemical_formula_structural   Sr3ZnCoO6
_chemical_formula_sum   'Sr12 Zn4 Co4 O24'
_cell_volume   600.95328168
_cell_formula_units_Z   4
loop_
 _symmetry_equiv_pos_site_id
 _symmetry_equiv_pos_as_xyz
  1  'x, y, z'
loop_
 _atom_site_type_symbol
 _atom_site_label
 _atom_site_symmetry_multiplicity
 _atom_site_fract_x
 _atom_site_fract_y
 _atom_site_fract_z
 _atom_site_occupancy
  Sr  Sr0  1  0.61610100  0.56806000  0.68223300  1
  Sr  Sr1  1  0.61407500  0.06668900  0.18300700  1
  Sr  Sr2  1  0.88203700  0.43012200  0.18384900  1
  Sr  Sr3  1  0.88270400  0.92914700  0.68232300  1
  Sr  Sr4  1  0.25333100  0.75140800  0.13110600  1
  Sr  Sr5  1  0.25386600  0.25378600  0.63842600  1
  Sr  Sr6  1  0.11796300  0.56988100  0.81615000  1
  Sr  Sr7  1  0.11730000  0.07085100  0.31767800  1
  Sr  Sr8  1  0.74667100  0.24859200  0.86889200  1
  Sr  Sr9  1  0.74613300  0.74621200  0.36157500  1
  Sr  Sr10  1  0.38389900  0.43193800  0.31776800  1
  Sr  Sr11  1  0.38592400  0.93331400  0.81699400  1
  Zn  Zn12  1  0.25213200  0.25198200  0.00950700  1
  Zn  Zn13  1  0.25529100  0.74416400  0.49425600  1
  Zn  Zn14  1  0.74786800  0.74801900  0.99049300  1
  Zn  Zn15  1  0.74470700  0.25583500  0.50574400  1
  Co  Co16  1  0.50000000  0.99999900  0.50000100  1
  Co  Co17  1  0.00000000  0.00000200  0.99999900  1
  Co  Co18  1  0.50000000  0.50000100  0.00000000  1
  Co  Co19  1  0.00000100  0.50000000  0.50000000  1
  O  O20  1  0.53129000  0.31404700  0.10610000  1
  O  O21  1  0.52917600  0.81816100  0.59880700  1
  O  O22  1  0.22494600  0.49112800  0.07044100  1
  O  O23  1  0.23643800  0.99564600  0.56874000  1
  O  O24  1  0.39327200  0.37345000  0.84292000  1
  O  O25  1  0.38985700  0.87053200  0.33653900  1
  O  O26  1  0.03102800  0.80020800  0.90599800  1
  O  O27  1  0.03283100  0.30293900  0.41377000  1
  O  O28  1  0.91972900  0.39305900  0.66948700  1
  O  O29  1  0.92712600  0.90006600  0.16226900  1
  O  O30  1  0.71149900  0.47611500  0.44271700  1
  O  O31  1  0.71637000  0.97355100  0.94519200  1
  O  O32  1  0.46870900  0.68595400  0.89390100  1
  O  O33  1  0.47082500  0.18183800  0.40119400  1
  O  O34  1  0.77505300  0.50887200  0.92955700  1
  O  O35  1  0.76356200  0.00435200  0.43126000  1
  O  O36  1  0.60673000  0.62655100  0.15707900  1
  O  O37  1  0.61014300  0.12946500  0.66346200  1
  O  O38  1  0.96897000  0.19979100  0.09400200  1
  O  O39  1  0.96717000  0.69706200  0.58623100  1
  O  O40  1  0.08027000  0.60694100  0.33051300  1
  O  O41  1  0.07287400  0.09993300  0.83773100  1
  O  O42  1  0.28850100  0.52388300  0.55728200  1
  O  O43  1  0.28363000  0.02645100  0.05480800  1
