# generated using pymatgen
data_Ca2MgFe(CO3)4
_symmetry_space_group_name_H-M   'P 1'
_cell_length_a   4.88683346
_cell_length_b   23.45134348
_cell_length_c   7.83963127
_cell_angle_alpha   87.94384303
_cell_angle_beta   90.03276073
_cell_angle_gamma   90.20227427
_symmetry_Int_Tables_number   1
_chemical_formula_structural   Ca2MgFe(CO3)4
_chemical_formula_sum   'Ca8 Mg4 Fe4 C16 O48'
_cell_volume   897.85961759
_cell_formula_units_Z   4
loop_
 _symmetry_equiv_pos_site_id
 _symmetry_equiv_pos_as_xyz
  1  'x, y, z'
loop_
 _atom_site_type_symbol
 _atom_site_label
 _atom_site_symmetry_multiplicity
 _atom_site_fract_x
 _atom_site_fract_y
 _atom_site_fract_z
 _atom_site_occupancy
  Ca  Ca0  1  0.24804900  0.06195100  0.68508100  1
  Ca  Ca1  1  0.24843200  0.31147300  0.43623200  1
  Ca  Ca2  1  0.24783000  0.56235000  0.18505900  1
  Ca  Ca3  1  0.24783300  0.81165100  0.93520300  1
  Ca  Ca4  1  0.75229700  0.18811100  0.06506100  1
  Ca  Ca5  1  0.75087200  0.43793300  0.81474900  1
  Ca  Ca6  1  0.75148400  0.68805600  0.56461600  1
  Ca  Ca7  1  0.75141600  0.93824100  0.31500700  1
  Mg  Mg8  1  0.24834100  0.06225900  0.18523800  1
  Mg  Mg9  1  0.24564000  0.31275400  0.93700000  1
  Mg  Mg10  1  0.24827800  0.56203200  0.68549800  1
  Mg  Mg11  1  0.24528700  0.81294100  0.43613100  1
  Fe  Fe12  1  0.75252300  0.43747200  0.31407900  1
  Fe  Fe13  1  0.75227200  0.68760900  0.06348900  1
  Fe  Fe14  1  0.75357800  0.18739400  0.56454700  1
  Fe  Fe15  1  0.75254900  0.93738500  0.81401800  1
  C  C16  1  0.74887000  0.05913800  0.94862100  1
  C  C17  1  0.74533700  0.30955200  0.69953300  1
  C  C18  1  0.74826700  0.55913100  0.44820800  1
  C  C19  1  0.74524300  0.80966200  0.19900700  1
  C  C20  1  0.25098000  0.19111100  0.80495000  1
  C  C21  1  0.25485800  0.44030500  0.55527200  1
  C  C22  1  0.24980800  0.69119300  0.30513300  1
  C  C23  1  0.25527200  0.94040300  0.05532200  1
  C  C24  1  0.74836700  0.06566300  0.42551900  1
  C  C25  1  0.74521100  0.31597000  0.17670200  1
  C  C26  1  0.74803300  0.56572900  0.92485600  1
  C  C27  1  0.74469100  0.81611800  0.67535200  1
  C  C28  1  0.25711700  0.18355900  0.32096600  1
  C  C29  1  0.25064100  0.43436000  0.07062000  1
  C  C30  1  0.25650500  0.68373000  0.81985600  1
  C  C31  1  0.25133300  0.93437700  0.57008600  1
  O  O32  1  0.13547400  0.22604900  0.90725600  1
  O  O33  1  0.14034500  0.47547400  0.65761700  1
  O  O34  1  0.13580700  0.72615200  0.40792600  1
  O  O35  1  0.14112500  0.97560700  0.15759300  1
  O  O36  1  0.86220400  0.02502700  0.84187800  1
  O  O37  1  0.85727900  0.27647600  0.58959400  1
  O  O38  1  0.86047300  0.52515200  0.34060800  1
  O  O39  1  0.85891500  0.77664000  0.08970900  1
  O  O40  1  0.01254300  0.06173800  0.41275000  1
  O  O41  1  0.00896000  0.31152900  0.16498800  1
  O  O42  1  0.01243000  0.56201700  0.91296900  1
  O  O43  1  0.00855600  0.81201000  0.66394800  1
  O  O44  1  0.99356200  0.18874300  0.32801300  1
  O  O45  1  0.98583800  0.43885200  0.07881700  1
  O  O46  1  0.99327600  0.68941200  0.82744100  1
  O  O47  1  0.98664100  0.93920000  0.57903100  1
  O  O48  1  0.48455900  0.06265400  0.95729600  1
  O  O49  1  0.48068700  0.31281800  0.70936500  1
  O  O50  1  0.48404700  0.56271300  0.45745500  1
  O  O51  1  0.48042900  0.81260100  0.20839900  1
  O  O52  1  0.51510100  0.18692000  0.80091400  1
  O  O53  1  0.52008000  0.43659400  0.54968400  1
  O  O54  1  0.51370700  0.68649300  0.30056200  1
  O  O55  1  0.52061200  0.93649500  0.04985600  1
  O  O56  1  0.59024100  0.03480600  0.33269400  1
  O  O57  1  0.58604400  0.28452600  0.08622700  1
  O  O58  1  0.59137300  0.53463600  0.83170800  1
  O  O59  1  0.58652700  0.78452200  0.58468600  1
  O  O60  1  0.41199800  0.21560300  0.41340500  1
  O  O61  1  0.40347900  0.46711200  0.16071800  1
  O  O62  1  0.41309400  0.71566100  0.91171700  1
  O  O63  1  0.40534400  0.96689700  0.66006200  1
  O  O64  1  0.64176100  0.09878700  0.53715000  1
  O  O65  1  0.63825700  0.35018400  0.28544200  1
  O  O66  1  0.63937900  0.59897800  0.03527100  1
  O  O67  1  0.63625700  0.85024200  0.78382200  1
  O  O68  1  0.36643600  0.14838100  0.21703100  1
  O  O69  1  0.35995500  0.39883000  0.96746600  1
  O  O70  1  0.36437200  0.64840400  0.71595900  1
  O  O71  1  0.35914400  0.89889400  0.46630500  1
  O  O72  1  0.90320800  0.09097500  0.04107500  1
  O  O73  1  0.89924600  0.34062300  0.79441700  1
  O  O74  1  0.90345200  0.59080800  0.54061300  1
  O  O75  1  0.89800300  0.84093200  0.29412200  1
  O  O76  1  0.10123400  0.15877700  0.71019700  1
  O  O77  1  0.10631500  0.40754200  0.46250700  1
  O  O78  1  0.09826900  0.65915000  0.21043400  1
  O  O79  1  0.10675600  0.90774600  0.96228800  1
