# generated using pymatgen
data_Mn2FeO4
_symmetry_space_group_name_H-M   'P 1'
_cell_length_a   5.97984459
_cell_length_b   5.89020500
_cell_length_c   6.19259945
_cell_angle_alpha   61.60286320
_cell_angle_beta   61.83717923
_cell_angle_gamma   89.99960529
_symmetry_Int_Tables_number   1
_chemical_formula_structural   Mn2FeO4
_chemical_formula_sum   'Mn4 Fe2 O8'
_cell_volume   161.91748248
_cell_formula_units_Z   2
loop_
 _symmetry_equiv_pos_site_id
 _symmetry_equiv_pos_as_xyz
  1  'x, y, z'
loop_
 _atom_site_type_symbol
 _atom_site_label
 _atom_site_symmetry_multiplicity
 _atom_site_fract_x
 _atom_site_fract_y
 _atom_site_fract_z
 _atom_site_occupancy
  Mn  Mn0  1  0.87245700  0.62293000  0.75413600  1
  Mn  Mn1  1  0.37544300  0.62759300  0.74479000  1
  Mn  Mn2  1  0.37931200  0.62761800  0.23980700  1
  Mn  Mn3  1  0.37936100  0.13261400  0.23974700  1
  Fe  Fe4  1  0.98901600  0.00161000  0.99679200  1
  Fe  Fe5  1  0.75937400  0.24707400  0.50587300  1
  O  O6  1  0.63786800  0.84833900  0.76012600  1
  O  O7  1  0.59134200  0.37153000  0.25686500  1
  O  O8  1  0.15487400  0.88153700  0.23690100  1
  O  O9  1  0.16370900  0.38320200  0.23362900  1
  O  O10  1  0.10593200  0.85780100  0.75689400  1
  O  O11  1  0.63787400  0.39154500  0.76012500  1
  O  O12  1  0.10598200  0.38531800  0.75689900  1
  O  O13  1  0.59745700  0.87128900  0.25741400  1
