# generated using pymatgen
data_Co5SbO8
_symmetry_space_group_name_H-M   'P 1'
_cell_length_a   5.98935895
_cell_length_b   6.00949505
_cell_length_c   10.76116731
_cell_angle_alpha   73.32745664
_cell_angle_beta   89.84780418
_cell_angle_gamma   60.04674279
_symmetry_Int_Tables_number   1
_chemical_formula_structural   Co5SbO8
_chemical_formula_sum   'Co10 Sb2 O16'
_cell_volume   316.83904659
_cell_formula_units_Z   2
loop_
 _symmetry_equiv_pos_site_id
 _symmetry_equiv_pos_as_xyz
  1  'x, y, z'
loop_
 _atom_site_type_symbol
 _atom_site_label
 _atom_site_symmetry_multiplicity
 _atom_site_fract_x
 _atom_site_fract_y
 _atom_site_fract_z
 _atom_site_occupancy
  Co  Co0  1  0.25000000  0.50000000  0.75000000  1
  Co  Co1  1  0.75000000  0.00000000  0.25000000  1
  Co  Co2  1  0.25000000  0.00000000  0.75000000  1
  Co  Co3  1  0.25000000  0.50000000  0.25000000  1
  Co  Co4  1  0.75000000  0.50000000  0.75000000  1
  Co  Co5  1  0.18817800  0.13519600  0.04693200  1
  Co  Co6  1  0.68574800  0.13766500  0.54641800  1
  Co  Co7  1  0.31182300  0.86480300  0.45306800  1
  Co  Co8  1  0.81425200  0.86233500  0.95358100  1
  Co  Co9  1  0.75000000  0.50000000  0.25000000  1
  Sb  Sb10  1  0.50303900  0.49849400  0.00008500  1
  Sb  Sb11  1  0.99696100  0.50150600  0.49991500  1
  O  O12  1  0.63098200  0.27638800  0.35010600  1
  O  O13  1  0.12229700  0.26531900  0.85307300  1
  O  O14  1  0.86901800  0.72361200  0.14989400  1
  O  O15  1  0.37770300  0.73468100  0.64692700  1
  O  O16  1  0.38915800  0.26468900  0.12224200  1
  O  O17  1  0.88679900  0.26452900  0.62299700  1
  O  O18  1  0.85339600  0.26567300  0.11980100  1
  O  O19  1  0.34938600  0.26541300  0.61875600  1
  O  O20  1  0.39639500  0.72397000  0.12257500  1
  O  O21  1  0.88616300  0.72905100  0.62017300  1
  O  O22  1  0.64660400  0.73432700  0.38019900  1
  O  O23  1  0.15061400  0.73458700  0.88124400  1
  O  O24  1  0.10360500  0.27602900  0.37742500  1
  O  O25  1  0.61383700  0.27094900  0.87982700  1
  O  O26  1  0.11084300  0.73531100  0.37775800  1
  O  O27  1  0.61320100  0.73547200  0.87700300  1
