data_image0
_chemical_formula_structural       Rb2Te4Y2
_chemical_formula_sum              "Rb2 Te4 Y2"
_cell_length_a       4.51875
_cell_length_b       4.51882
_cell_length_c       17.1399
_cell_angle_alpha    90
_cell_angle_beta     90
_cell_angle_gamma    119.999

_space_group_name_H-M_alt    "P 1"
_space_group_IT_number       1

loop_
  _space_group_symop_operation_xyz
  'x, y, z'

loop_
  _atom_site_type_symbol
  _atom_site_label
  _atom_site_symmetry_multiplicity
  _atom_site_fract_x
  _atom_site_fract_y
  _atom_site_fract_z
  _atom_site_occupancy
  Rb  Rb1       1.0  0.33300  0.66700  0.25000  1.0000
  Rb  Rb2       1.0  0.66700  0.33300  0.75000  1.0000
  Te  Te1       1.0  0.66700  0.33300  0.09990  1.0000
  Te  Te2       1.0  0.66700  0.33300  0.40000  1.0000
  Te  Te3       1.0  0.33300  0.66700  0.60000  1.0000
  Te  Te4       1.0  0.33300  0.66700  0.90000  1.0000
  Y   Y1        1.0  0.00000  0.00000  0.00000  1.0000
  Y   Y2        1.0  0.00000  0.00000  0.50000  1.0000
