# generated using pymatgen
data_Ba2YV3O8
_symmetry_space_group_name_H-M   'P 1'
_cell_length_a   3.95462460
_cell_length_b   12.65036603
_cell_length_c   8.08487879
_cell_angle_alpha   108.64056634
_cell_angle_beta   90.05666231
_cell_angle_gamma   89.98657443
_symmetry_Int_Tables_number   1
_chemical_formula_structural   Ba2YV3O8
_chemical_formula_sum   'Ba4 Y2 V6 O16'
_cell_volume   383.24833913
_cell_formula_units_Z   2
loop_
 _symmetry_equiv_pos_site_id
 _symmetry_equiv_pos_as_xyz
  1  'x, y, z'
loop_
 _atom_site_type_symbol
 _atom_site_label
 _atom_site_symmetry_multiplicity
 _atom_site_fract_x
 _atom_site_fract_y
 _atom_site_fract_z
 _atom_site_occupancy
  Ba  Ba0  1  0.49914000  0.16400200  0.33181700  1
  Ba  Ba1  1  0.50085800  0.16386900  0.83202900  1
  Ba  Ba2  1  0.49886500  0.83611100  0.67044700  1
  Ba  Ba3  1  0.50115000  0.83615000  0.16564200  1
  Y  Y4  1  0.49869900  0.49984200  0.50441800  1
  Y  Y5  1  0.50128100  0.49992800  0.99544400  1
  V  V6  1  0.99999500  0.00085800  0.00047000  1
  V  V7  1  0.00010700  0.66087900  0.83044100  1
  V  V8  1  0.99999400  0.65821500  0.32912300  1
  V  V9  1  0.00004900  0.99903200  0.49949000  1
  V  V10  1  0.99994200  0.34130500  0.17038500  1
  V  V11  1  0.99998400  0.34010000  0.66999300  1
  O  O12  1  0.49998400  0.99906500  0.49952300  1
  O  O13  1  0.50000200  0.00137200  0.00069000  1
  O  O14  1  0.99999300  0.99968300  0.74986600  1
  O  O15  1  0.99999900  0.99967900  0.24982200  1
  O  O16  1  0.99997600  0.18342100  0.59176100  1
  O  O17  1  0.00006100  0.18412700  0.09220700  1
  O  O18  1  0.99998100  0.81444000  0.40719500  1
  O  O19  1  0.00000000  0.81840700  0.90918200  1
  O  O20  1  0.99929400  0.38172700  0.44132500  1
  O  O21  1  0.00067300  0.38184600  0.94077100  1
  O  O22  1  0.49998300  0.38343000  0.69179100  1
  O  O23  1  0.50001200  0.38507100  0.19247100  1
  O  O24  1  0.99942700  0.61894300  0.56552000  1
  O  O25  1  0.00058700  0.61895500  0.05343000  1
  O  O26  1  0.49998100  0.61526100  0.30761900  1
  O  O27  1  0.49998500  0.61428800  0.80713300  1
