# generated using pymatgen
data_Mn3V2(SiO4)3
_symmetry_space_group_name_H-M   'P 1'
_cell_length_a   10.38617685
_cell_length_b   10.38617685
_cell_length_c   10.38617685
_cell_angle_alpha   109.47122063
_cell_angle_beta   109.47122063
_cell_angle_gamma   109.47122063
_symmetry_Int_Tables_number   1
_chemical_formula_structural   Mn3V2(SiO4)3
_chemical_formula_sum   'Mn12 V8 Si12 O48'
_cell_volume   862.47248508
_cell_formula_units_Z   4
loop_
 _symmetry_equiv_pos_site_id
 _symmetry_equiv_pos_as_xyz
  1  'x, y, z'
loop_
 _atom_site_type_symbol
 _atom_site_label
 _atom_site_symmetry_multiplicity
 _atom_site_fract_x
 _atom_site_fract_y
 _atom_site_fract_z
 _atom_site_occupancy
  Mn  Mn0  1  0.87500000  0.62500000  0.25000000  1
  Mn  Mn1  1  0.62500000  0.25000000  0.87500000  1
  Mn  Mn2  1  0.87500000  0.75000000  0.62500000  1
  Mn  Mn3  1  0.75000000  0.62500000  0.87500000  1
  Mn  Mn4  1  0.25000000  0.87500000  0.62500000  1
  Mn  Mn5  1  0.62500000  0.87500000  0.75000000  1
  Mn  Mn6  1  0.12500000  0.37500000  0.75000000  1
  Mn  Mn7  1  0.37500000  0.75000000  0.12500000  1
  Mn  Mn8  1  0.12500000  0.25000000  0.37500000  1
  Mn  Mn9  1  0.25000000  0.37500000  0.12500000  1
  Mn  Mn10  1  0.75000000  0.12500000  0.37500000  1
  Mn  Mn11  1  0.37500000  0.12500000  0.25000000  1
  V  V12  1  0.50000000  0.50000000  0.50000000  1
  V  V13  1  0.50000000  0.00000000  0.50000000  1
  V  V14  1  0.00000000  0.50000000  0.50000000  1
  V  V15  1  0.50000000  0.50000000  0.00000000  1
  V  V16  1  0.00000000  0.00000000  0.50000000  1
  V  V17  1  0.00000000  0.50000000  0.00000000  1
  V  V18  1  0.50000000  0.00000000  0.00000000  1
  V  V19  1  0.00000000  0.00000000  0.00000000  1
  Si  Si20  1  0.12500000  0.87500000  0.25000000  1
  Si  Si21  1  0.87500000  0.12500000  0.75000000  1
  Si  Si22  1  0.25000000  0.62500000  0.37500000  1
  Si  Si23  1  0.37500000  0.25000000  0.62500000  1
  Si  Si24  1  0.75000000  0.87500000  0.12500000  1
  Si  Si25  1  0.12500000  0.75000000  0.87500000  1
  Si  Si26  1  0.37500000  0.62500000  0.75000000  1
  Si  Si27  1  0.62500000  0.75000000  0.37500000  1
  Si  Si28  1  0.87500000  0.25000000  0.12500000  1
  Si  Si29  1  0.25000000  0.12500000  0.87500000  1
  Si  Si30  1  0.75000000  0.37500000  0.62500000  1
  Si  Si31  1  0.62500000  0.37500000  0.25000000  1
  O  O32  1  0.69373100  0.08806300  0.70908900  1
  O  O33  1  0.10566800  0.98464200  0.69373100  1
  O  O34  1  0.70908900  0.51535800  0.62102600  1
  O  O35  1  0.62102600  0.70908900  0.51535800  1
  O  O36  1  0.87897400  0.39433200  0.08806300  1
  O  O37  1  0.08806300  0.87897400  0.39433200  1
  O  O38  1  0.98464200  0.69373100  0.10566800  1
  O  O39  1  0.41193700  0.10566800  0.62102600  1
  O  O40  1  0.39433200  0.80626900  0.51535800  1
  O  O41  1  0.98464200  0.79091100  0.87897400  1
  O  O42  1  0.10566800  0.62102600  0.41193700  1
  O  O43  1  0.51535800  0.39433200  0.80626900  1
  O  O44  1  0.79091100  0.87897400  0.98464200  1
  O  O45  1  0.70908900  0.69373100  0.08806300  1
  O  O46  1  0.08806300  0.70908900  0.69373100  1
  O  O47  1  0.62102600  0.41193700  0.10566800  1
  O  O48  1  0.79091100  0.41193700  0.80626900  1
  O  O49  1  0.80626900  0.51535800  0.39433200  1
  O  O50  1  0.80626900  0.79091100  0.41193700  1
  O  O51  1  0.87897400  0.98464200  0.79091100  1
  O  O52  1  0.48464200  0.37897400  0.29091100  1
  O  O53  1  0.39433200  0.08806300  0.87897400  1
  O  O54  1  0.69373100  0.10566800  0.98464200  1
  O  O55  1  0.51535800  0.62102600  0.70908900  1
  O  O56  1  0.30626900  0.91193700  0.29091100  1
  O  O57  1  0.89433200  0.01535800  0.30626900  1
  O  O58  1  0.29091100  0.48464200  0.37897400  1
  O  O59  1  0.37897400  0.29091100  0.48464200  1
  O  O60  1  0.12102600  0.60566800  0.91193700  1
  O  O61  1  0.91193700  0.12102600  0.60566800  1
  O  O62  1  0.01535800  0.30626900  0.89433200  1
  O  O63  1  0.58806300  0.89433200  0.37897400  1
  O  O64  1  0.60566800  0.19373100  0.48464200  1
  O  O65  1  0.01535800  0.20908900  0.12102600  1
  O  O66  1  0.89433200  0.37897400  0.58806300  1
  O  O67  1  0.48464200  0.60566800  0.19373100  1
  O  O68  1  0.20908900  0.12102600  0.01535800  1
  O  O69  1  0.29091100  0.30626900  0.91193700  1
  O  O70  1  0.91193700  0.29091100  0.30626900  1
  O  O71  1  0.37897400  0.58806300  0.89433200  1
  O  O72  1  0.20908900  0.58806300  0.19373100  1
  O  O73  1  0.19373100  0.48464200  0.60566800  1
  O  O74  1  0.19373100  0.20908900  0.58806300  1
  O  O75  1  0.12102600  0.01535800  0.20908900  1
  O  O76  1  0.58806300  0.19373100  0.20908900  1
  O  O77  1  0.60566800  0.91193700  0.12102600  1
  O  O78  1  0.30626900  0.89433200  0.01535800  1
  O  O79  1  0.41193700  0.80626900  0.79091100  1
