# generated using pymatgen
data_UCdO4
_symmetry_space_group_name_H-M   'P 1'
_cell_length_a   6.43379784
_cell_length_b   6.43379784
_cell_length_c   6.43379838
_cell_angle_alpha   34.91479595
_cell_angle_beta   34.91479595
_cell_angle_gamma   34.91478893
_symmetry_Int_Tables_number   1
_chemical_formula_structural   UCdO4
_chemical_formula_sum   'U1 Cd1 O4'
_cell_volume   77.88744697
_cell_formula_units_Z   1
loop_
 _symmetry_equiv_pos_site_id
 _symmetry_equiv_pos_as_xyz
  1  'x, y, z'
loop_
 _atom_site_type_symbol
 _atom_site_label
 _atom_site_symmetry_multiplicity
 _atom_site_fract_x
 _atom_site_fract_y
 _atom_site_fract_z
 _atom_site_occupancy
  U  U0  1  0.00000000  0.00000000  0.00000000  1
  Cd  Cd1  1  0.50000000  0.50000000  0.50000000  1
  O  O2  1  0.63912900  0.63912900  0.63912900  1
  O  O3  1  0.36087100  0.36087100  0.36087100  1
  O  O4  1  0.11171700  0.11171700  0.11171700  1
  O  O5  1  0.88828300  0.88828300  0.88828300  1
