# generated using pymatgen
data_Pr3Dy
_symmetry_space_group_name_H-M   'P 1'
_cell_length_a   6.36905716
_cell_length_b   6.36905716
_cell_length_c   6.36905716
_cell_angle_alpha   131.84858123
_cell_angle_beta   131.84858123
_cell_angle_gamma   70.46828175
_symmetry_Int_Tables_number   1
_chemical_formula_structural   Pr3Dy
_chemical_formula_sum   'Pr3 Dy1'
_cell_volume   140.47586518
_cell_formula_units_Z   1
loop_
 _symmetry_equiv_pos_site_id
 _symmetry_equiv_pos_as_xyz
  1  'x, y, z'
loop_
 _atom_site_type_symbol
 _atom_site_label
 _atom_site_symmetry_multiplicity
 _atom_site_fract_x
 _atom_site_fract_y
 _atom_site_fract_z
 _atom_site_occupancy
  Pr  Pr0  1  0.75000000  0.25000000  0.50000000  1
  Pr  Pr1  1  0.25000000  0.75000000  0.50000000  1
  Pr  Pr2  1  0.50000000  0.50000000  0.00000000  1
  Dy  Dy3  1  0.00000000  0.00000000  0.00000000  1
