# generated using pymatgen
data_KLaEuSbO6
_symmetry_space_group_name_H-M   'P 1'
_cell_length_a   8.38840193
_cell_length_b   8.49230623
_cell_length_c   8.46887693
_cell_angle_alpha   90.00000000
_cell_angle_beta   90.00000000
_cell_angle_gamma   90.00000000
_symmetry_Int_Tables_number   1
_chemical_formula_structural   KLaEuSbO6
_chemical_formula_sum   'K4 La4 Eu4 Sb4 O24'
_cell_volume   603.29635240
_cell_formula_units_Z   4
loop_
 _symmetry_equiv_pos_site_id
 _symmetry_equiv_pos_as_xyz
  1  'x, y, z'
loop_
 _atom_site_type_symbol
 _atom_site_label
 _atom_site_symmetry_multiplicity
 _atom_site_fract_x
 _atom_site_fract_y
 _atom_site_fract_z
 _atom_site_occupancy
  K  K0  1  0.50000000  0.00000000  0.50000000  1
  K  K1  1  0.50000000  0.50000000  -0.00000000  1
  K  K2  1  -0.00000000  0.50000000  -0.00000000  1
  K  K3  1  -0.00000000  0.00000000  0.50000000  1
  La  La4  1  -0.00000000  0.50000000  0.50000000  1
  La  La5  1  0.50000000  0.00000000  -0.00000000  1
  La  La6  1  -0.00000000  0.00000000  -0.00000000  1
  La  La7  1  0.50000000  0.50000000  0.50000000  1
  Eu  Eu8  1  0.75000000  0.75000000  0.75000000  1
  Eu  Eu9  1  0.25000000  0.25000000  0.75000000  1
  Eu  Eu10  1  0.25000000  0.75000000  0.25000000  1
  Eu  Eu11  1  0.75000000  0.25000000  0.25000000  1
  Sb  Sb12  1  0.25000000  0.25000000  0.25000000  1
  Sb  Sb13  1  0.75000000  0.75000000  0.25000000  1
  Sb  Sb14  1  0.75000000  0.25000000  0.75000000  1
  Sb  Sb15  1  0.25000000  0.75000000  0.75000000  1
  O  O16  1  0.01674739  0.21470354  0.27426195  1
  O  O17  1  0.98325261  0.78529646  0.27426195  1
  O  O18  1  0.98325261  0.21470354  0.72573805  1
  O  O19  1  0.01674739  0.78529646  0.72573805  1
  O  O20  1  0.27999847  0.01594904  0.19468070  1
  O  O21  1  0.27999847  0.98405096  0.80531930  1
  O  O22  1  0.72000153  0.98405096  0.19468070  1
  O  O23  1  0.72000153  0.01594904  0.80531930  1
  O  O24  1  0.21192443  0.26229115  0.01635716  1
  O  O25  1  0.78807557  0.26229115  0.98364284  1
  O  O26  1  0.21192443  0.73770885  0.98364284  1
  O  O27  1  0.78807557  0.73770885  0.01635716  1
  O  O28  1  0.48325261  0.28529646  0.22573805  1
  O  O29  1  0.51674739  0.71470354  0.22573805  1
  O  O30  1  0.51674739  0.28529646  0.77426195  1
  O  O31  1  0.48325261  0.71470354  0.77426195  1
  O  O32  1  0.22000153  0.48405096  0.30531930  1
  O  O33  1  0.22000153  0.51594904  0.69468070  1
  O  O34  1  0.77999847  0.51594904  0.30531930  1
  O  O35  1  0.77999847  0.48405096  0.69468070  1
  O  O36  1  0.28807557  0.23770885  0.48364284  1
  O  O37  1  0.71192443  0.23770885  0.51635716  1
  O  O38  1  0.28807557  0.76229115  0.51635716  1
  O  O39  1  0.71192443  0.76229115  0.48364284  1
