# generated using pymatgen
data_BaSrSmSeO6
_symmetry_space_group_name_H-M   'P 1'
_cell_length_a   8.43095316
_cell_length_b   8.42383960
_cell_length_c   8.41352716
_cell_angle_alpha   90.00000000
_cell_angle_beta   90.00000000
_cell_angle_gamma   90.00000000
_symmetry_Int_Tables_number   1
_chemical_formula_structural   BaSrSmSeO6
_chemical_formula_sum   'Ba4 Sr4 Sm4 Se4 O24'
_cell_volume   597.53708799
_cell_formula_units_Z   4
loop_
 _symmetry_equiv_pos_site_id
 _symmetry_equiv_pos_as_xyz
  1  'x, y, z'
loop_
 _atom_site_type_symbol
 _atom_site_label
 _atom_site_symmetry_multiplicity
 _atom_site_fract_x
 _atom_site_fract_y
 _atom_site_fract_z
 _atom_site_occupancy
  Ba  Ba0  1  -0.00000000  -0.00000000  -0.00000000  1
  Ba  Ba1  1  0.50000000  0.50000000  0.50000000  1
  Ba  Ba2  1  0.50000000  -0.00000000  0.50000000  1
  Ba  Ba3  1  0.50000000  0.50000000  0.00000000  1
  Sr  Sr4  1  -0.00000000  0.50000000  0.50000000  1
  Sr  Sr5  1  0.50000000  -0.00000000  -0.00000000  1
  Sr  Sr6  1  -0.00000000  0.50000000  -0.00000000  1
  Sr  Sr7  1  -0.00000000  -0.00000000  0.50000000  1
  Sm  Sm8  1  0.24835033  0.25029625  0.24929576  1
  Sm  Sm9  1  0.75164967  0.74970375  0.24929576  1
  Sm  Sm10  1  0.75164967  0.25029625  0.75070424  1
  Sm  Sm11  1  0.24835033  0.74970375  0.75070424  1
  Se  Se12  1  0.75582486  0.75153266  0.74744892  1
  Se  Se13  1  0.24417514  0.24846734  0.74744892  1
  Se  Se14  1  0.24417514  0.75153266  0.25255108  1
  Se  Se15  1  0.75582486  0.24846734  0.25255108  1
  O  O16  1  0.98030789  0.22128003  0.27536556  1
  O  O17  1  0.01969211  0.77871997  0.27536556  1
  O  O18  1  0.01969211  0.22128003  0.72463444  1
  O  O19  1  0.98030789  0.77871997  0.72463444  1
  O  O20  1  0.27175892  0.98098825  0.22263975  1
  O  O21  1  0.27175892  0.01901175  0.77736025  1
  O  O22  1  0.72824108  0.01901175  0.22263975  1
  O  O23  1  0.72824108  0.98098825  0.77736025  1
  O  O24  1  0.22097654  0.27653938  0.98228801  1
  O  O25  1  0.77902346  0.27653938  0.01771199  1
  O  O26  1  0.22097654  0.72346062  0.01771199  1
  O  O27  1  0.77902346  0.72346062  0.98228801  1
  O  O28  1  0.51728224  0.26885457  0.23437303  1
  O  O29  1  0.48271776  0.73114543  0.23437303  1
  O  O30  1  0.48271776  0.26885457  0.76562697  1
  O  O31  1  0.51728224  0.73114543  0.76562697  1
  O  O32  1  0.22047233  0.51890431  0.27567292  1
  O  O33  1  0.22047233  0.48109569  0.72432708  1
  O  O34  1  0.77952767  0.48109569  0.27567292  1
  O  O35  1  0.77952767  0.51890431  0.72432708  1
  O  O36  1  0.26219513  0.22783050  0.51984719  1
  O  O37  1  0.73780487  0.22783050  0.48015281  1
  O  O38  1  0.26219513  0.77216950  0.48015281  1
  O  O39  1  0.73780487  0.77216950  0.51984719  1
