# generated using pymatgen
data_BaSrCaWO6
_symmetry_space_group_name_H-M   'P 1'
_cell_length_a   5.94978608
_cell_length_b   5.94978608
_cell_length_c   8.72022924
_cell_angle_alpha   90.00000000
_cell_angle_beta   90.00000000
_cell_angle_gamma   90.00000000
_symmetry_Int_Tables_number   1
_chemical_formula_structural   BaSrCaWO6
_chemical_formula_sum   'Ba2 Sr2 Ca2 W2 O12'
_cell_volume   308.69571743
_cell_formula_units_Z   2
loop_
 _symmetry_equiv_pos_site_id
 _symmetry_equiv_pos_as_xyz
  1  'x, y, z'
loop_
 _atom_site_type_symbol
 _atom_site_label
 _atom_site_symmetry_multiplicity
 _atom_site_fract_x
 _atom_site_fract_y
 _atom_site_fract_z
 _atom_site_occupancy
  Ba  Ba0  1  -0.00000000  0.50000000  0.25000000  1
  Ba  Ba1  1  0.50000000  -0.00000000  0.75000000  1
  Sr  Sr2  1  -0.00000000  -0.00000000  0.00000000  1
  Sr  Sr3  1  0.50000000  0.50000000  0.50000000  1
  Ca  Ca4  1  0.50000000  0.00000000  0.25000000  1
  Ca  Ca5  1  -0.00000000  0.50000000  0.75000000  1
  W  W6  1  -0.00000000  0.00000000  0.50000000  1
  W  W7  1  0.50000000  0.50000000  -0.00000000  1
  O  O8  1  -0.00000000  0.00000000  0.27357434  1
  O  O9  1  0.50000000  0.50000000  0.22642566  1
  O  O10  1  -0.00000000  -0.00000000  0.72642566  1
  O  O11  1  0.50000000  0.50000000  0.77357434  1
  O  O12  1  0.36067915  0.20426213  0.02137665  1
  O  O13  1  0.63932085  0.79573787  0.02137665  1
  O  O14  1  0.79573787  0.36067915  0.97862335  1
  O  O15  1  0.20426213  0.63932085  0.97862335  1
  O  O16  1  0.86067915  0.29573787  0.52137665  1
  O  O17  1  0.13932085  0.70426213  0.52137665  1
  O  O18  1  0.29573787  0.13932085  0.47862335  1
  O  O19  1  0.70426213  0.86067915  0.47862335  1
