# generated using pymatgen
data_BaEuTiBiO6
_symmetry_space_group_name_H-M   'P 1'
_cell_length_a   8.43459731
_cell_length_b   8.41719065
_cell_length_c   8.44833931
_cell_angle_alpha   90.00000000
_cell_angle_beta   90.00000000
_cell_angle_gamma   90.00000000
_symmetry_Int_Tables_number   1
_chemical_formula_structural   BaEuTiBiO6
_chemical_formula_sum   'Ba4 Eu4 Ti4 Bi4 O24'
_cell_volume   599.79503333
_cell_formula_units_Z   4
loop_
 _symmetry_equiv_pos_site_id
 _symmetry_equiv_pos_as_xyz
  1  'x, y, z'
loop_
 _atom_site_type_symbol
 _atom_site_label
 _atom_site_symmetry_multiplicity
 _atom_site_fract_x
 _atom_site_fract_y
 _atom_site_fract_z
 _atom_site_occupancy
  Ba  Ba0  1  0.00000000  0.00000000  0.00000000  1
  Ba  Ba1  1  0.50000000  0.50000000  0.50000000  1
  Ba  Ba2  1  0.50000000  0.00000000  0.00000000  1
  Ba  Ba3  1  0.00000000  0.50000000  0.00000000  1
  Eu  Eu4  1  0.00000000  0.50000000  0.50000000  1
  Eu  Eu5  1  0.50000000  0.00000000  0.50000000  1
  Eu  Eu6  1  0.50000000  0.50000000  0.00000000  1
  Eu  Eu7  1  0.00000000  0.00000000  0.50000000  1
  Ti  Ti8  1  0.25213024  0.24983744  0.25363153  1
  Ti  Ti9  1  0.74786976  0.75016256  0.25363153  1
  Ti  Ti10  1  0.74786976  0.24983744  0.74636847  1
  Ti  Ti11  1  0.25213024  0.75016256  0.74636847  1
  Bi  Bi12  1  0.74967099  0.74883623  0.74644144  1
  Bi  Bi13  1  0.25032901  0.25116377  0.74644144  1
  Bi  Bi14  1  0.25032901  0.74883623  0.25355856  1
  Bi  Bi15  1  0.74967099  0.25116377  0.25355856  1
  O  O16  1  0.01650246  0.21571973  0.29248937  1
  O  O17  1  0.98349754  0.78428027  0.29248937  1
  O  O18  1  0.98349754  0.21571973  0.70751063  1
  O  O19  1  0.01650246  0.78428027  0.70751063  1
  O  O20  1  0.27908781  0.01648058  0.23458595  1
  O  O21  1  0.27908781  0.98351942  0.76541405  1
  O  O22  1  0.72091219  0.98351942  0.23458595  1
  O  O23  1  0.72091219  0.01648058  0.76541405  1
  O  O24  1  0.22776887  0.27362362  0.02199743  1
  O  O25  1  0.77223113  0.27362362  0.97800257  1
  O  O26  1  0.22776887  0.72637638  0.97800257  1
  O  O27  1  0.77223113  0.72637638  0.02199743  1
  O  O28  1  0.48215808  0.29456299  0.21762223  1
  O  O29  1  0.51784192  0.70543701  0.21762223  1
  O  O30  1  0.51784192  0.29456299  0.78237777  1
  O  O31  1  0.48215808  0.70543701  0.78237777  1
  O  O32  1  0.21015376  0.47983067  0.29446383  1
  O  O33  1  0.21015376  0.52016933  0.70553617  1
  O  O34  1  0.78984624  0.52016933  0.29446383  1
  O  O35  1  0.78984624  0.47983067  0.70553617  1
  O  O36  1  0.29206569  0.21085606  0.48598589  1
  O  O37  1  0.70793431  0.21085606  0.51401411  1
  O  O38  1  0.29206569  0.78914394  0.51401411  1
  O  O39  1  0.70793431  0.78914394  0.48598589  1
