# generated using pymatgen
data_SrLaEuNbO6
_symmetry_space_group_name_H-M   'P 1'
_cell_length_a   5.97050990
_cell_length_b   5.97050990
_cell_length_c   8.74648244
_cell_angle_alpha   90.00000000
_cell_angle_beta   90.00000000
_cell_angle_gamma   90.00000000
_symmetry_Int_Tables_number   1
_chemical_formula_structural   SrLaEuNbO6
_chemical_formula_sum   'Sr2 La2 Eu2 Nb2 O12'
_cell_volume   311.78575866
_cell_formula_units_Z   2
loop_
 _symmetry_equiv_pos_site_id
 _symmetry_equiv_pos_as_xyz
  1  'x, y, z'
loop_
 _atom_site_type_symbol
 _atom_site_label
 _atom_site_symmetry_multiplicity
 _atom_site_fract_x
 _atom_site_fract_y
 _atom_site_fract_z
 _atom_site_occupancy
  Sr  Sr0  1  0.50000000  0.50000000  -0.00000000  1
  Sr  Sr1  1  0.00000000  0.00000000  -0.00000000  1
  La  La2  1  0.50000000  -0.00000000  0.74985231  1
  La  La3  1  -0.00000000  0.50000000  0.25014769  1
  Eu  Eu4  1  0.50000000  0.50000000  0.50000000  1
  Eu  Eu5  1  -0.00000000  0.00000000  0.50000000  1
  Nb  Nb6  1  0.50000000  -0.00000000  0.25141762  1
  Nb  Nb7  1  -0.00000000  0.50000000  0.74858238  1
  O  O8  1  0.50000000  -0.00000000  0.01821516  1
  O  O9  1  0.00000000  0.50000000  0.98178484  1
  O  O10  1  0.50000000  0.00000000  0.48387473  1
  O  O11  1  -0.00000000  0.50000000  0.51612527  1
  O  O12  1  0.69492757  0.64973104  0.74736556  1
  O  O13  1  0.30507243  0.35026896  0.74736556  1
  O  O14  1  0.85026896  0.19492757  0.74736556  1
  O  O15  1  0.14973104  0.80507243  0.74736556  1
  O  O16  1  0.80507243  0.14973104  0.25263444  1
  O  O17  1  0.19492757  0.85026896  0.25263444  1
  O  O18  1  0.64973104  0.69492757  0.25263444  1
  O  O19  1  0.35026896  0.30507243  0.25263444  1
