# generated using pymatgen
data_PrMg(BiO3)2
_symmetry_space_group_name_H-M   'P 1'
_cell_length_a   5.83930698
_cell_length_b   5.97158931
_cell_length_c   5.83930698
_cell_angle_alpha   60.73011456
_cell_angle_beta   90.00000000
_cell_angle_gamma   119.26988544
_symmetry_Int_Tables_number   1
_chemical_formula_structural   PrMg(BiO3)2
_chemical_formula_sum   'Pr1 Mg1 Bi2 O6'
_cell_volume   147.09873518
_cell_formula_units_Z   1
loop_
 _symmetry_equiv_pos_site_id
 _symmetry_equiv_pos_as_xyz
  1  'x, y, z'
loop_
 _atom_site_type_symbol
 _atom_site_label
 _atom_site_symmetry_multiplicity
 _atom_site_fract_x
 _atom_site_fract_y
 _atom_site_fract_z
 _atom_site_occupancy
  Pr  Pr0  1  0.50000000  -0.00000000  0.50000000  1
  Mg  Mg1  1  0.00000000  -0.00000000  0.00000000  1
  Bi  Bi2  1  0.75000000  0.50000000  0.75000000  1
  Bi  Bi3  1  0.25000000  0.50000000  0.25000000  1
  O  O4  1  0.23430303  0.46860606  0.76569697  1
  O  O5  1  0.76569697  0.53139394  0.23430303  1
  O  O6  1  0.33302391  -0.00000000  0.13117023  1
  O  O7  1  0.66697609  -0.00000000  0.86882977  1
  O  O8  1  0.13117023  -0.00000000  0.66697609  1
  O  O9  1  0.86882977  -0.00000000  0.33302391  1
