# generated using pymatgen
data_SrCaLaSbO6
_symmetry_space_group_name_H-M   'P 1'
_cell_length_a   5.86343495
_cell_length_b   6.03415779
_cell_length_c   8.44969212
_cell_angle_alpha   90.14852144
_cell_angle_beta   90.62515770
_cell_angle_gamma   89.98835425
_symmetry_Int_Tables_number   1
_chemical_formula_structural   SrCaLaSbO6
_chemical_formula_sum   'Sr2 Ca2 La2 Sb2 O12'
_cell_volume   298.93883742
_cell_formula_units_Z   2
loop_
 _symmetry_equiv_pos_site_id
 _symmetry_equiv_pos_as_xyz
  1  'x, y, z'
loop_
 _atom_site_type_symbol
 _atom_site_label
 _atom_site_symmetry_multiplicity
 _atom_site_fract_x
 _atom_site_fract_y
 _atom_site_fract_z
 _atom_site_occupancy
  Sr  Sr0  1  0.51206929  0.55071829  0.25043190  1
  Sr  Sr1  1  0.48793071  0.44928171  0.74956810  1
  Ca  Ca2  1  0.98586998  0.04772880  0.25304363  1
  Ca  Ca3  1  0.01413002  0.95227120  0.74695637  1
  La  La4  1  -0.00000000  0.50000000  -0.00000000  1
  La  La5  1  0.50000000  -0.00000000  0.50000000  1
  Sb  Sb6  1  0.50000000  -0.00000000  -0.00000000  1
  Sb  Sb7  1  -0.00000000  0.50000000  0.50000000  1
  O  O8  1  0.22186807  0.17802384  0.93609139  1
  O  O9  1  0.27914216  0.68245027  0.54732394  1
  O  O10  1  0.77813193  0.82197616  0.06390861  1
  O  O11  1  0.72085784  0.31754973  0.45267606  1
  O  O12  1  0.32540252  0.72181416  0.94275775  1
  O  O13  1  0.16927323  0.21719729  0.56380553  1
  O  O14  1  0.67459748  0.27818584  0.05724225  1
  O  O15  1  0.83072677  0.78280271  0.43619447  1
  O  O16  1  0.37894181  0.96775026  0.22533286  1
  O  O17  1  0.09613315  0.44253801  0.27360829  1
  O  O18  1  0.62105819  0.03224974  0.77466714  1
  O  O19  1  0.90386685  0.55746199  0.72639171  1
