# generated using pymatgen
data_KPrNb4O12
_symmetry_space_group_name_H-M   'P 1'
_cell_length_a   5.67343154
_cell_length_b   5.67343154
_cell_length_c   7.97721160
_cell_angle_alpha   90.00000000
_cell_angle_beta   90.00000000
_cell_angle_gamma   91.52519359
_symmetry_Int_Tables_number   1
_chemical_formula_structural   KPrNb4O12
_chemical_formula_sum   'K1 Pr1 Nb4 O12'
_cell_volume   256.67812599
_cell_formula_units_Z   1
loop_
 _symmetry_equiv_pos_site_id
 _symmetry_equiv_pos_as_xyz
  1  'x, y, z'
loop_
 _atom_site_type_symbol
 _atom_site_label
 _atom_site_symmetry_multiplicity
 _atom_site_fract_x
 _atom_site_fract_y
 _atom_site_fract_z
 _atom_site_occupancy
  K  K0  1  0.00185837  0.99814163  -0.00000000  1
  Pr  Pr1  1  0.51233085  0.48766915  0.50000000  1
  Nb  Nb2  1  0.51048673  0.98399448  0.24804385  1
  Nb  Nb3  1  0.51048673  0.98399448  0.75195615  1
  Nb  Nb4  1  0.01600552  0.48951327  0.75195615  1
  Nb  Nb5  1  0.01600552  0.48951327  0.24804385  1
  O  O6  1  0.27252103  0.27987784  0.26553389  1
  O  O7  1  0.72012216  0.72747897  0.26553389  1
  O  O8  1  0.72012216  0.72747897  0.73446611  1
  O  O9  1  0.27252103  0.27987784  0.73446611  1
  O  O10  1  0.22714783  0.77285217  0.23492695  1
  O  O11  1  0.74971823  0.25028177  0.29037548  1
  O  O12  1  0.74971823  0.25028177  0.70962452  1
  O  O13  1  0.22714783  0.77285217  0.76507305  1
  O  O14  1  0.51875588  0.01926506  0.00000000  1
  O  O15  1  0.46779833  0.96478139  0.50000000  1
  O  O16  1  0.98073494  0.48124412  0.00000000  1
  O  O17  1  0.03521861  0.53220167  0.50000000  1
