# generated using pymatgen
data_BaPrDySnO6
_symmetry_space_group_name_H-M   'P 1'
_cell_length_a   6.00817160
_cell_length_b   6.00817160
_cell_length_c   6.00817160
_cell_angle_alpha   60.00000000
_cell_angle_beta   60.00000000
_cell_angle_gamma   60.00000000
_symmetry_Int_Tables_number   1
_chemical_formula_structural   BaPrDySnO6
_chemical_formula_sum   'Ba1 Pr1 Dy1 Sn1 O6'
_cell_volume   153.35995986
_cell_formula_units_Z   1
loop_
 _symmetry_equiv_pos_site_id
 _symmetry_equiv_pos_as_xyz
  1  'x, y, z'
loop_
 _atom_site_type_symbol
 _atom_site_label
 _atom_site_symmetry_multiplicity
 _atom_site_fract_x
 _atom_site_fract_y
 _atom_site_fract_z
 _atom_site_occupancy
  Ba  Ba0  1  0.75000000  0.75000000  0.75000000  1
  Pr  Pr1  1  0.25000000  0.25000000  0.25000000  1
  Dy  Dy2  1  0.00000000  0.00000000  0.00000000  1
  Sn  Sn3  1  0.50000000  0.50000000  0.50000000  1
  O  O4  1  0.74199511  0.25800489  0.25800489  1
  O  O5  1  0.25800489  0.74199511  0.74199511  1
  O  O6  1  0.74199511  0.25800489  0.74199511  1
  O  O7  1  0.25800489  0.74199511  0.25800489  1
  O  O8  1  0.74199511  0.74199511  0.25800489  1
  O  O9  1  0.25800489  0.25800489  0.74199511  1
