# generated using pymatgen
data_SrCaEuSbO6
_symmetry_space_group_name_H-M   'P 1'
_cell_length_a   5.81650321
_cell_length_b   5.81650321
_cell_length_c   8.46269898
_cell_angle_alpha   90.00000000
_cell_angle_beta   90.00000000
_cell_angle_gamma   90.00000000
_symmetry_Int_Tables_number   1
_chemical_formula_structural   SrCaEuSbO6
_chemical_formula_sum   'Sr2 Ca2 Eu2 Sb2 O12'
_cell_volume   286.30757426
_cell_formula_units_Z   2
loop_
 _symmetry_equiv_pos_site_id
 _symmetry_equiv_pos_as_xyz
  1  'x, y, z'
loop_
 _atom_site_type_symbol
 _atom_site_label
 _atom_site_symmetry_multiplicity
 _atom_site_fract_x
 _atom_site_fract_y
 _atom_site_fract_z
 _atom_site_occupancy
  Sr  Sr0  1  -0.00000000  0.50000000  0.25000000  1
  Sr  Sr1  1  0.50000000  0.00000000  0.75000000  1
  Ca  Ca2  1  -0.00000000  0.00000000  -0.00000000  1
  Ca  Ca3  1  0.50000000  0.50000000  0.50000000  1
  Eu  Eu4  1  0.50000000  0.00000000  0.25000000  1
  Eu  Eu5  1  -0.00000000  0.50000000  0.75000000  1
  Sb  Sb6  1  -0.00000000  0.00000000  0.50000000  1
  Sb  Sb7  1  0.50000000  0.50000000  0.00000000  1
  O  O8  1  -0.00000000  0.00000000  0.26371635  1
  O  O9  1  0.50000000  0.50000000  0.23628365  1
  O  O10  1  -0.00000000  0.00000000  0.73628365  1
  O  O11  1  0.50000000  0.50000000  0.76371635  1
  O  O12  1  0.34415159  0.19236840  0.01307812  1
  O  O13  1  0.65584841  0.80763160  0.01307812  1
  O  O14  1  0.80763160  0.34415159  0.98692188  1
  O  O15  1  0.19236840  0.65584841  0.98692188  1
  O  O16  1  0.84415159  0.30763160  0.51307812  1
  O  O17  1  0.15584841  0.69236840  0.51307812  1
  O  O18  1  0.30763160  0.15584841  0.48692188  1
  O  O19  1  0.69236840  0.84415159  0.48692188  1
