# generated using pymatgen
data_MoSeS
_symmetry_space_group_name_H-M   'P 1'
_cell_length_a   3.25514452
_cell_length_b   3.25514452
_cell_length_c   36.84519800
_cell_angle_alpha   90.00000000
_cell_angle_beta   90.00000000
_cell_angle_gamma   120.00001061
_symmetry_Int_Tables_number   1
_chemical_formula_structural   MoSeS
_chemical_formula_sum   'Mo4 Se4 S4'
_cell_volume   338.10534022
_cell_formula_units_Z   4
loop_
 _symmetry_equiv_pos_site_id
 _symmetry_equiv_pos_as_xyz
  1  'x, y, z'
loop_
 _atom_site_type_symbol
 _atom_site_label
 _atom_site_symmetry_multiplicity
 _atom_site_fract_x
 _atom_site_fract_y
 _atom_site_fract_z
 _atom_site_occupancy
  Mo  Mo0  1  0.33333300  0.66666700  0.71818800  1
  Mo  Mo1  1  0.33333300  0.66666700  0.09394300  1
  Mo  Mo2  1  0.66666700  0.33333300  0.90605700  1
  Mo  Mo3  1  0.66666700  0.33333300  0.28181200  1
  Se  Se4  1  0.33333300  0.66666700  0.95212300  1
  Se  Se5  1  0.66666700  0.33333300  0.04787700  1
  Se  Se6  1  0.66666700  0.33333300  0.14005600  1
  Se  Se7  1  0.33333300  0.66666700  0.85994400  1
  S  S8  1  0.33333300  0.66666700  0.32371900  1
  S  S9  1  0.66666700  0.33333300  0.67628100  1
  S  S10  1  0.66666700  0.33333300  0.76010200  1
  S  S11  1  0.33333300  0.66666700  0.23989800  1
