# generated using pymatgen
data_Ca2YBiO6
_symmetry_space_group_name_H-M   'P 1'
_cell_length_a   8.38724791
_cell_length_b   8.38724791
_cell_length_c   8.38724791
_cell_angle_alpha   90.00000000
_cell_angle_beta   90.00000000
_cell_angle_gamma   90.00000000
_symmetry_Int_Tables_number   1
_chemical_formula_structural   Ca2YBiO6
_chemical_formula_sum   'Ca8 Y4 Bi4 O24'
_cell_volume   590.00873343
_cell_formula_units_Z   4
loop_
 _symmetry_equiv_pos_site_id
 _symmetry_equiv_pos_as_xyz
  1  'x, y, z'
loop_
 _atom_site_type_symbol
 _atom_site_label
 _atom_site_symmetry_multiplicity
 _atom_site_fract_x
 _atom_site_fract_y
 _atom_site_fract_z
 _atom_site_occupancy
  Ca  Ca0  1  0.50000000  0.50000000  0.50000000  1
  Ca  Ca1  1  0.00000000  -0.00000000  0.00000000  1
  Ca  Ca2  1  0.00000000  -0.00000000  0.50000000  1
  Ca  Ca3  1  0.00000000  0.50000000  -0.00000000  1
  Ca  Ca4  1  0.50000000  -0.00000000  -0.00000000  1
  Ca  Ca5  1  0.50000000  0.50000000  -0.00000000  1
  Ca  Ca6  1  0.50000000  -0.00000000  0.50000000  1
  Ca  Ca7  1  0.00000000  0.50000000  0.50000000  1
  Y  Y8  1  0.25000000  0.25000000  0.25000000  1
  Y  Y9  1  0.25000000  0.75000000  0.75000000  1
  Y  Y10  1  0.75000000  0.25000000  0.75000000  1
  Y  Y11  1  0.75000000  0.75000000  0.25000000  1
  Bi  Bi12  1  0.75000000  0.75000000  0.75000000  1
  Bi  Bi13  1  0.75000000  0.25000000  0.25000000  1
  Bi  Bi14  1  0.25000000  0.75000000  0.25000000  1
  Bi  Bi15  1  0.25000000  0.25000000  0.75000000  1
  O  O16  1  0.20439734  0.31063749  0.50749060  1
  O  O17  1  0.20439734  0.68936251  0.49250940  1
  O  O18  1  0.79560266  0.31063749  0.49250940  1
  O  O19  1  0.79560266  0.68936251  0.50749060  1
  O  O20  1  0.31063749  0.50749060  0.20439734  1
  O  O21  1  0.68936251  0.49250940  0.20439734  1
  O  O22  1  0.31063749  0.49250940  0.79560266  1
  O  O23  1  0.68936251  0.50749060  0.79560266  1
  O  O24  1  0.50749060  0.20439734  0.31063749  1
  O  O25  1  0.49250940  0.20439734  0.68936251  1
  O  O26  1  0.49250940  0.79560266  0.31063749  1
  O  O27  1  0.50749060  0.79560266  0.68936251  1
  O  O28  1  0.29560266  0.18936251  0.99250940  1
  O  O29  1  0.29560266  0.81063749  0.00749060  1
  O  O30  1  0.70439734  0.18936251  0.00749060  1
  O  O31  1  0.70439734  0.81063749  0.99250940  1
  O  O32  1  0.18936251  0.99250940  0.29560266  1
  O  O33  1  0.81063749  0.00749060  0.29560266  1
  O  O34  1  0.18936251  0.00749060  0.70439734  1
  O  O35  1  0.81063749  0.99250940  0.70439734  1
  O  O36  1  0.99250940  0.29560266  0.18936251  1
  O  O37  1  0.00749060  0.29560266  0.81063749  1
  O  O38  1  0.00749060  0.70439734  0.18936251  1
  O  O39  1  0.99250940  0.70439734  0.81063749  1
