# generated using pymatgen
data_PrZn(BiO3)2
_symmetry_space_group_name_H-M   'P 1'
_cell_length_a   8.45102952
_cell_length_b   8.45102952
_cell_length_c   8.45102952
_cell_angle_alpha   90.00000000
_cell_angle_beta   90.00000000
_cell_angle_gamma   90.00000000
_symmetry_Int_Tables_number   1
_chemical_formula_structural   PrZn(BiO3)2
_chemical_formula_sum   'Pr4 Zn4 Bi8 O24'
_cell_volume   603.57168278
_cell_formula_units_Z   4
loop_
 _symmetry_equiv_pos_site_id
 _symmetry_equiv_pos_as_xyz
  1  'x, y, z'
loop_
 _atom_site_type_symbol
 _atom_site_label
 _atom_site_symmetry_multiplicity
 _atom_site_fract_x
 _atom_site_fract_y
 _atom_site_fract_z
 _atom_site_occupancy
  Pr  Pr0  1  0.75000000  0.75000000  0.75000000  1
  Pr  Pr1  1  0.75000000  0.25000000  0.25000000  1
  Pr  Pr2  1  0.25000000  0.75000000  0.25000000  1
  Pr  Pr3  1  0.25000000  0.25000000  0.75000000  1
  Zn  Zn4  1  0.25000000  0.25000000  0.25000000  1
  Zn  Zn5  1  0.25000000  0.75000000  0.75000000  1
  Zn  Zn6  1  0.75000000  0.25000000  0.75000000  1
  Zn  Zn7  1  0.75000000  0.75000000  0.25000000  1
  Bi  Bi8  1  0.50000000  0.50000000  0.50000000  1
  Bi  Bi9  1  0.00000000  0.00000000  0.00000000  1
  Bi  Bi10  1  0.00000000  0.00000000  0.50000000  1
  Bi  Bi11  1  0.00000000  0.50000000  0.00000000  1
  Bi  Bi12  1  0.50000000  0.00000000  0.00000000  1
  Bi  Bi13  1  0.50000000  0.50000000  0.00000000  1
  Bi  Bi14  1  0.50000000  0.00000000  0.50000000  1
  Bi  Bi15  1  0.00000000  0.50000000  0.50000000  1
  O  O16  1  0.19905846  0.32043478  0.48499552  1
  O  O17  1  0.19905846  0.67956522  0.51500448  1
  O  O18  1  0.80094154  0.32043478  0.51500448  1
  O  O19  1  0.80094154  0.67956522  0.48499552  1
  O  O20  1  0.32043478  0.48499552  0.19905846  1
  O  O21  1  0.67956522  0.51500448  0.19905846  1
  O  O22  1  0.32043478  0.51500448  0.80094154  1
  O  O23  1  0.67956522  0.48499552  0.80094154  1
  O  O24  1  0.48499552  0.19905846  0.32043478  1
  O  O25  1  0.51500448  0.19905846  0.67956522  1
  O  O26  1  0.51500448  0.80094154  0.32043478  1
  O  O27  1  0.48499552  0.80094154  0.67956522  1
  O  O28  1  0.30094154  0.17956522  0.01500448  1
  O  O29  1  0.30094154  0.82043478  0.98499552  1
  O  O30  1  0.69905846  0.17956522  0.98499552  1
  O  O31  1  0.69905846  0.82043478  0.01500448  1
  O  O32  1  0.17956522  0.01500448  0.30094154  1
  O  O33  1  0.82043478  0.98499552  0.30094154  1
  O  O34  1  0.17956522  0.98499552  0.69905846  1
  O  O35  1  0.82043478  0.01500448  0.69905846  1
  O  O36  1  0.01500448  0.30094154  0.17956522  1
  O  O37  1  0.98499552  0.30094154  0.82043478  1
  O  O38  1  0.98499552  0.69905846  0.17956522  1
  O  O39  1  0.01500448  0.69905846  0.82043478  1
