# generated using pymatgen
data_NaIn(GeO3)4
_symmetry_space_group_name_H-M   'P 1'
_cell_length_a   5.26101848
_cell_length_b   5.26101848
_cell_length_c   7.42083446
_cell_angle_alpha   90.00000000
_cell_angle_beta   90.00000000
_cell_angle_gamma   91.04960026
_symmetry_Int_Tables_number   1
_chemical_formula_structural   NaIn(GeO3)4
_chemical_formula_sum   'Na1 In1 Ge4 O12'
_cell_volume   205.36173376
_cell_formula_units_Z   1
loop_
 _symmetry_equiv_pos_site_id
 _symmetry_equiv_pos_as_xyz
  1  'x, y, z'
loop_
 _atom_site_type_symbol
 _atom_site_label
 _atom_site_symmetry_multiplicity
 _atom_site_fract_x
 _atom_site_fract_y
 _atom_site_fract_z
 _atom_site_occupancy
  Na  Na0  1  0.01589610  0.98410390  0.50000000  1
  In  In1  1  0.48327772  0.51672228  0.00000000  1
  Ge  Ge2  1  0.50243106  0.00694082  0.25650111  1
  Ge  Ge3  1  0.50243106  0.00694082  0.74349889  1
  Ge  Ge4  1  0.99305918  0.49756894  0.74349889  1
  Ge  Ge5  1  0.99305918  0.49756894  0.25650111  1
  O  O6  1  0.29357108  0.29992743  0.22446675  1
  O  O7  1  0.70007257  0.70642892  0.22446675  1
  O  O8  1  0.70007257  0.70642892  0.77553325  1
  O  O9  1  0.29357108  0.29992743  0.77553325  1
  O  O10  1  0.22693038  0.77306962  0.19206881  1
  O  O11  1  0.79791937  0.20208063  0.29535629  1
  O  O12  1  0.79791937  0.20208063  0.70464371  1
  O  O13  1  0.22693038  0.77306962  0.80793119  1
  O  O14  1  0.55001553  0.07336176  -0.00000000  1
  O  O15  1  0.44562383  0.96851870  0.50000000  1
  O  O16  1  0.92663824  0.44998447  -0.00000000  1
  O  O17  1  0.03148130  0.55437617  0.50000000  1
