# generated using pymatgen
data_Pr3Tm
_symmetry_space_group_name_H-M   'P 1'
_cell_length_a   7.35355797
_cell_length_b   7.35355797
_cell_length_c   5.99697100
_cell_angle_alpha   90.00000000
_cell_angle_beta   90.00000000
_cell_angle_gamma   119.99999972
_symmetry_Int_Tables_number   1
_chemical_formula_structural   Pr3Tm
_chemical_formula_sum   'Pr6 Tm2'
_cell_volume   280.83913215
_cell_formula_units_Z   2
loop_
 _symmetry_equiv_pos_site_id
 _symmetry_equiv_pos_as_xyz
  1  'x, y, z'
loop_
 _atom_site_type_symbol
 _atom_site_label
 _atom_site_symmetry_multiplicity
 _atom_site_fract_x
 _atom_site_fract_y
 _atom_site_fract_z
 _atom_site_occupancy
  Pr  Pr0  1  0.16841200  0.33682400  0.25000000  1
  Pr  Pr1  1  0.66317600  0.83158800  0.25000000  1
  Pr  Pr2  1  0.16841200  0.83158800  0.25000000  1
  Pr  Pr3  1  0.83158800  0.66317600  0.75000000  1
  Pr  Pr4  1  0.33682400  0.16841200  0.75000000  1
  Pr  Pr5  1  0.83158800  0.16841200  0.75000000  1
  Tm  Tm6  1  0.33333300  0.66666700  0.75000000  1
  Tm  Tm7  1  0.66666700  0.33333300  0.25000000  1
