# generated using pymatgen
data_SrCaCr4O12
_symmetry_space_group_name_H-M   'P 1'
_cell_length_a   5.31854308
_cell_length_b   5.31854308
_cell_length_c   7.51199984
_cell_angle_alpha   90.00000000
_cell_angle_beta   90.00000000
_cell_angle_gamma   90.73426783
_symmetry_Int_Tables_number   1
_chemical_formula_structural   SrCaCr4O12
_chemical_formula_sum   'Sr1 Ca1 Cr4 O12'
_cell_volume   212.47374338
_cell_formula_units_Z   1
loop_
 _symmetry_equiv_pos_site_id
 _symmetry_equiv_pos_as_xyz
  1  'x, y, z'
loop_
 _atom_site_type_symbol
 _atom_site_label
 _atom_site_symmetry_multiplicity
 _atom_site_fract_x
 _atom_site_fract_y
 _atom_site_fract_z
 _atom_site_occupancy
  Sr  Sr0  1  0.98833129  0.98833129  0.50000000  1
  Ca  Ca1  1  0.51368864  0.51368864  0.00000000  1
  Cr  Cr2  1  0.49423111  0.00047590  0.75204049  1
  Cr  Cr3  1  0.49423111  0.00047590  0.24795951  1
  Cr  Cr4  1  0.00047590  0.49423111  0.24795951  1
  Cr  Cr5  1  0.00047590  0.49423111  0.75204049  1
  O  O6  1  0.77281938  0.22930639  0.75525549  1
  O  O7  1  0.22930639  0.77281938  0.75525549  1
  O  O8  1  0.22930639  0.77281938  0.24474451  1
  O  O9  1  0.77281938  0.22930639  0.24474451  1
  O  O10  1  0.72254648  0.72254648  0.72635830  1
  O  O11  1  0.28225185  0.28225185  0.78406428  1
  O  O12  1  0.28225185  0.28225185  0.21593572  1
  O  O13  1  0.72254648  0.72254648  0.27364170  1
  O  O14  1  0.52091483  0.96304874  0.00000000  1
  O  O15  1  0.48119335  0.02786093  0.50000000  1
  O  O16  1  0.96304874  0.52091483  0.00000000  1
  O  O17  1  0.02786093  0.48119335  0.50000000  1
