# generated using pymatgen
data_BaEuZr4O12
_symmetry_space_group_name_H-M   'P 1'
_cell_length_a   5.85801419
_cell_length_b   5.85801419
_cell_length_c   8.26717428
_cell_angle_alpha   90.00000000
_cell_angle_beta   90.00000000
_cell_angle_gamma   90.10481156
_symmetry_Int_Tables_number   1
_chemical_formula_structural   BaEuZr4O12
_chemical_formula_sum   'Ba1 Eu1 Zr4 O12'
_cell_volume   283.69860810
_cell_formula_units_Z   1
loop_
 _symmetry_equiv_pos_site_id
 _symmetry_equiv_pos_as_xyz
  1  'x, y, z'
loop_
 _atom_site_type_symbol
 _atom_site_label
 _atom_site_symmetry_multiplicity
 _atom_site_fract_x
 _atom_site_fract_y
 _atom_site_fract_z
 _atom_site_occupancy
  Ba  Ba0  1  0.50641190  0.50641190  -0.00000000  1
  Eu  Eu1  1  0.99107409  0.99107409  0.50000000  1
  Zr  Zr2  1  0.49817401  0.00199026  0.74747392  1
  Zr  Zr3  1  0.49817401  0.00199026  0.25252608  1
  Zr  Zr4  1  0.00199026  0.49817401  0.25252608  1
  Zr  Zr5  1  0.00199026  0.49817401  0.74747392  1
  O  O6  1  0.73080797  0.26926101  0.74651281  1
  O  O7  1  0.26926101  0.73080797  0.74651281  1
  O  O8  1  0.26926101  0.73080797  0.25348719  1
  O  O9  1  0.73080797  0.26926101  0.25348719  1
  O  O10  1  0.77660329  0.77660329  0.76360800  1
  O  O11  1  0.21316604  0.21316604  0.71107150  1
  O  O12  1  0.21316604  0.21316604  0.28892850  1
  O  O13  1  0.77660329  0.77660329  0.23639200  1
  O  O14  1  0.47790313  0.02205702  -0.00000000  1
  O  O15  1  0.54382134  0.98002734  0.50000000  1
  O  O16  1  0.02205702  0.47790313  -0.00000000  1
  O  O17  1  0.98002734  0.54382134  0.50000000  1
