# generated using pymatgen
data_BaEuDySnO6
_symmetry_space_group_name_H-M   'P 1'
_cell_length_a   8.46515510
_cell_length_b   8.41807848
_cell_length_c   8.47012445
_cell_angle_alpha   90.00000000
_cell_angle_beta   90.00000000
_cell_angle_gamma   90.00000000
_symmetry_Int_Tables_number   1
_chemical_formula_structural   BaEuDySnO6
_chemical_formula_sum   'Ba4 Eu4 Dy4 Sn4 O24'
_cell_volume   603.58394796
_cell_formula_units_Z   4
loop_
 _symmetry_equiv_pos_site_id
 _symmetry_equiv_pos_as_xyz
  1  'x, y, z'
loop_
 _atom_site_type_symbol
 _atom_site_label
 _atom_site_symmetry_multiplicity
 _atom_site_fract_x
 _atom_site_fract_y
 _atom_site_fract_z
 _atom_site_occupancy
  Ba  Ba0  1  -0.00000000  0.00000000  0.00000000  1
  Ba  Ba1  1  0.50000000  0.50000000  0.50000000  1
  Ba  Ba2  1  0.50000000  0.00000000  0.50000000  1
  Ba  Ba3  1  -0.00000000  0.50000000  0.00000000  1
  Eu  Eu4  1  -0.00000000  0.50000000  0.50000000  1
  Eu  Eu5  1  0.50000000  0.50000000  0.00000000  1
  Eu  Eu6  1  0.50000000  0.00000000  0.00000000  1
  Eu  Eu7  1  0.00000000  0.00000000  0.50000000  1
  Dy  Dy8  1  0.75000000  0.75000000  0.75000000  1
  Dy  Dy9  1  0.25000000  0.25000000  0.75000000  1
  Dy  Dy10  1  0.25000000  0.75000000  0.25000000  1
  Dy  Dy11  1  0.75000000  0.25000000  0.25000000  1
  Sn  Sn12  1  0.25000000  0.25000000  0.25000000  1
  Sn  Sn13  1  0.75000000  0.75000000  0.25000000  1
  Sn  Sn14  1  0.75000000  0.25000000  0.75000000  1
  Sn  Sn15  1  0.25000000  0.75000000  0.75000000  1
  O  O16  1  0.00906928  0.18990468  0.28132240  1
  O  O17  1  0.99093072  0.81009532  0.28132240  1
  O  O18  1  0.99093072  0.18990468  0.71867760  1
  O  O19  1  0.00906928  0.81009532  0.71867760  1
  O  O20  1  0.30816011  0.00946389  0.20636037  1
  O  O21  1  0.30816011  0.99053611  0.79363963  1
  O  O22  1  0.69183989  0.99053611  0.20636037  1
  O  O23  1  0.69183989  0.00946389  0.79363963  1
  O  O24  1  0.23152917  0.28322863  0.00892143  1
  O  O25  1  0.76847083  0.28322863  0.99107857  1
  O  O26  1  0.23152917  0.71677137  0.99107857  1
  O  O27  1  0.76847083  0.71677137  0.00892143  1
  O  O28  1  0.49093072  0.31009532  0.21867760  1
  O  O29  1  0.50906928  0.68990468  0.21867760  1
  O  O30  1  0.50906928  0.31009532  0.78132240  1
  O  O31  1  0.49093072  0.68990468  0.78132240  1
  O  O32  1  0.19183989  0.49053611  0.29363963  1
  O  O33  1  0.19183989  0.50946389  0.70636037  1
  O  O34  1  0.80816011  0.50946389  0.29363963  1
  O  O35  1  0.80816011  0.49053611  0.70636037  1
  O  O36  1  0.26847083  0.21677137  0.49107857  1
  O  O37  1  0.73152917  0.21677137  0.50892143  1
  O  O38  1  0.26847083  0.78322863  0.50892143  1
  O  O39  1  0.73152917  0.78322863  0.49107857  1
