# generated using pymatgen
data_BaSrNbBiO6
_symmetry_space_group_name_H-M   'P 1'
_cell_length_a   8.60905328
_cell_length_b   8.60994309
_cell_length_c   8.60061776
_cell_angle_alpha   90.00000000
_cell_angle_beta   90.00000000
_cell_angle_gamma   90.00000000
_symmetry_Int_Tables_number   1
_chemical_formula_structural   BaSrNbBiO6
_chemical_formula_sum   'Ba4 Sr4 Nb4 Bi4 O24'
_cell_volume   637.50753618
_cell_formula_units_Z   4
loop_
 _symmetry_equiv_pos_site_id
 _symmetry_equiv_pos_as_xyz
  1  'x, y, z'
loop_
 _atom_site_type_symbol
 _atom_site_label
 _atom_site_symmetry_multiplicity
 _atom_site_fract_x
 _atom_site_fract_y
 _atom_site_fract_z
 _atom_site_occupancy
  Ba  Ba0  1  -0.00000000  0.00000000  0.00000000  1
  Ba  Ba1  1  0.50000000  0.50000000  0.50000000  1
  Ba  Ba2  1  0.50000000  0.00000000  0.50000000  1
  Ba  Ba3  1  0.50000000  0.50000000  0.00000000  1
  Sr  Sr4  1  -0.00000000  0.50000000  0.50000000  1
  Sr  Sr5  1  0.50000000  0.00000000  0.00000000  1
  Sr  Sr6  1  -0.00000000  0.50000000  0.00000000  1
  Sr  Sr7  1  -0.00000000  0.00000000  0.50000000  1
  Nb  Nb8  1  0.24692795  0.24934455  0.24878106  1
  Nb  Nb9  1  0.75307205  0.75065545  0.24878106  1
  Nb  Nb10  1  0.75307205  0.24934455  0.75121894  1
  Nb  Nb11  1  0.24692795  0.75065545  0.75121894  1
  Bi  Bi12  1  0.75604670  0.74956127  0.74903838  1
  Bi  Bi13  1  0.24395330  0.25043873  0.74903838  1
  Bi  Bi14  1  0.24395330  0.74956127  0.25096162  1
  Bi  Bi15  1  0.75604670  0.25043873  0.25096162  1
  O  O16  1  0.01590054  0.20345181  0.28683636  1
  O  O17  1  0.98409946  0.79654819  0.28683636  1
  O  O18  1  0.98409946  0.20345181  0.71316364  1
  O  O19  1  0.01590054  0.79654819  0.71316364  1
  O  O20  1  0.28313431  0.02093913  0.20553855  1
  O  O21  1  0.28313431  0.97906087  0.79446145  1
  O  O22  1  0.71686569  0.97906087  0.20553855  1
  O  O23  1  0.71686569  0.02093913  0.79446145  1
  O  O24  1  0.20427677  0.29010734  0.02317162  1
  O  O25  1  0.79572323  0.29010734  0.97682838  1
  O  O26  1  0.20427677  0.70989266  0.97682838  1
  O  O27  1  0.79572323  0.70989266  0.02317162  1
  O  O28  1  0.47680043  0.28131295  0.22635853  1
  O  O29  1  0.52319957  0.71868705  0.22635853  1
  O  O30  1  0.52319957  0.28131295  0.77364147  1
  O  O31  1  0.47680043  0.71868705  0.77364147  1
  O  O32  1  0.21040059  0.48227910  0.28824119  1
  O  O33  1  0.21040059  0.51772090  0.71175881  1
  O  O34  1  0.78959941  0.51772090  0.28824119  1
  O  O35  1  0.78959941  0.48227910  0.71175881  1
  O  O36  1  0.27526767  0.22182570  0.48412605  1
  O  O37  1  0.72473233  0.22182570  0.51587395  1
  O  O38  1  0.27526767  0.77817430  0.51587395  1
  O  O39  1  0.72473233  0.77817430  0.48412605  1
