# generated using pymatgen
data_BaCeEuNbO6
_symmetry_space_group_name_H-M   'P 1'
_cell_length_a   6.11110784
_cell_length_b   6.17061232
_cell_length_c   8.66719885
_cell_angle_alpha   90.22637323
_cell_angle_beta   90.42576494
_cell_angle_gamma   89.96346474
_symmetry_Int_Tables_number   1
_chemical_formula_structural   BaCeEuNbO6
_chemical_formula_sum   'Ba2 Ce2 Eu2 Nb2 O12'
_cell_volume   326.82216961
_cell_formula_units_Z   2
loop_
 _symmetry_equiv_pos_site_id
 _symmetry_equiv_pos_as_xyz
  1  'x, y, z'
loop_
 _atom_site_type_symbol
 _atom_site_label
 _atom_site_symmetry_multiplicity
 _atom_site_fract_x
 _atom_site_fract_y
 _atom_site_fract_z
 _atom_site_occupancy
  Ba  Ba0  1  0.50953003  0.53710494  0.24914921  1
  Ba  Ba1  1  0.49046997  0.46289506  0.75085079  1
  Ce  Ce2  1  0.00000000  0.50000000  0.00000000  1
  Ce  Ce3  1  0.50000000  -0.00000000  0.50000000  1
  Eu  Eu4  1  0.99075134  0.04675488  0.25218791  1
  Eu  Eu5  1  0.00924866  0.95324512  0.74781209  1
  Nb  Nb6  1  0.50000000  -0.00000000  0.00000000  1
  Nb  Nb7  1  0.00000000  0.50000000  0.50000000  1
  O  O8  1  0.22418834  0.18748710  0.95440071  1
  O  O9  1  0.26471643  0.69976620  0.54075008  1
  O  O10  1  0.77581166  0.81251290  0.04559929  1
  O  O11  1  0.73528357  0.30023380  0.45924992  1
  O  O12  1  0.30335896  0.73321426  0.95713237  1
  O  O13  1  0.18302833  0.22214707  0.54399222  1
  O  O14  1  0.69664104  0.26678574  0.04286763  1
  O  O15  1  0.81697167  0.77785293  0.45600778  1
  O  O16  1  0.40644445  0.99109761  0.23068813  1
  O  O17  1  0.06858318  0.47093754  0.26849632  1
  O  O18  1  0.59355555  0.00890239  0.76931187  1
  O  O19  1  0.93141682  0.52906246  0.73150368  1
