# generated using pymatgen
data_BaSrSmNbO6
_symmetry_space_group_name_H-M   'P 1'
_cell_length_a   8.53086563
_cell_length_b   8.53705733
_cell_length_c   8.53943871
_cell_angle_alpha   90.00000000
_cell_angle_beta   90.00000000
_cell_angle_gamma   90.00000000
_symmetry_Int_Tables_number   1
_chemical_formula_structural   BaSrSmNbO6
_chemical_formula_sum   'Ba4 Sr4 Sm4 Nb4 O24'
_cell_volume   621.91441780
_cell_formula_units_Z   4
loop_
 _symmetry_equiv_pos_site_id
 _symmetry_equiv_pos_as_xyz
  1  'x, y, z'
loop_
 _atom_site_type_symbol
 _atom_site_label
 _atom_site_symmetry_multiplicity
 _atom_site_fract_x
 _atom_site_fract_y
 _atom_site_fract_z
 _atom_site_occupancy
  Ba  Ba0  1  0.00000000  0.00000000  0.00000000  1
  Ba  Ba1  1  0.50000000  0.50000000  0.50000000  1
  Ba  Ba2  1  0.00000000  0.50000000  -0.00000000  1
  Ba  Ba3  1  0.00000000  0.00000000  0.50000000  1
  Sr  Sr4  1  0.00000000  0.50000000  0.50000000  1
  Sr  Sr5  1  0.50000000  0.00000000  0.50000000  1
  Sr  Sr6  1  0.50000000  0.50000000  0.00000000  1
  Sr  Sr7  1  0.50000000  0.00000000  -0.00000000  1
  Sm  Sm8  1  0.25164996  0.25044355  0.25199274  1
  Sm  Sm9  1  0.74835004  0.74955645  0.25199274  1
  Sm  Sm10  1  0.74835004  0.25044355  0.74800726  1
  Sm  Sm11  1  0.25164996  0.74955645  0.74800726  1
  Nb  Nb12  1  0.74650100  0.74910672  0.75009849  1
  Nb  Nb13  1  0.25349900  0.25089328  0.75009849  1
  Nb  Nb14  1  0.25349900  0.74910672  0.24990151  1
  Nb  Nb15  1  0.74650100  0.25089328  0.24990151  1
  O  O16  1  0.98220094  0.22163774  0.27358011  1
  O  O17  1  0.01779906  0.77836226  0.27358011  1
  O  O18  1  0.01779906  0.22163774  0.72641989  1
  O  O19  1  0.98220094  0.77836226  0.72641989  1
  O  O20  1  0.28517932  0.98314945  0.21764972  1
  O  O21  1  0.28517932  0.01685055  0.78235028  1
  O  O22  1  0.71482068  0.01685055  0.21764972  1
  O  O23  1  0.71482068  0.98314945  0.78235028  1
  O  O24  1  0.22532050  0.27781467  0.98423620  1
  O  O25  1  0.77467950  0.27781467  0.01576380  1
  O  O26  1  0.22532050  0.72218533  0.01576380  1
  O  O27  1  0.77467950  0.72218533  0.98423620  1
  O  O28  1  0.51654259  0.29388103  0.21737569  1
  O  O29  1  0.48345741  0.70611897  0.21737569  1
  O  O30  1  0.48345741  0.29388103  0.78262431  1
  O  O31  1  0.51654259  0.70611897  0.78262431  1
  O  O32  1  0.21950942  0.51734208  0.29103500  1
  O  O33  1  0.21950942  0.48265792  0.70896500  1
  O  O34  1  0.78049058  0.48265792  0.29103500  1
  O  O35  1  0.78049058  0.51734208  0.70896500  1
  O  O36  1  0.28961701  0.21351835  0.51887105  1
  O  O37  1  0.71038299  0.21351835  0.48112895  1
  O  O38  1  0.28961701  0.78648165  0.48112895  1
  O  O39  1  0.71038299  0.78648165  0.51887105  1
