# generated using pymatgen
data_Ba4Ti12O27
_symmetry_space_group_name_H-M   'P 1'
_cell_length_a   11.56919501
_cell_length_b   11.56919501
_cell_length_c   10.03618554
_cell_angle_alpha   73.63662822
_cell_angle_beta   73.63662822
_cell_angle_gamma   59.85512659
_symmetry_Int_Tables_number   1
_chemical_formula_structural   Ba4Ti12O27
_chemical_formula_sum   'Ba8 Ti24 O54'
_cell_volume   1098.54485268
_cell_formula_units_Z   2
loop_
 _symmetry_equiv_pos_site_id
 _symmetry_equiv_pos_as_xyz
  1  'x, y, z'
loop_
 _atom_site_type_symbol
 _atom_site_label
 _atom_site_symmetry_multiplicity
 _atom_site_fract_x
 _atom_site_fract_y
 _atom_site_fract_z
 _atom_site_occupancy
  Ba  Ba0  1  0.20460100  0.20460100  0.87364700  1
  Ba  Ba1  1  0.79539900  0.79539900  0.12635300  1
  Ba  Ba2  1  0.07623700  0.07623700  0.28889900  1
  Ba  Ba3  1  0.92376300  0.92376300  0.71110100  1
  Ba  Ba4  1  0.20981500  0.66054800  0.21542700  1
  Ba  Ba5  1  0.33945200  0.79018500  0.78457300  1
  Ba  Ba6  1  0.79018500  0.33945200  0.78457300  1
  Ba  Ba7  1  0.66054800  0.20981500  0.21542700  1
  Ti  Ti8  1  0.00000000  0.00000000  0.00000000  1
  Ti  Ti9  1  0.50000000  0.50000000  0.50000000  1
  Ti  Ti10  1  0.00000000  0.50000000  0.50000000  1
  Ti  Ti11  1  0.50000000  0.00000000  0.50000000  1
  Ti  Ti12  1  0.23023700  0.76976300  0.50000000  1
  Ti  Ti13  1  0.76976300  0.23023700  0.50000000  1
  Ti  Ti14  1  0.38667600  0.38667600  0.92168900  1
  Ti  Ti15  1  0.61332400  0.61332400  0.07831100  1
  Ti  Ti16  1  0.26352900  0.26352900  0.48330000  1
  Ti  Ti17  1  0.73647100  0.73647100  0.51670000  1
  Ti  Ti18  1  0.11111300  0.11111300  0.61058900  1
  Ti  Ti19  1  0.88888700  0.88888700  0.38941100  1
  Ti  Ti20  1  0.88038000  0.36332200  0.07784300  1
  Ti  Ti21  1  0.63667800  0.11962000  0.92215700  1
  Ti  Ti22  1  0.11962000  0.63667800  0.92215700  1
  Ti  Ti23  1  0.36332200  0.88038000  0.07784300  1
  Ti  Ti24  1  0.49093000  0.77027800  0.34146500  1
  Ti  Ti25  1  0.22972200  0.50907000  0.65853500  1
  Ti  Ti26  1  0.50907000  0.22972200  0.65853500  1
  Ti  Ti27  1  0.77027800  0.49093000  0.34146500  1
  Ti  Ti28  1  0.38739600  0.12048300  0.21437600  1
  Ti  Ti29  1  0.87951700  0.61260400  0.78562400  1
  Ti  Ti30  1  0.61260400  0.87951700  0.78562400  1
  Ti  Ti31  1  0.12048300  0.38739600  0.21437600  1
  O  O32  1  0.43284800  0.43284800  0.69385400  1
  O  O33  1  0.56715200  0.56715200  0.30614600  1
  O  O34  1  0.31371200  0.31371200  0.11101600  1
  O  O35  1  0.68628800  0.68628800  0.88898400  1
  O  O36  1  0.31628000  0.31628000  0.61497100  1
  O  O37  1  0.68372000  0.68372000  0.38502900  1
  O  O38  1  0.20536500  0.20536500  0.34390300  1
  O  O39  1  0.79463500  0.79463500  0.65609700  1
  O  O40  1  0.06874500  0.06874500  0.80043700  1
  O  O41  1  0.93125500  0.93125500  0.19956300  1
  O  O42  1  0.93499600  0.18524800  0.05172800  1
  O  O43  1  0.81475200  0.06500400  0.94827200  1
  O  O44  1  0.06500400  0.81475200  0.94827200  1
  O  O45  1  0.18524800  0.93499600  0.05172800  1
  O  O46  1  0.81953500  0.31284500  0.30147600  1
  O  O47  1  0.68715500  0.18046500  0.69852400  1
  O  O48  1  0.18046500  0.68715500  0.69852400  1
  O  O49  1  0.31284500  0.81953500  0.30147600  1
  O  O50  1  0.68964900  0.43328300  0.05681100  1
  O  O51  1  0.56671700  0.31035100  0.94318900  1
  O  O52  1  0.31035100  0.56671700  0.94318900  1
  O  O53  1  0.43328300  0.68964900  0.05681100  1
  O  O54  1  0.79319200  0.55004000  0.14187800  1
  O  O55  1  0.44996000  0.20680800  0.85812200  1
  O  O56  1  0.20680800  0.44996000  0.85812200  1
  O  O57  1  0.55004000  0.79319200  0.14187800  1
  O  O58  1  0.05319500  0.32207100  0.12374900  1
  O  O59  1  0.67792900  0.94680500  0.87625100  1
  O  O60  1  0.94680500  0.67792900  0.87625100  1
  O  O61  1  0.32207100  0.05319500  0.12374900  1
  O  O62  1  0.45234800  0.94448000  0.36068200  1
  O  O63  1  0.05552000  0.54765200  0.63931800  1
  O  O64  1  0.82625300  0.06331700  0.44040000  1
  O  O65  1  0.93668300  0.17374700  0.55960000  1
  O  O66  1  0.17374700  0.93668300  0.55960000  1
  O  O67  1  0.06331700  0.82625300  0.44040000  1
  O  O68  1  0.31064400  0.57157000  0.46913300  1
  O  O69  1  0.42843000  0.68935600  0.53086700  1
  O  O70  1  0.68935600  0.42843000  0.53086700  1
  O  O71  1  0.57157000  0.31064400  0.46913300  1
  O  O72  1  0.56671400  0.07653500  0.11302200  1
  O  O73  1  0.92346500  0.43328600  0.88697800  1
  O  O74  1  0.43328600  0.92346500  0.88697800  1
  O  O75  1  0.07653500  0.56671400  0.11302200  1
  O  O76  1  0.69517000  0.92379100  0.40423600  1
  O  O77  1  0.07620900  0.30483000  0.59576400  1
  O  O78  1  0.30483000  0.07620900  0.59576400  1
  O  O79  1  0.92379100  0.69517000  0.40423600  1
  O  O80  1  0.17660800  0.44074400  0.36936700  1
  O  O81  1  0.55925600  0.82339200  0.63063300  1
  O  O82  1  0.82339200  0.55925600  0.63063300  1
  O  O83  1  0.44074400  0.17660800  0.36936700  1
  O  O84  1  0.94448000  0.45234800  0.36068200  1
  O  O85  1  0.54765200  0.05552000  0.63931800  1
