# generated using pymatgen
data_BaTbEuSnO6
_symmetry_space_group_name_H-M   'P 1'
_cell_length_a   8.53337446
_cell_length_b   8.48637053
_cell_length_c   8.52041586
_cell_angle_alpha   90.00000000
_cell_angle_beta   90.00000000
_cell_angle_gamma   90.00000000
_symmetry_Int_Tables_number   1
_chemical_formula_structural   BaTbEuSnO6
_chemical_formula_sum   'Ba4 Tb4 Eu4 Sn4 O24'
_cell_volume   617.02617212
_cell_formula_units_Z   4
loop_
 _symmetry_equiv_pos_site_id
 _symmetry_equiv_pos_as_xyz
  1  'x, y, z'
loop_
 _atom_site_type_symbol
 _atom_site_label
 _atom_site_symmetry_multiplicity
 _atom_site_fract_x
 _atom_site_fract_y
 _atom_site_fract_z
 _atom_site_occupancy
  Ba  Ba0  1  0.00000000  0.00000000  -0.00000000  1
  Ba  Ba1  1  0.50000000  0.50000000  0.50000000  1
  Ba  Ba2  1  0.50000000  0.00000000  0.50000000  1
  Ba  Ba3  1  -0.00000000  0.50000000  0.00000000  1
  Tb  Tb4  1  0.25000000  0.25000000  0.25000000  1
  Tb  Tb5  1  0.75000000  0.75000000  0.25000000  1
  Tb  Tb6  1  0.75000000  0.25000000  0.75000000  1
  Tb  Tb7  1  0.25000000  0.75000000  0.75000000  1
  Eu  Eu8  1  0.00000000  0.50000000  0.50000000  1
  Eu  Eu9  1  0.50000000  0.50000000  0.00000000  1
  Eu  Eu10  1  0.50000000  0.00000000  0.00000000  1
  Eu  Eu11  1  0.00000000  0.00000000  0.50000000  1
  Sn  Sn12  1  0.75000000  0.75000000  0.75000000  1
  Sn  Sn13  1  0.25000000  0.25000000  0.75000000  1
  Sn  Sn14  1  0.25000000  0.75000000  0.25000000  1
  Sn  Sn15  1  0.75000000  0.25000000  0.25000000  1
  O  O16  1  0.99098884  0.19122187  0.28561754  1
  O  O17  1  0.00901116  0.80877813  0.28561754  1
  O  O18  1  0.00901116  0.19122187  0.71438246  1
  O  O19  1  0.99098884  0.80877813  0.71438246  1
  O  O20  1  0.30567384  0.99071905  0.20329645  1
  O  O21  1  0.30567384  0.00928095  0.79670355  1
  O  O22  1  0.69432616  0.00928095  0.20329645  1
  O  O23  1  0.69432616  0.99071905  0.79670355  1
  O  O24  1  0.22656577  0.28374286  0.99088605  1
  O  O25  1  0.77343423  0.28374286  0.00911395  1
  O  O26  1  0.22656577  0.71625714  0.00911395  1
  O  O27  1  0.77343423  0.71625714  0.99088605  1
  O  O28  1  0.50901116  0.30877813  0.21438246  1
  O  O29  1  0.49098884  0.69122187  0.21438246  1
  O  O30  1  0.49098884  0.30877813  0.78561754  1
  O  O31  1  0.50901116  0.69122187  0.78561754  1
  O  O32  1  0.19432616  0.50928095  0.29670355  1
  O  O33  1  0.19432616  0.49071905  0.70329645  1
  O  O34  1  0.80567384  0.49071905  0.29670355  1
  O  O35  1  0.80567384  0.50928095  0.70329645  1
  O  O36  1  0.27343423  0.21625714  0.50911395  1
  O  O37  1  0.72656577  0.21625714  0.49088605  1
  O  O38  1  0.27343423  0.78374286  0.49088605  1
  O  O39  1  0.72656577  0.78374286  0.50911395  1
