# generated using pymatgen
data_LaMgMnFeO6
_symmetry_space_group_name_H-M   'P 1'
_cell_length_a   5.47971000
_cell_length_b   5.33854067
_cell_length_c   7.65049146
_cell_angle_alpha   90.27135636
_cell_angle_beta   89.99989549
_cell_angle_gamma   89.99983062
_symmetry_Int_Tables_number   1
_chemical_formula_structural   LaMgMnFeO6
_chemical_formula_sum   'La2 Mg2 Mn2 Fe2 O12'
_cell_volume   223.80232564
_cell_formula_units_Z   2
loop_
 _symmetry_equiv_pos_site_id
 _symmetry_equiv_pos_as_xyz
  1  'x, y, z'
loop_
 _atom_site_type_symbol
 _atom_site_label
 _atom_site_symmetry_multiplicity
 _atom_site_fract_x
 _atom_site_fract_y
 _atom_site_fract_z
 _atom_site_occupancy
  La  La0  1  0.03363200  0.99197100  0.25042500  1
  La  La1  1  0.46636600  0.49197300  0.75042600  1
  Mg  Mg2  1  0.55467800  0.52622600  0.25056600  1
  Mg  Mg3  1  0.94533100  0.02622300  0.75056500  1
  Mn  Mn4  1  0.50231600  0.99942500  0.49928800  1
  Mn  Mn5  1  0.99768300  0.49941800  0.99927700  1
  Fe  Fe6  1  0.49984200  0.00129200  0.00250800  1
  Fe  Fe7  1  0.00015700  0.50128600  0.50250800  1
  O  O8  1  0.01991900  0.62696400  0.75546000  1
  O  O9  1  0.19473700  0.19964500  0.94247700  1
  O  O10  1  0.20396100  0.18860100  0.55760100  1
  O  O11  1  0.29603800  0.68860000  0.05760100  1
  O  O12  1  0.30526200  0.69964400  0.44247800  1
  O  O13  1  0.48008000  0.12696400  0.25545900  1
  O  O14  1  0.54381100  0.92401600  0.74452600  1
  O  O15  1  0.72735900  0.26604700  0.55125900  1
  O  O16  1  0.73332100  0.27581900  0.94589400  1
  O  O17  1  0.76668000  0.77581900  0.44589400  1
  O  O18  1  0.77264000  0.76604600  0.05125800  1
  O  O19  1  0.95618800  0.42401500  0.24452500  1
