# generated using pymatgen
data_MgMnP2O7
_symmetry_space_group_name_H-M   'P 1'
_cell_length_a   7.14626154
_cell_length_b   10.00204531
_cell_length_c   8.43948935
_cell_angle_alpha   94.13032817
_cell_angle_beta   112.84588689
_cell_angle_gamma   104.06745319
_symmetry_Int_Tables_number   1
_chemical_formula_structural   MgMnP2O7
_chemical_formula_sum   'Mg4 Mn4 P8 O28'
_cell_volume   529.81333966
_cell_formula_units_Z   4
loop_
 _symmetry_equiv_pos_site_id
 _symmetry_equiv_pos_as_xyz
  1  'x, y, z'
loop_
 _atom_site_type_symbol
 _atom_site_label
 _atom_site_symmetry_multiplicity
 _atom_site_fract_x
 _atom_site_fract_y
 _atom_site_fract_z
 _atom_site_occupancy
  Mg  Mg0  1  0.11944900  0.63001700  0.79474300  1
  Mg  Mg1  1  0.11947800  0.13004100  0.29483500  1
  Mg  Mg2  1  0.88056700  0.86993800  0.70512000  1
  Mg  Mg3  1  0.88053400  0.36997300  0.20518400  1
  Mn  Mn4  1  0.78670900  0.28945200  0.59871800  1
  Mn  Mn5  1  0.21343400  0.71052600  0.40132900  1
  Mn  Mn6  1  0.78603400  0.78946100  0.09850300  1
  Mn  Mn7  1  0.21362400  0.21059400  0.90137800  1
  P  P8  1  0.75810200  0.58526300  0.40755600  1
  P  P9  1  0.75815800  0.08520900  0.90760500  1
  P  P10  1  0.24183500  0.91475500  0.09242400  1
  P  P11  1  0.24192600  0.41476400  0.59244900  1
  P  P12  1  0.69312000  0.98579300  0.35107700  1
  P  P13  1  0.69315900  0.48582000  0.85107000  1
  P  P14  1  0.30685800  0.51422200  0.14896700  1
  P  P15  1  0.30684600  0.01418800  0.64893100  1
  O  O16  1  0.48582400  0.91636400  0.16209000  1
  O  O17  1  0.48586000  0.41636700  0.66208300  1
  O  O18  1  0.51415600  0.58362400  0.33790800  1
  O  O19  1  0.51419500  0.08363500  0.83791600  1
  O  O20  1  0.77073300  0.43295200  0.39683700  1
  O  O21  1  0.77068500  0.93292800  0.89690000  1
  O  O22  1  0.22932000  0.06706500  0.10313700  1
  O  O23  1  0.22929300  0.56705000  0.60317500  1
  O  O24  1  0.33960700  0.60390500  0.01820500  1
  O  O25  1  0.33958400  0.10388100  0.51820500  1
  O  O26  1  0.66043800  0.89611500  0.48179700  1
  O  O27  1  0.66042300  0.39610000  0.98177600  1
  O  O28  1  0.12779900  0.53417500  0.20009000  1
  O  O29  1  0.12784700  0.03416600  0.70011100  1
  O  O30  1  0.87214600  0.96583600  0.29989200  1
  O  O31  1  0.87217300  0.46580900  0.79989000  1
  O  O32  1  0.13687100  0.82962200  0.90515000  1
  O  O33  1  0.13683700  0.32962900  0.40517700  1
  O  O34  1  0.86317500  0.67036900  0.59484600  1
  O  O35  1  0.86313400  0.17036900  0.09485900  1
  O  O36  1  0.14449700  0.84221900  0.20820100  1
  O  O37  1  0.14466000  0.34220200  0.70827500  1
  O  O38  1  0.85538600  0.65779400  0.29174400  1
  O  O39  1  0.85553200  0.15776000  0.79185400  1
  O  O40  1  0.29168600  0.36090700  0.11067300  1
  O  O41  1  0.29174800  0.86088600  0.61064300  1
  O  O42  1  0.70824900  0.13911900  0.38933100  1
  O  O43  1  0.70831100  0.63913300  0.88934700  1
