# generated using pymatgen
data_SrSmEuNbO6
_symmetry_space_group_name_H-M   'P 1'
_cell_length_a   8.47780044
_cell_length_b   8.48449287
_cell_length_c   8.48173978
_cell_angle_alpha   90.00000000
_cell_angle_beta   90.00000000
_cell_angle_gamma   90.00000000
_symmetry_Int_Tables_number   1
_chemical_formula_structural   SrSmEuNbO6
_chemical_formula_sum   'Sr4 Sm4 Eu4 Nb4 O24'
_cell_volume   610.09016313
_cell_formula_units_Z   4
loop_
 _symmetry_equiv_pos_site_id
 _symmetry_equiv_pos_as_xyz
  1  'x, y, z'
loop_
 _atom_site_type_symbol
 _atom_site_label
 _atom_site_symmetry_multiplicity
 _atom_site_fract_x
 _atom_site_fract_y
 _atom_site_fract_z
 _atom_site_occupancy
  Sr  Sr0  1  0.00000000  0.50000000  0.50000000  1
  Sr  Sr1  1  0.50000000  0.50000000  0.00000000  1
  Sr  Sr2  1  0.00000000  0.50000000  0.00000000  1
  Sr  Sr3  1  0.00000000  0.00000000  0.50000000  1
  Sm  Sm4  1  0.25014969  0.24989690  0.24992207  1
  Sm  Sm5  1  0.74985031  0.75010310  0.24992207  1
  Sm  Sm6  1  0.74985031  0.24989690  0.75007793  1
  Sm  Sm7  1  0.25014969  0.75010310  0.75007793  1
  Eu  Eu8  1  0.50000000  0.00000000  0.50000000  1
  Eu  Eu9  1  0.50000000  0.00000000  0.00000000  1
  Eu  Eu10  1  0.00000000  0.00000000  -0.00000000  1
  Eu  Eu11  1  0.50000000  0.50000000  0.50000000  1
  Nb  Nb12  1  0.74944542  0.75007442  0.75041831  1
  Nb  Nb13  1  0.25055458  0.24992558  0.75041831  1
  Nb  Nb14  1  0.25055458  0.75007442  0.24958169  1
  Nb  Nb15  1  0.74944542  0.24992558  0.24958169  1
  O  O16  1  0.98275082  0.20350170  0.28703730  1
  O  O17  1  0.01724918  0.79649830  0.28703730  1
  O  O18  1  0.01724918  0.20350170  0.71296270  1
  O  O19  1  0.98275082  0.79649830  0.71296270  1
  O  O20  1  0.28927951  0.98349630  0.20211741  1
  O  O21  1  0.28927951  0.01650370  0.79788259  1
  O  O22  1  0.71072049  0.01650370  0.20211741  1
  O  O23  1  0.71072049  0.98349630  0.79788259  1
  O  O24  1  0.20385532  0.28681855  0.98298626  1
  O  O25  1  0.79614468  0.28681855  0.01701374  1
  O  O26  1  0.20385532  0.71318145  0.01701374  1
  O  O27  1  0.79614468  0.71318145  0.98298626  1
  O  O28  1  0.51663536  0.29604581  0.21259140  1
  O  O29  1  0.48336464  0.70395419  0.21259140  1
  O  O30  1  0.48336464  0.29604581  0.78740860  1
  O  O31  1  0.51663536  0.70395419  0.78740860  1
  O  O32  1  0.21350338  0.51721957  0.29634630  1
  O  O33  1  0.21350338  0.48278043  0.70365370  1
  O  O34  1  0.78649662  0.48278043  0.29634630  1
  O  O35  1  0.78649662  0.51721957  0.70365370  1
  O  O36  1  0.29810486  0.21093579  0.51692058  1
  O  O37  1  0.70189514  0.21093579  0.48307942  1
  O  O38  1  0.29810486  0.78906421  0.48307942  1
  O  O39  1  0.70189514  0.78906421  0.51692058  1
