# generated using pymatgen
data_KSrLaMnO6
_symmetry_space_group_name_H-M   'P 1'
_cell_length_a   8.47793408
_cell_length_b   8.43688606
_cell_length_c   8.39845185
_cell_angle_alpha   90.00000000
_cell_angle_beta   90.00000000
_cell_angle_gamma   90.00000000
_symmetry_Int_Tables_number   1
_chemical_formula_structural   KSrLaMnO6
_chemical_formula_sum   'K4 Sr4 La4 Mn4 O24'
_cell_volume   600.71912131
_cell_formula_units_Z   4
loop_
 _symmetry_equiv_pos_site_id
 _symmetry_equiv_pos_as_xyz
  1  'x, y, z'
loop_
 _atom_site_type_symbol
 _atom_site_label
 _atom_site_symmetry_multiplicity
 _atom_site_fract_x
 _atom_site_fract_y
 _atom_site_fract_z
 _atom_site_occupancy
  K  K0  1  -0.00000000  0.50000000  0.50000000  1
  K  K1  1  0.50000000  0.50000000  0.00000000  1
  K  K2  1  0.50000000  0.00000000  0.00000000  1
  K  K3  1  -0.00000000  -0.00000000  0.50000000  1
  Sr  Sr4  1  0.50000000  0.00000000  0.50000000  1
  Sr  Sr5  1  -0.00000000  0.50000000  0.00000000  1
  Sr  Sr6  1  -0.00000000  0.00000000  0.00000000  1
  Sr  Sr7  1  0.50000000  0.50000000  0.50000000  1
  La  La8  1  0.75000000  0.75000000  0.75000000  1
  La  La9  1  0.25000000  0.25000000  0.75000000  1
  La  La10  1  0.25000000  0.75000000  0.25000000  1
  La  La11  1  0.75000000  0.25000000  0.25000000  1
  Mn  Mn12  1  0.25000000  0.25000000  0.25000000  1
  Mn  Mn13  1  0.75000000  0.75000000  0.25000000  1
  Mn  Mn14  1  0.75000000  0.25000000  0.75000000  1
  Mn  Mn15  1  0.25000000  0.75000000  0.75000000  1
  O  O16  1  0.02645692  0.22660545  0.25653446  1
  O  O17  1  0.97354308  0.77339455  0.25653446  1
  O  O18  1  0.97354308  0.22660545  0.74346554  1
  O  O19  1  0.02645692  0.77339455  0.74346554  1
  O  O20  1  0.26779944  0.02713469  0.23041407  1
  O  O21  1  0.26779944  0.97286531  0.76958593  1
  O  O22  1  0.73220056  0.97286531  0.23041407  1
  O  O23  1  0.73220056  0.02713469  0.76958593  1
  O  O24  1  0.21192799  0.26956162  0.02372904  1
  O  O25  1  0.78807201  0.26956162  0.97627096  1
  O  O26  1  0.21192799  0.73043838  0.97627096  1
  O  O27  1  0.78807201  0.73043838  0.02372904  1
  O  O28  1  0.47354308  0.27339455  0.24346554  1
  O  O29  1  0.52645692  0.72660545  0.24346554  1
  O  O30  1  0.52645692  0.27339455  0.75653446  1
  O  O31  1  0.47354308  0.72660545  0.75653446  1
  O  O32  1  0.23220056  0.47286531  0.26958593  1
  O  O33  1  0.23220056  0.52713469  0.73041407  1
  O  O34  1  0.76779944  0.52713469  0.26958593  1
  O  O35  1  0.76779944  0.47286531  0.73041407  1
  O  O36  1  0.28807201  0.23043838  0.47627096  1
  O  O37  1  0.71192799  0.23043838  0.52372904  1
  O  O38  1  0.28807201  0.76956162  0.52372904  1
  O  O39  1  0.71192799  0.76956162  0.47627096  1
