# generated using pymatgen
data_BaNaPrBiO6
_symmetry_space_group_name_H-M   'P 1'
_cell_length_a   8.78704035
_cell_length_b   8.73534080
_cell_length_c   8.77693882
_cell_angle_alpha   90.00000000
_cell_angle_beta   90.00000000
_cell_angle_gamma   90.00000000
_symmetry_Int_Tables_number   1
_chemical_formula_structural   BaNaPrBiO6
_chemical_formula_sum   'Ba4 Na4 Pr4 Bi4 O24'
_cell_volume   673.69844505
_cell_formula_units_Z   4
loop_
 _symmetry_equiv_pos_site_id
 _symmetry_equiv_pos_as_xyz
  1  'x, y, z'
loop_
 _atom_site_type_symbol
 _atom_site_label
 _atom_site_symmetry_multiplicity
 _atom_site_fract_x
 _atom_site_fract_y
 _atom_site_fract_z
 _atom_site_occupancy
  Ba  Ba0  1  -0.00000000  0.00000000  0.00000000  1
  Ba  Ba1  1  0.50000000  0.50000000  0.50000000  1
  Ba  Ba2  1  0.50000000  0.50000000  -0.00000000  1
  Ba  Ba3  1  0.00000000  0.00000000  0.50000000  1
  Na  Na4  1  -0.00000000  0.50000000  0.50000000  1
  Na  Na5  1  0.50000000  -0.00000000  0.50000000  1
  Na  Na6  1  0.50000000  0.00000000  -0.00000000  1
  Na  Na7  1  0.00000000  0.50000000  0.00000000  1
  Pr  Pr8  1  0.25000000  0.25000000  0.25000000  1
  Pr  Pr9  1  0.75000000  0.75000000  0.25000000  1
  Pr  Pr10  1  0.75000000  0.25000000  0.75000000  1
  Pr  Pr11  1  0.25000000  0.75000000  0.75000000  1
  Bi  Bi12  1  0.75000000  0.75000000  0.75000000  1
  Bi  Bi13  1  0.25000000  0.25000000  0.75000000  1
  Bi  Bi14  1  0.25000000  0.75000000  0.25000000  1
  Bi  Bi15  1  0.75000000  0.25000000  0.25000000  1
  O  O16  1  0.98812389  0.20413226  0.26747659  1
  O  O17  1  0.01187611  0.79586774  0.26747659  1
  O  O18  1  0.01187611  0.20413226  0.73252341  1
  O  O19  1  0.98812389  0.79586774  0.73252341  1
  O  O20  1  0.27754287  0.98551748  0.18719457  1
  O  O21  1  0.27754287  0.01448252  0.81280543  1
  O  O22  1  0.72245713  0.01448252  0.18719457  1
  O  O23  1  0.72245713  0.98551748  0.81280543  1
  O  O24  1  0.21945147  0.30657374  0.98612234  1
  O  O25  1  0.78054853  0.30657374  0.01387766  1
  O  O26  1  0.21945147  0.69342626  0.01387766  1
  O  O27  1  0.78054853  0.69342626  0.98612234  1
  O  O28  1  0.51187611  0.29586774  0.23252341  1
  O  O29  1  0.48812389  0.70413226  0.23252341  1
  O  O30  1  0.48812389  0.29586774  0.76747659  1
  O  O31  1  0.51187611  0.70413226  0.76747659  1
  O  O32  1  0.22245713  0.51448252  0.31280543  1
  O  O33  1  0.22245713  0.48551748  0.68719457  1
  O  O34  1  0.77754287  0.48551748  0.31280543  1
  O  O35  1  0.77754287  0.51448252  0.68719457  1
  O  O36  1  0.28054853  0.19342626  0.51387766  1
  O  O37  1  0.71945147  0.19342626  0.48612234  1
  O  O38  1  0.28054853  0.80657374  0.48612234  1
  O  O39  1  0.71945147  0.80657374  0.51387766  1
