# generated using pymatgen
data_Y(BC)2
_symmetry_space_group_name_H-M   'P 1'
_cell_length_a   3.79949500
_cell_length_b   3.79949500
_cell_length_c   7.24006800
_cell_angle_alpha   90.00000000
_cell_angle_beta   90.00000000
_cell_angle_gamma   90.00000000
_symmetry_Int_Tables_number   1
_chemical_formula_structural   Y(BC)2
_chemical_formula_sum   'Y2 B4 C4'
_cell_volume   104.51879639
_cell_formula_units_Z   2
loop_
 _symmetry_equiv_pos_site_id
 _symmetry_equiv_pos_as_xyz
  1  'x, y, z'
loop_
 _atom_site_type_symbol
 _atom_site_label
 _atom_site_symmetry_multiplicity
 _atom_site_fract_x
 _atom_site_fract_y
 _atom_site_fract_z
 _atom_site_occupancy
  Y  Y0  1  0.00000000  0.00000000  0.75000000  1
  Y  Y1  1  0.00000000  0.00000000  0.25000000  1
  B  B2  1  0.21548300  0.50000000  0.00000000  1
  B  B3  1  0.78451700  0.50000000  0.00000000  1
  B  B4  1  0.50000000  0.21548300  0.50000000  1
  B  B5  1  0.50000000  0.78451700  0.50000000  1
  C  C6  1  0.50000000  0.18783800  0.00000000  1
  C  C7  1  0.50000000  0.81216200  0.00000000  1
  C  C8  1  0.81216200  0.50000000  0.50000000  1
  C  C9  1  0.18783800  0.50000000  0.50000000  1
