# generated using pymatgen
data_C11F7
_symmetry_space_group_name_H-M   'P 1'
_cell_length_a   6.13417845
_cell_length_b   6.13417845
_cell_length_c   13.79451585
_cell_angle_alpha   85.79723518
_cell_angle_beta   85.79723518
_cell_angle_gamma   82.00049108
_symmetry_Int_Tables_number   1
_chemical_formula_structural   C11F7
_chemical_formula_sum   'C22 F14'
_cell_volume   511.58201144
_cell_formula_units_Z   2
loop_
 _symmetry_equiv_pos_site_id
 _symmetry_equiv_pos_as_xyz
  1  'x, y, z'
loop_
 _atom_site_type_symbol
 _atom_site_label
 _atom_site_symmetry_multiplicity
 _atom_site_fract_x
 _atom_site_fract_y
 _atom_site_fract_z
 _atom_site_occupancy
  C  C0  1  0.09809200  0.79950200  0.96654600  1
  C  C1  1  0.20049800  0.90190800  0.03345400  1
  C  C2  1  0.90190800  0.20049800  0.03345400  1
  C  C3  1  0.79950200  0.09809200  0.96654600  1
  C  C4  1  0.89416100  0.89416100  0.93087700  1
  C  C5  1  0.10583900  0.10583900  0.06912300  1
  C  C6  1  0.79009200  0.79009200  0.86316100  1
  C  C7  1  0.20990800  0.20990800  0.13683900  1
  C  C8  1  0.69955300  0.69955300  0.80459100  1
  C  C9  1  0.30044700  0.30044700  0.19540900  1
  C  C10  1  0.59396200  0.59396200  0.73773600  1
  C  C11  1  0.40603800  0.40603800  0.26226400  1
  C  C12  1  0.68771300  0.38913100  0.70290600  1
  C  C13  1  0.61086900  0.31228700  0.29709400  1
  C  C14  1  0.31228700  0.61086900  0.29709400  1
  C  C15  1  0.38913100  0.68771300  0.70290600  1
  C  C16  1  0.58322000  0.28223500  0.63783000  1
  C  C17  1  0.71776500  0.41678000  0.36217000  1
  C  C18  1  0.41678000  0.71776500  0.36217000  1
  C  C19  1  0.28223500  0.58322000  0.63783000  1
  C  C20  1  0.37910400  0.37910400  0.60558700  1
  C  C21  1  0.62089600  0.62089600  0.39441300  1
  F  F22  1  0.19573600  0.60448700  0.93471600  1
  F  F23  1  0.39551300  0.80426400  0.06528400  1
  F  F24  1  0.80426400  0.39551300  0.06528400  1
  F  F25  1  0.60448700  0.19573600  0.93471600  1
  F  F26  1  0.88440200  0.29279700  0.73318200  1
  F  F27  1  0.70720300  0.11559800  0.26681800  1
  F  F28  1  0.11559800  0.70720300  0.26681800  1
  F  F29  1  0.29279700  0.88440200  0.73318200  1
  F  F30  1  0.67688200  0.08704000  0.60539400  1
  F  F31  1  0.91296000  0.32311800  0.39460600  1
  F  F32  1  0.32311800  0.91296000  0.39460600  1
  F  F33  1  0.08704000  0.67688200  0.60539400  1
  F  F34  1  0.27669100  0.27669100  0.54290500  1
  F  F35  1  0.72330900  0.72330900  0.45709500  1
