# generated using pymatgen
data_Yb5Sb3
_symmetry_space_group_name_H-M   'P 1'
_cell_length_a   8.26793900
_cell_length_b   9.57970800
_cell_length_c   12.51976100
_cell_angle_alpha   90.00000000
_cell_angle_beta   90.00000000
_cell_angle_gamma   90.00000000
_symmetry_Int_Tables_number   1
_chemical_formula_structural   Yb5Sb3
_chemical_formula_sum   'Yb20 Sb12'
_cell_volume   991.62067624
_cell_formula_units_Z   4
loop_
 _symmetry_equiv_pos_site_id
 _symmetry_equiv_pos_as_xyz
  1  'x, y, z'
loop_
 _atom_site_type_symbol
 _atom_site_label
 _atom_site_symmetry_multiplicity
 _atom_site_fract_x
 _atom_site_fract_y
 _atom_site_fract_z
 _atom_site_occupancy
  Yb  Yb0  1  0.46408400  0.75000000  0.00419500  1
  Yb  Yb1  1  0.96408400  0.25000000  0.49580500  1
  Yb  Yb2  1  0.53591600  0.25000000  0.99580500  1
  Yb  Yb3  1  0.03591600  0.75000000  0.50419500  1
  Yb  Yb4  1  0.65452600  0.75000000  0.29187100  1
  Yb  Yb5  1  0.15452600  0.25000000  0.20812900  1
  Yb  Yb6  1  0.34547400  0.25000000  0.70812900  1
  Yb  Yb7  1  0.84547400  0.75000000  0.79187100  1
  Yb  Yb8  1  0.31737700  0.75000000  0.72889100  1
  Yb  Yb9  1  0.81737700  0.25000000  0.77110900  1
  Yb  Yb10  1  0.68262300  0.25000000  0.27110900  1
  Yb  Yb11  1  0.18262300  0.75000000  0.22889100  1
  Yb  Yb12  1  0.30569100  0.45785800  0.42324600  1
  Yb  Yb13  1  0.80569100  0.54214200  0.07675400  1
  Yb  Yb14  1  0.69430900  0.95785800  0.57675400  1
  Yb  Yb15  1  0.19430900  0.04214200  0.92324600  1
  Yb  Yb16  1  0.69430900  0.54214200  0.57675400  1
  Yb  Yb17  1  0.19430900  0.45785800  0.92324600  1
  Yb  Yb18  1  0.30569100  0.04214200  0.42324600  1
  Yb  Yb19  1  0.80569100  0.95785800  0.07675400  1
  Sb  Sb20  1  0.43705700  0.01159300  0.17133700  1
  Sb  Sb21  1  0.93705700  0.98840700  0.32866300  1
  Sb  Sb22  1  0.56294300  0.51159300  0.82866300  1
  Sb  Sb23  1  0.06294300  0.48840700  0.67133700  1
  Sb  Sb24  1  0.56294300  0.98840700  0.82866300  1
  Sb  Sb25  1  0.06294300  0.01159300  0.67133700  1
  Sb  Sb26  1  0.43705700  0.48840700  0.17133700  1
  Sb  Sb27  1  0.93705700  0.51159300  0.32866300  1
  Sb  Sb28  1  0.07786100  0.75000000  0.98405000  1
  Sb  Sb29  1  0.57786100  0.25000000  0.51595000  1
  Sb  Sb30  1  0.92213900  0.25000000  0.01595000  1
  Sb  Sb31  1  0.42213900  0.75000000  0.48405000  1
