data_image0
_chemical_formula_structural       Mn4Tb2
_chemical_formula_sum              "Mn4 Tb2"
_cell_length_a       5.12531
_cell_length_b       5.12427
_cell_length_c       5.12319
_cell_angle_alpha    119.992
_cell_angle_beta     89.9998
_cell_angle_gamma    119.995

_space_group_name_H-M_alt    "P 1"
_space_group_IT_number       1

loop_
  _space_group_symop_operation_xyz
  'x, y, z'

loop_
  _atom_site_type_symbol
  _atom_site_label
  _atom_site_symmetry_multiplicity
  _atom_site_fract_x
  _atom_site_fract_y
  _atom_site_fract_z
  _atom_site_occupancy
  Mn  Mn1       1.0  0.37500  0.75000  0.12500  1.0000
  Mn  Mn2       1.0  0.87500  0.25000  0.62500  1.0000
  Mn  Mn3       1.0  0.37500  0.75000  0.62500  1.0000
  Mn  Mn4       1.0  0.37500  0.25000  0.62500  1.0000
  Tb  Tb1       1.0  0.00000  0.00000  0.00001  1.0000
  Tb  Tb2       1.0  0.75000  0.50000  0.25000  1.0000
