# generated using pymatgen
data_Mn5(Si2O7)2
_symmetry_space_group_name_H-M   'P 1'
_cell_length_a   7.81261642
_cell_length_b   8.97145612
_cell_length_c   9.57995343
_cell_angle_alpha   103.64982283
_cell_angle_beta   80.59749261
_cell_angle_gamma   75.94975789
_symmetry_Int_Tables_number   1
_chemical_formula_structural   Mn5(Si2O7)2
_chemical_formula_sum   'Mn10 Si8 O28'
_cell_volume   615.39342732
_cell_formula_units_Z   2
loop_
 _symmetry_equiv_pos_site_id
 _symmetry_equiv_pos_as_xyz
  1  'x, y, z'
loop_
 _atom_site_type_symbol
 _atom_site_label
 _atom_site_symmetry_multiplicity
 _atom_site_fract_x
 _atom_site_fract_y
 _atom_site_fract_z
 _atom_site_occupancy
  Mn  Mn0  1  0.51236600  0.48983000  0.48829700  1
  Mn  Mn1  1  0.98707400  0.01039800  0.01159300  1
  Mn  Mn2  1  0.00648700  0.44562400  0.64996800  1
  Mn  Mn3  1  0.47489900  0.94266800  0.15489000  1
  Mn  Mn4  1  0.02504100  0.55780200  0.34567600  1
  Mn  Mn5  1  0.49408100  0.05390300  0.84968700  1
  Mn  Mn6  1  0.88368000  0.67840500  0.98152900  1
  Mn  Mn7  1  0.38629000  0.17443800  0.47447200  1
  Mn  Mn8  1  0.11430300  0.32593000  0.02521500  1
  Mn  Mn9  1  0.61553900  0.82155900  0.51895900  1
  Si  Si10  1  0.55275200  0.66987900  0.81230100  1
  Si  Si11  1  0.03695400  0.18009600  0.33305000  1
  Si  Si12  1  0.46328000  0.32002600  0.16674900  1
  Si  Si13  1  0.94780400  0.82965700  0.68770600  1
  Si  Si14  1  0.67111700  0.55995800  0.17992400  1
  Si  Si15  1  0.16115300  0.06726000  0.69910200  1
  Si  Si16  1  0.33876700  0.43305900  0.80077800  1
  Si  Si17  1  0.82855800  0.93998100  0.32035200  1
  O  O18  1  0.47394200  0.86226700  0.91077800  1
  O  O19  1  0.97868000  0.36964400  0.43856400  1
  O  O20  1  0.52137800  0.13044700  0.06141800  1
  O  O21  1  0.02624800  0.63757800  0.58850800  1
  O  O22  1  0.60718500  0.70993700  0.11520300  1
  O  O23  1  0.11651300  0.21920300  0.63033500  1
  O  O24  1  0.38423800  0.28060700  0.86884200  1
  O  O25  1  0.88992600  0.79041100  0.38625700  1
  O  O26  1  0.61223600  0.40263300  0.10128400  1
  O  O27  1  0.08829900  0.92074500  0.62108300  1
  O  O28  1  0.41179200  0.57926800  0.87900100  1
  O  O29  1  0.88822600  0.09707600  0.39849400  1
  O  O30  1  0.76358500  0.58181700  0.80579400  1
  O  O31  1  0.24678300  0.08256200  0.31913900  1
  O  O32  1  0.25324600  0.41749600  0.18088900  1
  O  O33  1  0.73687200  0.91806100  0.69466800  1
  O  O34  1  0.58642100  0.60835600  0.36087600  1
  O  O35  1  0.07508100  0.12318100  0.87942000  1
  O  O36  1  0.42360100  0.37872200  0.62039200  1
  O  O37  1  0.91326200  0.89040600  0.13920400  1
  O  O38  1  0.89391000  0.51966300  0.14303300  1
  O  O39  1  0.38570800  0.00708200  0.66761700  1
  O  O40  1  0.11426600  0.49252500  0.83258500  1
  O  O41  1  0.60579100  0.98147600  0.35695300  1
  O  O42  1  0.01677900  0.17854300  0.16220400  1
  O  O43  1  0.53538600  0.65708800  0.63933000  1
  O  O44  1  0.96641000  0.84065000  0.86033100  1
  O  O45  1  0.48409200  0.32208200  0.33754900  1
