# generated using pymatgen
data_Mg2Ta2FeO8
_symmetry_space_group_name_H-M   'P 1'
_cell_length_a   5.21246912
_cell_length_b   6.02534026
_cell_length_c   10.08080292
_cell_angle_alpha   107.43024243
_cell_angle_beta   89.64134857
_cell_angle_gamma   89.98654508
_symmetry_Int_Tables_number   1
_chemical_formula_structural   Mg2Ta2FeO8
_chemical_formula_sum   'Mg4 Ta4 Fe2 O16'
_cell_volume   302.06227481
_cell_formula_units_Z   2
loop_
 _symmetry_equiv_pos_site_id
 _symmetry_equiv_pos_as_xyz
  1  'x, y, z'
loop_
 _atom_site_type_symbol
 _atom_site_label
 _atom_site_symmetry_multiplicity
 _atom_site_fract_x
 _atom_site_fract_y
 _atom_site_fract_z
 _atom_site_occupancy
  Mg  Mg0  1  0.75211000  0.41529100  0.54484000  1
  Mg  Mg1  1  0.74365400  0.87045200  0.45468100  1
  Mg  Mg2  1  0.24360800  0.58575200  0.45495200  1
  Mg  Mg3  1  0.25203900  0.13054700  0.54498500  1
  Ta  Ta4  1  0.74389200  0.28207000  0.23365700  1
  Ta  Ta5  1  0.75161600  0.04801000  0.76603500  1
  Ta  Ta6  1  0.25170600  0.71892800  0.76618800  1
  Ta  Ta7  1  0.24399800  0.95276500  0.23368600  1
  Fe  Fe8  1  0.74800500  0.64840800  0.99981100  1
  Fe  Fe9  1  0.24819700  0.35201700  0.99977800  1
  O  O10  1  0.07983800  0.18130400  0.14405800  1
  O  O11  1  0.41524900  0.03805100  0.85603500  1
  O  O12  1  0.91536500  0.81911800  0.85589700  1
  O  O13  1  0.58000200  0.96344400  0.14394600  1
  O  O14  1  0.59425300  0.43442400  0.12025300  1
  O  O15  1  0.90184300  0.31313900  0.87965400  1
  O  O16  1  0.40220800  0.56728700  0.87946200  1
  O  O17  1  0.09462300  0.68674100  0.12006000  1
  O  O18  1  0.45445400  0.29105000  0.37341500  1
  O  O19  1  0.04116100  0.91732200  0.62635400  1
  O  O20  1  0.37983700  0.83844500  0.38308300  1
  O  O21  1  0.11576700  0.45516900  0.61673500  1
  O  O22  1  0.61579900  0.16265500  0.61675100  1
  O  O23  1  0.87989700  0.54577700  0.38310600  1
  O  O24  1  0.95445300  0.08355700  0.37346200  1
  O  O25  1  0.54115900  0.71011100  0.62644800  1
