# generated using pymatgen
data_Li2Mn2P4H3O16
_symmetry_space_group_name_H-M   'P 1'
_cell_length_a   4.86400487
_cell_length_b   8.21834628
_cell_length_c   7.39129605
_cell_angle_alpha   87.87799255
_cell_angle_beta   104.44301656
_cell_angle_gamma   89.83203649
_symmetry_Int_Tables_number   1
_chemical_formula_structural   Li2Mn2P4H3O16
_chemical_formula_sum   'Li2 Mn2 P4 H3 O16'
_cell_volume   285.90375083
_cell_formula_units_Z   1
loop_
 _symmetry_equiv_pos_site_id
 _symmetry_equiv_pos_as_xyz
  1  'x, y, z'
loop_
 _atom_site_type_symbol
 _atom_site_label
 _atom_site_symmetry_multiplicity
 _atom_site_fract_x
 _atom_site_fract_y
 _atom_site_fract_z
 _atom_site_occupancy
  Li  Li0  1  0.39044800  0.86046700  0.84911700  1
  Li  Li1  1  0.58533500  0.13360000  0.14284900  1
  Mn  Mn2  1  0.49737400  0.49726000  0.00133200  1
  Mn  Mn3  1  0.99196500  0.00123200  0.49770700  1
  P  P4  1  0.11376900  0.34164200  0.26604500  1
  P  P5  1  0.37325200  0.84957500  0.25010000  1
  P  P6  1  0.61916800  0.14872500  0.75243100  1
  P  P7  1  0.87368300  0.65530200  0.73813000  1
  H  H8  1  0.42807700  0.45550100  0.50334500  1
  H  H9  1  0.67400600  0.62120900  0.42524000  1
  H  H10  1  0.95650500  0.99966600  0.98242200  1
  O  O11  1  0.97066100  0.82759300  0.68780700  1
  O  O12  1  0.12749700  0.55761700  0.85266500  1
  O  O13  1  0.15798400  0.83815500  0.37447500  1
  O  O14  1  0.22980700  0.41665900  0.45966100  1
  O  O15  1  0.36306000  0.04082700  0.65900200  1
  O  O16  1  0.24684300  0.93410300  0.05757000  1
  O  O17  1  0.34483400  0.32679600  0.15508900  1
  O  O18  1  0.54399400  0.31275700  0.81119100  1
  O  O19  1  0.48824700  0.67817900  0.23299000  1
  O  O20  1  0.64950300  0.67231800  0.85469400  1
  O  O21  1  0.74566900  0.04087900  0.93990900  1
  O  O22  1  0.62028800  0.96639900  0.34351900  1
  O  O23  1  0.73487800  0.56264300  0.55595300  1
  O  O24  1  0.83401400  0.16203000  0.63028500  1
  O  O25  1  0.86509000  0.44745500  0.15733000  1
  O  O26  1  0.00406500  0.16768300  0.30072900  1
