# generated using pymatgen
data_Sr4LaMn5O15
_symmetry_space_group_name_H-M   'P 1'
_cell_length_a   5.50564740
_cell_length_b   13.45916543
_cell_length_c   8.64250696
_cell_angle_alpha   104.10942037
_cell_angle_beta   108.89009083
_cell_angle_gamma   90.81810750
_symmetry_Int_Tables_number   1
_chemical_formula_structural   Sr4LaMn5O15
_chemical_formula_sum   'Sr8 La2 Mn10 O30'
_cell_volume   584.61091614
_cell_formula_units_Z   2
loop_
 _symmetry_equiv_pos_site_id
 _symmetry_equiv_pos_as_xyz
  1  'x, y, z'
loop_
 _atom_site_type_symbol
 _atom_site_label
 _atom_site_symmetry_multiplicity
 _atom_site_fract_x
 _atom_site_fract_y
 _atom_site_fract_z
 _atom_site_occupancy
  Sr  Sr0  1  0.60099100  0.20026400  0.20116300  1
  Sr  Sr1  1  0.60106400  0.70091400  0.20161800  1
  Sr  Sr2  1  0.40061500  0.30020300  0.79972000  1
  Sr  Sr3  1  0.39853700  0.79844700  0.79735700  1
  Sr  Sr4  1  0.20207900  0.40180100  0.40269600  1
  Sr  Sr5  1  0.20118000  0.89932600  0.39985500  1
  Sr  Sr6  1  0.79695800  0.09908500  0.59783000  1
  Sr  Sr7  1  0.79923900  0.60057200  0.59982700  1
  La  La8  1  0.99755400  0.99703400  0.99726100  1
  La  La9  1  0.00010800  0.50109500  0.00214600  1
  Mn  Mn10  1  0.00164700  0.24917500  0.00034000  1
  Mn  Mn11  1  0.20015800  0.65103600  0.40116000  1
  Mn  Mn12  1  0.60114600  0.94926800  0.19913800  1
  Mn  Mn13  1  0.39783300  0.04975400  0.79691300  1
  Mn  Mn14  1  0.39888700  0.55031100  0.80089000  1
  Mn  Mn15  1  0.00028000  0.74967700  0.99978000  1
  Mn  Mn16  1  0.80073800  0.34897900  0.59991800  1
  Mn  Mn17  1  0.79947900  0.84916100  0.59728000  1
  Mn  Mn18  1  0.19904500  0.15113400  0.40069500  1
  Mn  Mn19  1  0.59987000  0.45064900  0.20271500  1
  O  O20  1  0.50565800  0.99331100  0.99348700  1
  O  O21  1  0.49426200  0.50497600  0.00455900  1
  O  O22  1  0.99527900  0.25276200  0.50271300  1
  O  O23  1  0.00180700  0.74966900  0.49983800  1
  O  O24  1  0.50229300  0.25164900  0.50118600  1
  O  O25  1  0.50161800  0.74914500  0.49962500  1
  O  O26  1  0.89878800  0.30469800  0.80678700  1
  O  O27  1  0.90356500  0.80224200  0.80307200  1
  O  O28  1  0.10015100  0.19682600  0.19664100  1
  O  O29  1  0.09875000  0.69731900  0.19666700  1
  O  O30  1  0.69825000  0.40798100  0.40725800  1
  O  O31  1  0.70429300  0.89964900  0.39956600  1
  O  O32  1  0.30024100  0.09624000  0.59523500  1
  O  O33  1  0.29645900  0.59870900  0.59892100  1
  O  O34  1  0.59962600  0.45482900  0.71490900  1
  O  O35  1  0.61503700  0.94600100  0.70168500  1
  O  O36  1  0.40296900  0.04356400  0.28355800  1
  O  O37  1  0.38805400  0.55202600  0.29481400  1
  O  O38  1  0.89901500  0.04588900  0.28655200  1
  O  O39  1  0.89963600  0.55232100  0.29359200  1
  O  O40  1  0.09903100  0.45344400  0.71238700  1
  O  O41  1  0.09965900  0.94729900  0.70486300  1
  O  O42  1  0.20535200  0.14426200  0.89840000  1
  O  O43  1  0.19331700  0.64824700  0.90203000  1
  O  O44  1  0.79072900  0.35903400  0.10488000  1
  O  O45  1  0.80765700  0.85041600  0.09645600  1
  O  O46  1  0.29706800  0.35676200  0.10302300  1
  O  O47  1  0.29609100  0.85000600  0.09572900  1
  O  O48  1  0.70473800  0.14394900  0.90018100  1
  O  O49  1  0.70320200  0.64888800  0.90308500  1
