# generated using pymatgen
data_CsAlPdF6
_symmetry_space_group_name_H-M   'P 1'
_cell_length_a   7.27979300
_cell_length_b   7.62421100
_cell_length_c   10.44765400
_cell_angle_alpha   90.00000000
_cell_angle_beta   90.00000000
_cell_angle_gamma   90.00000000
_symmetry_Int_Tables_number   1
_chemical_formula_structural   CsAlPdF6
_chemical_formula_sum   'Cs4 Al4 Pd4 F24'
_cell_volume   579.87277444
_cell_formula_units_Z   4
loop_
 _symmetry_equiv_pos_site_id
 _symmetry_equiv_pos_as_xyz
  1  'x, y, z'
loop_
 _atom_site_type_symbol
 _atom_site_label
 _atom_site_symmetry_multiplicity
 _atom_site_fract_x
 _atom_site_fract_y
 _atom_site_fract_z
 _atom_site_occupancy
  Cs  Cs0  1  0.25000000  0.99550600  0.63973600  1
  Cs  Cs1  1  0.75000000  0.00449400  0.36026400  1
  Cs  Cs2  1  0.25000000  0.49550600  0.86026400  1
  Cs  Cs3  1  0.75000000  0.50449400  0.13973600  1
  Al  Al4  1  0.00000000  0.50000000  0.50000000  1
  Al  Al5  1  0.50000000  0.50000000  0.50000000  1
  Al  Al6  1  0.50000000  0.00000000  0.00000000  1
  Al  Al7  1  0.00000000  0.00000000  0.00000000  1
  Pd  Pd8  1  0.25000000  0.75554800  0.25240900  1
  Pd  Pd9  1  0.75000000  0.24445200  0.74759100  1
  Pd  Pd10  1  0.25000000  0.25554800  0.24759100  1
  Pd  Pd11  1  0.75000000  0.74445200  0.75240900  1
  F  F12  1  0.97826200  0.32406900  0.61746400  1
  F  F13  1  0.47826200  0.67593100  0.38253600  1
  F  F14  1  0.52173800  0.82406900  0.88253600  1
  F  F15  1  0.02173800  0.17593100  0.11746400  1
  F  F16  1  0.02173800  0.67593100  0.38253600  1
  F  F17  1  0.52173800  0.32406900  0.61746400  1
  F  F18  1  0.47826200  0.17593100  0.11746400  1
  F  F19  1  0.97826200  0.82406900  0.88253600  1
  F  F20  1  0.98371400  0.16298500  0.87275100  1
  F  F21  1  0.48371400  0.83701500  0.12724900  1
  F  F22  1  0.51628600  0.66298500  0.62724900  1
  F  F23  1  0.01628600  0.33701500  0.37275100  1
  F  F24  1  0.75000000  0.99276500  0.64874100  1
  F  F25  1  0.25000000  0.00723500  0.35125900  1
  F  F26  1  0.75000000  0.49276500  0.85125900  1
  F  F27  1  0.25000000  0.50723500  0.14874100  1
  F  F28  1  0.75000000  0.00537600  0.02414000  1
  F  F29  1  0.25000000  0.99462400  0.97586000  1
  F  F30  1  0.75000000  0.50537600  0.47586000  1
  F  F31  1  0.25000000  0.49462400  0.52414000  1
  F  F32  1  0.98371400  0.66298500  0.62724900  1
  F  F33  1  0.48371400  0.33701500  0.37275100  1
  F  F34  1  0.51628600  0.16298500  0.87275100  1
  F  F35  1  0.01628600  0.83701500  0.12724900  1
