# generated using pymatgen
data_Ta2VZn2O8
_symmetry_space_group_name_H-M   'P 1'
_cell_length_a   5.31989459
_cell_length_b   5.95425093
_cell_length_c   19.54878245
_cell_angle_alpha   89.97427758
_cell_angle_beta   89.91729640
_cell_angle_gamma   90.00200817
_symmetry_Int_Tables_number   1
_chemical_formula_structural   Ta2VZn2O8
_chemical_formula_sum   'Ta8 V4 Zn8 O32'
_cell_volume   619.22627718
_cell_formula_units_Z   4
loop_
 _symmetry_equiv_pos_site_id
 _symmetry_equiv_pos_as_xyz
  1  'x, y, z'
loop_
 _atom_site_type_symbol
 _atom_site_label
 _atom_site_symmetry_multiplicity
 _atom_site_fract_x
 _atom_site_fract_y
 _atom_site_fract_z
 _atom_site_occupancy
  Ta  Ta0  1  0.73102800  0.15352700  0.11553500  1
  Ta  Ta1  1  0.73102600  0.65352200  0.61553600  1
  Ta  Ta2  1  0.76699800  0.65405300  0.38383000  1
  Ta  Ta3  1  0.76699600  0.15405900  0.88383100  1
  Ta  Ta4  1  0.26698500  0.34377000  0.38374800  1
  Ta  Ta5  1  0.26698900  0.84377400  0.88374800  1
  Ta  Ta6  1  0.23101500  0.84364700  0.11554200  1
  Ta  Ta7  1  0.23101700  0.34364400  0.61554100  1
  V  V8  1  0.74931100  0.64199600  0.99965300  1
  V  V9  1  0.24938500  0.85582600  0.49964300  1
  V  V10  1  0.74931000  0.14196500  0.49965300  1
  V  V11  1  0.24938600  0.35584800  0.99964300  1
  Zn  Zn12  1  0.77074200  0.15175200  0.28210200  1
  Zn  Zn13  1  0.77074100  0.65175200  0.78210000  1
  Zn  Zn14  1  0.72668700  0.65132300  0.21744900  1
  Zn  Zn15  1  0.72668600  0.15132300  0.71744700  1
  Zn  Zn16  1  0.22659400  0.34541100  0.21725200  1
  Zn  Zn17  1  0.22659400  0.84541200  0.71725400  1
  Zn  Zn18  1  0.27080400  0.84566700  0.28194100  1
  Zn  Zn19  1  0.27080500  0.34566700  0.78194300  1
  O  O20  1  0.06555000  0.11315000  0.07043600  1
  O  O21  1  0.06555000  0.61315300  0.57043900  1
  O  O22  1  0.43260400  0.61307000  0.42892000  1
  O  O23  1  0.43260600  0.11306700  0.92892300  1
  O  O24  1  0.93277100  0.38497000  0.42901100  1
  O  O25  1  0.93277000  0.88496800  0.92900700  1
  O  O26  1  0.56539600  0.88464300  0.07032800  1
  O  O27  1  0.56539400  0.38464500  0.57032500  1
  O  O28  1  0.59572900  0.37267900  0.05937600  1
  O  O29  1  0.59571400  0.87266300  0.55937600  1
  O  O30  1  0.90318600  0.87300300  0.43984200  1
  O  O31  1  0.90317400  0.37301800  0.93984200  1
  O  O32  1  0.40322700  0.12503800  0.43987600  1
  O  O33  1  0.40323800  0.62505100  0.93987600  1
  O  O34  1  0.09570400  0.62498100  0.05927700  1
  O  O35  1  0.09571600  0.12496700  0.55927800  1
  O  O36  1  0.42817600  0.10301400  0.17681500  1
  O  O37  1  0.42818000  0.60301500  0.67681500  1
  O  O38  1  0.06931500  0.60324100  0.32244100  1
  O  O39  1  0.06932000  0.10324000  0.82244100  1
  O  O40  1  0.92807100  0.89358200  0.17671600  1
  O  O41  1  0.92806600  0.39358400  0.67671600  1
  O  O42  1  0.56956700  0.39447700  0.32249800  1
  O  O43  1  0.56956300  0.89447400  0.82249800  1
  O  O44  1  0.35635900  0.64845900  0.19377600  1
  O  O45  1  0.35635900  0.14846300  0.69377600  1
  O  O46  1  0.14129000  0.14868300  0.30558000  1
  O  O47  1  0.14129000  0.64867800  0.80558000  1
  O  O48  1  0.64117300  0.84878200  0.30551800  1
  O  O49  1  0.64117300  0.34877700  0.80551700  1
  O  O50  1  0.85619300  0.34824000  0.19388200  1
  O  O51  1  0.85619300  0.84824400  0.69388200  1
