# generated using pymatgen
data_Na3CoBAsO7
_symmetry_space_group_name_H-M   'P 1'
_cell_length_a   5.25550745
_cell_length_b   9.05105479
_cell_length_c   13.85605747
_cell_angle_alpha   89.98167244
_cell_angle_beta   89.96913795
_cell_angle_gamma   88.35665930
_symmetry_Int_Tables_number   1
_chemical_formula_structural   Na3CoBAsO7
_chemical_formula_sum   'Na12 Co4 B4 As4 O28'
_cell_volume   658.83215091
_cell_formula_units_Z   4
loop_
 _symmetry_equiv_pos_site_id
 _symmetry_equiv_pos_as_xyz
  1  'x, y, z'
loop_
 _atom_site_type_symbol
 _atom_site_label
 _atom_site_symmetry_multiplicity
 _atom_site_fract_x
 _atom_site_fract_y
 _atom_site_fract_z
 _atom_site_occupancy
  Na  Na0  1  0.75884300  0.07971900  0.12753600  1
  Na  Na1  1  0.76651900  0.07950700  0.62238900  1
  Na  Na2  1  0.24137000  0.91991400  0.37238500  1
  Na  Na3  1  0.23360300  0.92053600  0.87763600  1
  Na  Na4  1  0.25365400  0.25444900  0.00408900  1
  Na  Na5  1  0.24204500  0.24621800  0.49846800  1
  Na  Na6  1  0.24297100  0.24632900  0.25076800  1
  Na  Na7  1  0.25413000  0.25433900  0.74691800  1
  Na  Na8  1  0.75672200  0.75342800  0.24929500  1
  Na  Na9  1  0.74583900  0.74569300  0.75311600  1
  Na  Na10  1  0.74626300  0.74560200  0.49588600  1
  Na  Na11  1  0.75825300  0.75358600  0.00145600  1
  Co  Co12  1  0.78636400  0.32861500  0.87542700  1
  Co  Co13  1  0.21352700  0.67136300  0.62465900  1
  Co  Co14  1  0.77225300  0.33400600  0.37479700  1
  Co  Co15  1  0.22802400  0.66613700  0.12518900  1
  B  B16  1  0.73851100  0.06230100  0.37535700  1
  B  B17  1  0.72393500  0.06778100  0.87462000  1
  B  B18  1  0.26181900  0.93779500  0.12470300  1
  B  B19  1  0.27610600  0.93221100  0.62537400  1
  As  As20  1  0.71488300  0.42122700  0.12608100  1
  As  As21  1  0.71472100  0.42423900  0.62380500  1
  As  As22  1  0.28481700  0.57874700  0.37387900  1
  As  As23  1  0.28529600  0.57581800  0.87624600  1
  O  O24  1  0.30806900  0.08319500  0.12512500  1
  O  O25  1  0.30879200  0.07862200  0.62499700  1
  O  O26  1  0.69170600  0.91697100  0.37488400  1
  O  O27  1  0.69138400  0.92131600  0.87503100  1
  O  O28  1  0.97568600  0.12580700  0.37541600  1
  O  O29  1  0.95964800  0.13626800  0.87405900  1
  O  O30  1  0.02480900  0.87403500  0.12482400  1
  O  O31  1  0.04035200  0.86375800  0.62598100  1
  O  O32  1  0.54055000  0.17291500  0.37591000  1
  O  O33  1  0.53073500  0.17794200  0.87479400  1
  O  O34  1  0.46001700  0.82737000  0.12400100  1
  O  O35  1  0.46919100  0.82196400  0.62515300  1
  O  O36  1  0.38909700  0.46150600  0.12454800  1
  O  O37  1  0.39095300  0.47132500  0.62478600  1
  O  O38  1  0.61057300  0.53865200  0.37526900  1
  O  O39  1  0.60901900  0.52867900  0.87518800  1
  O  O40  1  0.12993300  0.41437200  0.37476000  1
  O  O41  1  0.12555100  0.41275600  0.87531700  1
  O  O42  1  0.86994900  0.58553700  0.12518900  1
  O  O43  1  0.87434700  0.58736000  0.62476400  1
  O  O44  1  0.78903900  0.30692500  0.03062200  1
  O  O45  1  0.78428500  0.31321800  0.52548300  1
  O  O46  1  0.78562900  0.31196900  0.22506200  1
  O  O47  1  0.78502000  0.30836800  0.71902900  1
  O  O48  1  0.21384200  0.68795500  0.27488400  1
  O  O49  1  0.21492300  0.69163700  0.78099600  1
  O  O50  1  0.21035400  0.69297200  0.46933900  1
  O  O51  1  0.21608200  0.68704500  0.97451300  1
