# generated using pymatgen
data_Ba4Sr(FeO3)5
_symmetry_space_group_name_H-M   'P 1'
_cell_length_a   5.66509584
_cell_length_b   5.66509796
_cell_length_c   20.66368764
_cell_angle_alpha   82.11158862
_cell_angle_beta   82.11189420
_cell_angle_gamma   89.96553657
_symmetry_Int_Tables_number   1
_chemical_formula_structural   Ba4Sr(FeO3)5
_chemical_formula_sum   'Ba8 Sr2 Fe10 O30'
_cell_volume   650.56312996
_cell_formula_units_Z   2
loop_
 _symmetry_equiv_pos_site_id
 _symmetry_equiv_pos_as_xyz
  1  'x, y, z'
loop_
 _atom_site_type_symbol
 _atom_site_label
 _atom_site_symmetry_multiplicity
 _atom_site_fract_x
 _atom_site_fract_y
 _atom_site_fract_z
 _atom_site_occupancy
  Ba  Ba0  1  0.35228500  0.85226800  0.29570100  1
  Ba  Ba1  1  0.85225500  0.35227900  0.29570100  1
  Ba  Ba2  1  0.04814000  0.54814900  0.90343700  1
  Ba  Ba3  1  0.54814800  0.04812600  0.90343700  1
  Ba  Ba4  1  0.25030300  0.75027000  0.49938100  1
  Ba  Ba5  1  0.75026200  0.25030200  0.49938100  1
  Ba  Ba6  1  0.14889700  0.64888500  0.70234400  1
  Ba  Ba7  1  0.64888700  0.14888300  0.70234400  1
  Sr  Sr8  1  0.45018600  0.95023700  0.09945400  1
  Sr  Sr9  1  0.95022900  0.45018600  0.09945400  1
  Fe  Fe10  1  0.20131300  0.20130000  0.59751400  1
  Fe  Fe11  1  0.69985000  0.69984700  0.60052000  1
  Fe  Fe12  1  0.49851000  0.49851200  0.00252600  1
  Fe  Fe13  1  0.40172100  0.40178200  0.19686400  1
  Fe  Fe14  1  0.90219300  0.90218800  0.19586700  1
  Fe  Fe15  1  0.99829600  0.99829600  0.00287600  1
  Fe  Fe16  1  0.30063500  0.30070000  0.39879500  1
  Fe  Fe17  1  0.79922000  0.79924700  0.40184100  1
  Fe  Fe18  1  0.09854300  0.09845300  0.80262900  1
  Fe  Fe19  1  0.59862000  0.59859200  0.80270100  1
  O  O20  1  0.44867800  0.44868100  0.10197100  1
  O  O21  1  0.94934000  0.94934000  0.10212700  1
  O  O22  1  0.35357000  0.35357900  0.29337400  1
  O  O23  1  0.85630800  0.85630700  0.28737800  1
  O  O24  1  0.04940700  0.04940600  0.90124200  1
  O  O25  1  0.54858500  0.54857700  0.90270900  1
  O  O26  1  0.25234800  0.25235500  0.49505800  1
  O  O27  1  0.74857300  0.74857400  0.50252300  1
  O  O28  1  0.14548600  0.14548200  0.70978600  1
  O  O29  1  0.64911800  0.64910900  0.70177800  1
  O  O30  1  0.44279500  0.95613100  0.60117700  1
  O  O31  1  0.95613200  0.44279400  0.60117700  1
  O  O32  1  0.95588300  0.95588300  0.60120600  1
  O  O33  1  0.44296800  0.44296800  0.60121700  1
  O  O34  1  0.74555900  0.24747100  0.00632700  1
  O  O35  1  0.24746900  0.74556200  0.00632700  1
  O  O36  1  0.65244500  0.15542200  0.19234100  1
  O  O37  1  0.15541500  0.65245000  0.19234200  1
  O  O38  1  0.24776000  0.24776300  0.00612200  1
  O  O39  1  0.74567700  0.74568000  0.00608500  1
  O  O40  1  0.15504300  0.15504500  0.19258800  1
  O  O41  1  0.65269100  0.65269400  0.19238300  1
  O  O42  1  0.55815700  0.04552300  0.39634200  1
  O  O43  1  0.04553100  0.55814900  0.39634200  1
  O  O44  1  0.34778400  0.84866400  0.80363800  1
  O  O45  1  0.84867000  0.34777900  0.80363700  1
  O  O46  1  0.04552000  0.04552600  0.39637500  1
  O  O47  1  0.55809300  0.55809900  0.39637600  1
  O  O48  1  0.84900400  0.84899500  0.80362600  1
  O  O49  1  0.34750200  0.34749200  0.80365800  1
