# generated using pymatgen
data_Na5Fe2P2(CO7)2
_symmetry_space_group_name_H-M   'P 1'
_cell_length_a   5.28934981
_cell_length_b   6.62957973
_cell_length_c   18.01688955
_cell_angle_alpha   88.15991727
_cell_angle_beta   89.01840808
_cell_angle_gamma   89.78090996
_symmetry_Int_Tables_number   1
_chemical_formula_structural   Na5Fe2P2(CO7)2
_chemical_formula_sum   'Na10 Fe4 P4 C4 O28'
_cell_volume   631.36140640
_cell_formula_units_Z   2
loop_
 _symmetry_equiv_pos_site_id
 _symmetry_equiv_pos_as_xyz
  1  'x, y, z'
loop_
 _atom_site_type_symbol
 _atom_site_label
 _atom_site_symmetry_multiplicity
 _atom_site_fract_x
 _atom_site_fract_y
 _atom_site_fract_z
 _atom_site_occupancy
  Na  Na0  1  0.77511500  0.23436100  0.04606300  1
  Na  Na1  1  0.76675000  0.22710800  0.54484400  1
  Na  Na2  1  0.24509600  0.48512900  0.13430000  1
  Na  Na3  1  0.24694700  0.51350000  0.62793000  1
  Na  Na4  1  0.75199600  0.48647400  0.37271100  1
  Na  Na5  1  0.74578500  0.50593200  0.86748300  1
  Na  Na6  1  0.75110500  0.99661600  0.36966200  1
  Na  Na7  1  0.74720600  0.97860600  0.86446500  1
  Na  Na8  1  0.24612300  0.76351200  0.46297500  1
  Na  Na9  1  0.24223000  0.75719300  0.96444200  1
  Fe  Fe10  1  0.77750700  0.76410900  0.67138400  1
  Fe  Fe11  1  0.21613400  0.24446500  0.82418600  1
  Fe  Fe12  1  0.78264000  0.76700400  0.17357400  1
  Fe  Fe13  1  0.22532900  0.24486400  0.32466100  1
  P  P14  1  0.70613100  0.25667400  0.20885800  1
  P  P15  1  0.71552500  0.25791400  0.71168800  1
  P  P16  1  0.27991500  0.74513300  0.28838800  1
  P  P17  1  0.28393700  0.74433500  0.79245600  1
  C  C18  1  0.72782100  0.74733500  0.03286500  1
  C  C19  1  0.72702100  0.74401600  0.52693000  1
  C  C20  1  0.27736200  0.25292200  0.46928100  1
  C  C21  1  0.27880700  0.25521700  0.96409000  1
  O  O22  1  0.31608000  0.29244300  0.03117100  1
  O  O23  1  0.30359800  0.28792700  0.53770000  1
  O  O24  1  0.95043100  0.75710400  0.06277100  1
  O  O25  1  0.94797900  0.75110600  0.55758200  1
  O  O26  1  0.53406700  0.75051400  0.07828100  1
  O  O27  1  0.52678200  0.74677300  0.56942500  1
  O  O28  1  0.77319800  0.06611000  0.16220000  1
  O  O29  1  0.76244000  0.07107200  0.66640000  1
  O  O30  1  0.78964700  0.44271500  0.15769600  1
  O  O31  1  0.78149000  0.44489100  0.66295200  1
  O  O32  1  0.12036200  0.73988800  0.21693300  1
  O  O33  1  0.14357800  0.73853000  0.71984200  1
  O  O34  1  0.41878500  0.26937700  0.22275500  1
  O  O35  1  0.43090000  0.27099100  0.73807700  1
  O  O36  1  0.56846700  0.74822000  0.26460500  1
  O  O37  1  0.57592000  0.74737600  0.78157400  1
  O  O38  1  0.84794300  0.25079900  0.28291900  1
  O  O39  1  0.86986800  0.25140100  0.78591900  1
  O  O40  1  0.22992100  0.55825300  0.33997600  1
  O  O41  1  0.21168000  0.55714800  0.84584900  1
  O  O42  1  0.21905500  0.93023800  0.33534700  1
  O  O43  1  0.20453300  0.93321900  0.83989600  1
  O  O44  1  0.47587200  0.23215200  0.42474300  1
  O  O45  1  0.46747300  0.23524100  0.91550300  1
  O  O46  1  0.05272100  0.23627500  0.43964800  1
  O  O47  1  0.05137200  0.23557500  0.93657400  1
  O  O48  1  0.70763600  0.73807900  0.45501200  1
  O  O49  1  0.70255900  0.73924600  0.96193600  1
