# generated using pymatgen
data_Mg2Nb2CoO8
_symmetry_space_group_name_H-M   'P 1'
_cell_length_a   10.03509414
_cell_length_b   10.03509414
_cell_length_c   5.20126079
_cell_angle_alpha   89.92583054
_cell_angle_beta   89.92583054
_cell_angle_gamma   35.01106337
_symmetry_Int_Tables_number   1
_chemical_formula_structural   Mg2Nb2CoO8
_chemical_formula_sum   'Mg4 Nb4 Co2 O16'
_cell_volume   300.51224390
_cell_formula_units_Z   2
loop_
 _symmetry_equiv_pos_site_id
 _symmetry_equiv_pos_as_xyz
  1  'x, y, z'
loop_
 _atom_site_type_symbol
 _atom_site_label
 _atom_site_symmetry_multiplicity
 _atom_site_fract_x
 _atom_site_fract_y
 _atom_site_fract_z
 _atom_site_occupancy
  Mg  Mg0  1  0.58598800  0.87075600  0.24594700  1
  Mg  Mg1  1  0.12924400  0.41401200  0.25405300  1
  Mg  Mg2  1  0.41401200  0.12924400  0.75405300  1
  Mg  Mg3  1  0.87075600  0.58598800  0.74594700  1
  Nb  Nb4  1  0.71619600  0.05297500  0.25672200  1
  Nb  Nb5  1  0.94702500  0.28380400  0.24327800  1
  Nb  Nb6  1  0.28380400  0.94702500  0.74327800  1
  Nb  Nb7  1  0.05297500  0.71619600  0.75672200  1
  Co  Co8  1  0.35273400  0.64726600  0.25000000  1
  Co  Co9  1  0.64726600  0.35273400  0.75000000  1
  O  O10  1  0.81591300  0.04270800  0.91765700  1
  O  O11  1  0.95729200  0.18408700  0.58234300  1
  O  O12  1  0.18408700  0.95729200  0.08234300  1
  O  O13  1  0.04270800  0.81591300  0.41765700  1
  O  O14  1  0.56951500  0.31530300  0.41447400  1
  O  O15  1  0.68469700  0.43048500  0.08552600  1
  O  O16  1  0.43048500  0.68469700  0.58552600  1
  O  O17  1  0.31530300  0.56951500  0.91447400  1
  O  O18  1  0.70774100  0.91733500  0.54103600  1
  O  O19  1  0.08266500  0.29225900  0.95896400  1
  O  O20  1  0.16363300  0.45465000  0.61541800  1
  O  O21  1  0.54535000  0.83636700  0.88458200  1
  O  O22  1  0.83636700  0.54535000  0.38458200  1
  O  O23  1  0.45465000  0.16363300  0.11541800  1
  O  O24  1  0.91733500  0.70774100  0.04103600  1
  O  O25  1  0.29225900  0.08266500  0.45896400  1
