# generated using pymatgen
data_Sr3Y(BO3)3
_symmetry_space_group_name_H-M   'P 1'
_cell_length_a   7.92929020
_cell_length_b   7.92929020
_cell_length_c   7.92928994
_cell_angle_alpha   105.02345659
_cell_angle_beta   105.02345659
_cell_angle_gamma   105.02346090
_symmetry_Int_Tables_number   1
_chemical_formula_structural   Sr3Y(BO3)3
_chemical_formula_sum   'Sr6 Y2 B6 O18'
_cell_volume   435.64507315
_cell_formula_units_Z   2
loop_
 _symmetry_equiv_pos_site_id
 _symmetry_equiv_pos_as_xyz
  1  'x, y, z'
loop_
 _atom_site_type_symbol
 _atom_site_label
 _atom_site_symmetry_multiplicity
 _atom_site_fract_x
 _atom_site_fract_y
 _atom_site_fract_z
 _atom_site_occupancy
  Sr  Sr0  1  0.36010900  0.73517700  0.86109200  1
  Sr  Sr1  1  0.86109200  0.36010900  0.73517700  1
  Sr  Sr2  1  0.73517700  0.86109200  0.36010900  1
  Sr  Sr3  1  0.63989100  0.26482300  0.13890800  1
  Sr  Sr4  1  0.13890800  0.63989100  0.26482300  1
  Sr  Sr5  1  0.26482300  0.13890800  0.63989100  1
  Y  Y6  1  0.50000000  0.50000000  0.50000000  1
  Y  Y7  1  0.00000000  0.00000000  0.00000000  1
  B  B8  1  0.70741300  0.61093800  0.95993300  1
  B  B9  1  0.95993300  0.70741300  0.61093800  1
  B  B10  1  0.61093800  0.95993300  0.70741300  1
  B  B11  1  0.04006700  0.29258700  0.38906200  1
  B  B12  1  0.38906200  0.04006700  0.29258700  1
  B  B13  1  0.29258700  0.38906200  0.04006700  1
  O  O14  1  0.04495600  0.81181900  0.52228100  1
  O  O15  1  0.52228100  0.04495600  0.81181900  1
  O  O16  1  0.44552800  0.49315200  0.20485500  1
  O  O17  1  0.49315200  0.20485500  0.44552800  1
  O  O18  1  0.20485500  0.44552800  0.49315200  1
  O  O19  1  0.79514500  0.55447200  0.50684800  1
  O  O20  1  0.55447200  0.50684800  0.79514500  1
  O  O21  1  0.50684800  0.79514500  0.55447200  1
  O  O22  1  0.25229900  0.19721200  0.96796100  1
  O  O23  1  0.19721200  0.96796100  0.25229900  1
  O  O24  1  0.96796100  0.25229900  0.19721200  1
  O  O25  1  0.74770100  0.80278800  0.03203900  1
  O  O26  1  0.80278800  0.03203900  0.74770100  1
  O  O27  1  0.03203900  0.74770100  0.80278800  1
  O  O28  1  0.18818100  0.47771900  0.95504400  1
  O  O29  1  0.47771900  0.95504400  0.18818100  1
  O  O30  1  0.95504400  0.18818100  0.47771900  1
  O  O31  1  0.81181900  0.52228100  0.04495600  1
