# generated using pymatgen
data_PrMo5O8
_symmetry_space_group_name_H-M   'P 1'
_cell_length_a   9.36552300
_cell_length_b   8.38881800
_cell_length_c   10.74474374
_cell_angle_alpha   70.37636120
_cell_angle_beta   90.00000000
_cell_angle_gamma   90.00000000
_symmetry_Int_Tables_number   1
_chemical_formula_structural   PrMo5O8
_chemical_formula_sum   'Pr4 Mo20 O32'
_cell_volume   795.13782689
_cell_formula_units_Z   4
loop_
 _symmetry_equiv_pos_site_id
 _symmetry_equiv_pos_as_xyz
  1  'x, y, z'
loop_
 _atom_site_type_symbol
 _atom_site_label
 _atom_site_symmetry_multiplicity
 _atom_site_fract_x
 _atom_site_fract_y
 _atom_site_fract_z
 _atom_site_occupancy
  Pr  Pr0  1  0.01673500  0.70572700  0.03357600  1
  Pr  Pr1  1  0.51673500  0.29427300  0.46642400  1
  Pr  Pr2  1  0.98326500  0.29427300  0.96642400  1
  Pr  Pr3  1  0.48326500  0.70572700  0.53357600  1
  Mo  Mo4  1  0.35853700  0.98979800  0.08065100  1
  Mo  Mo5  1  0.85853700  0.01020200  0.41934900  1
  Mo  Mo6  1  0.64146300  0.01020200  0.91934900  1
  Mo  Mo7  1  0.14146300  0.98979800  0.58065100  1
  Mo  Mo8  1  0.35764800  0.20390900  0.77391800  1
  Mo  Mo9  1  0.85764800  0.79609100  0.72608200  1
  Mo  Mo10  1  0.64235200  0.79609100  0.22608200  1
  Mo  Mo11  1  0.14235200  0.20390900  0.27391800  1
  Mo  Mo12  1  0.37404700  0.80271300  0.86442000  1
  Mo  Mo13  1  0.87404700  0.19728700  0.63558000  1
  Mo  Mo14  1  0.62595300  0.19728700  0.13558000  1
  Mo  Mo15  1  0.12595300  0.80271300  0.36442000  1
  Mo  Mo16  1  0.36395600  0.59656800  0.18985800  1
  Mo  Mo17  1  0.86395600  0.40343200  0.31014200  1
  Mo  Mo18  1  0.63604400  0.40343200  0.81014200  1
  Mo  Mo19  1  0.13604400  0.59656800  0.68985800  1
  Mo  Mo20  1  0.35350900  0.39096100  0.98270900  1
  Mo  Mo21  1  0.85350900  0.60903900  0.51729100  1
  Mo  Mo22  1  0.64649100  0.60903900  0.01729100  1
  Mo  Mo23  1  0.14649100  0.39096100  0.48270900  1
  O  O24  1  0.50128500  0.58297100  0.86439400  1
  O  O25  1  0.00128500  0.41702900  0.63560600  1
  O  O26  1  0.49871500  0.41702900  0.13560600  1
  O  O27  1  0.99871500  0.58297100  0.36439400  1
  O  O28  1  0.28192100  0.37549200  0.32883600  1
  O  O29  1  0.78192100  0.62450800  0.17116400  1
  O  O30  1  0.71807900  0.62450800  0.67116400  1
  O  O31  1  0.21807900  0.37549200  0.82883600  1
  O  O32  1  0.28601000  0.79217900  0.68646700  1
  O  O33  1  0.78601000  0.20782100  0.81353300  1
  O  O34  1  0.71399000  0.20782100  0.31353300  1
  O  O35  1  0.21399000  0.79217900  0.18646700  1
  O  O36  1  0.28166800  0.18806800  0.59450400  1
  O  O37  1  0.78166800  0.81193200  0.90549600  1
  O  O38  1  0.71833200  0.81193200  0.40549600  1
  O  O39  1  0.21833200  0.18806800  0.09450400  1
  O  O40  1  0.24805700  0.60297700  0.51066200  1
  O  O41  1  0.74805700  0.39702300  0.98933800  1
  O  O42  1  0.75194300  0.39702300  0.48933800  1
  O  O43  1  0.25194300  0.60297700  0.01066200  1
  O  O44  1  0.50705800  0.01568700  0.76411200  1
  O  O45  1  0.00705800  0.98431300  0.73588800  1
  O  O46  1  0.49294200  0.98431300  0.23588800  1
  O  O47  1  0.99294200  0.01568700  0.26411200  1
  O  O48  1  0.99652200  0.59491800  0.85215900  1
  O  O49  1  0.49652200  0.40508200  0.64784100  1
  O  O50  1  0.00347800  0.40508200  0.14784100  1
  O  O51  1  0.50347800  0.59491800  0.35215900  1
  O  O52  1  0.25139700  0.98880500  0.91069400  1
  O  O53  1  0.75139700  0.01119500  0.58930600  1
  O  O54  1  0.74860300  0.01119500  0.08930600  1
  O  O55  1  0.24860300  0.98880500  0.41069400  1
