# generated using pymatgen
data_Ba4Tb2Cd3S10
_symmetry_space_group_name_H-M   'P 1'
_cell_length_a   9.37230770
_cell_length_b   9.37230770
_cell_length_c   26.94282500
_cell_angle_alpha   90.00000000
_cell_angle_beta   90.00000000
_cell_angle_gamma   154.16126240
_symmetry_Int_Tables_number   1
_chemical_formula_structural   Ba4Tb2Cd3S10
_chemical_formula_sum   'Ba8 Tb4 Cd6 S20'
_cell_volume   1031.48519328
_cell_formula_units_Z   2
loop_
 _symmetry_equiv_pos_site_id
 _symmetry_equiv_pos_as_xyz
  1  'x, y, z'
loop_
 _atom_site_type_symbol
 _atom_site_label
 _atom_site_symmetry_multiplicity
 _atom_site_fract_x
 _atom_site_fract_y
 _atom_site_fract_z
 _atom_site_occupancy
  Ba  Ba0  1  0.59476700  0.40523300  0.33932600  1
  Ba  Ba1  1  0.40523300  0.59476700  0.83932600  1
  Ba  Ba2  1  0.57561800  0.42438200  0.15620100  1
  Ba  Ba3  1  0.42438200  0.57561800  0.65620100  1
  Ba  Ba4  1  0.16261400  0.83738600  0.61122400  1
  Ba  Ba5  1  0.83738600  0.16261400  0.11122400  1
  Ba  Ba6  1  0.16188700  0.83811300  0.89010900  1
  Ba  Ba7  1  0.83811300  0.16188700  0.39010900  1
  Tb  Tb8  1  0.50282100  0.49717900  0.49990500  1
  Tb  Tb9  1  0.49717900  0.50282100  0.99990500  1
  Tb  Tb10  1  0.07876600  0.92123400  0.75330200  1
  Tb  Tb11  1  0.92123400  0.07876600  0.25330200  1
  Cd  Cd12  1  0.21731600  0.78268400  0.23173800  1
  Cd  Cd13  1  0.78268400  0.21731600  0.73173800  1
  Cd  Cd14  1  0.15900100  0.84099900  0.46200400  1
  Cd  Cd15  1  0.84099900  0.15900100  0.96200400  1
  Cd  Cd16  1  0.15370400  0.84629600  0.04397200  1
  Cd  Cd17  1  0.84629600  0.15370400  0.54397200  1
  S  S18  1  0.42366000  0.57634000  0.32051900  1
  S  S19  1  0.57634000  0.42366000  0.82051900  1
  S  S20  1  0.41059800  0.58940200  0.18432300  1
  S  S21  1  0.58940200  0.41059800  0.68432300  1
  S  S22  1  0.34985400  0.65014600  0.48920100  1
  S  S23  1  0.65014600  0.34985400  0.98920100  1
  S  S24  1  0.34696400  0.65303600  0.01879400  1
  S  S25  1  0.65303600  0.34696400  0.51879400  1
  S  S26  1  0.23004700  0.76995300  0.76599900  1
  S  S27  1  0.76995300  0.23004700  0.26599900  1
  S  S28  1  0.21108500  0.78891500  0.37800000  1
  S  S29  1  0.78891500  0.21108500  0.87800000  1
  S  S30  1  0.20743000  0.79257000  0.13114600  1
  S  S31  1  0.79257000  0.20743000  0.63114600  1
  S  S32  1  0.07333400  0.92666600  0.24717100  1
  S  S33  1  0.92666600  0.07333400  0.74717100  1
  S  S34  1  0.01579200  0.98420800  0.43333700  1
  S  S35  1  0.98420800  0.01579200  0.93333700  1
  S  S36  1  0.98872300  0.01127700  0.57064800  1
  S  S37  1  0.01127700  0.98872300  0.07064800  1
