# generated using pymatgen
data_SiO2
_symmetry_space_group_name_H-M   'P 1'
_cell_length_a   9.90121525
_cell_length_b   9.90121525
_cell_length_c   7.53561045
_cell_angle_alpha   81.28760670
_cell_angle_beta   81.28760670
_cell_angle_gamma   88.23874345
_symmetry_Int_Tables_number   1
_chemical_formula_structural   SiO2
_chemical_formula_sum   'Si12 O24'
_cell_volume   721.77335173
_cell_formula_units_Z   12
loop_
 _symmetry_equiv_pos_site_id
 _symmetry_equiv_pos_as_xyz
  1  'x, y, z'
loop_
 _atom_site_type_symbol
 _atom_site_label
 _atom_site_symmetry_multiplicity
 _atom_site_fract_x
 _atom_site_fract_y
 _atom_site_fract_z
 _atom_site_occupancy
  Si  Si0  1  0.83391700  0.38958100  0.91407200  1
  Si  Si1  1  0.61041900  0.16608300  0.08592800  1
  Si  Si2  1  0.16608300  0.61041900  0.08592800  1
  Si  Si3  1  0.38958100  0.83391700  0.91407200  1
  Si  Si4  1  0.84469200  0.61876100  0.15578200  1
  Si  Si5  1  0.38123900  0.15530800  0.84421800  1
  Si  Si6  1  0.15530800  0.38123900  0.84421800  1
  Si  Si7  1  0.61876100  0.84469200  0.15578200  1
  Si  Si8  1  0.71531800  0.48786000  0.54694700  1
  Si  Si9  1  0.51214000  0.28468200  0.45305300  1
  Si  Si10  1  0.28468200  0.51214000  0.45305300  1
  Si  Si11  1  0.48786000  0.71531800  0.54694700  1
  O  O12  1  0.74606800  0.25393200  0.00000000  1
  O  O13  1  0.25393200  0.74606800  0.00000000  1
  O  O14  1  0.79386800  0.50800600  0.04138900  1
  O  O15  1  0.49199400  0.20613200  0.95861100  1
  O  O16  1  0.20613200  0.49199400  0.95861100  1
  O  O17  1  0.50800600  0.79386800  0.04138900  1
  O  O18  1  0.00559400  0.65102200  0.09265800  1
  O  O19  1  0.34897800  0.99440600  0.90734200  1
  O  O20  1  0.99440600  0.34897800  0.90734200  1
  O  O21  1  0.65102200  0.00559400  0.09265800  1
  O  O22  1  0.23948700  0.23948700  0.88438300  1
  O  O23  1  0.76051300  0.76051300  0.11561700  1
  O  O24  1  0.35167200  0.64832800  0.50000000  1
  O  O25  1  0.64832800  0.35167200  0.50000000  1
  O  O26  1  0.59460700  0.59460700  0.60813000  1
  O  O27  1  0.40539300  0.40539300  0.39187000  1
  O  O28  1  0.55907500  0.81819000  0.37138500  1
  O  O29  1  0.18181000  0.44092500  0.62861500  1
  O  O30  1  0.44092500  0.18181000  0.62861500  1
  O  O31  1  0.81819000  0.55907500  0.37138500  1
  O  O32  1  0.44516100  0.80375200  0.71021300  1
  O  O33  1  0.19624800  0.55483900  0.28978700  1
  O  O34  1  0.55483900  0.19624800  0.28978700  1
  O  O35  1  0.80375200  0.44516100  0.71021300  1
