# generated using pymatgen
data_Pu3Mg
_symmetry_space_group_name_H-M   'P 1'
_cell_length_a   6.71034814
_cell_length_b   6.71034814
_cell_length_c   5.38256500
_cell_angle_alpha   90.00000000
_cell_angle_beta   90.00000000
_cell_angle_gamma   120.00000140
_symmetry_Int_Tables_number   1
_chemical_formula_structural   Pu3Mg
_chemical_formula_sum   'Pu6 Mg2'
_cell_volume   209.89882804
_cell_formula_units_Z   2
loop_
 _symmetry_equiv_pos_site_id
 _symmetry_equiv_pos_as_xyz
  1  'x, y, z'
loop_
 _atom_site_type_symbol
 _atom_site_label
 _atom_site_symmetry_multiplicity
 _atom_site_fract_x
 _atom_site_fract_y
 _atom_site_fract_z
 _atom_site_occupancy
  Pu  Pu0  1  0.16804600  0.33609300  0.25000000  1
  Pu  Pu1  1  0.66390700  0.83195400  0.25000000  1
  Pu  Pu2  1  0.16804600  0.83195400  0.25000000  1
  Pu  Pu3  1  0.83195400  0.16804600  0.75000000  1
  Pu  Pu4  1  0.33609300  0.16804600  0.75000000  1
  Pu  Pu5  1  0.83195400  0.66390700  0.75000000  1
  Mg  Mg6  1  0.66666700  0.33333300  0.25000000  1
  Mg  Mg7  1  0.33333300  0.66666700  0.75000000  1
