# generated using pymatgen
data_Na2GeF6
_symmetry_space_group_name_H-M   'P 1'
_cell_length_a   9.56393057
_cell_length_b   9.56393057
_cell_length_c   4.67316900
_cell_angle_alpha   90.00000000
_cell_angle_beta   90.00000000
_cell_angle_gamma   120.00000395
_symmetry_Int_Tables_number   1
_chemical_formula_structural   Na2GeF6
_chemical_formula_sum   'Na6 Ge3 F18'
_cell_volume   370.18168758
_cell_formula_units_Z   3
loop_
 _symmetry_equiv_pos_site_id
 _symmetry_equiv_pos_as_xyz
  1  'x, y, z'
loop_
 _atom_site_type_symbol
 _atom_site_label
 _atom_site_symmetry_multiplicity
 _atom_site_fract_x
 _atom_site_fract_y
 _atom_site_fract_z
 _atom_site_occupancy
  Na  Na0  1  0.34281500  0.34281500  0.00000000  1
  Na  Na1  1  0.00000000  0.65718500  0.00000000  1
  Na  Na2  1  0.65718500  0.00000000  0.00000000  1
  Na  Na3  1  0.65718500  0.65718500  0.00000000  1
  Na  Na4  1  0.00000000  0.34281500  0.00000000  1
  Na  Na5  1  0.34281500  0.00000000  0.00000000  1
  Ge  Ge6  1  0.66666700  0.33333300  0.49968900  1
  Ge  Ge7  1  0.33333300  0.66666700  0.50031100  1
  Ge  Ge8  1  0.00000000  0.00000000  0.00000000  1
  F  F9  1  0.57524200  0.42475800  0.72482300  1
  F  F10  1  0.57524200  0.15048300  0.72482300  1
  F  F11  1  0.84951700  0.42475800  0.72482300  1
  F  F12  1  0.15048300  0.57524200  0.27517700  1
  F  F13  1  0.42475800  0.84951700  0.27517700  1
  F  F14  1  0.42475800  0.57524200  0.27517700  1
  F  F15  1  0.75805200  0.24194800  0.27654400  1
  F  F16  1  0.75805200  0.51610500  0.27654400  1
  F  F17  1  0.48389500  0.24194800  0.27654400  1
  F  F18  1  0.09303000  0.90697000  0.21414400  1
  F  F19  1  0.09303000  0.18606000  0.21414400  1
  F  F20  1  0.81394000  0.90697000  0.21414400  1
  F  F21  1  0.18606000  0.09303000  0.78585600  1
  F  F22  1  0.90697000  0.81394000  0.78585600  1
  F  F23  1  0.90697000  0.09303000  0.78585600  1
  F  F24  1  0.24194800  0.75805200  0.72345600  1
  F  F25  1  0.24194800  0.48389500  0.72345600  1
  F  F26  1  0.51610500  0.75805200  0.72345600  1
