# generated using pymatgen
data_Y3(Si3Os)4
_symmetry_space_group_name_H-M   'P 1'
_cell_length_a   10.14854407
_cell_length_b   10.14854407
_cell_length_c   8.17866200
_cell_angle_alpha   90.00000000
_cell_angle_beta   90.00000000
_cell_angle_gamma   132.49879762
_symmetry_Int_Tables_number   1
_chemical_formula_structural   Y3(Si3Os)4
_chemical_formula_sum   'Y6 Si24 Os8'
_cell_volume   621.05345219
_cell_formula_units_Z   2
loop_
 _symmetry_equiv_pos_site_id
 _symmetry_equiv_pos_as_xyz
  1  'x, y, z'
loop_
 _atom_site_type_symbol
 _atom_site_label
 _atom_site_symmetry_multiplicity
 _atom_site_fract_x
 _atom_site_fract_y
 _atom_site_fract_z
 _atom_site_occupancy
  Y  Y0  1  0.50154800  0.00154800  0.75000000  1
  Y  Y1  1  0.99845200  0.49845200  0.25000000  1
  Y  Y2  1  0.49845200  0.99845200  0.25000000  1
  Y  Y3  1  0.00154800  0.50154800  0.75000000  1
  Y  Y4  1  0.00000000  0.00000000  0.00000000  1
  Y  Y5  1  0.50000000  0.50000000  0.50000000  1
  Si  Si6  1  0.79512200  0.20487800  0.50000000  1
  Si  Si7  1  0.70487800  0.29512200  0.00000000  1
  Si  Si8  1  0.20487800  0.79512200  0.50000000  1
  Si  Si9  1  0.29512200  0.70487800  0.00000000  1
  Si  Si10  1  0.66732200  0.66732200  0.16696600  1
  Si  Si11  1  0.16732200  0.16732200  0.33303400  1
  Si  Si12  1  0.83267800  0.83267800  0.66696600  1
  Si  Si13  1  0.33267800  0.33267800  0.83303400  1
  Si  Si14  1  0.84512000  0.61066400  0.99494800  1
  Si  Si15  1  0.11066400  0.34512000  0.50505200  1
  Si  Si16  1  0.65488000  0.88933600  0.49494800  1
  Si  Si17  1  0.38933600  0.15488000  0.00505200  1
  Si  Si18  1  0.15488000  0.38933600  0.00505200  1
  Si  Si19  1  0.88933600  0.65488000  0.49494800  1
  Si  Si20  1  0.12074300  0.88639700  0.72782600  1
  Si  Si21  1  0.38639700  0.62074300  0.77217400  1
  Si  Si22  1  0.37925700  0.61360300  0.22782600  1
  Si  Si23  1  0.11360300  0.87925700  0.27217400  1
  Si  Si24  1  0.87925700  0.11360300  0.27217400  1
  Si  Si25  1  0.61360300  0.37925700  0.22782600  1
  Si  Si26  1  0.62074300  0.38639700  0.77217400  1
  Si  Si27  1  0.88639700  0.12074300  0.72782600  1
  Si  Si28  1  0.61066400  0.84512000  0.99494800  1
  Si  Si29  1  0.34512000  0.11066400  0.50505200  1
  Os  Os30  1  0.62714400  0.62714400  0.87261500  1
  Os  Os31  1  0.12714400  0.12714400  0.62738500  1
  Os  Os32  1  0.37285600  0.37285600  0.12738500  1
  Os  Os33  1  0.87285600  0.87285600  0.37261500  1
  Os  Os34  1  0.16892500  0.83107500  0.00000000  1
  Os  Os35  1  0.33107500  0.66892500  0.50000000  1
  Os  Os36  1  0.83107500  0.16892500  0.00000000  1
  Os  Os37  1  0.66892500  0.33107500  0.50000000  1
