# generated using pymatgen
data_Ba2CoO4
_symmetry_space_group_name_H-M   'P 1'
_cell_length_a   5.95556500
_cell_length_b   7.70055300
_cell_length_c   10.66387000
_cell_angle_alpha   90.00000000
_cell_angle_beta   90.00000000
_cell_angle_gamma   90.00000000
_symmetry_Int_Tables_number   1
_chemical_formula_structural   Ba2CoO4
_chemical_formula_sum   'Ba8 Co4 O16'
_cell_volume   489.05727689
_cell_formula_units_Z   4
loop_
 _symmetry_equiv_pos_site_id
 _symmetry_equiv_pos_as_xyz
  1  'x, y, z'
loop_
 _atom_site_type_symbol
 _atom_site_label
 _atom_site_symmetry_multiplicity
 _atom_site_fract_x
 _atom_site_fract_y
 _atom_site_fract_z
 _atom_site_occupancy
  Ba  Ba0  1  0.25000000  0.85176800  0.42595700  1
  Ba  Ba1  1  0.75000000  0.14823200  0.57404300  1
  Ba  Ba2  1  0.25000000  0.35176800  0.07404300  1
  Ba  Ba3  1  0.75000000  0.64823200  0.92595700  1
  Ba  Ba4  1  0.25000000  0.00922500  0.80959600  1
  Ba  Ba5  1  0.75000000  0.99077500  0.19040400  1
  Ba  Ba6  1  0.25000000  0.50922500  0.69040400  1
  Ba  Ba7  1  0.75000000  0.49077500  0.30959600  1
  Co  Co8  1  0.25000000  0.27615900  0.42265000  1
  Co  Co9  1  0.75000000  0.72384100  0.57735000  1
  Co  Co10  1  0.25000000  0.77615900  0.07735000  1
  Co  Co11  1  0.75000000  0.22384100  0.92265000  1
  O  O12  1  0.49741200  0.68500700  0.14770000  1
  O  O13  1  0.99741200  0.31499300  0.85230000  1
  O  O14  1  0.00258800  0.18500700  0.35230000  1
  O  O15  1  0.50258800  0.81499300  0.64770000  1
  O  O16  1  0.50258800  0.31499300  0.85230000  1
  O  O17  1  0.00258800  0.68500700  0.14770000  1
  O  O18  1  0.99741200  0.81499300  0.64770000  1
  O  O19  1  0.49741200  0.18500700  0.35230000  1
  O  O20  1  0.25000000  0.19066500  0.58224400  1
  O  O21  1  0.75000000  0.80933500  0.41775600  1
  O  O22  1  0.25000000  0.69066500  0.91775600  1
  O  O23  1  0.75000000  0.30933500  0.08224400  1
  O  O24  1  0.75000000  0.99193400  0.91848700  1
  O  O25  1  0.25000000  0.00806600  0.08151300  1
  O  O26  1  0.75000000  0.49193400  0.58151300  1
  O  O27  1  0.25000000  0.50806600  0.41848700  1
