# generated using pymatgen
data_LuCu(BO2)5
_symmetry_space_group_name_H-M   'P 1'
_cell_length_a   8.25119235
_cell_length_b   8.25119235
_cell_length_c   8.25119235
_cell_angle_alpha   135.27099621
_cell_angle_beta   117.56914050
_cell_angle_gamma   80.02246836
_symmetry_Int_Tables_number   1
_chemical_formula_structural   LuCu(BO2)5
_chemical_formula_sum   'Lu2 Cu2 B10 O20'
_cell_volume   339.38284537
_cell_formula_units_Z   2
loop_
 _symmetry_equiv_pos_site_id
 _symmetry_equiv_pos_as_xyz
  1  'x, y, z'
loop_
 _atom_site_type_symbol
 _atom_site_label
 _atom_site_symmetry_multiplicity
 _atom_site_fract_x
 _atom_site_fract_y
 _atom_site_fract_z
 _atom_site_occupancy
  Lu  Lu0  1  0.25000000  0.75000000  0.50000000  1
  Lu  Lu1  1  0.75000000  0.25000000  0.50000000  1
  Cu  Cu2  1  0.00000000  0.50000000  0.50000000  1
  Cu  Cu3  1  0.50000000  0.00000000  0.50000000  1
  B  B4  1  0.09288500  0.78359400  0.07630100  1
  B  B5  1  0.25000000  0.25000000  0.00000000  1
  B  B6  1  0.75000000  0.75000000  0.00000000  1
  B  B7  1  0.29270700  0.98341500  0.07630100  1
  B  B8  1  0.90711500  0.21640600  0.92369900  1
  B  B9  1  0.70729300  0.01658500  0.92369900  1
  B  B10  1  0.59288500  0.51658500  0.30929100  1
  B  B11  1  0.20729300  0.28359400  0.69070900  1
  B  B12  1  0.40711500  0.48341500  0.69070900  1
  B  B13  1  0.79270700  0.71640600  0.30929100  1
  O  O14  1  0.45838600  0.05196200  0.28260900  1
  O  O15  1  0.26935300  0.55196200  0.59357500  1
  O  O16  1  0.95838600  0.67577700  0.40642500  1
  O  O17  1  0.76935300  0.17577700  0.71739100  1
  O  O18  1  0.23064700  0.82422300  0.28260900  1
  O  O19  1  0.54161400  0.94803800  0.71739100  1
  O  O20  1  0.73064700  0.44803800  0.40642500  1
  O  O21  1  0.04161400  0.32422300  0.59357500  1
  O  O22  1  0.90803300  0.66313900  0.94403500  1
  O  O23  1  0.71910400  0.96399800  0.05596500  1
  O  O24  1  0.40803300  0.46399800  0.24489400  1
  O  O25  1  0.21910400  0.16313900  0.75510600  1
  O  O26  1  0.37232500  0.35247200  0.72479600  1
  O  O27  1  0.62767500  0.64752800  0.27520400  1
  O  O28  1  0.87232500  0.14752800  0.01985300  1
  O  O29  1  0.12767500  0.85247200  0.98014700  1
  O  O30  1  0.59196700  0.53600200  0.75510600  1
  O  O31  1  0.78089600  0.83686100  0.24489400  1
  O  O32  1  0.09196700  0.33686100  0.05596500  1
  O  O33  1  0.28089600  0.03600200  0.94403500  1
