# generated using pymatgen
data_BaMnO3
_symmetry_space_group_name_H-M   'P 1'
_cell_length_a   7.89412336
_cell_length_b   7.89412336
_cell_length_c   7.89412318
_cell_angle_alpha   42.84145528
_cell_angle_beta   42.84145528
_cell_angle_gamma   42.84145389
_symmetry_Int_Tables_number   1
_chemical_formula_structural   BaMnO3
_chemical_formula_sum   'Ba3 Mn3 O9'
_cell_volume   206.09811068
_cell_formula_units_Z   3
loop_
 _symmetry_equiv_pos_site_id
 _symmetry_equiv_pos_as_xyz
  1  'x, y, z'
loop_
 _atom_site_type_symbol
 _atom_site_label
 _atom_site_symmetry_multiplicity
 _atom_site_fract_x
 _atom_site_fract_y
 _atom_site_fract_z
 _atom_site_occupancy
  Ba  Ba0  1  0.77925400  0.77925400  0.77925400  1
  Ba  Ba1  1  0.22074600  0.22074600  0.22074600  1
  Ba  Ba2  1  0.00000000  0.00000000  0.00000000  1
  Mn  Mn3  1  0.61879700  0.61879700  0.61879700  1
  Mn  Mn4  1  0.38120300  0.38120300  0.38120300  1
  Mn  Mn5  1  0.50000000  0.50000000  0.50000000  1
  O  O6  1  0.00000000  0.50000000  0.50000000  1
  O  O7  1  0.50000000  0.00000000  0.50000000  1
  O  O8  1  0.50000000  0.50000000  0.00000000  1
  O  O9  1  0.29453200  0.29453200  0.73578900  1
  O  O10  1  0.73578900  0.29453200  0.29453200  1
  O  O11  1  0.29453200  0.73578900  0.29453200  1
  O  O12  1  0.26421100  0.70546800  0.70546800  1
  O  O13  1  0.70546800  0.70546800  0.26421100  1
  O  O14  1  0.70546800  0.26421100  0.70546800  1
