# generated using pymatgen
data_NaV2O5
_symmetry_space_group_name_H-M   'P 1'
_cell_length_a   3.64389100
_cell_length_b   5.01135500
_cell_length_c   11.50250100
_cell_angle_alpha   90.00000000
_cell_angle_beta   90.00000000
_cell_angle_gamma   90.00000000
_symmetry_Int_Tables_number   1
_chemical_formula_structural   NaV2O5
_chemical_formula_sum   'Na2 V4 O10'
_cell_volume   210.04523124
_cell_formula_units_Z   2
loop_
 _symmetry_equiv_pos_site_id
 _symmetry_equiv_pos_as_xyz
  1  'x, y, z'
loop_
 _atom_site_type_symbol
 _atom_site_label
 _atom_site_symmetry_multiplicity
 _atom_site_fract_x
 _atom_site_fract_y
 _atom_site_fract_z
 _atom_site_occupancy
  Na  Na0  1  0.25000100  0.12433900  0.25000000  1
  Na  Na1  1  0.75000100  0.87566100  0.75000000  1
  V  V2  1  0.25000100  0.40038400  0.59997600  1
  V  V3  1  0.75000100  0.59961700  0.40002400  1
  V  V4  1  0.25000100  0.40038400  0.90002400  1
  V  V5  1  0.75000100  0.59961700  0.09997600  1
  O  O6  1  0.75000100  0.92572700  0.38065300  1
  O  O7  1  0.25000100  0.48140700  0.07096900  1
  O  O8  1  0.75000100  0.51859400  0.57096900  1
  O  O9  1  0.25000100  0.48140700  0.42903100  1
  O  O10  1  0.75000100  0.46949900  0.25000000  1
  O  O11  1  0.25000100  0.07427300  0.61934700  1
  O  O12  1  0.75000100  0.92572700  0.11934700  1
  O  O13  1  0.25000100  0.07427300  0.88065300  1
  O  O14  1  0.75000100  0.51859400  0.92903100  1
  O  O15  1  0.25000100  0.53050000  0.75000000  1
