# generated using pymatgen
data_Tb3Fe5O12
_symmetry_space_group_name_H-M   'P 1'
_cell_length_a   10.88814596
_cell_length_b   10.88814596
_cell_length_c   10.88814596
_cell_angle_alpha   109.47122063
_cell_angle_beta   109.47122063
_cell_angle_gamma   109.47122063
_symmetry_Int_Tables_number   1
_chemical_formula_structural   Tb3Fe5O12
_chemical_formula_sum   'Tb12 Fe20 O48'
_cell_volume   993.66481365
_cell_formula_units_Z   4
loop_
 _symmetry_equiv_pos_site_id
 _symmetry_equiv_pos_as_xyz
  1  'x, y, z'
loop_
 _atom_site_type_symbol
 _atom_site_label
 _atom_site_symmetry_multiplicity
 _atom_site_fract_x
 _atom_site_fract_y
 _atom_site_fract_z
 _atom_site_occupancy
  Tb  Tb0  1  0.62500000  0.25000000  0.87500000  1
  Tb  Tb1  1  0.25000000  0.87500000  0.62500000  1
  Tb  Tb2  1  0.62500000  0.87500000  0.75000000  1
  Tb  Tb3  1  0.37500000  0.75000000  0.12500000  1
  Tb  Tb4  1  0.75000000  0.12500000  0.37500000  1
  Tb  Tb5  1  0.37500000  0.12500000  0.25000000  1
  Tb  Tb6  1  0.12500000  0.25000000  0.37500000  1
  Tb  Tb7  1  0.25000000  0.37500000  0.12500000  1
  Tb  Tb8  1  0.12500000  0.37500000  0.75000000  1
  Tb  Tb9  1  0.87500000  0.75000000  0.62500000  1
  Tb  Tb10  1  0.75000000  0.62500000  0.87500000  1
  Tb  Tb11  1  0.87500000  0.62500000  0.25000000  1
  Fe  Fe12  1  0.50000000  0.00000000  0.00000000  1
  Fe  Fe13  1  0.50000000  0.00000000  0.50000000  1
  Fe  Fe14  1  0.50000000  0.50000000  0.50000000  1
  Fe  Fe15  1  0.00000000  0.50000000  0.00000000  1
  Fe  Fe16  1  0.00000000  0.00000000  0.50000000  1
  Fe  Fe17  1  0.50000000  0.50000000  0.00000000  1
  Fe  Fe18  1  0.00000000  0.50000000  0.50000000  1
  Fe  Fe19  1  0.00000000  0.00000000  0.00000000  1
  Fe  Fe20  1  0.37500000  0.25000000  0.62500000  1
  Fe  Fe21  1  0.25000000  0.62500000  0.37500000  1
  Fe  Fe22  1  0.87500000  0.12500000  0.75000000  1
  Fe  Fe23  1  0.62500000  0.75000000  0.37500000  1
  Fe  Fe24  1  0.75000000  0.37500000  0.62500000  1
  Fe  Fe25  1  0.12500000  0.87500000  0.25000000  1
  Fe  Fe26  1  0.12500000  0.75000000  0.87500000  1
  Fe  Fe27  1  0.75000000  0.87500000  0.12500000  1
  Fe  Fe28  1  0.62500000  0.37500000  0.25000000  1
  Fe  Fe29  1  0.87500000  0.25000000  0.12500000  1
  Fe  Fe30  1  0.25000000  0.12500000  0.87500000  1
  Fe  Fe31  1  0.37500000  0.62500000  0.75000000  1
  O  O32  1  0.40551100  0.08330200  0.87741100  1
  O  O33  1  0.41669800  0.82220900  0.79410900  1
  O  O34  1  0.67779100  0.09448900  0.97190000  1
  O  O35  1  0.59448900  0.91669800  0.12258900  1
  O  O36  1  0.58330200  0.17779100  0.20589100  1
  O  O37  1  0.32220900  0.90551100  0.02810000  1
  O  O38  1  0.52810000  0.40551100  0.82220900  1
  O  O39  1  0.09448900  0.62258900  0.41669800  1
  O  O40  1  0.87741100  0.97190000  0.79410900  1
  O  O41  1  0.47190000  0.59448900  0.17779100  1
  O  O42  1  0.90551100  0.37741100  0.58330200  1
  O  O43  1  0.12258900  0.02810000  0.20589100  1
  O  O44  1  0.82220900  0.52810000  0.40551100  1
  O  O45  1  0.97190000  0.79410900  0.87741100  1
  O  O46  1  0.70589100  0.67779100  0.08330200  1
  O  O47  1  0.17779100  0.47190000  0.59448900  1
  O  O48  1  0.02810000  0.20589100  0.12258900  1
  O  O49  1  0.29410900  0.32220900  0.91669800  1
  O  O50  1  0.79410900  0.87741100  0.97190000  1
  O  O51  1  0.62258900  0.41669800  0.09448900  1
  O  O52  1  0.08330200  0.70589100  0.67779100  1
  O  O53  1  0.20589100  0.12258900  0.02810000  1
  O  O54  1  0.37741100  0.58330200  0.90551100  1
  O  O55  1  0.91669800  0.29410900  0.32220900  1
  O  O56  1  0.67779100  0.08330200  0.70589100  1
  O  O57  1  0.41669800  0.09448900  0.62258900  1
  O  O58  1  0.40551100  0.82220900  0.52810000  1
  O  O59  1  0.32220900  0.91669800  0.29410900  1
  O  O60  1  0.58330200  0.90551100  0.37741100  1
  O  O61  1  0.59448900  0.17779100  0.47190000  1
  O  O62  1  0.87741100  0.40551100  0.08330200  1
  O  O63  1  0.09448900  0.97190000  0.67779100  1
  O  O64  1  0.52810000  0.62258900  0.70589100  1
  O  O65  1  0.12258900  0.59448900  0.91669800  1
  O  O66  1  0.90551100  0.02810000  0.32220900  1
  O  O67  1  0.47190000  0.37741100  0.29410900  1
  O  O68  1  0.70589100  0.52810000  0.62258900  1
  O  O69  1  0.97190000  0.67779100  0.09448900  1
  O  O70  1  0.82220900  0.79410900  0.41669800  1
  O  O71  1  0.29410900  0.47190000  0.37741100  1
  O  O72  1  0.02810000  0.32220900  0.90551100  1
  O  O73  1  0.17779100  0.20589100  0.58330200  1
  O  O74  1  0.08330200  0.87741100  0.40551100  1
  O  O75  1  0.62258900  0.70589100  0.52810000  1
  O  O76  1  0.79410900  0.41669800  0.82220900  1
  O  O77  1  0.91669800  0.12258900  0.59448900  1
  O  O78  1  0.37741100  0.29410900  0.47190000  1
  O  O79  1  0.20589100  0.58330200  0.17779100  1
