# generated using pymatgen
data_SmCo(BO2)5
_symmetry_space_group_name_H-M   'P 1'
_cell_length_a   7.65451300
_cell_length_b   8.74629800
_cell_length_c   9.46961591
_cell_angle_alpha   86.99432535
_cell_angle_beta   90.00000000
_cell_angle_gamma   90.00000000
_symmetry_Int_Tables_number   1
_chemical_formula_structural   SmCo(BO2)5
_chemical_formula_sum   'Sm4 Co4 B20 O40'
_cell_volume   633.10588364
_cell_formula_units_Z   4
loop_
 _symmetry_equiv_pos_site_id
 _symmetry_equiv_pos_as_xyz
  1  'x, y, z'
loop_
 _atom_site_type_symbol
 _atom_site_label
 _atom_site_symmetry_multiplicity
 _atom_site_fract_x
 _atom_site_fract_y
 _atom_site_fract_z
 _atom_site_occupancy
  Sm  Sm0  1  0.31348500  0.31752000  0.73757800  1
  Sm  Sm1  1  0.81348500  0.18248000  0.76242200  1
  Sm  Sm2  1  0.68651500  0.68248000  0.26242200  1
  Sm  Sm3  1  0.18651500  0.81752000  0.23757800  1
  Co  Co4  1  0.09273300  0.90065700  0.62692500  1
  Co  Co5  1  0.59273300  0.59934300  0.87307500  1
  Co  Co6  1  0.90726700  0.09934300  0.37307500  1
  Co  Co7  1  0.40726700  0.40065700  0.12692500  1
  B  B8  1  0.57773300  0.08821800  0.26152800  1
  B  B9  1  0.18621000  0.57041400  0.91444300  1
  B  B10  1  0.68621000  0.92958600  0.58555700  1
  B  B11  1  0.81379000  0.42958600  0.08555700  1
  B  B12  1  0.31379000  0.07041400  0.41444300  1
  B  B13  1  0.90410200  0.65445300  0.49924000  1
  B  B14  1  0.40410200  0.84554700  0.00076000  1
  B  B15  1  0.09589800  0.34554700  0.50076000  1
  B  B16  1  0.59589800  0.15445300  0.99924000  1
  B  B17  1  0.07773300  0.41178200  0.23847200  1
  B  B18  1  0.42226700  0.91178200  0.73847200  1
  B  B19  1  0.92226700  0.58821800  0.76152800  1
  B  B20  1  0.32675300  0.51578500  0.39284100  1
  B  B21  1  0.82675300  0.98421500  0.10715900  1
  B  B22  1  0.67324700  0.48421500  0.60715900  1
  B  B23  1  0.17324700  0.01578500  0.89284100  1
  B  B24  1  0.53310300  0.28093300  0.44717600  1
  B  B25  1  0.03310300  0.21906700  0.05282400  1
  B  B26  1  0.46689700  0.71906700  0.55282400  1
  B  B27  1  0.96689700  0.78093300  0.94717600  1
  O  O28  1  0.21496800  0.52857700  0.26337300  1
  O  O29  1  0.65276900  0.50040300  0.06832400  1
  O  O30  1  0.15276900  0.99959700  0.43167600  1
  O  O31  1  0.34723100  0.49959700  0.93167600  1
  O  O32  1  0.84723100  0.00040300  0.56832400  1
  O  O33  1  0.45521600  0.76717800  0.12045400  1
  O  O34  1  0.95521600  0.73282200  0.37954600  1
  O  O35  1  0.54478400  0.23282200  0.87954600  1
  O  O36  1  0.71496800  0.97142300  0.23662700  1
  O  O37  1  0.04478400  0.26717800  0.62045400  1
  O  O38  1  0.28503200  0.02857700  0.76337300  1
  O  O39  1  0.78503200  0.47142300  0.73662700  1
  O  O40  1  0.53312800  0.18415200  0.13103300  1
  O  O41  1  0.03312800  0.31584800  0.36896700  1
  O  O42  1  0.46687200  0.81584800  0.86896700  1
  O  O43  1  0.96687200  0.68415200  0.63103300  1
  O  O44  1  0.41330300  0.01296300  0.30790700  1
  O  O45  1  0.91330300  0.48703700  0.19209300  1
  O  O46  1  0.58669700  0.98703700  0.69209300  1
  O  O47  1  0.08669700  0.51296300  0.80790700  1
  O  O48  1  0.65002700  0.18598500  0.36781500  1
  O  O49  1  0.15002700  0.31401500  0.13218500  1
  O  O50  1  0.34997300  0.81401500  0.63218500  1
  O  O51  1  0.84997300  0.68598500  0.86781500  1
  O  O52  1  0.47602000  0.41616100  0.35525900  1
  O  O53  1  0.97602000  0.08383900  0.14474100  1
  O  O54  1  0.52398000  0.58383900  0.64474100  1
  O  O55  1  0.02398000  0.91616100  0.85525900  1
  O  O56  1  0.39180400  0.67275800  0.41523600  1
  O  O57  1  0.89180400  0.82724200  0.08476400  1
  O  O58  1  0.60819600  0.32724200  0.58476400  1
  O  O59  1  0.12627100  0.68754400  0.99197100  1
  O  O60  1  0.22472500  0.45721300  0.51486400  1
  O  O61  1  0.72472500  0.04278700  0.98513600  1
  O  O62  1  0.77527500  0.54278700  0.48513600  1
  O  O63  1  0.27527500  0.95721300  0.01486400  1
  O  O64  1  0.37372900  0.18754400  0.49197100  1
  O  O65  1  0.87372900  0.31245600  0.00802900  1
  O  O66  1  0.62627100  0.81245600  0.50802900  1
  O  O67  1  0.10819600  0.17275800  0.91523600  1
