# generated using pymatgen
data_Pu3Zr
_symmetry_space_group_name_H-M   'P 1'
_cell_length_a   5.54919560
_cell_length_b   5.54919560
_cell_length_c   5.54919560
_cell_angle_alpha   131.07133604
_cell_angle_beta   131.07133604
_cell_angle_gamma   71.69976554
_symmetry_Int_Tables_number   1
_chemical_formula_structural   Pu3Zr
_chemical_formula_sum   'Pu3 Zr1'
_cell_volume   95.01640858
_cell_formula_units_Z   1
loop_
 _symmetry_equiv_pos_site_id
 _symmetry_equiv_pos_as_xyz
  1  'x, y, z'
loop_
 _atom_site_type_symbol
 _atom_site_label
 _atom_site_symmetry_multiplicity
 _atom_site_fract_x
 _atom_site_fract_y
 _atom_site_fract_z
 _atom_site_occupancy
  Pu  Pu0  1  0.74999900  0.24999900  0.50000000  1
  Pu  Pu1  1  0.24999900  0.74999900  0.50000000  1
  Pu  Pu2  1  0.50000000  0.50000000  0.00000000  1
  Zr  Zr3  1  0.00000000  0.00000000  0.00000000  1
