# generated using pymatgen
data_CaFe(SiO3)2
_symmetry_space_group_name_H-M   'P 1'
_cell_length_a   5.33435080
_cell_length_b   9.97518008
_cell_length_c   9.15447062
_cell_angle_alpha   90.00143554
_cell_angle_beta   90.00030476
_cell_angle_gamma   74.62143806
_symmetry_Int_Tables_number   1
_chemical_formula_structural   CaFe(SiO3)2
_chemical_formula_sum   'Ca4 Fe4 Si8 O24'
_cell_volume   469.67807911
_cell_formula_units_Z   4
loop_
 _symmetry_equiv_pos_site_id
 _symmetry_equiv_pos_as_xyz
  1  'x, y, z'
loop_
 _atom_site_type_symbol
 _atom_site_label
 _atom_site_symmetry_multiplicity
 _atom_site_fract_x
 _atom_site_fract_y
 _atom_site_fract_z
 _atom_site_occupancy
  Ca  Ca0  1  0.74992600  0.50000900  0.20156000  1
  Ca  Ca1  1  0.74998100  0.00000200  0.70156100  1
  Ca  Ca2  1  0.24993200  0.50000600  0.79843900  1
  Ca  Ca3  1  0.24998700  0.99999900  0.29843800  1
  Fe  Fe4  1  0.75001400  0.99998800  0.09183500  1
  Fe  Fe5  1  0.25000800  0.99998900  0.90817000  1
  Fe  Fe6  1  0.75005900  0.49995600  0.59185100  1
  Fe  Fe7  1  0.25005000  0.49995900  0.40815700  1
  Si  Si8  1  0.26312400  0.28787000  0.09223600  1
  Si  Si9  1  0.26309800  0.78791000  0.59226700  1
  Si  Si10  1  0.76311500  0.28787300  0.90775200  1
  Si  Si11  1  0.76309800  0.78790800  0.40772500  1
  Si  Si12  1  0.73690500  0.71211400  0.90771900  1
  Si  Si13  1  0.73688300  0.21214700  0.40774900  1
  Si  Si14  1  0.23689700  0.71212200  0.09228000  1
  Si  Si15  1  0.23688500  0.21214900  0.59225500  1
  O  O16  1  0.65393000  0.88080000  0.90867400  1
  O  O17  1  0.65391300  0.38077200  0.40862200  1
  O  O18  1  0.15393800  0.88079500  0.09132800  1
  O  O19  1  0.15394000  0.38077100  0.59136400  1
  O  O20  1  0.84605800  0.11921300  0.90868100  1
  O  O21  1  0.84606500  0.61917900  0.40871700  1
  O  O22  1  0.34604400  0.11921500  0.09131700  1
  O  O23  1  0.34603200  0.61917800  0.59126600  1
  O  O24  1  0.32481600  0.63526600  0.24524000  1
  O  O25  1  0.32480100  0.13525200  0.74526900  1
  O  O26  1  0.17522400  0.36479300  0.24532000  1
  O  O27  1  0.17521300  0.86475200  0.74527400  1
  O  O28  1  0.67522400  0.36477800  0.75470100  1
  O  O29  1  0.67521000  0.86475000  0.25473300  1
  O  O30  1  0.82481300  0.63527900  0.75477400  1
  O  O31  1  0.82480000  0.13525100  0.25472800  1
  O  O32  1  0.49857600  0.34928800  0.01661600  1
  O  O33  1  0.49858200  0.84927900  0.51661600  1
  O  O34  1  0.99858000  0.34928700  0.98338600  1
  O  O35  1  0.99858600  0.84927600  0.48338500  1
  O  O36  1  0.00142100  0.65070800  0.01662100  1
  O  O37  1  0.00142500  0.15070200  0.51661800  1
  O  O38  1  0.50142100  0.65070900  0.98337600  1
  O  O39  1  0.50142500  0.15070500  0.48337900  1
