# generated using pymatgen
data_Sr2MoO4
_symmetry_space_group_name_H-M   'P 1'
_cell_length_a   4.02203523
_cell_length_b   4.02203541
_cell_length_c   7.08951771
_cell_angle_alpha   106.47881060
_cell_angle_beta   106.47881502
_cell_angle_gamma   89.99999296
_symmetry_Int_Tables_number   1
_chemical_formula_structural   Sr2MoO4
_chemical_formula_sum   'Sr2 Mo1 O4'
_cell_volume   105.05297760
_cell_formula_units_Z   1
loop_
 _symmetry_equiv_pos_site_id
 _symmetry_equiv_pos_as_xyz
  1  'x, y, z'
loop_
 _atom_site_type_symbol
 _atom_site_label
 _atom_site_symmetry_multiplicity
 _atom_site_fract_x
 _atom_site_fract_y
 _atom_site_fract_z
 _atom_site_occupancy
  Sr  Sr0  1  0.34992800  0.34992700  0.69985500  1
  Sr  Sr1  1  0.65007200  0.65007100  0.30014400  1
  Mo  Mo2  1  0.00000000  0.00000000  0.00000000  1
  O  O3  1  0.00000100  0.49999900  0.00000000  1
  O  O4  1  0.49999900  0.00000000  0.00000000  1
  O  O5  1  0.83563700  0.83563800  0.67127700  1
  O  O6  1  0.16436300  0.16436000  0.32872300  1
