# generated using pymatgen
data_BaTi18Mn3O38
_symmetry_space_group_name_H-M   'P 1'
_cell_length_a   9.30164190
_cell_length_b   9.30164190
_cell_length_c   9.30164289
_cell_angle_alpha   68.78735962
_cell_angle_beta   68.78735962
_cell_angle_gamma   68.78735793
_symmetry_Int_Tables_number   1
_chemical_formula_structural   BaTi18Mn3O38
_chemical_formula_sum   'Ba1 Ti18 Mn3 O38'
_cell_volume   674.28107349
_cell_formula_units_Z   1
loop_
 _symmetry_equiv_pos_site_id
 _symmetry_equiv_pos_as_xyz
  1  'x, y, z'
loop_
 _atom_site_type_symbol
 _atom_site_label
 _atom_site_symmetry_multiplicity
 _atom_site_fract_x
 _atom_site_fract_y
 _atom_site_fract_z
 _atom_site_occupancy
  Ba  Ba0  1  0.00000000  0.00000000  0.00000000  1
  Ti  Ti1  1  0.35982500  0.91275700  0.53275400  1
  Ti  Ti2  1  0.53275400  0.35982500  0.91275700  1
  Ti  Ti3  1  0.91275700  0.53275400  0.35982500  1
  Ti  Ti4  1  0.64017500  0.08724300  0.46724600  1
  Ti  Ti5  1  0.46724600  0.64017500  0.08724300  1
  Ti  Ti6  1  0.08724300  0.46724600  0.64017500  1
  Ti  Ti7  1  0.85043300  0.28587100  0.68538700  1
  Ti  Ti8  1  0.68538700  0.85043300  0.28587100  1
  Ti  Ti9  1  0.28587100  0.68538700  0.85043300  1
  Ti  Ti10  1  0.14956700  0.71412900  0.31461300  1
  Ti  Ti11  1  0.31461300  0.14956700  0.71412900  1
  Ti  Ti12  1  0.71412900  0.31461300  0.14956700  1
  Ti  Ti13  1  0.97937600  0.87597400  0.65184300  1
  Ti  Ti14  1  0.65184300  0.97937600  0.87597400  1
  Ti  Ti15  1  0.87597400  0.65184300  0.97937600  1
  Ti  Ti16  1  0.02062400  0.12402600  0.34815700  1
  Ti  Ti17  1  0.34815700  0.02062400  0.12402600  1
  Ti  Ti18  1  0.12402600  0.34815700  0.02062400  1
  Mn  Mn19  1  0.50000000  0.50000000  0.50000000  1
  Mn  Mn20  1  0.68960600  0.68960600  0.68960600  1
  Mn  Mn21  1  0.31039400  0.31039400  0.31039400  1
  O  O22  1  0.78820300  0.78820300  0.78820300  1
  O  O23  1  0.21179700  0.21179700  0.21179700  1
  O  O24  1  0.92522200  0.75597200  0.29448800  1
  O  O25  1  0.29448800  0.92522200  0.75597200  1
  O  O26  1  0.75597200  0.29448800  0.92522200  1
  O  O27  1  0.07477800  0.24402800  0.70551200  1
  O  O28  1  0.70551200  0.07477800  0.24402800  1
  O  O29  1  0.24402800  0.70551200  0.07477800  1
  O  O30  1  0.86792500  0.51009100  0.60716300  1
  O  O31  1  0.60716300  0.86792500  0.51009100  1
  O  O32  1  0.51009100  0.60716300  0.86792500  1
  O  O33  1  0.13207500  0.48990900  0.39283700  1
  O  O34  1  0.39283700  0.13207500  0.48990900  1
  O  O35  1  0.48990900  0.39283700  0.13207500  1
  O  O36  1  0.54389300  0.07437500  0.70217800  1
  O  O37  1  0.01133400  0.48651200  0.85579900  1
  O  O38  1  0.48651200  0.85579900  0.01133400  1
  O  O39  1  0.98866600  0.51348800  0.14420100  1
  O  O40  1  0.14420100  0.98866600  0.51348800  1
  O  O41  1  0.51348800  0.14420100  0.98866600  1
  O  O42  1  0.70217700  0.54389300  0.07437500  1
  O  O43  1  0.07437500  0.70217800  0.54389300  1
  O  O44  1  0.62759400  0.30562200  0.37632200  1
  O  O45  1  0.30562200  0.37632200  0.62759400  1
  O  O46  1  0.37632200  0.62759400  0.30562200  1
  O  O47  1  0.37240600  0.69437800  0.62367800  1
  O  O48  1  0.69437800  0.62367800  0.37240600  1
  O  O49  1  0.62367800  0.37240600  0.69437800  1
  O  O50  1  0.23882300  0.15401400  0.93896900  1
  O  O51  1  0.15401400  0.93896900  0.23882300  1
  O  O52  1  0.93896900  0.23882300  0.15401400  1
  O  O53  1  0.76117700  0.84598600  0.06103100  1
  O  O54  1  0.84598600  0.06103100  0.76117700  1
  O  O55  1  0.06103100  0.76117700  0.84598600  1
  O  O56  1  0.45610700  0.92562500  0.29782200  1
  O  O57  1  0.92562500  0.29782200  0.45610700  1
  O  O58  1  0.29782300  0.45610700  0.92562500  1
  O  O59  1  0.85579900  0.01133400  0.48651200  1
