# generated using pymatgen
data_Pu(Mg4Al3)4
_symmetry_space_group_name_H-M   'P 1'
_cell_length_a   9.30072517
_cell_length_b   9.30072517
_cell_length_c   9.30072573
_cell_angle_alpha   110.37588507
_cell_angle_beta   110.37588507
_cell_angle_gamma   110.37588707
_symmetry_Int_Tables_number   1
_chemical_formula_structural   Pu(Mg4Al3)4
_chemical_formula_sum   'Pu1 Mg16 Al12'
_cell_volume   597.69628763
_cell_formula_units_Z   1
loop_
 _symmetry_equiv_pos_site_id
 _symmetry_equiv_pos_as_xyz
  1  'x, y, z'
loop_
 _atom_site_type_symbol
 _atom_site_label
 _atom_site_symmetry_multiplicity
 _atom_site_fract_x
 _atom_site_fract_y
 _atom_site_fract_z
 _atom_site_occupancy
  Pu  Pu0  1  0.62636300  0.62636300  0.62636300  1
  Mg  Mg1  1  0.34316200  0.00293500  0.00293500  1
  Mg  Mg2  1  0.27973400  0.68296900  0.68296900  1
  Mg  Mg3  1  0.99840500  0.99840500  0.99840500  1
  Mg  Mg4  1  0.72443800  0.39388400  0.39388400  1
  Mg  Mg5  1  0.99841600  0.60912800  0.30930900  1
  Mg  Mg6  1  0.60912800  0.30930900  0.99841600  1
  Mg  Mg7  1  0.39388400  0.72443800  0.39388400  1
  Mg  Mg8  1  0.00293600  0.34316200  0.00293500  1
  Mg  Mg9  1  0.30930900  0.99841600  0.60912800  1
  Mg  Mg10  1  0.68296900  0.68296900  0.27973400  1
  Mg  Mg11  1  0.68296900  0.27973400  0.68296900  1
  Mg  Mg12  1  0.30930900  0.60912800  0.99841600  1
  Mg  Mg13  1  0.00293500  0.00293500  0.34316200  1
  Mg  Mg14  1  0.39388400  0.39388400  0.72443800  1
  Mg  Mg15  1  0.60912800  0.99841600  0.30930900  1
  Mg  Mg16  1  0.99841600  0.30930900  0.60912800  1
  Al  Al17  1  0.83013000  0.19110800  0.19110800  1
  Al  Al18  1  0.19526400  0.37639600  0.37639600  1
  Al  Al19  1  0.99229400  0.81096000  0.63385200  1
  Al  Al20  1  0.37639600  0.37639600  0.19526400  1
  Al  Al21  1  0.63385200  0.99229400  0.81096000  1
  Al  Al22  1  0.81096000  0.99229400  0.63385200  1
  Al  Al23  1  0.19110800  0.19110800  0.83013000  1
  Al  Al24  1  0.19110800  0.83013000  0.19110800  1
  Al  Al25  1  0.81096000  0.63385200  0.99229400  1
  Al  Al26  1  0.63385200  0.81096000  0.99229400  1
  Al  Al27  1  0.37639600  0.19526400  0.37639600  1
  Al  Al28  1  0.99229400  0.63385200  0.81096000  1
