# generated using pymatgen
data_In2Ag
_symmetry_space_group_name_H-M   'P 1'
_cell_length_a   5.71559197
_cell_length_b   5.71559197
_cell_length_c   5.71559197
_cell_angle_alpha   105.23430561
_cell_angle_beta   105.23430561
_cell_angle_gamma   118.32459598
_symmetry_Int_Tables_number   1
_chemical_formula_structural   In2Ag
_chemical_formula_sum   'In4 Ag2'
_cell_volume   141.12495297
_cell_formula_units_Z   2
loop_
 _symmetry_equiv_pos_site_id
 _symmetry_equiv_pos_as_xyz
  1  'x, y, z'
loop_
 _atom_site_type_symbol
 _atom_site_label
 _atom_site_symmetry_multiplicity
 _atom_site_fract_x
 _atom_site_fract_y
 _atom_site_fract_z
 _atom_site_occupancy
  In  In0  1  0.15549400  0.65549400  0.81098700  1
  In  In1  1  0.34450600  0.15549400  0.50000000  1
  In  In2  1  0.65549400  0.84450600  0.50000000  1
  In  In3  1  0.84450600  0.34450600  0.18901300  1
  Ag  Ag4  1  0.25000000  0.25000000  0.00000000  1
  Ag  Ag5  1  0.75000000  0.75000000  0.00000000  1
