# generated using pymatgen
data_Mo3W(Se3S)2
_symmetry_space_group_name_H-M   'P 1'
_cell_length_a   3.29164595
_cell_length_b   3.29164595
_cell_length_c   37.40000400
_cell_angle_alpha   90.00000000
_cell_angle_beta   90.00000000
_cell_angle_gamma   119.99999902
_symmetry_Int_Tables_number   1
_chemical_formula_structural   Mo3W(Se3S)2
_chemical_formula_sum   'Mo3 W1 Se6 S2'
_cell_volume   350.93648148
_cell_formula_units_Z   1
loop_
 _symmetry_equiv_pos_site_id
 _symmetry_equiv_pos_as_xyz
  1  'x, y, z'
loop_
 _atom_site_type_symbol
 _atom_site_label
 _atom_site_symmetry_multiplicity
 _atom_site_fract_x
 _atom_site_fract_y
 _atom_site_fract_z
 _atom_site_occupancy
  Mo  Mo0  1  0.33333300  0.66666700  0.09391000  1
  Mo  Mo1  1  0.33333300  0.66666700  0.46965500  1
  Mo  Mo2  1  0.66666700  0.33333300  0.28177600  1
  W  W3  1  0.66666700  0.33333300  0.65756800  1
  Se  Se4  1  0.33333300  0.66666700  0.32686100  1
  Se  Se5  1  0.33333300  0.66666700  0.70287100  1
  Se  Se6  1  0.66666700  0.33333300  0.42459100  1
  Se  Se7  1  0.66666700  0.33333300  0.51470700  1
  Se  Se8  1  0.33333300  0.66666700  0.23672100  1
  Se  Se9  1  0.33333300  0.66666700  0.61225900  1
  S  S10  1  0.66666700  0.33333300  0.05291500  1
  S  S11  1  0.66666700  0.33333300  0.13491500  1
