# generated using pymatgen
data_Sn7Ir5
_symmetry_space_group_name_H-M   'P 1'
_cell_length_a   6.95418298
_cell_length_b   6.95418298
_cell_length_c   6.95418298
_cell_angle_alpha   102.80450930
_cell_angle_beta   102.80450930
_cell_angle_gamma   123.83130166
_symmetry_Int_Tables_number   1
_chemical_formula_structural   Sn7Ir5
_chemical_formula_sum   'Sn7 Ir5'
_cell_volume   246.47149063
_cell_formula_units_Z   1
loop_
 _symmetry_equiv_pos_site_id
 _symmetry_equiv_pos_as_xyz
  1  'x, y, z'
loop_
 _atom_site_type_symbol
 _atom_site_label
 _atom_site_symmetry_multiplicity
 _atom_site_fract_x
 _atom_site_fract_y
 _atom_site_fract_z
 _atom_site_occupancy
  Sn  Sn0  1  0.72596700  0.72596700  0.42901900  1
  Sn  Sn1  1  0.29694800  0.72596700  0.00000000  1
  Sn  Sn2  1  0.72596700  0.29694800  0.00000000  1
  Sn  Sn3  1  0.29694800  0.29694800  0.57098100  1
  Sn  Sn4  1  0.41493100  0.91493100  0.50000000  1
  Sn  Sn5  1  0.90103200  0.90103200  0.00000000  1
  Sn  Sn6  1  0.91493100  0.41493100  0.50000000  1
  Ir  Ir7  1  0.93387100  0.17735500  0.75651600  1
  Ir  Ir8  1  0.17735500  0.93387100  0.75651600  1
  Ir  Ir9  1  0.17735500  0.42083800  0.24348400  1
  Ir  Ir10  1  0.42083800  0.17735500  0.24348400  1
  Ir  Ir11  1  0.49985600  0.49985600  0.00000000  1
