# generated using pymatgen
data_Rb3Zr
_symmetry_space_group_name_H-M   'P 1'
_cell_length_a   7.52114000
_cell_length_b   7.52114000
_cell_length_c   7.52114000
_cell_angle_alpha   130.69214843
_cell_angle_beta   130.69214843
_cell_angle_gamma   72.30264919
_symmetry_Int_Tables_number   1
_chemical_formula_structural   Rb3Zr
_chemical_formula_sum   'Rb3 Zr1'
_cell_volume   239.10523377
_cell_formula_units_Z   1
loop_
 _symmetry_equiv_pos_site_id
 _symmetry_equiv_pos_as_xyz
  1  'x, y, z'
loop_
 _atom_site_type_symbol
 _atom_site_label
 _atom_site_symmetry_multiplicity
 _atom_site_fract_x
 _atom_site_fract_y
 _atom_site_fract_z
 _atom_site_occupancy
  Rb  Rb0  1  0.75000000  0.25000000  0.50000000  1
  Rb  Rb1  1  0.25000000  0.75000000  0.50000000  1
  Rb  Rb2  1  0.50000000  0.50000000  0.00000000  1
  Zr  Zr3  1  0.00000000  0.00000000  0.00000000  1
