# generated using pymatgen
data_RhN3
_symmetry_space_group_name_H-M   'P 1'
_cell_length_a   5.72250188
_cell_length_b   5.72250188
_cell_length_c   5.72250188
_cell_angle_alpha   109.47122063
_cell_angle_beta   109.47122063
_cell_angle_gamma   109.47122063
_symmetry_Int_Tables_number   1
_chemical_formula_structural   RhN3
_chemical_formula_sum   'Rh4 N12'
_cell_volume   144.25668269
_cell_formula_units_Z   4
loop_
 _symmetry_equiv_pos_site_id
 _symmetry_equiv_pos_as_xyz
  1  'x, y, z'
loop_
 _atom_site_type_symbol
 _atom_site_label
 _atom_site_symmetry_multiplicity
 _atom_site_fract_x
 _atom_site_fract_y
 _atom_site_fract_z
 _atom_site_occupancy
  Rh  Rh0  1  0.00000000  0.00000000  0.50000000  1
  Rh  Rh1  1  0.00000000  0.50000000  0.00000000  1
  Rh  Rh2  1  0.50000000  0.00000000  0.00000000  1
  Rh  Rh3  1  0.50000000  0.50000000  0.50000000  1
  N  N4  1  0.88911600  0.61687400  0.50598900  1
  N  N5  1  0.88911600  0.38312600  0.27224200  1
  N  N6  1  0.11088400  0.61687400  0.72775800  1
  N  N7  1  0.38312600  0.49401100  0.11088400  1
  N  N8  1  0.11088400  0.38312600  0.49401100  1
  N  N9  1  0.61687400  0.72775800  0.11088400  1
  N  N10  1  0.27224200  0.88911600  0.38312600  1
  N  N11  1  0.61687400  0.50598900  0.88911600  1
  N  N12  1  0.72775800  0.11088400  0.61687400  1
  N  N13  1  0.38312600  0.27224200  0.88911600  1
  N  N14  1  0.50598900  0.88911600  0.61687400  1
  N  N15  1  0.49401100  0.11088400  0.38312600  1
