# generated using pymatgen
data_Rb2PbO3
_symmetry_space_group_name_H-M   'P 1'
_cell_length_a   6.70683099
_cell_length_b   6.70683099
_cell_length_c   6.14073000
_cell_angle_alpha   90.00000000
_cell_angle_beta   90.00000000
_cell_angle_gamma   111.47065671
_symmetry_Int_Tables_number   1
_chemical_formula_structural   Rb2PbO3
_chemical_formula_sum   'Rb4 Pb2 O6'
_cell_volume   257.05152026
_cell_formula_units_Z   2
loop_
 _symmetry_equiv_pos_site_id
 _symmetry_equiv_pos_as_xyz
  1  'x, y, z'
loop_
 _atom_site_type_symbol
 _atom_site_label
 _atom_site_symmetry_multiplicity
 _atom_site_fract_x
 _atom_site_fract_y
 _atom_site_fract_z
 _atom_site_occupancy
  Rb  Rb0  1  0.51850900  0.19137900  0.74095600  1
  Rb  Rb1  1  0.80862100  0.48149100  0.24095600  1
  Rb  Rb2  1  0.48149100  0.80862100  0.24095600  1
  Rb  Rb3  1  0.19137900  0.51850900  0.74095600  1
  Pb  Pb4  1  0.09334400  0.09334400  0.26146300  1
  Pb  Pb5  1  0.90665600  0.90665600  0.76146300  1
  O  O6  1  0.36373500  0.36373500  0.30662700  1
  O  O7  1  0.63626500  0.63626500  0.80662700  1
  O  O8  1  0.14358400  0.88344200  0.00499900  1
  O  O9  1  0.85641600  0.11655800  0.50499900  1
  O  O10  1  0.88344200  0.14358400  0.00499900  1
  O  O11  1  0.11655800  0.85641600  0.50499900  1
