# generated using pymatgen
data_SrMnSn
_symmetry_space_group_name_H-M   'P 1'
_cell_length_a   4.75674100
_cell_length_b   4.75674100
_cell_length_c   7.63974300
_cell_angle_alpha   90.00000000
_cell_angle_beta   90.00000000
_cell_angle_gamma   90.00000000
_symmetry_Int_Tables_number   1
_chemical_formula_structural   SrMnSn
_chemical_formula_sum   'Sr2 Mn2 Sn2'
_cell_volume   172.86129392
_cell_formula_units_Z   2
loop_
 _symmetry_equiv_pos_site_id
 _symmetry_equiv_pos_as_xyz
  1  'x, y, z'
loop_
 _atom_site_type_symbol
 _atom_site_label
 _atom_site_symmetry_multiplicity
 _atom_site_fract_x
 _atom_site_fract_y
 _atom_site_fract_z
 _atom_site_occupancy
  Sr  Sr0  1  0.00000000  0.50000000  0.32010500  1
  Sr  Sr1  1  0.50000000  0.00000000  0.67989500  1
  Mn  Mn2  1  0.50000000  0.50000000  0.00000000  1
  Mn  Mn3  1  0.00000000  0.00000000  0.00000000  1
  Sn  Sn4  1  0.00000000  0.50000000  0.80089400  1
  Sn  Sn5  1  0.50000000  0.00000000  0.19910600  1
