# generated using pymatgen
data_CuGe5Pb3O14
_symmetry_space_group_name_H-M   'P 1'
_cell_length_a   10.00597238
_cell_length_b   10.00597238
_cell_length_c   10.55061526
_cell_angle_alpha   59.15985118
_cell_angle_beta   59.15985118
_cell_angle_gamma   48.80819290
_symmetry_Int_Tables_number   1
_chemical_formula_structural   CuGe5Pb3O14
_chemical_formula_sum   'Cu2 Ge10 Pb6 O28'
_cell_volume   656.97587811
_cell_formula_units_Z   2
loop_
 _symmetry_equiv_pos_site_id
 _symmetry_equiv_pos_as_xyz
  1  'x, y, z'
loop_
 _atom_site_type_symbol
 _atom_site_label
 _atom_site_symmetry_multiplicity
 _atom_site_fract_x
 _atom_site_fract_y
 _atom_site_fract_z
 _atom_site_occupancy
  Cu  Cu0  1  0.00000000  0.00000000  0.50000000  1
  Cu  Cu1  1  0.00000000  0.00000000  0.00000000  1
  Ge  Ge2  1  0.15507100  0.51996400  0.13437400  1
  Ge  Ge3  1  0.48003600  0.84492900  0.36562600  1
  Ge  Ge4  1  0.58124800  0.17151300  0.15458500  1
  Ge  Ge5  1  0.82848700  0.41875200  0.34541500  1
  Ge  Ge6  1  0.41875200  0.82848700  0.84541500  1
  Ge  Ge7  1  0.17151300  0.58124800  0.65458500  1
  Ge  Ge8  1  0.78430900  0.21569100  0.25000000  1
  Ge  Ge9  1  0.21569100  0.78430900  0.75000000  1
  Ge  Ge10  1  0.84492900  0.48003600  0.86562600  1
  Ge  Ge11  1  0.51996400  0.15507100  0.63437400  1
  Pb  Pb12  1  0.84400500  0.78289300  0.43892200  1
  Pb  Pb13  1  0.21710700  0.15599500  0.06107800  1
  Pb  Pb14  1  0.15599500  0.21710700  0.56107800  1
  Pb  Pb15  1  0.78289300  0.84400500  0.93892200  1
  Pb  Pb16  1  0.35208900  0.64791100  0.25000000  1
  Pb  Pb17  1  0.64791100  0.35208900  0.75000000  1
  O  O18  1  0.57227200  0.12227000  0.78576900  1
  O  O19  1  0.87773000  0.42772800  0.71423100  1
  O  O20  1  0.42772800  0.87773000  0.21423100  1
  O  O21  1  0.12227000  0.57227200  0.28576900  1
  O  O22  1  0.45193900  0.00217000  0.68033400  1
  O  O23  1  0.99783000  0.54806100  0.81966600  1
  O  O24  1  0.54806100  0.99783000  0.31966600  1
  O  O25  1  0.00217000  0.45193900  0.18033400  1
  O  O26  1  0.56217500  0.32721500  0.20730300  1
  O  O27  1  0.67278500  0.43782500  0.29269700  1
  O  O28  1  0.43782500  0.67278500  0.79269700  1
  O  O29  1  0.32721500  0.56217500  0.70730300  1
  O  O30  1  0.00401100  0.86756900  0.71270600  1
  O  O31  1  0.13243100  0.99598900  0.78729400  1
  O  O32  1  0.99598900  0.13243100  0.28729400  1
  O  O33  1  0.86756900  0.00401100  0.21270600  1
  O  O34  1  0.31851600  0.37560900  0.58626300  1
  O  O35  1  0.62439100  0.68148400  0.91373700  1
  O  O36  1  0.75076900  0.09599400  0.98671200  1
  O  O37  1  0.90400600  0.24923100  0.51328800  1
  O  O38  1  0.24923100  0.90400600  0.01328800  1
  O  O39  1  0.09599400  0.75076900  0.48671200  1
  O  O40  1  0.09688000  0.70743100  0.97021200  1
  O  O41  1  0.29256900  0.90312000  0.52978800  1
  O  O42  1  0.90312000  0.29256900  0.02978800  1
  O  O43  1  0.70743100  0.09688000  0.47021200  1
  O  O44  1  0.37560900  0.31851600  0.08626300  1
  O  O45  1  0.68148400  0.62439100  0.41373700  1
