# generated using pymatgen
data_Na2GaCuF7
_symmetry_space_group_name_H-M   'P 1'
_cell_length_a   7.29760092
_cell_length_b   7.29760092
_cell_length_c   13.00354172
_cell_angle_alpha   73.02895365
_cell_angle_beta   73.02895365
_cell_angle_gamma   61.13685068
_symmetry_Int_Tables_number   1
_chemical_formula_structural   Na2GaCuF7
_chemical_formula_sum   'Na8 Ga4 Cu4 F28'
_cell_volume   570.56506122
_cell_formula_units_Z   4
loop_
 _symmetry_equiv_pos_site_id
 _symmetry_equiv_pos_as_xyz
  1  'x, y, z'
loop_
 _atom_site_type_symbol
 _atom_site_label
 _atom_site_symmetry_multiplicity
 _atom_site_fract_x
 _atom_site_fract_y
 _atom_site_fract_z
 _atom_site_occupancy
  Na  Na0  1  0.28076400  0.21408400  0.24747400  1
  Na  Na1  1  0.21408400  0.28076400  0.74747400  1
  Na  Na2  1  0.26933700  0.73066300  0.25000000  1
  Na  Na3  1  0.78591600  0.71923600  0.25252600  1
  Na  Na4  1  0.50000000  0.50000000  0.50000000  1
  Na  Na5  1  0.71923600  0.78591500  0.75252600  1
  Na  Na6  1  0.73066300  0.26933700  0.75000000  1
  Na  Na7  1  0.50000000  0.50000000  0.00000000  1
  Ga  Ga8  1  0.25539100  0.74460900  0.75000000  1
  Ga  Ga9  1  0.74460900  0.25539100  0.25000000  1
  Ga  Ga10  1  0.50000000  0.00000000  0.00000000  1
  Ga  Ga11  1  0.00000000  0.50000000  0.50000000  1
  Cu  Cu12  1  0.00000000  0.00000000  0.00000000  1
  Cu  Cu13  1  0.00000000  0.00000000  0.50000000  1
  Cu  Cu14  1  0.50000000  0.00000000  0.50000000  1
  Cu  Cu15  1  0.00000000  0.50000000  0.00000000  1
  F  F16  1  0.98158500  0.11456300  0.32480100  1
  F  F17  1  0.29908400  0.95141100  0.44926500  1
  F  F18  1  0.91208800  0.50683300  0.65642000  1
  F  F19  1  0.58523500  0.09916100  0.34544800  1
  F  F20  1  0.09953900  0.71920200  0.46520600  1
  F  F21  1  0.70091600  0.04858900  0.55073500  1
  F  F22  1  0.90046100  0.28079800  0.53479400  1
  F  F23  1  0.71920200  0.09953900  0.96520600  1
  F  F24  1  0.50683300  0.91208800  0.15642000  1
  F  F25  1  0.04858900  0.70091600  0.05073500  1
  F  F26  1  0.49316700  0.08791200  0.84358000  1
  F  F27  1  0.01841500  0.88543700  0.67519900  1
  F  F28  1  0.28079800  0.90046100  0.03479400  1
  F  F29  1  0.09916100  0.58523500  0.84544800  1
  F  F30  1  0.27619700  0.31504700  0.53184100  1
  F  F31  1  0.68495300  0.72380300  0.96815900  1
  F  F32  1  0.90083900  0.41476500  0.15455200  1
  F  F33  1  0.49170600  0.60058100  0.82593000  1
  F  F34  1  0.60058100  0.49170600  0.32593000  1
  F  F35  1  0.88543700  0.01841500  0.17519900  1
  F  F36  1  0.72380300  0.68495300  0.46815900  1
  F  F37  1  0.39941900  0.50829400  0.67407000  1
  F  F38  1  0.08791200  0.49316700  0.34358000  1
  F  F39  1  0.31504700  0.27619700  0.03184100  1
  F  F40  1  0.41476500  0.90083900  0.65455200  1
  F  F41  1  0.50829400  0.39941900  0.17407000  1
  F  F42  1  0.95141100  0.29908400  0.94926500  1
  F  F43  1  0.11456300  0.98158500  0.82480100  1
