# generated using pymatgen
data_Cs2PbO3
_symmetry_space_group_name_H-M   'P 1'
_cell_length_a   7.00771328
_cell_length_b   7.00771328
_cell_length_c   6.20148200
_cell_angle_alpha   90.00000000
_cell_angle_beta   90.00000000
_cell_angle_gamma   111.15460581
_symmetry_Int_Tables_number   1
_chemical_formula_structural   Cs2PbO3
_chemical_formula_sum   'Cs4 Pb2 O6'
_cell_volume   284.01953456
_cell_formula_units_Z   2
loop_
 _symmetry_equiv_pos_site_id
 _symmetry_equiv_pos_as_xyz
  1  'x, y, z'
loop_
 _atom_site_type_symbol
 _atom_site_label
 _atom_site_symmetry_multiplicity
 _atom_site_fract_x
 _atom_site_fract_y
 _atom_site_fract_z
 _atom_site_occupancy
  Cs  Cs0  1  0.80867500  0.48303600  0.25000000  1
  Cs  Cs1  1  0.48303600  0.80867500  0.25000000  1
  Cs  Cs2  1  0.19132500  0.51696400  0.75000000  1
  Cs  Cs3  1  0.51696400  0.19132500  0.75000000  1
  Pb  Pb4  1  0.91165800  0.91165800  0.75000000  1
  Pb  Pb5  1  0.08834200  0.08834200  0.25000000  1
  O  O6  1  0.65013000  0.65013000  0.75000000  1
  O  O7  1  0.34987000  0.34987000  0.25000000  1
  O  O8  1  0.87544200  0.12455800  0.50000000  1
  O  O9  1  0.12455800  0.87544200  0.00000000  1
  O  O10  1  0.87544200  0.12455800  0.00000000  1
  O  O11  1  0.12455800  0.87544200  0.50000000  1
