# generated using pymatgen
data_TeMo2Se2S
_symmetry_space_group_name_H-M   'P 1'
_cell_length_a   3.34361069
_cell_length_b   3.34361069
_cell_length_c   41.75879000
_cell_angle_alpha   90.00000000
_cell_angle_beta   90.00000000
_cell_angle_gamma   120.00001370
_symmetry_Int_Tables_number   1
_chemical_formula_structural   TeMo2Se2S
_chemical_formula_sum   'Te2 Mo4 Se4 S2'
_cell_volume   404.30572274
_cell_formula_units_Z   2
loop_
 _symmetry_equiv_pos_site_id
 _symmetry_equiv_pos_as_xyz
  1  'x, y, z'
loop_
 _atom_site_type_symbol
 _atom_site_label
 _atom_site_symmetry_multiplicity
 _atom_site_fract_x
 _atom_site_fract_y
 _atom_site_fract_z
 _atom_site_occupancy
  Te  Te0  1  0.66666700  0.33333300  0.42437000  1
  Te  Te1  1  0.66666700  0.33333300  0.51531400  1
  Mo  Mo2  1  0.33333300  0.66666700  0.09375100  1
  Mo  Mo3  1  0.33333300  0.66666700  0.46982400  1
  Mo  Mo4  1  0.66666700  0.33333300  0.27940600  1
  Mo  Mo5  1  0.66666700  0.33333300  0.65993700  1
  Se  Se6  1  0.33333300  0.66666700  0.31930400  1
  Se  Se7  1  0.33333300  0.66666700  0.69985000  1
  Se  Se8  1  0.33333300  0.66666700  0.23947700  1
  Se  Se9  1  0.33333300  0.66666700  0.62003300  1
  S  S10  1  0.66666700  0.33333300  0.05740300  1
  S  S11  1  0.66666700  0.33333300  0.13007800  1
