# generated using pymatgen
data_B
_symmetry_space_group_name_H-M   'P 1'
_cell_length_a   8.86625000
_cell_length_b   8.86625000
_cell_length_c   4.92557200
_cell_angle_alpha   90.00000000
_cell_angle_beta   90.00000000
_cell_angle_gamma   90.00000000
_symmetry_Int_Tables_number   1
_chemical_formula_structural   B
_chemical_formula_sum   B50
_cell_volume   387.20113128
_cell_formula_units_Z   50
loop_
 _symmetry_equiv_pos_site_id
 _symmetry_equiv_pos_as_xyz
  1  'x, y, z'
loop_
 _atom_site_type_symbol
 _atom_site_label
 _atom_site_symmetry_multiplicity
 _atom_site_fract_x
 _atom_site_fract_y
 _atom_site_fract_z
 _atom_site_occupancy
  B  B0  1  0.50000000  0.50000000  0.50000000  1
  B  B1  1  0.00000000  0.00000000  0.00000000  1
  B  B2  1  0.62852700  0.62852700  0.39252500  1
  B  B3  1  0.12852700  0.87147300  0.89252500  1
  B  B4  1  0.87147300  0.12852700  0.89252500  1
  B  B5  1  0.37147300  0.37147300  0.39252500  1
  B  B6  1  0.37147300  0.62852700  0.60747500  1
  B  B7  1  0.62852700  0.37147300  0.60747500  1
  B  B8  1  0.12852700  0.12852700  0.10747500  1
  B  B9  1  0.87147300  0.87147300  0.10747500  1
  B  B10  1  0.74563000  0.74563000  0.57398900  1
  B  B11  1  0.24563000  0.75437000  0.07398900  1
  B  B12  1  0.75437000  0.24563000  0.07398900  1
  B  B13  1  0.25437000  0.25437000  0.57398900  1
  B  B14  1  0.25437000  0.74563000  0.42601100  1
  B  B15  1  0.74563000  0.25437000  0.42601100  1
  B  B16  1  0.24563000  0.24563000  0.92601100  1
  B  B17  1  0.75437000  0.75437000  0.92601100  1
  B  B18  1  0.58577000  0.82976200  0.40575100  1
  B  B19  1  0.32976200  0.91423000  0.90575100  1
  B  B20  1  0.67023800  0.08577000  0.90575100  1
  B  B21  1  0.41423000  0.17023800  0.40575100  1
  B  B22  1  0.41423000  0.82976200  0.59424900  1
  B  B23  1  0.58577000  0.17023800  0.59424900  1
  B  B24  1  0.32976200  0.08577000  0.09424900  1
  B  B25  1  0.67023800  0.91423000  0.09424900  1
  B  B26  1  0.91423000  0.67023800  0.09424900  1
  B  B27  1  0.17023800  0.58577000  0.59424900  1
  B  B28  1  0.82976200  0.41423000  0.59424900  1
  B  B29  1  0.08577000  0.32976200  0.09424900  1
  B  B30  1  0.08577000  0.67023800  0.90575100  1
  B  B31  1  0.91423000  0.32976200  0.90575100  1
  B  B32  1  0.17023800  0.41423000  0.40575100  1
  B  B33  1  0.82976200  0.58577000  0.40575100  1
  B  B34  1  0.58295700  0.72850500  0.08770300  1
  B  B35  1  0.22850500  0.91704300  0.58770300  1
  B  B36  1  0.77149500  0.08295700  0.58770300  1
  B  B37  1  0.41704300  0.27149500  0.08770300  1
  B  B38  1  0.41704300  0.72850500  0.91229700  1
  B  B39  1  0.58295700  0.27149500  0.91229700  1
  B  B40  1  0.22850500  0.08295700  0.41229700  1
  B  B41  1  0.77149500  0.91704300  0.41229700  1
  B  B42  1  0.91704300  0.77149500  0.41229700  1
  B  B43  1  0.27149500  0.58295700  0.91229700  1
  B  B44  1  0.72850500  0.41704300  0.91229700  1
  B  B45  1  0.08295700  0.22850500  0.41229700  1
  B  B46  1  0.08295700  0.77149500  0.58770300  1
  B  B47  1  0.91704300  0.22850500  0.58770300  1
  B  B48  1  0.27149500  0.41704300  0.08770300  1
  B  B49  1  0.72850500  0.58295700  0.08770300  1
