# generated using pymatgen
data_TbSnPt
_symmetry_space_group_name_H-M   'P 1'
_cell_length_a   4.57884400
_cell_length_b   7.25056700
_cell_length_c   8.07082000
_cell_angle_alpha   90.00000000
_cell_angle_beta   90.00000000
_cell_angle_gamma   90.00000000
_symmetry_Int_Tables_number   1
_chemical_formula_structural   TbSnPt
_chemical_formula_sum   'Tb4 Sn4 Pt4'
_cell_volume   267.94489006
_cell_formula_units_Z   4
loop_
 _symmetry_equiv_pos_site_id
 _symmetry_equiv_pos_as_xyz
  1  'x, y, z'
loop_
 _atom_site_type_symbol
 _atom_site_label
 _atom_site_symmetry_multiplicity
 _atom_site_fract_x
 _atom_site_fract_y
 _atom_site_fract_z
 _atom_site_occupancy
  Tb  Tb0  1  0.75000000  0.48939900  0.80320200  1
  Tb  Tb1  1  0.25000000  0.01060100  0.30320200  1
  Tb  Tb2  1  0.75000000  0.98939900  0.69679800  1
  Tb  Tb3  1  0.25000000  0.51060100  0.19679800  1
  Sn  Sn4  1  0.25000000  0.67961900  0.58449500  1
  Sn  Sn5  1  0.25000000  0.17961900  0.91550500  1
  Sn  Sn6  1  0.75000000  0.32038100  0.41550500  1
  Sn  Sn7  1  0.75000000  0.82038100  0.08449500  1
  Pt  Pt8  1  0.25000000  0.78388000  0.90952300  1
  Pt  Pt9  1  0.25000000  0.28388000  0.59047700  1
  Pt  Pt10  1  0.75000000  0.71612000  0.40952300  1
  Pt  Pt11  1  0.75000000  0.21612000  0.09047700  1
