# generated using pymatgen
data_Ta2InC
_symmetry_space_group_name_H-M   'P 1'
_cell_length_a   3.16751349
_cell_length_b   3.16751349
_cell_length_c   14.53348000
_cell_angle_alpha   90.00000000
_cell_angle_beta   90.00000000
_cell_angle_gamma   119.99998931
_symmetry_Int_Tables_number   1
_chemical_formula_structural   Ta2InC
_chemical_formula_sum   'Ta4 In2 C2'
_cell_volume   126.28077590
_cell_formula_units_Z   2
loop_
 _symmetry_equiv_pos_site_id
 _symmetry_equiv_pos_as_xyz
  1  'x, y, z'
loop_
 _atom_site_type_symbol
 _atom_site_label
 _atom_site_symmetry_multiplicity
 _atom_site_fract_x
 _atom_site_fract_y
 _atom_site_fract_z
 _atom_site_occupancy
  Ta  Ta0  1  0.33333300  0.66666700  0.08297200  1
  Ta  Ta1  1  0.66666700  0.33333300  0.58297200  1
  Ta  Ta2  1  0.66666700  0.33333300  0.91702800  1
  Ta  Ta3  1  0.33333300  0.66666700  0.41702800  1
  In  In4  1  0.33333300  0.66666700  0.75000000  1
  In  In5  1  0.66666700  0.33333300  0.25000000  1
  C  C6  1  0.00000000  0.00000000  0.00000000  1
  C  C7  1  0.00000000  0.00000000  0.50000000  1
