# generated using pymatgen
data_Rb
_symmetry_space_group_name_H-M   'P 1'
_cell_length_a   15.01562823
_cell_length_b   15.01562823
_cell_length_c   15.01562823
_cell_angle_alpha   109.47122063
_cell_angle_beta   109.47122063
_cell_angle_gamma   109.47122063
_symmetry_Int_Tables_number   1
_chemical_formula_structural   Rb
_chemical_formula_sum   Rb29
_cell_volume   2606.20534101
_cell_formula_units_Z   29
loop_
 _symmetry_equiv_pos_site_id
 _symmetry_equiv_pos_as_xyz
  1  'x, y, z'
loop_
 _atom_site_type_symbol
 _atom_site_label
 _atom_site_symmetry_multiplicity
 _atom_site_fract_x
 _atom_site_fract_y
 _atom_site_fract_z
 _atom_site_occupancy
  Rb  Rb0  1  0.00000000  0.00000000  0.00000000  1
  Rb  Rb1  1  0.00000000  0.00000000  0.36453800  1
  Rb  Rb2  1  0.00000000  0.31816200  0.59745400  1
  Rb  Rb3  1  0.00000000  0.36453800  0.00000000  1
  Rb  Rb4  1  0.00000000  0.59745400  0.31816200  1
  Rb  Rb5  1  0.00000000  0.62662500  0.80975200  1
  Rb  Rb6  1  0.00000000  0.80975200  0.62662500  1
  Rb  Rb7  1  0.81687200  0.19024800  0.19024800  1
  Rb  Rb8  1  0.80975200  0.00000000  0.62662500  1
  Rb  Rb9  1  0.80975200  0.62662500  0.00000000  1
  Rb  Rb10  1  0.72070900  0.40254600  0.40254600  1
  Rb  Rb11  1  0.68183800  0.68183800  0.27929100  1
  Rb  Rb12  1  0.68183800  0.27929100  0.68183800  1
  Rb  Rb13  1  0.63546200  0.63546200  0.63546200  1
  Rb  Rb14  1  0.62662500  0.80975200  0.00000000  1
  Rb  Rb15  1  0.62662500  0.00000000  0.80975200  1
  Rb  Rb16  1  0.59745400  0.00000000  0.31816200  1
  Rb  Rb17  1  0.59745400  0.31816200  0.00000000  1
  Rb  Rb18  1  0.40254600  0.40254600  0.72070900  1
  Rb  Rb19  1  0.40254600  0.72070900  0.40254600  1
  Rb  Rb20  1  0.37337500  0.37337500  0.18312800  1
  Rb  Rb21  1  0.37337500  0.18312800  0.37337500  1
  Rb  Rb22  1  0.36453800  0.00000000  0.00000000  1
  Rb  Rb23  1  0.31816200  0.59745400  0.00000000  1
  Rb  Rb24  1  0.31816200  0.00000000  0.59745400  1
  Rb  Rb25  1  0.27929100  0.68183800  0.68183800  1
  Rb  Rb26  1  0.19024800  0.19024800  0.81687200  1
  Rb  Rb27  1  0.19024800  0.81687200  0.19024800  1
  Rb  Rb28  1  0.18312800  0.37337500  0.37337500  1
