# generated using pymatgen
data_RuBr3
_symmetry_space_group_name_H-M   'P 1'
_cell_length_a   5.92598000
_cell_length_b   7.14166300
_cell_length_c   12.41300400
_cell_angle_alpha   90.00000000
_cell_angle_beta   90.00000000
_cell_angle_gamma   90.00000000
_symmetry_Int_Tables_number   1
_chemical_formula_structural   RuBr3
_chemical_formula_sum   'Ru4 Br12'
_cell_volume   525.33511296
_cell_formula_units_Z   4
loop_
 _symmetry_equiv_pos_site_id
 _symmetry_equiv_pos_as_xyz
  1  'x, y, z'
loop_
 _atom_site_type_symbol
 _atom_site_label
 _atom_site_symmetry_multiplicity
 _atom_site_fract_x
 _atom_site_fract_y
 _atom_site_fract_z
 _atom_site_occupancy
  Ru  Ru0  1  0.74974200  0.25400000  0.50000000  1
  Ru  Ru1  1  0.24974200  0.74600000  0.00000000  1
  Ru  Ru2  1  0.25025800  0.25400000  0.50000000  1
  Ru  Ru3  1  0.75025800  0.74600000  0.00000000  1
  Br  Br4  1  0.00000000  0.96947300  0.50000000  1
  Br  Br5  1  0.50000000  0.03052700  0.00000000  1
  Br  Br6  1  0.50000000  0.53885000  0.50000000  1
  Br  Br7  1  0.00000000  0.46115000  0.00000000  1
  Br  Br8  1  0.00000000  0.39656500  0.35840500  1
  Br  Br9  1  0.50000000  0.60343500  0.14159500  1
  Br  Br10  1  0.00000000  0.39656500  0.64159500  1
  Br  Br11  1  0.50000000  0.60343500  0.85840500  1
  Br  Br12  1  0.00000000  0.88875200  0.14185900  1
  Br  Br13  1  0.50000000  0.11124800  0.35814100  1
  Br  Br14  1  0.00000000  0.88875200  0.85814100  1
  Br  Br15  1  0.50000000  0.11124800  0.64185900  1
