# generated using pymatgen
data_HgI2
_symmetry_space_group_name_H-M   'P 1'
_cell_length_a   4.65570586
_cell_length_b   4.65570586
_cell_length_c   14.38170500
_cell_angle_alpha   90.00000000
_cell_angle_beta   90.00000000
_cell_angle_gamma   110.54667263
_symmetry_Int_Tables_number   1
_chemical_formula_structural   HgI2
_chemical_formula_sum   'Hg2 I4'
_cell_volume   291.90170800
_cell_formula_units_Z   2
loop_
 _symmetry_equiv_pos_site_id
 _symmetry_equiv_pos_as_xyz
  1  'x, y, z'
loop_
 _atom_site_type_symbol
 _atom_site_label
 _atom_site_symmetry_multiplicity
 _atom_site_fract_x
 _atom_site_fract_y
 _atom_site_fract_z
 _atom_site_occupancy
  Hg  Hg0  1  0.34374600  0.65625400  0.49864100  1
  Hg  Hg1  1  0.65625400  0.34374600  0.99864100  1
  I  I2  1  0.40775300  0.59224700  0.86992500  1
  I  I3  1  0.59224700  0.40775300  0.36992500  1
  I  I4  1  0.90327500  0.09672500  0.12813400  1
  I  I5  1  0.09672500  0.90327500  0.62813400  1
