# generated using pymatgen
data_In(IO3)3
_symmetry_space_group_name_H-M   'P 1'
_cell_length_a   7.57657432
_cell_length_b   7.57657432
_cell_length_c   7.57657462
_cell_angle_alpha   81.56050906
_cell_angle_beta   81.56050906
_cell_angle_gamma   81.56051089
_symmetry_Int_Tables_number   1
_chemical_formula_structural   In(IO3)3
_chemical_formula_sum   'In2 I6 O18'
_cell_volume   422.06138784
_cell_formula_units_Z   2
loop_
 _symmetry_equiv_pos_site_id
 _symmetry_equiv_pos_as_xyz
  1  'x, y, z'
loop_
 _atom_site_type_symbol
 _atom_site_label
 _atom_site_symmetry_multiplicity
 _atom_site_fract_x
 _atom_site_fract_y
 _atom_site_fract_z
 _atom_site_occupancy
  In  In0  1  0.82135700  0.82135700  0.82135700  1
  In  In1  1  0.17864300  0.17864300  0.17864300  1
  I  I2  1  0.41926700  0.72067000  0.13014000  1
  I  I3  1  0.27933000  0.86986000  0.58073300  1
  I  I4  1  0.86986000  0.58073300  0.27933000  1
  I  I5  1  0.58073300  0.27933000  0.86986000  1
  I  I6  1  0.13014000  0.41926700  0.72067000  1
  I  I7  1  0.72067000  0.13014000  0.41926700  1
  O  O8  1  0.78511100  0.26650800  0.57535900  1
  O  O9  1  0.26650800  0.57535900  0.78511100  1
  O  O10  1  0.57535900  0.78511100  0.26650800  1
  O  O11  1  0.21488900  0.73349200  0.42464100  1
  O  O12  1  0.73349200  0.42464100  0.21488900  1
  O  O13  1  0.42464100  0.21488900  0.73349200  1
  O  O14  1  0.70111400  0.91683700  0.57241800  1
  O  O15  1  0.91683700  0.57241800  0.70111400  1
  O  O16  1  0.70629500  0.06208000  0.94570400  1
  O  O17  1  0.94570400  0.70629500  0.06208000  1
  O  O18  1  0.06208000  0.94570400  0.70629500  1
  O  O19  1  0.29370500  0.93792000  0.05429600  1
  O  O20  1  0.05429600  0.29370500  0.93792000  1
  O  O21  1  0.93792000  0.05429600  0.29370500  1
  O  O22  1  0.42758200  0.29888600  0.08316300  1
  O  O23  1  0.08316300  0.42758200  0.29888600  1
  O  O24  1  0.29888600  0.08316300  0.42758200  1
  O  O25  1  0.57241800  0.70111400  0.91683700  1
