# generated using pymatgen
data_Mn8Cl3O10
_symmetry_space_group_name_H-M   'P 1'
_cell_length_a   9.36650199
_cell_length_b   9.36650222
_cell_length_c   9.36650189
_cell_angle_alpha   90.01715714
_cell_angle_beta   119.99009177
_cell_angle_gamma   119.99009646
_symmetry_Int_Tables_number   1
_chemical_formula_structural   Mn8Cl3O10
_chemical_formula_sum   'Mn16 Cl6 O20'
_cell_volume   581.14205129
_cell_formula_units_Z   2
loop_
 _symmetry_equiv_pos_site_id
 _symmetry_equiv_pos_as_xyz
  1  'x, y, z'
loop_
 _atom_site_type_symbol
 _atom_site_label
 _atom_site_symmetry_multiplicity
 _atom_site_fract_x
 _atom_site_fract_y
 _atom_site_fract_z
 _atom_site_occupancy
  Mn  Mn0  1  0.00000000  0.50000000  0.50000000  1
  Mn  Mn1  1  0.00000000  0.00000000  0.00000000  1
  Mn  Mn2  1  0.50000000  0.75000000  0.25000000  1
  Mn  Mn3  1  0.50000000  0.25000000  0.75000000  1
  Mn  Mn4  1  0.64850200  0.00000000  0.64850200  1
  Mn  Mn5  1  0.64850200  0.64850200  0.00000000  1
  Mn  Mn6  1  0.35149800  0.35149800  0.00000000  1
  Mn  Mn7  1  0.35149800  0.00000000  0.35149800  1
  Mn  Mn8  1  0.35155900  0.00000700  0.00000700  1
  Mn  Mn9  1  0.64844100  0.64844700  0.64844700  1
  Mn  Mn10  1  0.64844100  0.99999300  0.99999300  1
  Mn  Mn11  1  0.00000000  0.64844700  0.00000700  1
  Mn  Mn12  1  0.00000000  0.00000700  0.64844700  1
  Mn  Mn13  1  0.00000000  0.99999300  0.35155300  1
  Mn  Mn14  1  0.00000000  0.35155300  0.99999300  1
  Mn  Mn15  1  0.35155900  0.35155300  0.35155300  1
  Cl  Cl16  1  0.00000000  0.30401200  0.30401200  1
  Cl  Cl17  1  0.00000000  0.69598800  0.69598800  1
  Cl  Cl18  1  0.00000000  0.69607900  0.30392100  1
  Cl  Cl19  1  0.00000000  0.30392100  0.69607900  1
  Cl  Cl20  1  0.60784100  0.30392100  0.30392100  1
  Cl  Cl21  1  0.39215900  0.69607900  0.69607900  1
  O  O22  1  0.19905300  0.09954500  0.90049100  1
  O  O23  1  0.80094700  0.70143800  0.90049100  1
  O  O24  1  0.80094700  0.09950900  0.90045500  1
  O  O25  1  0.19905300  0.90049100  0.09954500  1
  O  O26  1  0.80094700  0.90049100  0.70143800  1
  O  O27  1  0.80094700  0.90045500  0.09950900  1
  O  O28  1  0.19905300  0.29856200  0.09950900  1
  O  O29  1  0.19905300  0.09950900  0.29856200  1
  O  O30  1  0.50000000  0.40369900  0.90369900  1
  O  O31  1  0.50000000  0.90369900  0.40369900  1
  O  O32  1  0.50000000  0.59630100  0.09630100  1
  O  O33  1  0.50000000  0.09630100  0.59630100  1
  O  O34  1  0.80749800  0.40374900  0.90374900  1
  O  O35  1  0.50000000  0.90374900  0.09625100  1
  O  O36  1  0.50000000  0.59625100  0.40374900  1
  O  O37  1  0.19250200  0.09625100  0.59625100  1
  O  O38  1  0.50000000  0.09625100  0.90374900  1
  O  O39  1  0.50000000  0.40374900  0.59625100  1
  O  O40  1  0.80749800  0.90374900  0.40374900  1
  O  O41  1  0.19250200  0.59625100  0.09625100  1
