# generated using pymatgen
data_KMnPH2O5
_symmetry_space_group_name_H-M   'P 1'
_cell_length_a   7.57882163
_cell_length_b   7.57552010
_cell_length_c   9.82198348
_cell_angle_alpha   70.94888752
_cell_angle_beta   70.91164623
_cell_angle_gamma   98.87216428
_symmetry_Int_Tables_number   1
_chemical_formula_structural   KMnPH2O5
_chemical_formula_sum   'K4 Mn4 P4 H8 O20'
_cell_volume   481.74151730
_cell_formula_units_Z   4
loop_
 _symmetry_equiv_pos_site_id
 _symmetry_equiv_pos_as_xyz
  1  'x, y, z'
loop_
 _atom_site_type_symbol
 _atom_site_label
 _atom_site_symmetry_multiplicity
 _atom_site_fract_x
 _atom_site_fract_y
 _atom_site_fract_z
 _atom_site_occupancy
  K  K0  1  0.20525600  0.70529200  0.46462000  1
  K  K1  1  0.70525800  0.20530900  0.46461500  1
  K  K2  1  0.16986300  0.16990300  0.53570000  1
  K  K3  1  0.66986200  0.66990300  0.53571300  1
  Mn  Mn4  1  0.48174500  0.98145000  0.01906900  1
  Mn  Mn5  1  0.00108300  0.00099300  0.98072100  1
  Mn  Mn6  1  0.98165700  0.48142300  0.01907300  1
  Mn  Mn7  1  0.50101800  0.50099200  0.98064300  1
  P  P8  1  0.31649800  0.81652400  0.78273700  1
  P  P9  1  0.81647700  0.31652800  0.78272600  1
  P  P10  1  0.09933500  0.09930800  0.21720000  1
  P  P11  1  0.59923900  0.59933300  0.21721600  1
  H  H12  1  0.67962500  0.04325200  0.20189900  1
  H  H13  1  0.17960100  0.54325700  0.20189100  1
  H  H14  1  0.24536500  0.38178900  0.79836300  1
  H  H15  1  0.74532700  0.88176300  0.79838400  1
  H  H16  1  0.54338400  0.17970900  0.20190100  1
  H  H17  1  0.04336500  0.67968700  0.20188200  1
  H  H18  1  0.88161800  0.74523600  0.79838700  1
  H  H19  1  0.38164000  0.24523900  0.79837900  1
  O  O20  1  0.54507500  0.04507800  0.21483200  1
  O  O21  1  0.04503700  0.54507300  0.21481300  1
  O  O22  1  0.76068300  0.76072000  0.78457900  1
  O  O23  1  0.26069800  0.26073000  0.78457100  1
  O  O24  1  0.27093900  0.27117000  0.18079000  1
  O  O25  1  0.77095100  0.77116900  0.18069300  1
  O  O26  1  0.95230800  0.45243300  0.81815300  1
  O  O27  1  0.45237000  0.95238600  0.81818000  1
  O  O28  1  0.98515700  0.98523700  0.39530900  1
  O  O29  1  0.48517100  0.48528200  0.39533600  1
  O  O30  1  0.38029900  0.88032500  0.60458800  1
  O  O31  1  0.88029700  0.38031500  0.60458100  1
  O  O32  1  0.17800100  0.96053700  0.13634700  1
  O  O33  1  0.67771800  0.46065400  0.13625600  1
  O  O34  1  0.09684300  0.81361100  0.86438100  1
  O  O35  1  0.59683100  0.31360900  0.86437700  1
  O  O36  1  0.46052000  0.67757900  0.13626200  1
  O  O37  1  0.96054800  0.17747000  0.13624600  1
  O  O38  1  0.31367400  0.59685400  0.86430200  1
  O  O39  1  0.81366300  0.09687300  0.86428400  1
