# generated using pymatgen
data_Th3Al2
_symmetry_space_group_name_H-M   'P 1'
_cell_length_a   8.10338200
_cell_length_b   8.10338200
_cell_length_c   4.24506300
_cell_angle_alpha   90.00000000
_cell_angle_beta   90.00000000
_cell_angle_gamma   90.00000000
_symmetry_Int_Tables_number   1
_chemical_formula_structural   Th3Al2
_chemical_formula_sum   'Th6 Al4'
_cell_volume   278.75121219
_cell_formula_units_Z   2
loop_
 _symmetry_equiv_pos_site_id
 _symmetry_equiv_pos_as_xyz
  1  'x, y, z'
loop_
 _atom_site_type_symbol
 _atom_site_label
 _atom_site_symmetry_multiplicity
 _atom_site_fract_x
 _atom_site_fract_y
 _atom_site_fract_z
 _atom_site_occupancy
  Th  Th0  1  0.00000000  0.00000000  0.00000000  1
  Th  Th1  1  0.50000000  0.50000000  0.00000000  1
  Th  Th2  1  0.67591500  0.17591500  0.50000000  1
  Th  Th3  1  0.17591500  0.32408500  0.50000000  1
  Th  Th4  1  0.82408500  0.67591500  0.50000000  1
  Th  Th5  1  0.32408500  0.82408500  0.50000000  1
  Al  Al6  1  0.88212500  0.38212500  0.00000000  1
  Al  Al7  1  0.38212500  0.11787500  0.00000000  1
  Al  Al8  1  0.61787500  0.88212500  0.00000000  1
  Al  Al9  1  0.11787500  0.61787500  0.00000000  1
