# generated using pymatgen
data_KCrClO3
_symmetry_space_group_name_H-M   'P 1'
_cell_length_a   7.42169000
_cell_length_b   7.93210900
_cell_length_c   8.38952896
_cell_angle_alpha   87.99349671
_cell_angle_beta   90.00000000
_cell_angle_gamma   90.00000000
_symmetry_Int_Tables_number   1
_chemical_formula_structural   KCrClO3
_chemical_formula_sum   'K4 Cr4 Cl4 O12'
_cell_volume   493.58584432
_cell_formula_units_Z   4
loop_
 _symmetry_equiv_pos_site_id
 _symmetry_equiv_pos_as_xyz
  1  'x, y, z'
loop_
 _atom_site_type_symbol
 _atom_site_label
 _atom_site_symmetry_multiplicity
 _atom_site_fract_x
 _atom_site_fract_y
 _atom_site_fract_z
 _atom_site_occupancy
  K  K0  1  0.85762700  0.36630400  0.67635300  1
  K  K1  1  0.64237300  0.86630400  0.67635300  1
  K  K2  1  0.14237300  0.63369600  0.32364700  1
  K  K3  1  0.35762700  0.13369600  0.32364700  1
  Cr  Cr4  1  0.87833200  0.12630500  0.27791100  1
  Cr  Cr5  1  0.12166800  0.87369500  0.72208900  1
  Cr  Cr6  1  0.62166800  0.62630500  0.27791100  1
  Cr  Cr7  1  0.37833200  0.37369500  0.72208900  1
  Cl  Cl8  1  0.72071200  0.14116400  0.05842400  1
  Cl  Cl9  1  0.27928800  0.85883600  0.94157600  1
  Cl  Cl10  1  0.22071200  0.35883600  0.94157600  1
  Cl  Cl11  1  0.77928800  0.64116400  0.05842400  1
  O  O12  1  0.48941400  0.46314900  0.27535000  1
  O  O13  1  0.98941400  0.03685100  0.72465000  1
  O  O14  1  0.51058600  0.53685100  0.72465000  1
  O  O15  1  0.01058600  0.96314900  0.27535000  1
  O  O16  1  0.49944200  0.79584500  0.29045000  1
  O  O17  1  0.99944200  0.70415500  0.70955000  1
  O  O18  1  0.50055800  0.20415500  0.70955000  1
  O  O19  1  0.73818500  0.11090700  0.42761000  1
  O  O20  1  0.76181500  0.61090700  0.42761000  1
  O  O21  1  0.26181500  0.88909300  0.57239000  1
  O  O22  1  0.23818500  0.38909300  0.57239000  1
  O  O23  1  0.00055800  0.29584500  0.29045000  1
