# generated using pymatgen
data_Cr(PO3)4
_symmetry_space_group_name_H-M   'P 1'
_cell_length_a   8.34102938
_cell_length_b   8.34102938
_cell_length_c   7.69805801
_cell_angle_alpha   82.00962906
_cell_angle_beta   82.00962906
_cell_angle_gamma   108.73542326
_symmetry_Int_Tables_number   1
_chemical_formula_structural   Cr(PO3)4
_chemical_formula_sum   'Cr2 P8 O24'
_cell_volume   492.54662554
_cell_formula_units_Z   2
loop_
 _symmetry_equiv_pos_site_id
 _symmetry_equiv_pos_as_xyz
  1  'x, y, z'
loop_
 _atom_site_type_symbol
 _atom_site_label
 _atom_site_symmetry_multiplicity
 _atom_site_fract_x
 _atom_site_fract_y
 _atom_site_fract_z
 _atom_site_occupancy
  Cr  Cr0  1  0.86783100  0.13216900  0.25000000  1
  Cr  Cr1  1  0.13216900  0.86783100  0.75000000  1
  P  P2  1  0.74975000  0.42515600  0.37895100  1
  P  P3  1  0.57484400  0.25025000  0.12104900  1
  P  P4  1  0.79522800  0.95849100  0.66979000  1
  P  P5  1  0.42515600  0.74975000  0.87895100  1
  P  P6  1  0.25025000  0.57484400  0.62104900  1
  P  P7  1  0.20477200  0.04150900  0.33021000  1
  P  P8  1  0.04150900  0.20477200  0.83021000  1
  P  P9  1  0.95849100  0.79522800  0.16979000  1
  O  O10  1  0.61077300  0.38922700  0.25000000  1
  O  O11  1  0.87082700  0.12917300  0.75000000  1
  O  O12  1  0.12917300  0.87082700  0.25000000  1
  O  O13  1  0.34467300  0.88650000  0.81623400  1
  O  O14  1  0.74602600  0.00460900  0.49232100  1
  O  O15  1  0.63054800  0.85074000  0.81470600  1
  O  O16  1  0.11350000  0.65532700  0.68376600  1
  O  O17  1  0.85898300  0.91872500  0.16801500  1
  O  O18  1  0.91872500  0.85898300  0.66801500  1
  O  O19  1  0.38504800  0.67037900  0.06870500  1
  O  O20  1  0.38922700  0.61077300  0.75000000  1
  O  O21  1  0.32962100  0.61495200  0.43129500  1
  O  O22  1  0.00460900  0.74602600  0.99232100  1
  O  O23  1  0.14926000  0.36945200  0.68529400  1
  O  O24  1  0.85074000  0.63054800  0.31470600  1
  O  O25  1  0.25397400  0.99539100  0.50767900  1
  O  O26  1  0.67037900  0.38504800  0.56870500  1
  O  O27  1  0.99539100  0.25397400  0.00767900  1
  O  O28  1  0.61495200  0.32962100  0.93129500  1
  O  O29  1  0.08127500  0.14101700  0.33198500  1
  O  O30  1  0.14101700  0.08127500  0.83198500  1
  O  O31  1  0.88650000  0.34467300  0.31623400  1
  O  O32  1  0.36945200  0.14926000  0.18529400  1
  O  O33  1  0.65532700  0.11350000  0.18376600  1
