# generated using pymatgen
data_FeP2O7
_symmetry_space_group_name_H-M   'P 1'
_cell_length_a   5.15270200
_cell_length_b   8.74553700
_cell_length_c   13.68227809
_cell_angle_alpha   64.45620647
_cell_angle_beta   90.00000000
_cell_angle_gamma   90.00000000
_symmetry_Int_Tables_number   1
_chemical_formula_structural   FeP2O7
_chemical_formula_sum   'Fe4 P8 O28'
_cell_volume   556.30079702
_cell_formula_units_Z   4
loop_
 _symmetry_equiv_pos_site_id
 _symmetry_equiv_pos_as_xyz
  1  'x, y, z'
loop_
 _atom_site_type_symbol
 _atom_site_label
 _atom_site_symmetry_multiplicity
 _atom_site_fract_x
 _atom_site_fract_y
 _atom_site_fract_z
 _atom_site_occupancy
  Fe  Fe0  1  0.74571700  0.76705100  0.97475800  1
  Fe  Fe1  1  0.75428300  0.76705100  0.47475800  1
  Fe  Fe2  1  0.24571700  0.23294900  0.52524200  1
  Fe  Fe3  1  0.25428300  0.23294900  0.02524200  1
  P  P4  1  0.74613700  0.18640800  0.88124600  1
  P  P5  1  0.24455600  0.66543200  0.86292400  1
  P  P6  1  0.24613700  0.81359200  0.61875400  1
  P  P7  1  0.74455600  0.33456800  0.63707600  1
  P  P8  1  0.25544400  0.66543200  0.36292400  1
  P  P9  1  0.75386300  0.18640800  0.38124600  1
  P  P10  1  0.75544400  0.33456800  0.13707600  1
  P  P11  1  0.25386300  0.81359200  0.11875400  1
  O  O12  1  0.93253100  0.25292200  0.94007100  1
  O  O13  1  0.46516400  0.19066700  0.91596100  1
  O  O14  1  0.31529600  0.48192100  0.93723900  1
  O  O15  1  0.96206700  0.70912400  0.87267300  1
  O  O16  1  0.43919700  0.78369000  0.87938200  1
  O  O17  1  0.81727000  0.01296800  0.88761800  1
  O  O18  1  0.77471900  0.32203600  0.75684800  1
  O  O19  1  0.27471900  0.67796400  0.74315200  1
  O  O20  1  0.81529600  0.51807900  0.56276100  1
  O  O21  1  0.96516400  0.80933300  0.58403900  1
  O  O22  1  0.31727000  0.98703200  0.61238200  1
  O  O23  1  0.43253100  0.74707800  0.55992900  1
  O  O24  1  0.93919700  0.21631000  0.62061800  1
  O  O25  1  0.46206700  0.29087600  0.62732700  1
  O  O26  1  0.53793300  0.70912400  0.37267300  1
  O  O27  1  0.06080300  0.78369000  0.37938200  1
  O  O28  1  0.56746900  0.25292200  0.44007100  1
  O  O29  1  0.68273000  0.01296800  0.38761800  1
  O  O30  1  0.03483600  0.19066700  0.41596100  1
  O  O31  1  0.18470400  0.48192100  0.43723900  1
  O  O32  1  0.72528100  0.32203600  0.25684800  1
  O  O33  1  0.22528100  0.67796400  0.24315200  1
  O  O34  1  0.18273000  0.98703200  0.11238200  1
  O  O35  1  0.56080300  0.21631000  0.12061800  1
  O  O36  1  0.03793300  0.29087600  0.12732700  1
  O  O37  1  0.68470400  0.51807900  0.06276100  1
  O  O38  1  0.53483600  0.80933300  0.08403900  1
  O  O39  1  0.06746900  0.74707800  0.05992900  1
