# generated using pymatgen
data_Si2H2O3
_symmetry_space_group_name_H-M   'P 1'
_cell_length_a   7.52216236
_cell_length_b   7.52216236
_cell_length_c   7.52216216
_cell_angle_alpha   77.96467516
_cell_angle_beta   77.96467516
_cell_angle_gamma   77.96467793
_symmetry_Int_Tables_number   1
_chemical_formula_structural   Si2H2O3
_chemical_formula_sum   'Si8 H8 O12'
_cell_volume   401.01478254
_cell_formula_units_Z   4
loop_
 _symmetry_equiv_pos_site_id
 _symmetry_equiv_pos_as_xyz
  1  'x, y, z'
loop_
 _atom_site_type_symbol
 _atom_site_label
 _atom_site_symmetry_multiplicity
 _atom_site_fract_x
 _atom_site_fract_y
 _atom_site_fract_z
 _atom_site_occupancy
  Si  Si0  1  0.76616000  0.65818100  0.25153000  1
  Si  Si1  1  0.25153000  0.76616000  0.65818100  1
  Si  Si2  1  0.65818100  0.25153000  0.76616000  1
  Si  Si3  1  0.23384000  0.34181900  0.74847000  1
  Si  Si4  1  0.74847000  0.23384000  0.34181900  1
  Si  Si5  1  0.34181900  0.74847000  0.23384000  1
  Si  Si6  1  0.67593900  0.67593900  0.67593900  1
  Si  Si7  1  0.32406100  0.32406100  0.32406100  1
  H  H8  1  0.90934900  0.74372600  0.11691500  1
  H  H9  1  0.11691500  0.90934900  0.74372600  1
  H  H10  1  0.74372600  0.11691500  0.90934900  1
  H  H11  1  0.09065100  0.25627400  0.88308500  1
  H  H12  1  0.88308500  0.09065100  0.25627400  1
  H  H13  1  0.25627400  0.88308500  0.09065100  1
  H  H14  1  0.77068500  0.77068500  0.77068500  1
  H  H15  1  0.22931500  0.22931500  0.22931500  1
  O  O16  1  0.30131800  0.54324200  0.23115900  1
  O  O17  1  0.54324200  0.23115900  0.30131800  1
  O  O18  1  0.23115900  0.30131800  0.54324200  1
  O  O19  1  0.69868200  0.45675800  0.76884100  1
  O  O20  1  0.45675800  0.76884100  0.69868200  1
  O  O21  1  0.76884100  0.69868200  0.45675800  1
  O  O22  1  0.25309600  0.80838400  0.43532900  1
  O  O23  1  0.80838400  0.43532900  0.25309600  1
  O  O24  1  0.43532900  0.25309600  0.80838400  1
  O  O25  1  0.74690400  0.19161600  0.56467100  1
  O  O26  1  0.19161600  0.56467100  0.74690400  1
  O  O27  1  0.56467100  0.74690400  0.19161600  1
