# generated using pymatgen
data_K2CoH8(CO5)2
_symmetry_space_group_name_H-M   'P 1'
_cell_length_a   6.31692100
_cell_length_b   6.93099800
_cell_length_c   12.33420484
_cell_angle_alpha   65.74366930
_cell_angle_beta   90.00000000
_cell_angle_gamma   90.00000000
_symmetry_Int_Tables_number   1
_chemical_formula_structural   K2CoH8(CO5)2
_chemical_formula_sum   'K4 Co2 H16 C4 O20'
_cell_volume   492.34809863
_cell_formula_units_Z   2
loop_
 _symmetry_equiv_pos_site_id
 _symmetry_equiv_pos_as_xyz
  1  'x, y, z'
loop_
 _atom_site_type_symbol
 _atom_site_label
 _atom_site_symmetry_multiplicity
 _atom_site_fract_x
 _atom_site_fract_y
 _atom_site_fract_z
 _atom_site_occupancy
  K  K0  1  0.65454200  0.73267000  0.68366600  1
  K  K1  1  0.15454200  0.26733000  0.81633400  1
  K  K2  1  0.34545800  0.26733000  0.31633400  1
  K  K3  1  0.84545800  0.73267000  0.18366600  1
  Co  Co4  1  0.00000000  0.50000000  0.50000000  1
  Co  Co5  1  0.50000000  0.50000000  0.00000000  1
  H  H6  1  0.67454400  0.80037000  0.42177900  1
  H  H7  1  0.17454400  0.19963000  0.07822100  1
  H  H8  1  0.32545600  0.19963000  0.57822100  1
  H  H9  1  0.82545600  0.80037000  0.92177900  1
  H  H10  1  0.89016300  0.92811500  0.38894500  1
  H  H11  1  0.39016300  0.07188500  0.11105500  1
  H  H12  1  0.69726000  0.29074600  0.48346200  1
  H  H13  1  0.19726000  0.70925400  0.01653800  1
  H  H14  1  0.30274000  0.70925400  0.51653800  1
  H  H15  1  0.80274000  0.29074600  0.98346200  1
  H  H16  1  0.83639100  0.29996600  0.36772300  1
  H  H17  1  0.33639100  0.70003400  0.13227700  1
  H  H18  1  0.16360900  0.70003400  0.63227700  1
  H  H19  1  0.66360900  0.29996600  0.86772300  1
  H  H20  1  0.10983700  0.07188500  0.61105500  1
  H  H21  1  0.60983700  0.92811500  0.88894500  1
  C  C22  1  0.65408600  0.24230200  0.68098100  1
  C  C23  1  0.84591400  0.24230200  0.18098100  1
  C  C24  1  0.34591400  0.75769800  0.31901900  1
  C  C25  1  0.15408600  0.75769800  0.81901900  1
  O  O26  1  0.17254600  0.20780700  0.55361300  1
  O  O27  1  0.58315000  0.16894700  0.60576400  1
  O  O28  1  0.72318900  0.38772300  0.90883700  1
  O  O29  1  0.93329400  0.18203200  0.28520400  1
  O  O30  1  0.27681100  0.61227700  0.09116300  1
  O  O31  1  0.77681100  0.38772300  0.40883700  1
  O  O32  1  0.67254600  0.79219300  0.94638700  1
  O  O33  1  0.08315000  0.83105300  0.89423600  1
  O  O34  1  0.32745400  0.20780700  0.05361300  1
  O  O35  1  0.82745400  0.79219300  0.44638700  1
  O  O36  1  0.81023100  0.37580800  0.65292300  1
  O  O37  1  0.31023100  0.62419200  0.84707700  1
  O  O38  1  0.18976900  0.62419200  0.34707700  1
  O  O39  1  0.68976900  0.37580800  0.15292300  1
  O  O40  1  0.06670600  0.81796800  0.71479600  1
  O  O41  1  0.43329400  0.81796800  0.21479600  1
  O  O42  1  0.91685000  0.16894700  0.10576400  1
  O  O43  1  0.56670600  0.18203200  0.78520400  1
  O  O44  1  0.41685000  0.83105300  0.39423600  1
  O  O45  1  0.22318900  0.61227700  0.59116300  1
