# generated using pymatgen
data_Mn2P3O10
_symmetry_space_group_name_H-M   'P 1'
_cell_length_a   8.69441000
_cell_length_b   4.74451800
_cell_length_c   9.11269258
_cell_angle_alpha   80.45270833
_cell_angle_beta   90.00000000
_cell_angle_gamma   90.00000000
_symmetry_Int_Tables_number   1
_chemical_formula_structural   Mn2P3O10
_chemical_formula_sum   'Mn4 P6 O20'
_cell_volume   370.69906333
_cell_formula_units_Z   2
loop_
 _symmetry_equiv_pos_site_id
 _symmetry_equiv_pos_as_xyz
  1  'x, y, z'
loop_
 _atom_site_type_symbol
 _atom_site_label
 _atom_site_symmetry_multiplicity
 _atom_site_fract_x
 _atom_site_fract_y
 _atom_site_fract_z
 _atom_site_occupancy
  Mn  Mn0  1  0.43764600  0.04291200  0.67512800  1
  Mn  Mn1  1  0.93764600  0.95708800  0.32487200  1
  Mn  Mn2  1  0.56235400  0.95708800  0.32487200  1
  Mn  Mn3  1  0.06235400  0.04291200  0.67512800  1
  P  P4  1  0.25000000  0.33741500  0.18100700  1
  P  P5  1  0.75000000  0.66258500  0.81899300  1
  P  P6  1  0.75000000  0.39507600  0.54283100  1
  P  P7  1  0.25000000  0.60492400  0.45716900  1
  P  P8  1  0.25000000  0.47254200  0.85500300  1
  P  P9  1  0.75000000  0.52745800  0.14499700  1
  O  O10  1  0.89757900  0.82750700  0.79877800  1
  O  O11  1  0.10162500  0.77071600  0.48160600  1
  O  O12  1  0.75000000  0.69857000  0.45009100  1
  O  O13  1  0.25000000  0.54061700  0.02334700  1
  O  O14  1  0.39757900  0.17249300  0.20122200  1
  O  O15  1  0.89791600  0.67948800  0.17106500  1
  O  O16  1  0.25000000  0.58204500  0.28408600  1
  O  O17  1  0.75000000  0.41795500  0.71591400  1
  O  O18  1  0.60208400  0.67948800  0.17106500  1
  O  O19  1  0.75000000  0.21204300  0.23758300  1
  O  O20  1  0.25000000  0.78795700  0.76241700  1
  O  O21  1  0.39837500  0.77071600  0.48160600  1
  O  O22  1  0.89837500  0.22928400  0.51839400  1
  O  O23  1  0.25000000  0.30143000  0.54990900  1
  O  O24  1  0.39791600  0.32051200  0.82893500  1
  O  O25  1  0.10242100  0.17249300  0.20122200  1
  O  O26  1  0.10208400  0.32051200  0.82893500  1
  O  O27  1  0.75000000  0.45938300  0.97665300  1
  O  O28  1  0.60162500  0.22928400  0.51839400  1
  O  O29  1  0.60242100  0.82750700  0.79877800  1
