# generated using pymatgen
data_CoPO4
_symmetry_space_group_name_H-M   'P 1'
_cell_length_a   5.29572245
_cell_length_b   6.41133900
_cell_length_c   7.77035630
_cell_angle_alpha   90.00055776
_cell_angle_beta   90.00001146
_cell_angle_gamma   89.99999454
_symmetry_Int_Tables_number   1
_chemical_formula_structural   CoPO4
_chemical_formula_sum   'Co4 P4 O16'
_cell_volume   263.82435780
_cell_formula_units_Z   4
loop_
 _symmetry_equiv_pos_site_id
 _symmetry_equiv_pos_as_xyz
  1  'x, y, z'
loop_
 _atom_site_type_symbol
 _atom_site_label
 _atom_site_symmetry_multiplicity
 _atom_site_fract_x
 _atom_site_fract_y
 _atom_site_fract_z
 _atom_site_occupancy
  Co  Co0  1  0.50000000  0.00000000  0.50000000  1
  Co  Co1  1  0.50000000  0.50000000  0.50000000  1
  Co  Co2  1  0.00000000  0.00000000  0.00000000  1
  Co  Co3  1  0.00000000  0.50000000  0.00000000  1
  P  P4  1  0.00000000  0.75000500  0.65136900  1
  P  P5  1  0.50000000  0.74999800  0.15138000  1
  P  P6  1  0.00000000  0.24999500  0.34863100  1
  P  P7  1  0.50000000  0.25000300  0.84862000  1
  O  O8  1  0.24286900  0.75000000  0.53765800  1
  O  O9  1  0.74276800  0.74999600  0.03763700  1
  O  O10  1  0.75713100  0.25000000  0.46234200  1
  O  O11  1  0.25723100  0.25000300  0.96236300  1
  O  O12  1  0.75713100  0.74999900  0.53765700  1
  O  O13  1  0.25723200  0.74999700  0.03763700  1
  O  O14  1  0.24286900  0.25000000  0.46234300  1
  O  O15  1  0.74276800  0.25000400  0.96236300  1
  O  O16  1  0.00000000  0.55121100  0.76336600  1
  O  O17  1  0.50000000  0.55130900  0.26353400  1
  O  O18  1  0.00000000  0.05121300  0.23664100  1
  O  O19  1  0.50000000  0.05132500  0.73646800  1
  O  O20  1  0.00000000  0.44878900  0.23663400  1
  O  O21  1  0.49999900  0.44869100  0.73646600  1
  O  O22  1  0.00000000  0.94878700  0.76335900  1
  O  O23  1  0.50000000  0.94867500  0.26353200  1
