# generated using pymatgen
data_CaFe5O7
_symmetry_space_group_name_H-M   'P 1'
_cell_length_a   5.36842152
_cell_length_b   5.36842152
_cell_length_c   18.37853900
_cell_angle_alpha   90.00000000
_cell_angle_beta   90.00000000
_cell_angle_gamma   146.50209641
_symmetry_Int_Tables_number   1
_chemical_formula_structural   CaFe5O7
_chemical_formula_sum   'Ca2 Fe10 O14'
_cell_volume   292.32751110
_cell_formula_units_Z   2
loop_
 _symmetry_equiv_pos_site_id
 _symmetry_equiv_pos_as_xyz
  1  'x, y, z'
loop_
 _atom_site_type_symbol
 _atom_site_label
 _atom_site_symmetry_multiplicity
 _atom_site_fract_x
 _atom_site_fract_y
 _atom_site_fract_z
 _atom_site_occupancy
  Ca  Ca0  1  0.21083200  0.78916800  0.75000000  1
  Ca  Ca1  1  0.78916800  0.21083200  0.25000000  1
  Fe  Fe2  1  0.72677300  0.27322700  0.57469900  1
  Fe  Fe3  1  0.00000000  0.00000000  0.50000000  1
  Fe  Fe4  1  0.00000000  0.00000000  0.00000000  1
  Fe  Fe5  1  0.27322700  0.72677300  0.42530100  1
  Fe  Fe6  1  0.27322700  0.72677300  0.07469900  1
  Fe  Fe7  1  0.72677300  0.27322700  0.92530100  1
  Fe  Fe8  1  0.54046600  0.45953400  0.15622800  1
  Fe  Fe9  1  0.45953400  0.54046600  0.84377200  1
  Fe  Fe10  1  0.45953400  0.54046600  0.65622800  1
  Fe  Fe11  1  0.54046600  0.45953400  0.34377200  1
  O  O12  1  0.35020400  0.64979600  0.96667600  1
  O  O13  1  0.64979600  0.35020400  0.03332400  1
  O  O14  1  0.64979600  0.35020400  0.46667600  1
  O  O15  1  0.35020400  0.64979600  0.53332400  1
  O  O16  1  0.81734900  0.18265100  0.83401800  1
  O  O17  1  0.18265100  0.81734900  0.16598200  1
  O  O18  1  0.18265100  0.81734900  0.33401800  1
  O  O19  1  0.81734900  0.18265100  0.66598200  1
  O  O20  1  0.09686600  0.90313400  0.90209700  1
  O  O21  1  0.90313400  0.09686600  0.09790300  1
  O  O22  1  0.90313400  0.09686600  0.40209700  1
  O  O23  1  0.09686600  0.90313400  0.59790300  1
  O  O24  1  0.55004400  0.44995600  0.75000000  1
  O  O25  1  0.44995600  0.55004400  0.25000000  1
