# generated using pymatgen
data_CrI2
_symmetry_space_group_name_H-M   'P 1'
_cell_length_a   4.40254672
_cell_length_b   4.40254672
_cell_length_c   8.09637550
_cell_angle_alpha   67.45612749
_cell_angle_beta   67.45612749
_cell_angle_gamma   53.26412864
_symmetry_Int_Tables_number   1
_chemical_formula_structural   CrI2
_chemical_formula_sum   'Cr1 I2'
_cell_volume   113.60744313
_cell_formula_units_Z   1
loop_
 _symmetry_equiv_pos_site_id
 _symmetry_equiv_pos_as_xyz
  1  'x, y, z'
loop_
 _atom_site_type_symbol
 _atom_site_label
 _atom_site_symmetry_multiplicity
 _atom_site_fract_x
 _atom_site_fract_y
 _atom_site_fract_z
 _atom_site_occupancy
  Cr  Cr0  1  0.00000000  0.00000000  0.00000000  1
  I  I1  1  0.27636300  0.27636300  0.22326200  1
  I  I2  1  0.72363700  0.72363700  0.77673800  1
