# generated using pymatgen
data_Te6Cl2O11
_symmetry_space_group_name_H-M   'P 1'
_cell_length_a   6.90434518
_cell_length_b   6.90434518
_cell_length_c   15.68020900
_cell_angle_alpha   90.00000000
_cell_angle_beta   90.00000000
_cell_angle_gamma   119.46009843
_symmetry_Int_Tables_number   1
_chemical_formula_structural   Te6Cl2O11
_chemical_formula_sum   'Te12 Cl4 O22'
_cell_volume   650.82554709
_cell_formula_units_Z   2
loop_
 _symmetry_equiv_pos_site_id
 _symmetry_equiv_pos_as_xyz
  1  'x, y, z'
loop_
 _atom_site_type_symbol
 _atom_site_label
 _atom_site_symmetry_multiplicity
 _atom_site_fract_x
 _atom_site_fract_y
 _atom_site_fract_z
 _atom_site_occupancy
  Te  Te0  1  0.47648600  0.78977900  0.91397900  1
  Te  Te1  1  0.52351400  0.21022100  0.41397900  1
  Te  Te2  1  0.52351400  0.21022100  0.08602100  1
  Te  Te3  1  0.47648600  0.78977900  0.58602100  1
  Te  Te4  1  0.78977900  0.47648600  0.91397900  1
  Te  Te5  1  0.21022100  0.52351400  0.41397900  1
  Te  Te6  1  0.21022100  0.52351400  0.08602100  1
  Te  Te7  1  0.78977900  0.47648600  0.58602100  1
  Te  Te8  1  0.07520900  0.07520900  0.85801600  1
  Te  Te9  1  0.92479100  0.92479100  0.35801600  1
  Te  Te10  1  0.92479100  0.92479100  0.14198400  1
  Te  Te11  1  0.07520900  0.07520900  0.64198400  1
  Cl  Cl12  1  0.13020600  0.45172100  0.75000000  1
  Cl  Cl13  1  0.86979400  0.54827900  0.25000000  1
  Cl  Cl14  1  0.45172100  0.13020600  0.75000000  1
  Cl  Cl15  1  0.54827900  0.86979400  0.25000000  1
  O  O16  1  0.57667900  0.57667900  0.88523000  1
  O  O17  1  0.42332100  0.42332100  0.38523000  1
  O  O18  1  0.42332100  0.42332100  0.11477000  1
  O  O19  1  0.57667900  0.57667900  0.61477000  1
  O  O20  1  0.18381000  0.48583600  0.96379700  1
  O  O21  1  0.81619000  0.51416400  0.46379700  1
  O  O22  1  0.81619000  0.51416400  0.03620300  1
  O  O23  1  0.18381000  0.48583600  0.53620300  1
  O  O24  1  0.48583600  0.18381000  0.96379700  1
  O  O25  1  0.51416400  0.81619000  0.46379700  1
  O  O26  1  0.51416400  0.81619000  0.03620300  1
  O  O27  1  0.48583600  0.18381000  0.53620300  1
  O  O28  1  0.04135900  0.80160800  0.90496200  1
  O  O29  1  0.95864100  0.19839200  0.40496200  1
  O  O30  1  0.95864100  0.19839200  0.09503800  1
  O  O31  1  0.04135900  0.80160800  0.59503800  1
  O  O32  1  0.07071600  0.07071600  0.25000000  1
  O  O33  1  0.92928400  0.92928400  0.75000000  1
  O  O34  1  0.80160800  0.04135900  0.59503800  1
  O  O35  1  0.19839200  0.95864100  0.09503800  1
  O  O36  1  0.19839200  0.95864100  0.40496200  1
  O  O37  1  0.80160800  0.04135900  0.90496200  1
