# generated using pymatgen
data_Ba(Mo3O5)2
_symmetry_space_group_name_H-M   'P 1'
_cell_length_a   9.09301600
_cell_length_b   9.61542300
_cell_length_c   10.73146800
_cell_angle_alpha   90.00000000
_cell_angle_beta   90.00000000
_cell_angle_gamma   90.00000000
_symmetry_Int_Tables_number   1
_chemical_formula_structural   Ba(Mo3O5)2
_chemical_formula_sum   'Ba4 Mo24 O40'
_cell_volume   938.28653627
_cell_formula_units_Z   4
loop_
 _symmetry_equiv_pos_site_id
 _symmetry_equiv_pos_as_xyz
  1  'x, y, z'
loop_
 _atom_site_type_symbol
 _atom_site_label
 _atom_site_symmetry_multiplicity
 _atom_site_fract_x
 _atom_site_fract_y
 _atom_site_fract_z
 _atom_site_occupancy
  Ba  Ba0  1  0.25000000  0.01421200  0.91021100  1
  Ba  Ba1  1  0.75000000  0.98578800  0.08978900  1
  Ba  Ba2  1  0.75000000  0.51421200  0.58978900  1
  Ba  Ba3  1  0.25000000  0.48578800  0.41021100  1
  Mo  Mo4  1  0.59804400  0.88933100  0.70792200  1
  Mo  Mo5  1  0.09804400  0.11066900  0.29207800  1
  Mo  Mo6  1  0.40195600  0.38933100  0.79207800  1
  Mo  Mo7  1  0.90195600  0.61066900  0.20792200  1
  Mo  Mo8  1  0.40195600  0.11066900  0.29207800  1
  Mo  Mo9  1  0.90195600  0.88933100  0.70792200  1
  Mo  Mo10  1  0.59804400  0.61066900  0.20792200  1
  Mo  Mo11  1  0.09804400  0.38933100  0.79207800  1
  Mo  Mo12  1  0.25000000  0.85771800  0.21707800  1
  Mo  Mo13  1  0.75000000  0.14228200  0.78292200  1
  Mo  Mo14  1  0.75000000  0.35771800  0.28292200  1
  Mo  Mo15  1  0.25000000  0.64228200  0.71707800  1
  Mo  Mo16  1  0.59219600  0.14069200  0.54887800  1
  Mo  Mo17  1  0.09219600  0.85930800  0.45112200  1
  Mo  Mo18  1  0.40780400  0.64069200  0.95112200  1
  Mo  Mo19  1  0.90780400  0.35930800  0.04887800  1
  Mo  Mo20  1  0.40780400  0.85930800  0.45112200  1
  Mo  Mo21  1  0.90780400  0.14069200  0.54887800  1
  Mo  Mo22  1  0.59219600  0.35930800  0.04887800  1
  Mo  Mo23  1  0.09219600  0.64069200  0.95112200  1
  Mo  Mo24  1  0.25000000  0.13157700  0.55938400  1
  Mo  Mo25  1  0.75000000  0.86842300  0.44061600  1
  Mo  Mo26  1  0.75000000  0.63157700  0.94061600  1
  Mo  Mo27  1  0.25000000  0.36842300  0.05938400  1
  O  O28  1  0.59539900  0.00949300  0.85674300  1
  O  O29  1  0.09539900  0.99050700  0.14325700  1
  O  O30  1  0.40460100  0.50949300  0.64325700  1
  O  O31  1  0.90460100  0.49050700  0.35674300  1
  O  O32  1  0.40460100  0.99050700  0.14325700  1
  O  O33  1  0.90460100  0.00949300  0.85674300  1
  O  O34  1  0.59539900  0.49050700  0.35674300  1
  O  O35  1  0.09539900  0.50949300  0.64325700  1
  O  O36  1  0.25000000  0.73590400  0.53472000  1
  O  O37  1  0.75000000  0.26409600  0.46528000  1
  O  O38  1  0.75000000  0.23590400  0.96528000  1
  O  O39  1  0.25000000  0.76409600  0.03472000  1
  O  O40  1  0.57123800  0.00324500  0.38189000  1
  O  O41  1  0.07123800  0.99675500  0.61811000  1
  O  O42  1  0.42876200  0.50324500  0.11811000  1
  O  O43  1  0.92876200  0.49675500  0.88189000  1
  O  O44  1  0.58485500  0.23247900  0.21215500  1
  O  O45  1  0.42876200  0.99675500  0.61811000  1
  O  O46  1  0.57123800  0.49675500  0.88189000  1
  O  O47  1  0.07123800  0.50324500  0.11811000  1
  O  O48  1  0.25000000  0.25349500  0.72440000  1
  O  O49  1  0.75000000  0.74650500  0.27560000  1
  O  O50  1  0.75000000  0.75349500  0.77560000  1
  O  O51  1  0.25000000  0.24650500  0.22440000  1
  O  O52  1  0.41514500  0.76752100  0.78784500  1
  O  O53  1  0.91514500  0.23247900  0.21215500  1
  O  O54  1  0.58485500  0.26752100  0.71215500  1
  O  O55  1  0.08485500  0.73247900  0.28784500  1
  O  O56  1  0.08617900  0.26567500  0.95712000  1
  O  O57  1  0.58617900  0.73432500  0.04288000  1
  O  O58  1  0.91382100  0.76567500  0.54288000  1
  O  O59  1  0.41382100  0.23432500  0.45712000  1
  O  O60  1  0.91382100  0.73432500  0.04288000  1
  O  O61  1  0.41382100  0.26567500  0.95712000  1
  O  O62  1  0.08617900  0.23432500  0.45712000  1
  O  O63  1  0.58617900  0.76567500  0.54288000  1
  O  O64  1  0.91514500  0.26752100  0.71215500  1
  O  O65  1  0.41514500  0.73247900  0.28784500  1
  O  O66  1  0.08485500  0.76752100  0.78784500  1
  O  O67  1  0.92876200  0.00324500  0.38189000  1
