# generated using pymatgen
data_Al10Si2O19
_symmetry_space_group_name_H-M   'P 1'
_cell_length_a   15.43225709
_cell_length_b   15.43225709
_cell_length_c   7.68831300
_cell_angle_alpha   90.00000000
_cell_angle_beta   90.00000000
_cell_angle_gamma   157.88576191
_symmetry_Int_Tables_number   1
_chemical_formula_structural   Al10Si2O19
_chemical_formula_sum   'Al20 Si4 O38'
_cell_volume   689.29073701
_cell_formula_units_Z   2
loop_
 _symmetry_equiv_pos_site_id
 _symmetry_equiv_pos_as_xyz
  1  'x, y, z'
loop_
 _atom_site_type_symbol
 _atom_site_label
 _atom_site_symmetry_multiplicity
 _atom_site_fract_x
 _atom_site_fract_y
 _atom_site_fract_z
 _atom_site_occupancy
  Al  Al0  1  0.30208100  0.18345100  0.99318100  1
  Al  Al1  1  0.69791900  0.81654900  0.49318100  1
  Al  Al2  1  0.81654900  0.69791900  0.99318100  1
  Al  Al3  1  0.18345100  0.30208100  0.49318100  1
  Al  Al4  1  0.97027500  0.02972500  0.83867000  1
  Al  Al5  1  0.02972500  0.97027500  0.33867000  1
  Al  Al6  1  0.47547700  0.52452300  0.82022800  1
  Al  Al7  1  0.52452300  0.47547700  0.32022800  1
  Al  Al8  1  0.21911300  0.78088700  0.82432900  1
  Al  Al9  1  0.78088700  0.21911300  0.32432900  1
  Al  Al10  1  0.14487300  0.85512700  0.18876200  1
  Al  Al11  1  0.85512700  0.14487300  0.68876200  1
  Al  Al12  1  0.39873300  0.60126700  0.16286900  1
  Al  Al13  1  0.60126700  0.39873300  0.66286900  1
  Al  Al14  1  0.89840000  0.10160000  0.16976100  1
  Al  Al15  1  0.10160000  0.89840000  0.66976100  1
  Al  Al16  1  0.93527300  0.55740600  0.50839000  1
  Al  Al17  1  0.06472700  0.44259400  0.00839000  1
  Al  Al18  1  0.44259400  0.06472700  0.50839000  1
  Al  Al19  1  0.55740600  0.93527300  0.00839000  1
  Si  Si20  1  0.38070700  0.61929300  0.78410200  1
  Si  Si21  1  0.61929300  0.38070700  0.28410200  1
  Si  Si22  1  0.24255900  0.75744100  0.18588000  1
  Si  Si23  1  0.75744100  0.24255900  0.68588000  1
  O  O24  1  0.07631600  0.92368400  0.47105300  1
  O  O25  1  0.92368400  0.07631600  0.97105300  1
  O  O26  1  0.80382300  0.19617700  0.55293300  1
  O  O27  1  0.19617700  0.80382300  0.05293300  1
  O  O28  1  0.57960300  0.42039700  0.43856500  1
  O  O29  1  0.42039700  0.57960300  0.93856500  1
  O  O30  1  0.72154000  0.78460900  0.70991000  1
  O  O31  1  0.27846000  0.21539100  0.20991000  1
  O  O32  1  0.21539100  0.27846000  0.70991000  1
  O  O33  1  0.78460900  0.72154000  0.20991000  1
  O  O34  1  0.97306500  0.51425600  0.70344600  1
  O  O35  1  0.02693500  0.48574400  0.20344600  1
  O  O36  1  0.48574400  0.02693500  0.70344600  1
  O  O37  1  0.51425600  0.97306500  0.20344600  1
  O  O38  1  0.88323600  0.58145600  0.30691900  1
  O  O39  1  0.11676400  0.41854400  0.80691900  1
  O  O40  1  0.41854400  0.11676400  0.30691900  1
  O  O41  1  0.58145600  0.88323600  0.80691900  1
  O  O42  1  0.16378800  0.34666500  0.28028000  1
  O  O43  1  0.83621200  0.65333500  0.78028000  1
  O  O44  1  0.65333500  0.83621200  0.28028000  1
  O  O45  1  0.34666500  0.16378800  0.78028000  1
  O  O46  1  0.02467800  0.97532200  0.91921300  1
  O  O47  1  0.97532200  0.02467800  0.41921300  1
  O  O48  1  0.16395200  0.83604800  0.63849600  1
  O  O49  1  0.83604800  0.16395200  0.13849600  1
  O  O50  1  0.65707700  0.34292300  0.59516400  1
  O  O51  1  0.34292300  0.65707700  0.09516400  1
  O  O52  1  0.40119600  0.59880400  0.59037000  1
  O  O53  1  0.59880400  0.40119600  0.09037000  1
  O  O54  1  0.90186800  0.09813200  0.56521200  1
  O  O55  1  0.09813200  0.90186800  0.06521200  1
  O  O56  1  0.21599300  0.78400700  0.38164100  1
  O  O57  1  0.78400700  0.21599300  0.88164100  1
  O  O58  1  0.72859500  0.27140500  0.44680300  1
  O  O59  1  0.27140500  0.72859500  0.94680300  1
  O  O60  1  0.47419700  0.52580300  0.42669500  1
  O  O61  1  0.52580300  0.47419700  0.92669500  1
