# generated using pymatgen
data_La11V4O26
_symmetry_space_group_name_H-M   'P 1'
_cell_length_a   7.11665600
_cell_length_b   10.29017609
_cell_length_c   10.36712888
_cell_angle_alpha   77.29430046
_cell_angle_beta   71.41691718
_cell_angle_gamma   69.79231829
_symmetry_Int_Tables_number   1
_chemical_formula_structural   La11V4O26
_chemical_formula_sum   'La11 V4 O26'
_cell_volume   670.15345221
_cell_formula_units_Z   1
loop_
 _symmetry_equiv_pos_site_id
 _symmetry_equiv_pos_as_xyz
  1  'x, y, z'
loop_
 _atom_site_type_symbol
 _atom_site_label
 _atom_site_symmetry_multiplicity
 _atom_site_fract_x
 _atom_site_fract_y
 _atom_site_fract_z
 _atom_site_occupancy
  La  La0  1  0.17748200  0.63871000  0.66095400  1
  La  La1  1  0.27868500  0.98509900  0.40505300  1
  La  La2  1  0.82251800  0.36129000  0.33904600  1
  La  La3  1  0.72131500  0.01490100  0.59494700  1
  La  La4  1  0.12355700  0.97004400  0.80784400  1
  La  La5  1  0.87644300  0.02995600  0.19215600  1
  La  La6  1  0.01896000  0.33117300  0.95334100  1
  La  La7  1  0.98104000  0.66882700  0.04665900  1
  La  La8  1  0.59036500  0.65716900  0.84291500  1
  La  La9  1  0.40963500  0.34283100  0.15708500  1
  La  La10  1  0.50000000  0.00000000  0.00000000  1
  V  V11  1  0.59959000  0.31738000  0.80511300  1
  V  V12  1  0.40041000  0.68262000  0.19488700  1
  V  V13  1  0.72344000  0.72822100  0.45760800  1
  V  V14  1  0.27656000  0.27177900  0.54239200  1
  O  O15  1  0.86316400  0.63137200  0.32378200  1
  O  O16  1  0.13683600  0.36862800  0.67621800  1
  O  O17  1  0.39547100  0.26367300  0.93736000  1
  O  O18  1  0.60452900  0.73632700  0.06264000  1
  O  O19  1  0.32428800  0.60572100  0.08685600  1
  O  O20  1  0.67571200  0.39427900  0.91314400  1
  O  O21  1  0.17508600  0.31554300  0.39910600  1
  O  O22  1  0.82491400  0.68445700  0.60089400  1
  O  O23  1  0.23074400  0.84860300  0.24795100  1
  O  O24  1  0.76925600  0.15139700  0.75204900  1
  O  O25  1  0.53472800  0.26666200  0.49831400  1
  O  O26  1  0.46527200  0.73333800  0.50168600  1
  O  O27  1  0.76339800  0.27351200  0.16746400  1
  O  O28  1  0.23660200  0.72648800  0.83253600  1
  O  O29  1  0.51650400  0.46145400  0.69080600  1
  O  O30  1  0.13645300  0.08157400  0.98912900  1
  O  O31  1  0.86354700  0.91842600  0.01087100  1
  O  O32  1  0.30119400  0.09214700  0.59456200  1
  O  O33  1  0.69880600  0.90785300  0.40543800  1
  O  O34  1  0.04912900  0.89249700  0.61599500  1
  O  O35  1  0.48349600  0.53854600  0.30919400  1
  O  O36  1  0.05450600  0.42011200  0.13257400  1
  O  O37  1  0.94549400  0.57988800  0.86742600  1
  O  O38  1  0.51628400  0.90629300  0.80120500  1
  O  O39  1  0.48371600  0.09370700  0.19879500  1
  O  O40  1  0.95087100  0.10750300  0.38400500  1
