# generated using pymatgen
data_BaC20
_symmetry_space_group_name_H-M   'P 1'
_cell_length_a   11.47532500
_cell_length_b   11.47532500
_cell_length_c   11.47532500
_cell_angle_alpha   90.00000000
_cell_angle_beta   90.00000000
_cell_angle_gamma   90.00000000
_symmetry_Int_Tables_number   1
_chemical_formula_structural   BaC20
_chemical_formula_sum   'Ba6 C120'
_cell_volume   1511.10618425
_cell_formula_units_Z   6
loop_
 _symmetry_equiv_pos_site_id
 _symmetry_equiv_pos_as_xyz
  1  'x, y, z'
loop_
 _atom_site_type_symbol
 _atom_site_label
 _atom_site_symmetry_multiplicity
 _atom_site_fract_x
 _atom_site_fract_y
 _atom_site_fract_z
 _atom_site_occupancy
  Ba  Ba0  1  0.25000000  0.00000000  0.50000000  1
  Ba  Ba1  1  0.75000000  0.00000000  0.50000000  1
  Ba  Ba2  1  0.00000000  0.50000000  0.25000000  1
  Ba  Ba3  1  0.00000000  0.50000000  0.75000000  1
  Ba  Ba4  1  0.50000000  0.75000000  0.00000000  1
  Ba  Ba5  1  0.50000000  0.25000000  0.00000000  1
  C  C6  1  0.00000000  0.30492700  0.06220600  1
  C  C7  1  0.50000000  0.43779400  0.80492700  1
  C  C8  1  0.50000000  0.56220600  0.19507300  1
  C  C9  1  0.56220600  0.80492700  0.50000000  1
  C  C10  1  0.43779400  0.80492700  0.50000000  1
  C  C11  1  0.19507300  0.50000000  0.56220600  1
  C  C12  1  0.80492700  0.50000000  0.56220600  1
  C  C13  1  0.06220600  0.00000000  0.30492700  1
  C  C14  1  0.30492700  0.06220600  0.00000000  1
  C  C15  1  0.69507300  0.93779400  0.00000000  1
  C  C16  1  0.06220600  0.00000000  0.69507300  1
  C  C17  1  0.69507300  0.06220600  0.00000000  1
  C  C18  1  0.93779400  0.00000000  0.30492700  1
  C  C19  1  0.93779400  0.00000000  0.69507300  1
  C  C20  1  0.30492700  0.93779400  0.00000000  1
  C  C21  1  0.00000000  0.69507300  0.93779400  1
  C  C22  1  0.00000000  0.30492700  0.93779400  1
  C  C23  1  0.00000000  0.69507300  0.06220600  1
  C  C24  1  0.80492700  0.50000000  0.43779400  1
  C  C25  1  0.19507300  0.50000000  0.43779400  1
  C  C26  1  0.56220600  0.19507300  0.50000000  1
  C  C27  1  0.43779400  0.19507300  0.50000000  1
  C  C28  1  0.50000000  0.56220600  0.80492700  1
  C  C29  1  0.50000000  0.43779400  0.19507300  1
  C  C30  1  0.12511700  0.10215300  0.26556700  1
  C  C31  1  0.62511700  0.23443300  0.60215300  1
  C  C32  1  0.62511700  0.76556700  0.39784700  1
  C  C33  1  0.76556700  0.60215300  0.37488300  1
  C  C34  1  0.23443300  0.60215300  0.62511700  1
  C  C35  1  0.39784700  0.62511700  0.76556700  1
  C  C36  1  0.60215300  0.37488300  0.76556700  1
  C  C37  1  0.26556700  0.12511700  0.10215300  1
  C  C38  1  0.10215300  0.26556700  0.12511700  1
  C  C39  1  0.89784700  0.73443300  0.12511700  1
  C  C40  1  0.26556700  0.87488300  0.89784700  1
  C  C41  1  0.89784700  0.26556700  0.87488300  1
  C  C42  1  0.73443300  0.87488300  0.10215300  1
  C  C43  1  0.73443300  0.12511700  0.89784700  1
  C  C44  1  0.10215300  0.73443300  0.87488300  1
  C  C45  1  0.12511700  0.89784700  0.73443300  1
  C  C46  1  0.87488300  0.10215300  0.73443300  1
  C  C47  1  0.87488300  0.89784700  0.26556700  1
  C  C48  1  0.60215300  0.62511700  0.23443300  1
  C  C49  1  0.39784700  0.37488300  0.23443300  1
  C  C50  1  0.76556700  0.39784700  0.62511700  1
  C  C51  1  0.23443300  0.39784700  0.37488300  1
  C  C52  1  0.37488300  0.76556700  0.60215300  1
  C  C53  1  0.37488300  0.23443300  0.39784700  1
  C  C54  1  0.87488300  0.89784700  0.73443300  1
  C  C55  1  0.37488300  0.76556700  0.39784700  1
  C  C56  1  0.37488300  0.23443300  0.60215300  1
  C  C57  1  0.23443300  0.39784700  0.62511700  1
  C  C58  1  0.76556700  0.39784700  0.37488300  1
  C  C59  1  0.60215300  0.37488300  0.23443300  1
  C  C60  1  0.39784700  0.62511700  0.23443300  1
  C  C61  1  0.73443300  0.87488300  0.89784700  1
  C  C62  1  0.89784700  0.73443300  0.87488300  1
  C  C63  1  0.10215300  0.26556700  0.87488300  1
  C  C64  1  0.73443300  0.12511700  0.10215300  1
  C  C65  1  0.10215300  0.73443300  0.12511700  1
  C  C66  1  0.26556700  0.12511700  0.89784700  1
  C  C67  1  0.26556700  0.87488300  0.10215300  1
  C  C68  1  0.89784700  0.26556700  0.12511700  1
  C  C69  1  0.87488300  0.10215300  0.26556700  1
  C  C70  1  0.12511700  0.89784700  0.26556700  1
  C  C71  1  0.12511700  0.10215300  0.73443300  1
  C  C72  1  0.39784700  0.37488300  0.76556700  1
  C  C73  1  0.60215300  0.62511700  0.76556700  1
  C  C74  1  0.23443300  0.60215300  0.37488300  1
  C  C75  1  0.76556700  0.60215300  0.62511700  1
  C  C76  1  0.62511700  0.23443300  0.39784700  1
  C  C77  1  0.62511700  0.76556700  0.60215300  1
  C  C78  1  0.06282000  0.20223600  0.22665200  1
  C  C79  1  0.56282000  0.27334800  0.70223600  1
  C  C80  1  0.56282000  0.72665200  0.29776400  1
  C  C81  1  0.72665200  0.70223600  0.43718000  1
  C  C82  1  0.27334800  0.70223600  0.56282000  1
  C  C83  1  0.29776400  0.56282000  0.72665200  1
  C  C84  1  0.70223600  0.43718000  0.72665200  1
  C  C85  1  0.22665200  0.06282000  0.20223600  1
  C  C86  1  0.20223600  0.22665200  0.06282000  1
  C  C87  1  0.79776400  0.77334800  0.06282000  1
  C  C88  1  0.22665200  0.93718000  0.79776400  1
  C  C89  1  0.79776400  0.22665200  0.93718000  1
  C  C90  1  0.77334800  0.93718000  0.20223600  1
  C  C91  1  0.77334800  0.06282000  0.79776400  1
  C  C92  1  0.20223600  0.77334800  0.93718000  1
  C  C93  1  0.06282000  0.79776400  0.77334800  1
  C  C94  1  0.93718000  0.20223600  0.77334800  1
  C  C95  1  0.93718000  0.79776400  0.22665200  1
  C  C96  1  0.70223600  0.56282000  0.27334800  1
  C  C97  1  0.29776400  0.43718000  0.27334800  1
  C  C98  1  0.72665200  0.29776400  0.56282000  1
  C  C99  1  0.27334800  0.29776400  0.43718000  1
  C  C100  1  0.43718000  0.72665200  0.70223600  1
  C  C101  1  0.43718000  0.27334800  0.29776400  1
  C  C102  1  0.93718000  0.79776400  0.77334800  1
  C  C103  1  0.43718000  0.72665200  0.29776400  1
  C  C104  1  0.43718000  0.27334800  0.70223600  1
  C  C105  1  0.27334800  0.29776400  0.56282000  1
  C  C106  1  0.72665200  0.29776400  0.43718000  1
  C  C107  1  0.70223600  0.43718000  0.27334800  1
  C  C108  1  0.29776400  0.56282000  0.27334800  1
  C  C109  1  0.77334800  0.93718000  0.79776400  1
  C  C110  1  0.79776400  0.77334800  0.93718000  1
  C  C111  1  0.20223600  0.22665200  0.93718000  1
  C  C112  1  0.77334800  0.06282000  0.20223600  1
  C  C113  1  0.20223600  0.77334800  0.06282000  1
  C  C114  1  0.22665200  0.06282000  0.79776400  1
  C  C115  1  0.22665200  0.93718000  0.20223600  1
  C  C116  1  0.79776400  0.22665200  0.06282000  1
  C  C117  1  0.93718000  0.20223600  0.22665200  1
  C  C118  1  0.06282000  0.79776400  0.22665200  1
  C  C119  1  0.06282000  0.20223600  0.77334800  1
  C  C120  1  0.29776400  0.43718000  0.72665200  1
  C  C121  1  0.70223600  0.56282000  0.72665200  1
  C  C122  1  0.27334800  0.70223600  0.43718000  1
  C  C123  1  0.72665200  0.70223600  0.56282000  1
  C  C124  1  0.56282000  0.27334800  0.29776400  1
  C  C125  1  0.56282000  0.72665200  0.70223600  1
