# generated using pymatgen
data_BaMo3O10
_symmetry_space_group_name_H-M   'P 1'
_cell_length_a   7.69798900
_cell_length_b   7.32193400
_cell_length_c   15.40767644
_cell_angle_alpha   73.28098658
_cell_angle_beta   90.00000000
_cell_angle_gamma   90.00000000
_symmetry_Int_Tables_number   1
_chemical_formula_structural   BaMo3O10
_chemical_formula_sum   'Ba4 Mo12 O40'
_cell_volume   831.72932511
_cell_formula_units_Z   4
loop_
 _symmetry_equiv_pos_site_id
 _symmetry_equiv_pos_as_xyz
  1  'x, y, z'
loop_
 _atom_site_type_symbol
 _atom_site_label
 _atom_site_symmetry_multiplicity
 _atom_site_fract_x
 _atom_site_fract_y
 _atom_site_fract_z
 _atom_site_occupancy
  Ba  Ba0  1  0.36880100  0.16922600  0.18184600  1
  Ba  Ba1  1  0.86880100  0.83077400  0.31815400  1
  Ba  Ba2  1  0.13119900  0.16922600  0.68184600  1
  Ba  Ba3  1  0.63119900  0.83077400  0.81815400  1
  Mo  Mo4  1  0.87205900  0.35172900  0.08482700  1
  Mo  Mo5  1  0.37205900  0.64827100  0.41517300  1
  Mo  Mo6  1  0.62794100  0.35172900  0.58482700  1
  Mo  Mo7  1  0.12794100  0.64827100  0.91517300  1
  Mo  Mo8  1  0.35669500  0.66581700  0.63463300  1
  Mo  Mo9  1  0.85669500  0.33418300  0.86536700  1
  Mo  Mo10  1  0.36611700  0.29102000  0.89641600  1
  Mo  Mo11  1  0.86611700  0.70898000  0.60358400  1
  Mo  Mo12  1  0.64330500  0.33418300  0.36536700  1
  Mo  Mo13  1  0.14330500  0.66581700  0.13463300  1
  Mo  Mo14  1  0.63388300  0.70898000  0.10358400  1
  Mo  Mo15  1  0.13388300  0.29102000  0.39641600  1
  O  O16  1  0.38598100  0.81485800  0.30884700  1
  O  O17  1  0.88598100  0.18514200  0.19115300  1
  O  O18  1  0.61401900  0.18514200  0.69115300  1
  O  O19  1  0.11401900  0.81485800  0.80884700  1
  O  O20  1  0.86040100  0.20479400  0.00764000  1
  O  O21  1  0.36040100  0.79520600  0.49236000  1
  O  O22  1  0.88518900  0.57020700  0.92907400  1
  O  O23  1  0.38518900  0.42979300  0.57092600  1
  O  O24  1  0.89046300  0.12174400  0.83597100  1
  O  O25  1  0.39046300  0.87825600  0.66402900  1
  O  O26  1  0.86161600  0.43021200  0.58861700  1
  O  O27  1  0.36161600  0.56978800  0.91138300  1
  O  O28  1  0.87039900  0.84278300  0.49033700  1
  O  O29  1  0.37039900  0.15721700  0.00966300  1
  O  O30  1  0.84722900  0.88356600  0.66200100  1
  O  O31  1  0.34722900  0.11643400  0.83799900  1
  O  O32  1  0.38523300  0.65697200  0.12125000  1
  O  O33  1  0.88523300  0.34302800  0.37875000  1
  O  O34  1  0.38037200  0.37356900  0.38539200  1
  O  O35  1  0.88037200  0.62643100  0.11460800  1
  O  O36  1  0.13569700  0.49283200  0.24247000  1
  O  O37  1  0.63569700  0.50716800  0.25753000  1
  O  O38  1  0.65277100  0.88356600  0.16200100  1
  O  O39  1  0.15277100  0.11643400  0.33799900  1
  O  O40  1  0.62960100  0.84278300  0.99033700  1
  O  O41  1  0.12960100  0.15721700  0.50966300  1
  O  O42  1  0.63838400  0.43021200  0.08861700  1
  O  O43  1  0.13838400  0.56978800  0.41138300  1
  O  O44  1  0.10953700  0.87825600  0.16402900  1
  O  O45  1  0.60953700  0.12174400  0.33597100  1
  O  O46  1  0.11481100  0.42979300  0.07092600  1
  O  O47  1  0.61481100  0.57020700  0.42907400  1
  O  O48  1  0.13959900  0.79520600  0.99236000  1
  O  O49  1  0.63959900  0.20479400  0.50764000  1
  O  O50  1  0.61476700  0.34302800  0.87875000  1
  O  O51  1  0.11476700  0.65697200  0.62125000  1
  O  O52  1  0.11962800  0.37356900  0.88539200  1
  O  O53  1  0.61962800  0.62643100  0.61460800  1
  O  O54  1  0.86430300  0.50716800  0.75753000  1
  O  O55  1  0.36430300  0.49283200  0.74247000  1
