# generated using pymatgen
data_Fe2Se2O7
_symmetry_space_group_name_H-M   'P 1'
_cell_length_a   6.77930800
_cell_length_b   13.07031000
_cell_length_c   13.81222600
_cell_angle_alpha   90.00000000
_cell_angle_beta   90.00000000
_cell_angle_gamma   90.00000000
_symmetry_Int_Tables_number   1
_chemical_formula_structural   Fe2Se2O7
_chemical_formula_sum   'Fe16 Se16 O56'
_cell_volume   1223.86898582
_cell_formula_units_Z   8
loop_
 _symmetry_equiv_pos_site_id
 _symmetry_equiv_pos_as_xyz
  1  'x, y, z'
loop_
 _atom_site_type_symbol
 _atom_site_label
 _atom_site_symmetry_multiplicity
 _atom_site_fract_x
 _atom_site_fract_y
 _atom_site_fract_z
 _atom_site_occupancy
  Fe  Fe0  1  0.25000000  0.25000000  0.33548100  1
  Fe  Fe1  1  0.75000000  0.75000000  0.16451900  1
  Fe  Fe2  1  0.75000000  0.75000000  0.66451900  1
  Fe  Fe3  1  0.25000000  0.25000000  0.83548100  1
  Fe  Fe4  1  0.25000000  0.75000000  0.21058900  1
  Fe  Fe5  1  0.75000000  0.25000000  0.28941100  1
  Fe  Fe6  1  0.75000000  0.25000000  0.78941100  1
  Fe  Fe7  1  0.25000000  0.75000000  0.71058900  1
  Fe  Fe8  1  0.03176300  0.62140300  0.02672400  1
  Fe  Fe9  1  0.53176300  0.37859700  0.47327600  1
  Fe  Fe10  1  0.96823700  0.12140300  0.47327600  1
  Fe  Fe11  1  0.46823700  0.87859700  0.02672400  1
  Fe  Fe12  1  0.96823700  0.37859700  0.97327600  1
  Fe  Fe13  1  0.46823700  0.62140300  0.52672400  1
  Fe  Fe14  1  0.03176300  0.87859700  0.52672400  1
  Fe  Fe15  1  0.53176300  0.12140300  0.97327600  1
  Se  Se16  1  0.01196600  0.44797000  0.21655500  1
  Se  Se17  1  0.51196600  0.55203000  0.28344500  1
  Se  Se18  1  0.98803400  0.94797000  0.28344500  1
  Se  Se19  1  0.48803400  0.05203000  0.21655500  1
  Se  Se20  1  0.98803400  0.55203000  0.78344500  1
  Se  Se21  1  0.48803400  0.44797000  0.71655500  1
  Se  Se22  1  0.01196600  0.05203000  0.71655500  1
  Se  Se23  1  0.51196600  0.94797000  0.78344500  1
  Se  Se24  1  0.02628000  0.13497000  0.03566000  1
  Se  Se25  1  0.52628000  0.86503000  0.46434000  1
  Se  Se26  1  0.97372000  0.63497000  0.46434000  1
  Se  Se27  1  0.47372000  0.36503000  0.03566000  1
  Se  Se28  1  0.97372000  0.86503000  0.96434000  1
  Se  Se29  1  0.47372000  0.13497000  0.53566000  1
  Se  Se30  1  0.02628000  0.36503000  0.53566000  1
  Se  Se31  1  0.52628000  0.63497000  0.96434000  1
  O  O32  1  0.02246700  0.70394000  0.14594000  1
  O  O33  1  0.52246700  0.29606000  0.35406000  1
  O  O34  1  0.97753300  0.20394000  0.35406000  1
  O  O35  1  0.47753300  0.79606000  0.14594000  1
  O  O36  1  0.97753300  0.29606000  0.85406000  1
  O  O37  1  0.47753300  0.70394000  0.64594000  1
  O  O38  1  0.02246700  0.79606000  0.64594000  1
  O  O39  1  0.52246700  0.20394000  0.85406000  1
  O  O40  1  0.19514500  0.35977500  0.23198600  1
  O  O41  1  0.69514500  0.64022500  0.26801400  1
  O  O42  1  0.80485500  0.85977500  0.26801400  1
  O  O43  1  0.30485500  0.14022500  0.23198600  1
  O  O44  1  0.80485500  0.64022500  0.76801400  1
  O  O45  1  0.30485500  0.35977500  0.73198600  1
  O  O46  1  0.19514500  0.14022500  0.73198600  1
  O  O47  1  0.69514500  0.85977500  0.76801400  1
  O  O48  1  0.79768100  0.37570600  0.21959000  1
  O  O49  1  0.29768100  0.62429400  0.28041000  1
  O  O50  1  0.20231900  0.87570600  0.28041000  1
  O  O51  1  0.70231900  0.12429400  0.21959000  1
  O  O52  1  0.20231900  0.62429400  0.78041000  1
  O  O53  1  0.70231900  0.37570600  0.71959000  1
  O  O54  1  0.79768100  0.12429400  0.71959000  1
  O  O55  1  0.29768100  0.87570600  0.78041000  1
  O  O56  1  0.02016000  0.47377900  0.09026300  1
  O  O57  1  0.52016000  0.52622100  0.40973700  1
  O  O58  1  0.97984000  0.97377900  0.40973700  1
  O  O59  1  0.47984000  0.02622100  0.09026300  1
  O  O60  1  0.97984000  0.52622100  0.90973700  1
  O  O61  1  0.47984000  0.47377900  0.59026300  1
  O  O62  1  0.02016000  0.02622100  0.59026300  1
  O  O63  1  0.52016000  0.97377900  0.90973700  1
  O  O64  1  0.98181000  0.26116000  0.06139500  1
  O  O65  1  0.48181000  0.73884000  0.43860500  1
  O  O66  1  0.01819000  0.76116000  0.43860500  1
  O  O67  1  0.51819000  0.23884000  0.06139500  1
  O  O68  1  0.01819000  0.73884000  0.93860500  1
  O  O69  1  0.51819000  0.26116000  0.56139500  1
  O  O70  1  0.98181000  0.23884000  0.56139500  1
  O  O71  1  0.48181000  0.76116000  0.93860500  1
  O  O72  1  0.82786500  0.10184900  0.96312800  1
  O  O73  1  0.32786500  0.89815100  0.53687200  1
  O  O74  1  0.17213500  0.60184900  0.53687200  1
  O  O75  1  0.67213500  0.39815100  0.96312800  1
  O  O76  1  0.17213500  0.89815100  0.03687200  1
  O  O77  1  0.67213500  0.10184900  0.46312800  1
  O  O78  1  0.82786500  0.39815100  0.46312800  1
  O  O79  1  0.32786500  0.60184900  0.03687200  1
  O  O80  1  0.21484000  0.13810300  0.94678700  1
  O  O81  1  0.71484000  0.86189700  0.55321300  1
  O  O82  1  0.78516000  0.63810300  0.55321300  1
  O  O83  1  0.28516000  0.36189700  0.94678700  1
  O  O84  1  0.78516000  0.86189700  0.05321300  1
  O  O85  1  0.28516000  0.13810300  0.44678700  1
  O  O86  1  0.21484000  0.36189700  0.44678700  1
  O  O87  1  0.71484000  0.63810300  0.05321300  1
