# generated using pymatgen
data_GdBO3
_symmetry_space_group_name_H-M   'P 1'
_cell_length_a   6.12926541
_cell_length_b   6.12926541
_cell_length_c   6.12926615
_cell_angle_alpha   62.98774565
_cell_angle_beta   62.98774565
_cell_angle_gamma   62.98775685
_symmetry_Int_Tables_number   1
_chemical_formula_structural   GdBO3
_chemical_formula_sum   'Gd3 B3 O9'
_cell_volume   173.62184450
_cell_formula_units_Z   3
loop_
 _symmetry_equiv_pos_site_id
 _symmetry_equiv_pos_as_xyz
  1  'x, y, z'
loop_
 _atom_site_type_symbol
 _atom_site_label
 _atom_site_symmetry_multiplicity
 _atom_site_fract_x
 _atom_site_fract_y
 _atom_site_fract_z
 _atom_site_occupancy
  Gd  Gd0  1  0.16818000  0.50000000  0.83182000  1
  Gd  Gd1  1  0.83182000  0.16818000  0.50000000  1
  Gd  Gd2  1  0.50000000  0.83182000  0.16818000  1
  B  B3  1  0.75737600  0.24262400  0.00000000  1
  B  B4  1  0.00000000  0.75737600  0.24262400  1
  B  B5  1  0.24262400  0.00000000  0.75737600  1
  O  O6  1  0.26900300  0.91341600  0.55858000  1
  O  O7  1  0.91341600  0.55858000  0.26900300  1
  O  O8  1  0.55858000  0.26900300  0.91341600  1
  O  O9  1  0.44142000  0.08658400  0.73099700  1
  O  O10  1  0.08658400  0.73099700  0.44142000  1
  O  O11  1  0.73099700  0.44142000  0.08658400  1
  O  O12  1  0.00000000  0.22352400  0.77647600  1
  O  O13  1  0.22352400  0.77647600  0.00000000  1
  O  O14  1  0.77647600  0.00000000  0.22352400  1
