# generated using pymatgen
data_Sr(C2N3)2
_symmetry_space_group_name_H-M   'P 1'
_cell_length_a   7.26022495
_cell_length_b   7.26022495
_cell_length_c   8.34308496
_cell_angle_alpha   83.36001387
_cell_angle_beta   83.36001387
_cell_angle_gamma   51.73534831
_symmetry_Int_Tables_number   1
_chemical_formula_structural   Sr(C2N3)2
_chemical_formula_sum   'Sr2 C8 N12'
_cell_volume   342.42726164
_cell_formula_units_Z   2
loop_
 _symmetry_equiv_pos_site_id
 _symmetry_equiv_pos_as_xyz
  1  'x, y, z'
loop_
 _atom_site_type_symbol
 _atom_site_label
 _atom_site_symmetry_multiplicity
 _atom_site_fract_x
 _atom_site_fract_y
 _atom_site_fract_z
 _atom_site_occupancy
  Sr  Sr0  1  0.09158800  0.90841200  0.75000000  1
  Sr  Sr1  1  0.90841200  0.09158800  0.25000000  1
  C  C2  1  0.53166500  0.29265100  0.90892800  1
  C  C3  1  0.70734900  0.46833500  0.59107200  1
  C  C4  1  0.30089500  0.24631800  0.31254400  1
  C  C5  1  0.75368200  0.69910500  0.18745600  1
  C  C6  1  0.69910500  0.75368200  0.68745600  1
  C  C7  1  0.24631800  0.30089500  0.81254400  1
  C  C8  1  0.29265100  0.53166500  0.40892800  1
  C  C9  1  0.46833500  0.70734900  0.09107200  1
  N  N10  1  0.79597500  0.28523600  0.53640800  1
  N  N11  1  0.71476400  0.20402500  0.96359200  1
  N  N12  1  0.40748700  0.32993300  0.34589600  1
  N  N13  1  0.67006700  0.59251300  0.15410400  1
  N  N14  1  0.59251300  0.67006700  0.65410400  1
  N  N15  1  0.32993300  0.40748700  0.84589600  1
  N  N16  1  0.21956900  0.15892400  0.27760200  1
  N  N17  1  0.84107600  0.78043100  0.22239800  1
  N  N18  1  0.78043100  0.84107600  0.72239800  1
  N  N19  1  0.15892400  0.21956900  0.77760200  1
  N  N20  1  0.20402500  0.71476400  0.46359200  1
  N  N21  1  0.28523600  0.79597500  0.03640800  1
