# generated using pymatgen
data_Ca3Zn
_symmetry_space_group_name_H-M   'P 1'
_cell_length_a   6.92315365
_cell_length_b   6.92315365
_cell_length_c   10.14500500
_cell_angle_alpha   90.00000000
_cell_angle_beta   90.00000000
_cell_angle_gamma   145.65972531
_symmetry_Int_Tables_number   1
_chemical_formula_structural   Ca3Zn
_chemical_formula_sum   'Ca6 Zn2'
_cell_volume   274.29720563
_cell_formula_units_Z   2
loop_
 _symmetry_equiv_pos_site_id
 _symmetry_equiv_pos_as_xyz
  1  'x, y, z'
loop_
 _atom_site_type_symbol
 _atom_site_label
 _atom_site_symmetry_multiplicity
 _atom_site_fract_x
 _atom_site_fract_y
 _atom_site_fract_z
 _atom_site_occupancy
  Ca  Ca0  1  0.56845100  0.43154900  0.75000000  1
  Ca  Ca1  1  0.43154900  0.56845100  0.25000000  1
  Ca  Ca2  1  0.85784800  0.14215200  0.93943100  1
  Ca  Ca3  1  0.14215200  0.85784800  0.06056900  1
  Ca  Ca4  1  0.14215200  0.85784800  0.43943100  1
  Ca  Ca5  1  0.85784800  0.14215200  0.56056900  1
  Zn  Zn6  1  0.24715100  0.75284900  0.75000000  1
  Zn  Zn7  1  0.75284900  0.24715100  0.25000000  1
