# generated using pymatgen
data_Sr7Re4O19
_symmetry_space_group_name_H-M   'P 1'
_cell_length_a   7.47564856
_cell_length_b   7.47564856
_cell_length_c   10.51411667
_cell_angle_alpha   81.99635328
_cell_angle_beta   81.99635328
_cell_angle_gamma   44.31180498
_symmetry_Int_Tables_number   1
_chemical_formula_structural   Sr7Re4O19
_chemical_formula_sum   'Sr7 Re4 O19'
_cell_volume   405.79983308
_cell_formula_units_Z   1
loop_
 _symmetry_equiv_pos_site_id
 _symmetry_equiv_pos_as_xyz
  1  'x, y, z'
loop_
 _atom_site_type_symbol
 _atom_site_label
 _atom_site_symmetry_multiplicity
 _atom_site_fract_x
 _atom_site_fract_y
 _atom_site_fract_z
 _atom_site_occupancy
  Sr  Sr0  1  0.21077600  0.21077600  0.41277700  1
  Sr  Sr1  1  0.78922400  0.78922400  0.58722300  1
  Sr  Sr2  1  0.41622400  0.41622400  0.16463600  1
  Sr  Sr3  1  0.58377600  0.58377600  0.83536400  1
  Sr  Sr4  1  0.50000000  0.50000000  0.50000000  1
  Sr  Sr5  1  0.85846700  0.85846700  0.95754400  1
  Sr  Sr6  1  0.14153300  0.14153300  0.04245600  1
  Re  Re7  1  0.96685800  0.96685800  0.32281800  1
  Re  Re8  1  0.03314200  0.03314200  0.67718200  1
  Re  Re9  1  0.66923800  0.66923800  0.21979500  1
  Re  Re10  1  0.33076200  0.33076200  0.78020500  1
  O  O11  1  0.00000000  0.00000000  0.50000000  1
  O  O12  1  0.69611200  0.69611200  0.38662100  1
  O  O13  1  0.30388800  0.30388800  0.61337900  1
  O  O14  1  0.04465900  0.04465900  0.85427300  1
  O  O15  1  0.95534100  0.95534100  0.14572700  1
  O  O16  1  0.39821200  0.39821200  0.93039700  1
  O  O17  1  0.60178800  0.60178800  0.06960300  1
  O  O18  1  0.82527800  0.31644800  0.28465200  1
  O  O19  1  0.68355200  0.17472200  0.71534800  1
  O  O20  1  0.17472200  0.68355200  0.71534800  1
  O  O21  1  0.31644800  0.82527800  0.28465200  1
  O  O22  1  0.63041200  0.12137200  0.37321300  1
  O  O23  1  0.87862800  0.36958800  0.62678700  1
  O  O24  1  0.36958800  0.87862800  0.62678700  1
  O  O25  1  0.12137200  0.63041200  0.37321300  1
  O  O26  1  0.99588000  0.51675600  0.15368700  1
  O  O27  1  0.48324400  0.00412000  0.84631300  1
  O  O28  1  0.00412000  0.48324400  0.84631300  1
  O  O29  1  0.51675600  0.99588000  0.15368700  1
