# generated using pymatgen
data_Ba2EuCl7
_symmetry_space_group_name_H-M   'P 1'
_cell_length_a   15.76922300
_cell_length_b   7.04579600
_cell_length_c   10.75191422
_cell_angle_alpha   88.73023448
_cell_angle_beta   90.00000000
_cell_angle_gamma   90.00000000
_symmetry_Int_Tables_number   1
_chemical_formula_structural   Ba2EuCl7
_chemical_formula_sum   'Ba8 Eu4 Cl28'
_cell_volume   1194.31666613
_cell_formula_units_Z   4
loop_
 _symmetry_equiv_pos_site_id
 _symmetry_equiv_pos_as_xyz
  1  'x, y, z'
loop_
 _atom_site_type_symbol
 _atom_site_label
 _atom_site_symmetry_multiplicity
 _atom_site_fract_x
 _atom_site_fract_y
 _atom_site_fract_z
 _atom_site_occupancy
  Ba  Ba0  1  0.22229800  0.72910000  0.55184300  1
  Ba  Ba1  1  0.72229800  0.27090000  0.94815700  1
  Ba  Ba2  1  0.77770200  0.27090000  0.44815700  1
  Ba  Ba3  1  0.27770200  0.72910000  0.05184300  1
  Ba  Ba4  1  0.06164000  0.27241900  0.82757900  1
  Ba  Ba5  1  0.56164000  0.72758100  0.67242100  1
  Ba  Ba6  1  0.93836000  0.72758100  0.17242100  1
  Ba  Ba7  1  0.43836000  0.27241900  0.32757900  1
  Eu  Eu8  1  0.37383000  0.21447400  0.78462900  1
  Eu  Eu9  1  0.87383000  0.78552600  0.71537100  1
  Eu  Eu10  1  0.62617000  0.78552600  0.21537100  1
  Eu  Eu11  1  0.12617000  0.21447400  0.28462900  1
  Cl  Cl12  1  0.14127600  0.29109700  0.53582300  1
  Cl  Cl13  1  0.64127600  0.70890300  0.96417700  1
  Cl  Cl14  1  0.85872400  0.70890300  0.46417700  1
  Cl  Cl15  1  0.35872400  0.29109700  0.03582300  1
  Cl  Cl16  1  0.06983300  0.85825700  0.37654300  1
  Cl  Cl17  1  0.56983300  0.14174300  0.12345700  1
  Cl  Cl18  1  0.93016700  0.14174300  0.62345700  1
  Cl  Cl19  1  0.43016700  0.85825700  0.87654300  1
  Cl  Cl20  1  0.95579800  0.30410100  0.29059700  1
  Cl  Cl21  1  0.45579800  0.69589900  0.20940300  1
  Cl  Cl22  1  0.04420200  0.69589900  0.70940300  1
  Cl  Cl23  1  0.54420200  0.30410100  0.79059700  1
  Cl  Cl24  1  0.39620100  0.99750100  0.56992300  1
  Cl  Cl25  1  0.89620100  0.00249900  0.93007700  1
  Cl  Cl26  1  0.60379900  0.00249900  0.43007700  1
  Cl  Cl27  1  0.10379900  0.99750100  0.06992300  1
  Cl  Cl28  1  0.24110600  0.49241200  0.80636500  1
  Cl  Cl29  1  0.74110600  0.50758800  0.69363500  1
  Cl  Cl30  1  0.75889400  0.50758800  0.19363500  1
  Cl  Cl31  1  0.25889400  0.49241200  0.30636500  1
  Cl  Cl32  1  0.22467100  0.99642900  0.79591700  1
  Cl  Cl33  1  0.72467100  0.00357100  0.70408300  1
  Cl  Cl34  1  0.77532900  0.00357100  0.20408300  1
  Cl  Cl35  1  0.27532900  0.99642900  0.29591700  1
  Cl  Cl36  1  0.39623000  0.49154800  0.58249300  1
  Cl  Cl37  1  0.89623000  0.50845200  0.91750700  1
  Cl  Cl38  1  0.60377000  0.50845200  0.41750700  1
  Cl  Cl39  1  0.10377000  0.49154800  0.08249300  1
