# generated using pymatgen
data_K3FeO2
_symmetry_space_group_name_H-M   'P 1'
_cell_length_a   6.19236367
_cell_length_b   6.19231667
_cell_length_c   14.64684404
_cell_angle_alpha   90.00829236
_cell_angle_beta   89.99818643
_cell_angle_gamma   89.91602278
_symmetry_Int_Tables_number   1
_chemical_formula_structural   K3FeO2
_chemical_formula_sum   'K12 Fe4 O8'
_cell_volume   561.63375048
_cell_formula_units_Z   4
loop_
 _symmetry_equiv_pos_site_id
 _symmetry_equiv_pos_as_xyz
  1  'x, y, z'
loop_
 _atom_site_type_symbol
 _atom_site_label
 _atom_site_symmetry_multiplicity
 _atom_site_fract_x
 _atom_site_fract_y
 _atom_site_fract_z
 _atom_site_occupancy
  K  K0  1  0.96870200  0.96870600  0.49996800  1
  K  K1  1  0.53131200  0.46872400  0.75002900  1
  K  K2  1  0.46868500  0.53127200  0.24996700  1
  K  K3  1  0.03136800  0.03136500  0.00002900  1
  K  K4  1  0.51131200  0.01540900  0.12525200  1
  K  K5  1  0.51545400  0.98874000  0.87512900  1
  K  K6  1  0.01130600  0.48452100  0.62479900  1
  K  K7  1  0.48869800  0.98454300  0.62512200  1
  K  K8  1  0.01536500  0.51128300  0.87480300  1
  K  K9  1  0.98454000  0.48869800  0.37481700  1
  K  K10  1  0.48452300  0.01130300  0.37514000  1
  K  K11  1  0.98877900  0.51548300  0.12493300  1
  Fe  Fe12  1  0.00412800  0.99585700  0.74999500  1
  Fe  Fe13  1  0.99584500  0.00410700  0.25002800  1
  Fe  Fe14  1  0.49588300  0.49587900  0.49999900  1
  Fe  Fe15  1  0.50421100  0.50419700  0.99999800  1
  O  O16  1  0.78701700  0.79704400  0.25698000  1
  O  O17  1  0.21296900  0.20294400  0.75685100  1
  O  O18  1  0.79705900  0.78702800  0.74300700  1
  O  O19  1  0.29702700  0.71292000  0.00692800  1
  O  O20  1  0.28713200  0.70284000  0.49306400  1
  O  O21  1  0.20292600  0.21296500  0.24315100  1
  O  O22  1  0.70283500  0.28713400  0.50691200  1
  O  O23  1  0.71292600  0.29704000  0.99309900  1
