# generated using pymatgen
data_LiMo2P3O13
_symmetry_space_group_name_H-M   'P 1'
_cell_length_a   6.47135966
_cell_length_b   19.36405700
_cell_length_c   9.74584559
_cell_angle_alpha   90.00000000
_cell_angle_beta   105.68270290
_cell_angle_gamma   90.00000000
_symmetry_Int_Tables_number   1
_chemical_formula_structural   LiMo2P3O13
_chemical_formula_sum   'Li4 Mo8 P12 O52'
_cell_volume   1175.80552396
_cell_formula_units_Z   4
loop_
 _symmetry_equiv_pos_site_id
 _symmetry_equiv_pos_as_xyz
  1  'x, y, z'
loop_
 _atom_site_type_symbol
 _atom_site_label
 _atom_site_symmetry_multiplicity
 _atom_site_fract_x
 _atom_site_fract_y
 _atom_site_fract_z
 _atom_site_occupancy
  Li  Li0  1  0.04014400  0.90805900  0.64360600  1
  Li  Li1  1  0.21831100  0.10325400  0.05259300  1
  Li  Li2  1  0.78168900  0.60325400  0.94740800  1
  Li  Li3  1  0.95985700  0.40805900  0.35639300  1
  Mo  Mo4  1  0.05189800  0.78591100  0.39251800  1
  Mo  Mo5  1  0.37404000  0.82095800  0.94485800  1
  Mo  Mo6  1  0.11589100  0.49626300  0.07986200  1
  Mo  Mo7  1  0.43433400  0.53779500  0.62269200  1
  Mo  Mo8  1  0.56566600  0.03779500  0.37730700  1
  Mo  Mo9  1  0.88411000  0.99626300  0.92013800  1
  Mo  Mo10  1  0.62595900  0.32095800  0.05514200  1
  Mo  Mo11  1  0.94810200  0.28591100  0.60748200  1
  P  P12  1  0.91088000  0.83585400  0.03694800  1
  P  P13  1  0.97597900  0.57183200  0.71447400  1
  P  P14  1  0.75790500  0.19524500  0.29428600  1
  P  P15  1  0.75276000  0.12822200  0.69209400  1
  P  P16  1  0.42514900  0.98703100  0.02632600  1
  P  P17  1  0.51059700  0.75224900  0.30069100  1
  P  P18  1  0.48940400  0.25225000  0.69930900  1
  P  P19  1  0.57485100  0.48703100  0.97367500  1
  P  P20  1  0.08911900  0.33585400  0.96305100  1
  P  P21  1  0.02402000  0.07183200  0.28552600  1
  P  P22  1  0.24724000  0.62822300  0.30790700  1
  P  P23  1  0.24209500  0.69524500  0.70571500  1
  O  O24  1  0.14371400  0.45010400  0.23491100  1
  O  O25  1  0.92959400  0.30559800  0.03839900  1
  O  O26  1  0.93950600  0.91520100  0.05684300  1
  O  O27  1  0.94433600  0.80250600  0.18380500  1
  O  O28  1  0.97251300  0.15319300  0.28960700  1
  O  O29  1  0.79514000  0.51403500  0.06784200  1
  O  O30  1  0.83853300  0.25344300  0.39884100  1
  O  O31  1  0.95731500  0.36883700  0.54295600  1
  O  O32  1  0.00409800  0.55648200  0.87339300  1
  O  O33  1  0.07040600  0.80559800  0.96160100  1
  O  O34  1  0.06049500  0.41520200  0.94315700  1
  O  O35  1  0.05566500  0.30250600  0.81619400  1
  O  O36  1  0.02748800  0.65319300  0.71039300  1
  O  O37  1  0.20485900  0.01403500  0.93215800  1
  O  O38  1  0.12180000  0.53212100  0.64296500  1
  O  O39  1  0.04268500  0.86883800  0.45704300  1
  O  O40  1  0.16146800  0.75344300  0.60116000  1
  O  O41  1  0.28444500  0.86971600  0.79085700  1
  O  O42  1  0.09155100  0.67862600  0.34633300  1
  O  O43  1  0.34202200  0.72409100  0.85576200  1
  O  O44  1  0.25561300  0.25738000  0.61068100  1
  O  O45  1  0.14666100  0.59643900  0.15917100  1
  O  O46  1  0.25738500  0.06506200  0.37445700  1
  O  O47  1  0.99590300  0.05648300  0.12660700  1
  O  O48  1  0.39678100  0.64532700  0.66530900  1
  O  O49  1  0.52608100  0.27334600  0.85459100  1
  O  O50  1  0.58475400  0.00390900  0.93826400  1
  O  O51  1  0.32724900  0.56977200  0.41369500  1
  O  O52  1  0.57337100  0.41135900  0.93021400  1
  O  O53  1  0.53259800  0.53629100  0.84326800  1
  O  O54  1  0.44193800  0.45197500  0.58676200  1
  O  O55  1  0.36367200  0.78905800  0.37684800  1
  O  O56  1  0.54195700  0.17023400  0.70214400  1
  O  O57  1  0.68616000  0.81664800  0.94268800  1
  O  O58  1  0.31384000  0.31664900  0.05731100  1
  O  O59  1  0.45804400  0.67023400  0.29785500  1
  O  O60  1  0.63632800  0.28905800  0.62315300  1
  O  O61  1  0.55806100  0.95197500  0.41323800  1
  O  O62  1  0.46740300  0.03629100  0.15673200  1
  O  O63  1  0.42663000  0.91135900  0.06978600  1
  O  O64  1  0.67275200  0.06977200  0.58630500  1
  O  O65  1  0.41524600  0.50390900  0.06173700  1
  O  O66  1  0.47391700  0.77334600  0.14540900  1
  O  O67  1  0.60321900  0.14532700  0.33469100  1
  O  O68  1  0.85628600  0.95010400  0.76508800  1
  O  O69  1  0.74261500  0.56506300  0.62554300  1
  O  O70  1  0.85333900  0.09643900  0.84082900  1
  O  O71  1  0.74438800  0.75738100  0.38931900  1
  O  O72  1  0.65797700  0.22409100  0.14423800  1
  O  O73  1  0.90844800  0.17862600  0.65366600  1
  O  O74  1  0.71555600  0.36971600  0.20914300  1
  O  O75  1  0.87820100  0.03212200  0.35703600  1
