# generated using pymatgen
data_Mn(ReO4)2
_symmetry_space_group_name_H-M   'P 1'
_cell_length_a   5.96165603
_cell_length_b   14.44223145
_cell_length_c   10.32430506
_cell_angle_alpha   69.05367824
_cell_angle_beta   90.01090299
_cell_angle_gamma   78.09087419
_symmetry_Int_Tables_number   1
_chemical_formula_structural   Mn(ReO4)2
_chemical_formula_sum   'Mn4 Re8 O32'
_cell_volume   809.64151407
_cell_formula_units_Z   4
loop_
 _symmetry_equiv_pos_site_id
 _symmetry_equiv_pos_as_xyz
  1  'x, y, z'
loop_
 _atom_site_type_symbol
 _atom_site_label
 _atom_site_symmetry_multiplicity
 _atom_site_fract_x
 _atom_site_fract_y
 _atom_site_fract_z
 _atom_site_occupancy
  Mn  Mn0  1  0.50000200  0.00000100  0.49999900  1
  Mn  Mn1  1  0.25000100  0.49999900  0.25000200  1
  Mn  Mn2  1  0.74999700  0.50000000  0.74999800  1
  Mn  Mn3  1  0.00000000  0.00000000  0.00000000  1
  Re  Re4  1  0.68114500  0.63764400  0.34787600  1
  Re  Re5  1  0.43115900  0.13763000  0.09784700  1
  Re  Re6  1  0.18115700  0.63763100  0.84785300  1
  Re  Re7  1  0.93115500  0.13764300  0.59788400  1
  Re  Re8  1  0.06885100  0.86236200  0.40211900  1
  Re  Re9  1  0.81884800  0.36236200  0.15211600  1
  Re  Re10  1  0.56884900  0.86236100  0.90215000  1
  Re  Re11  1  0.31884400  0.36236000  0.65215600  1
  O  O12  1  0.13472400  0.73057000  0.46802700  1
  O  O13  1  0.88472300  0.23057100  0.21801900  1
  O  O14  1  0.63472200  0.73057400  0.96803000  1
  O  O15  1  0.38472100  0.23057200  0.71803600  1
  O  O16  1  0.61527500  0.76943300  0.28197200  1
  O  O17  1  0.36528000  0.26942700  0.03196500  1
  O  O18  1  0.11528100  0.76942700  0.78197100  1
  O  O19  1  0.86527900  0.26943000  0.53198200  1
  O  O20  1  0.28643300  0.90644000  0.46226400  1
  O  O21  1  0.03642800  0.40644100  0.21226200  1
  O  O22  1  0.78644600  0.90644900  0.96227700  1
  O  O23  1  0.53644100  0.40644700  0.71228000  1
  O  O24  1  0.69982900  0.59353200  0.53084100  1
  O  O25  1  0.44982900  0.09354100  0.28079200  1
  O  O26  1  0.19982800  0.59353900  0.03080300  1
  O  O27  1  0.94983300  0.09353000  0.78085100  1
  O  O28  1  0.94620500  0.59356200  0.29120000  1
  O  O29  1  0.69624100  0.09355300  0.04118000  1
  O  O30  1  0.44623800  0.59355000  0.79118500  1
  O  O31  1  0.19621400  0.09355900  0.54120000  1
  O  O32  1  0.80379500  0.90643900  0.45880000  1
  O  O33  1  0.55379200  0.40644100  0.20879900  1
  O  O34  1  0.30376700  0.90644900  0.95881400  1
  O  O35  1  0.05376200  0.40644800  0.70881900  1
  O  O36  1  0.05017200  0.90647000  0.21915600  1
  O  O37  1  0.80017100  0.40646900  0.96915300  1
  O  O38  1  0.55017500  0.90646200  0.71919700  1
  O  O39  1  0.30017400  0.40646100  0.46920600  1
  O  O40  1  0.46356200  0.59356000  0.28773500  1
  O  O41  1  0.21355200  0.09355300  0.03771900  1
  O  O42  1  0.96355400  0.59355100  0.78772200  1
  O  O43  1  0.71357800  0.09356000  0.53774000  1
