# generated using pymatgen
data_Mo2(PO4)3
_symmetry_space_group_name_H-M   'P 1'
_cell_length_a   8.76057200
_cell_length_b   8.77742612
_cell_length_c   9.04047166
_cell_angle_alpha   61.18058226
_cell_angle_beta   61.05641560
_cell_angle_gamma   60.07626532
_symmetry_Int_Tables_number   1
_chemical_formula_structural   Mo2(PO4)3
_chemical_formula_sum   'Mo4 P6 O24'
_cell_volume   500.00171351
_cell_formula_units_Z   2
loop_
 _symmetry_equiv_pos_site_id
 _symmetry_equiv_pos_as_xyz
  1  'x, y, z'
loop_
 _atom_site_type_symbol
 _atom_site_label
 _atom_site_symmetry_multiplicity
 _atom_site_fract_x
 _atom_site_fract_y
 _atom_site_fract_z
 _atom_site_occupancy
  Mo  Mo0  1  0.64208900  0.64488400  0.06814800  1
  Mo  Mo1  1  0.14569100  0.14289900  0.57110700  1
  Mo  Mo2  1  0.86024900  0.85440600  0.42838300  1
  Mo  Mo3  1  0.35423000  0.35417700  0.93204700  1
  P  P4  1  0.25315000  0.96477200  0.24822000  1
  P  P5  1  0.03121400  0.46228700  0.75098900  1
  P  P6  1  0.96408500  0.53227000  0.24959600  1
  P  P7  1  0.75499300  0.03214100  0.74890500  1
  P  P8  1  0.46518200  0.75215000  0.75016600  1
  P  P9  1  0.53530500  0.25052000  0.25006000  1
  O  O10  1  0.57834100  0.19948500  0.78109400  1
  O  O11  1  0.49865100  0.27055900  0.09133000  1
  O  O12  1  0.71645200  0.09382100  0.26653900  1
  O  O13  1  0.55411900  0.43666300  0.21212600  1
  O  O14  1  0.47956000  0.74272000  0.91855700  1
  O  O15  1  0.28699000  0.92691300  0.71678700  1
  O  O16  1  0.44365600  0.58183600  0.77102900  1
  O  O17  1  0.73780400  0.85351300  0.91250600  1
  O  O18  1  0.22564700  0.99578700  0.41503700  1
  O  O19  1  0.85279300  0.49513200  0.91275700  1
  O  O20  1  0.62785300  0.79221300  0.58444300  1
  O  O21  1  0.92050800  0.06682900  0.72993000  1
  O  O22  1  0.19832100  0.43965900  0.78428800  1
  O  O23  1  0.05921100  0.28310200  0.73209300  1
  O  O24  1  0.78594300  0.00690800  0.57910100  1
  O  O25  1  0.01213800  0.62205300  0.58085800  1
  O  O26  1  0.00328600  0.36094700  0.41731400  1
  O  O27  1  0.25784900  0.13601000  0.08475000  1
  O  O28  1  0.91702400  0.71163700  0.27742300  1
  O  O29  1  0.79459200  0.54265800  0.22841800  1
  O  O30  1  0.09670900  0.90926800  0.28104200  1
  O  O31  1  0.36789300  0.22895900  0.42292400  1
  O  O32  1  0.13711100  0.51186300  0.08519300  1
  O  O33  1  0.44136300  0.80095300  0.21684000  1
