# generated using pymatgen
data_V3O5
_symmetry_space_group_name_H-M   'P 1'
_cell_length_a   5.71623217
_cell_length_b   5.71623217
_cell_length_c   7.08837846
_cell_angle_alpha   70.11437726
_cell_angle_beta   70.11437726
_cell_angle_gamma   54.13422144
_symmetry_Int_Tables_number   1
_chemical_formula_structural   V3O5
_chemical_formula_sum   'V6 O10'
_cell_volume   173.46573371
_cell_formula_units_Z   2
loop_
 _symmetry_equiv_pos_site_id
 _symmetry_equiv_pos_as_xyz
  1  'x, y, z'
loop_
 _atom_site_type_symbol
 _atom_site_label
 _atom_site_symmetry_multiplicity
 _atom_site_fract_x
 _atom_site_fract_y
 _atom_site_fract_z
 _atom_site_occupancy
  V  V0  1  0.62816400  0.63205800  0.77834700  1
  V  V1  1  0.63205800  0.62816400  0.27834700  1
  V  V2  1  0.37183600  0.36794200  0.22165300  1
  V  V3  1  0.36794200  0.37183600  0.72165300  1
  V  V4  1  0.00000000  0.00000000  0.00000000  1
  V  V5  1  0.00000000  0.00000000  0.50000000  1
  O  O6  1  0.03714400  0.35075800  0.33627200  1
  O  O7  1  0.35075800  0.03714400  0.83627200  1
  O  O8  1  0.96285600  0.64924200  0.66372800  1
  O  O9  1  0.64924200  0.96285600  0.16372800  1
  O  O10  1  0.73071800  0.42762400  0.05725400  1
  O  O11  1  0.42762400  0.73071800  0.55725400  1
  O  O12  1  0.26928200  0.57237600  0.94274600  1
  O  O13  1  0.57237600  0.26928200  0.44274600  1
  O  O14  1  0.19375700  0.80624300  0.25000000  1
  O  O15  1  0.80624300  0.19375700  0.75000000  1
