# generated using pymatgen
data_Mg29Ir4
_symmetry_space_group_name_H-M   'P 1'
_cell_length_a   14.20899823
_cell_length_b   14.20899823
_cell_length_c   14.20899823
_cell_angle_alpha   60.00000000
_cell_angle_beta   60.00000000
_cell_angle_gamma   60.00000000
_symmetry_Int_Tables_number   1
_chemical_formula_structural   Mg29Ir4
_chemical_formula_sum   'Mg87 Ir12'
_cell_volume   2028.50172960
_cell_formula_units_Z   3
loop_
 _symmetry_equiv_pos_site_id
 _symmetry_equiv_pos_as_xyz
  1  'x, y, z'
loop_
 _atom_site_type_symbol
 _atom_site_label
 _atom_site_symmetry_multiplicity
 _atom_site_fract_x
 _atom_site_fract_y
 _atom_site_fract_z
 _atom_site_occupancy
  Mg  Mg0  1  0.69317800  0.90951500  0.90951500  1
  Mg  Mg1  1  0.48779200  0.90951500  0.69317800  1
  Mg  Mg2  1  0.90951500  0.48779200  0.90951500  1
  Mg  Mg3  1  0.90951500  0.90951500  0.48779200  1
  Mg  Mg4  1  0.48779200  0.69317800  0.90951500  1
  Mg  Mg5  1  0.90951500  0.69317800  0.48779200  1
  Mg  Mg6  1  0.90951500  0.48779200  0.69317800  1
  Mg  Mg7  1  0.90951500  0.69317800  0.90951500  1
  Mg  Mg8  1  0.90951500  0.90951500  0.69317800  1
  Mg  Mg9  1  0.69317800  0.48779200  0.90951500  1
  Mg  Mg10  1  0.69317800  0.90951500  0.48779200  1
  Mg  Mg11  1  0.48779200  0.90951500  0.90951500  1
  Mg  Mg12  1  0.18117100  0.51886700  0.51886700  1
  Mg  Mg13  1  0.78109400  0.51886700  0.18117100  1
  Mg  Mg14  1  0.51886700  0.78109400  0.51886700  1
  Mg  Mg15  1  0.51886700  0.51886700  0.78109400  1
  Mg  Mg16  1  0.78109400  0.18117100  0.51886700  1
  Mg  Mg17  1  0.51886700  0.18117100  0.78109400  1
  Mg  Mg18  1  0.51886700  0.78109400  0.18117100  1
  Mg  Mg19  1  0.51886700  0.18117100  0.51886700  1
  Mg  Mg20  1  0.51886700  0.51886700  0.18117100  1
  Mg  Mg21  1  0.18117100  0.78109400  0.51886700  1
  Mg  Mg22  1  0.18117100  0.51886700  0.78109400  1
  Mg  Mg23  1  0.78109400  0.51886700  0.51886700  1
  Mg  Mg24  1  0.68060500  0.03395700  0.03395700  1
  Mg  Mg25  1  0.25148200  0.03395700  0.68060500  1
  Mg  Mg26  1  0.03395700  0.25148200  0.03395700  1
  Mg  Mg27  1  0.03395700  0.03395700  0.25148200  1
  Mg  Mg28  1  0.25148200  0.68060500  0.03395700  1
  Mg  Mg29  1  0.03395700  0.68060500  0.25148200  1
  Mg  Mg30  1  0.03395700  0.25148200  0.68060500  1
  Mg  Mg31  1  0.03395700  0.68060500  0.03395700  1
  Mg  Mg32  1  0.03395700  0.03395700  0.68060500  1
  Mg  Mg33  1  0.68060500  0.25148200  0.03395700  1
  Mg  Mg34  1  0.68060500  0.03395700  0.25148200  1
  Mg  Mg35  1  0.25148200  0.03395700  0.03395700  1
  Mg  Mg36  1  0.53546600  0.27094600  0.27094600  1
  Mg  Mg37  1  0.92264100  0.27094600  0.53546600  1
  Mg  Mg38  1  0.27094600  0.92264100  0.27094600  1
  Mg  Mg39  1  0.27094600  0.27094600  0.92264100  1
  Mg  Mg40  1  0.92264100  0.53546600  0.27094600  1
  Mg  Mg41  1  0.27094600  0.53546600  0.92264100  1
  Mg  Mg42  1  0.27094600  0.92264100  0.53546600  1
  Mg  Mg43  1  0.27094600  0.53546600  0.27094600  1
  Mg  Mg44  1  0.27094600  0.27094600  0.53546600  1
  Mg  Mg45  1  0.53546600  0.92264100  0.27094600  1
  Mg  Mg46  1  0.53546600  0.27094600  0.92264100  1
  Mg  Mg47  1  0.92264100  0.27094600  0.27094600  1
  Mg  Mg48  1  0.11623100  0.76971200  0.76971200  1
  Mg  Mg49  1  0.34434500  0.76971200  0.11623100  1
  Mg  Mg50  1  0.76971200  0.34434500  0.76971200  1
  Mg  Mg51  1  0.76971200  0.76971200  0.34434500  1
  Mg  Mg52  1  0.34434500  0.11623100  0.76971200  1
  Mg  Mg53  1  0.76971200  0.11623100  0.34434500  1
  Mg  Mg54  1  0.76971200  0.34434500  0.11623100  1
  Mg  Mg55  1  0.76971200  0.11623100  0.76971200  1
  Mg  Mg56  1  0.76971200  0.76971200  0.11623100  1
  Mg  Mg57  1  0.11623100  0.34434500  0.76971200  1
  Mg  Mg58  1  0.11623100  0.76971200  0.34434500  1
  Mg  Mg59  1  0.34434500  0.76971200  0.76971200  1
  Mg  Mg60  1  0.89337700  0.10662300  0.89337700  1
  Mg  Mg61  1  0.10662300  0.89337700  0.89337700  1
  Mg  Mg62  1  0.89337700  0.10662300  0.10662300  1
  Mg  Mg63  1  0.10662300  0.89337700  0.10662300  1
  Mg  Mg64  1  0.89337700  0.89337700  0.10662300  1
  Mg  Mg65  1  0.10662300  0.10662300  0.89337700  1
  Mg  Mg66  1  0.38353500  0.61646500  0.38353500  1
  Mg  Mg67  1  0.61646500  0.38353500  0.38353500  1
  Mg  Mg68  1  0.38353500  0.61646500  0.61646500  1
  Mg  Mg69  1  0.61646500  0.38353500  0.61646500  1
  Mg  Mg70  1  0.38353500  0.38353500  0.61646500  1
  Mg  Mg71  1  0.61646500  0.61646500  0.38353500  1
  Mg  Mg72  1  0.06995400  0.43004600  0.06995400  1
  Mg  Mg73  1  0.43004600  0.06995400  0.06995400  1
  Mg  Mg74  1  0.06995400  0.43004600  0.43004600  1
  Mg  Mg75  1  0.43004600  0.06995400  0.43004600  1
  Mg  Mg76  1  0.06995400  0.06995400  0.43004600  1
  Mg  Mg77  1  0.43004600  0.43004600  0.06995400  1
  Mg  Mg78  1  0.30156200  0.30156200  0.30156200  1
  Mg  Mg79  1  0.09531300  0.30156200  0.30156200  1
  Mg  Mg80  1  0.30156200  0.09531300  0.30156200  1
  Mg  Mg81  1  0.30156200  0.30156200  0.09531300  1
  Mg  Mg82  1  0.66502900  0.66502900  0.66502900  1
  Mg  Mg83  1  0.00491200  0.66502900  0.66502900  1
  Mg  Mg84  1  0.66502900  0.00491200  0.66502900  1
  Mg  Mg85  1  0.66502900  0.66502900  0.00491200  1
  Mg  Mg86  1  0.75000000  0.75000000  0.75000000  1
  Ir  Ir87  1  0.90041700  0.90041700  0.90041700  1
  Ir  Ir88  1  0.29874800  0.90041700  0.90041700  1
  Ir  Ir89  1  0.90041700  0.29874800  0.90041700  1
  Ir  Ir90  1  0.90041700  0.90041700  0.29874800  1
  Ir  Ir91  1  0.16768300  0.16768300  0.16768300  1
  Ir  Ir92  1  0.49695000  0.16768300  0.16768300  1
  Ir  Ir93  1  0.16768300  0.49695000  0.16768300  1
  Ir  Ir94  1  0.16768300  0.16768300  0.49695000  1
  Ir  Ir95  1  0.40500800  0.40500800  0.40500800  1
  Ir  Ir96  1  0.78497600  0.40500800  0.40500800  1
  Ir  Ir97  1  0.40500800  0.78497600  0.40500800  1
  Ir  Ir98  1  0.40500800  0.40500800  0.78497600  1
