# generated using pymatgen
data_Co(PO3)4
_symmetry_space_group_name_H-M   'P 1'
_cell_length_a   13.63465300
_cell_length_b   5.19367100
_cell_length_c   7.20428569
_cell_angle_alpha   82.42880194
_cell_angle_beta   90.00000000
_cell_angle_gamma   90.00000000
_symmetry_Int_Tables_number   1
_chemical_formula_structural   Co(PO3)4
_chemical_formula_sum   'Co2 P8 O24'
_cell_volume   505.71592238
_cell_formula_units_Z   2
loop_
 _symmetry_equiv_pos_site_id
 _symmetry_equiv_pos_as_xyz
  1  'x, y, z'
loop_
 _atom_site_type_symbol
 _atom_site_label
 _atom_site_symmetry_multiplicity
 _atom_site_fract_x
 _atom_site_fract_y
 _atom_site_fract_z
 _atom_site_occupancy
  Co  Co0  1  0.23633800  0.48406500  0.50754900  1
  Co  Co1  1  0.73633800  0.51593500  0.49245100  1
  P  P2  1  0.16764700  0.14369000  0.89770000  1
  P  P3  1  0.32271500  0.78614300  0.11351900  1
  P  P4  1  0.37712300  0.99674300  0.46049000  1
  P  P5  1  0.59792600  0.02347500  0.45605200  1
  P  P6  1  0.66764700  0.85631000  0.10230000  1
  P  P7  1  0.82271500  0.21385700  0.88648100  1
  P  P8  1  0.09792600  0.97652500  0.54394800  1
  P  P9  1  0.87712300  0.00325700  0.53951000  1
  O  O10  1  0.36167400  0.26665000  0.50738200  1
  O  O11  1  0.60979800  0.29297700  0.50669200  1
  O  O12  1  0.40276600  0.64352900  0.02467500  1
  O  O13  1  0.16449800  0.18609000  0.44703400  1
  O  O14  1  0.10979800  0.70702300  0.49330800  1
  O  O15  1  0.36605100  0.99975600  0.23590800  1
  O  O16  1  0.10671900  0.96674800  0.76809500  1
  O  O17  1  0.10846500  0.18424600  0.06498300  1
  O  O18  1  0.70969500  0.62228300  0.22500400  1
  O  O19  1  0.81633500  0.22172400  0.43705800  1
  O  O20  1  0.75401100  0.39752800  0.76659500  1
  O  O21  1  0.31633500  0.77827600  0.56294200  1
  O  O22  1  0.86605100  0.00024400  0.76409200  1
  O  O23  1  0.48912100  0.91661500  0.49851800  1
  O  O24  1  0.76103700  0.04298100  0.04295900  1
  O  O25  1  0.66449800  0.81391000  0.55296600  1
  O  O26  1  0.98912100  0.08338500  0.50148200  1
  O  O27  1  0.90276600  0.35647100  0.97532500  1
  O  O28  1  0.26103700  0.95701900  0.95704100  1
  O  O29  1  0.20969500  0.37771700  0.77499600  1
  O  O30  1  0.25401100  0.60247200  0.23340500  1
  O  O31  1  0.60846500  0.81575400  0.93501700  1
  O  O32  1  0.86167400  0.73335000  0.49261800  1
  O  O33  1  0.60671900  0.03325200  0.23190500  1
