# generated using pymatgen
data_Se3Br
_symmetry_space_group_name_H-M   'P 1'
_cell_length_a   8.89786884
_cell_length_b   8.89786884
_cell_length_c   8.89786884
_cell_angle_alpha   155.32452532
_cell_angle_beta   155.32452532
_cell_angle_gamma   35.17722921
_symmetry_Int_Tables_number   1
_chemical_formula_structural   Se3Br
_chemical_formula_sum   'Se3 Br1'
_cell_volume   122.63881304
_cell_formula_units_Z   1
loop_
 _symmetry_equiv_pos_site_id
 _symmetry_equiv_pos_as_xyz
  1  'x, y, z'
loop_
 _atom_site_type_symbol
 _atom_site_label
 _atom_site_symmetry_multiplicity
 _atom_site_fract_x
 _atom_site_fract_y
 _atom_site_fract_z
 _atom_site_occupancy
  Se  Se0  1  0.25000000  0.75000000  0.50000000  1
  Se  Se1  1  0.75000000  0.25000000  0.50000000  1
  Se  Se2  1  0.50000000  0.50000000  0.00000000  1
  Br  Br3  1  0.00000000  0.00000000  0.00000000  1
