# generated using pymatgen
data_VZn2O4
_symmetry_space_group_name_H-M   'P 1'
_cell_length_a   6.04575356
_cell_length_b   10.42655750
_cell_length_c   6.04585816
_cell_angle_alpha   73.67904699
_cell_angle_beta   120.17538171
_cell_angle_gamma   89.58010770
_symmetry_Int_Tables_number   1
_chemical_formula_structural   VZn2O4
_chemical_formula_sum   'V4 Zn8 O16'
_cell_volume   311.07690739
_cell_formula_units_Z   4
loop_
 _symmetry_equiv_pos_site_id
 _symmetry_equiv_pos_as_xyz
  1  'x, y, z'
loop_
 _atom_site_type_symbol
 _atom_site_label
 _atom_site_symmetry_multiplicity
 _atom_site_fract_x
 _atom_site_fract_y
 _atom_site_fract_z
 _atom_site_occupancy
  V  V0  1  0.56251300  0.81249600  0.12499400  1
  V  V1  1  0.56248800  0.31250000  0.62500800  1
  V  V2  1  0.06251300  0.31249700  0.12501000  1
  V  V3  1  0.06249500  0.81250000  0.62499900  1
  Zn  Zn4  1  0.49525600  0.49521400  0.00961500  1
  Zn  Zn5  1  0.99515900  0.99520400  0.00953400  1
  Zn  Zn6  1  0.62974200  0.12978800  0.24038500  1
  Zn  Zn7  1  0.12983600  0.62979600  0.24046300  1
  Zn  Zn8  1  0.06250000  0.31249900  0.62500000  1
  Zn  Zn9  1  0.56250100  0.81250000  0.62500000  1
  Zn  Zn10  1  0.31259100  0.06247700  0.62508000  1
  Zn  Zn11  1  0.81240700  0.56252300  0.62491800  1
  O  O12  1  0.96294500  0.20150800  0.35848600  1
  O  O13  1  0.46284300  0.70140200  0.35860800  1
  O  O14  1  0.43998000  0.20138200  0.83582600  1
  O  O15  1  0.94001100  0.70151200  0.83551300  1
  O  O16  1  0.68501700  0.42361900  0.41416800  1
  O  O17  1  0.18498400  0.92348900  0.41448100  1
  O  O18  1  0.16205200  0.42348800  0.89151500  1
  O  O19  1  0.66216600  0.92360100  0.89140100  1
  O  O20  1  0.20237500  0.42635100  0.37123300  1
  O  O21  1  0.70244500  0.92637000  0.37127300  1
  O  O22  1  0.69866400  0.42264400  0.87878100  1
  O  O23  1  0.19860800  0.92264000  0.87867100  1
  O  O24  1  0.42633900  0.20235800  0.37121500  1
  O  O25  1  0.92639100  0.70236400  0.37132900  1
  O  O26  1  0.92262800  0.19864900  0.87877200  1
  O  O27  1  0.42254700  0.69862800  0.87872300  1
