# generated using pymatgen
data_TbAl3
_symmetry_space_group_name_H-M   'P 1'
_cell_length_a   7.92720294
_cell_length_b   7.92720294
_cell_length_c   7.92720279
_cell_angle_alpha   46.10974071
_cell_angle_beta   46.10974071
_cell_angle_gamma   46.10974604
_symmetry_Int_Tables_number   1
_chemical_formula_structural   TbAl3
_chemical_formula_sum   'Tb3 Al9'
_cell_volume   236.04187872
_cell_formula_units_Z   3
loop_
 _symmetry_equiv_pos_site_id
 _symmetry_equiv_pos_as_xyz
  1  'x, y, z'
loop_
 _atom_site_type_symbol
 _atom_site_label
 _atom_site_symmetry_multiplicity
 _atom_site_fract_x
 _atom_site_fract_y
 _atom_site_fract_z
 _atom_site_occupancy
  Tb  Tb0  1  0.78195900  0.78195900  0.78195900  1
  Tb  Tb1  1  0.21804100  0.21804100  0.21804100  1
  Tb  Tb2  1  0.00000000  0.00000000  0.00000000  1
  Al  Al3  1  0.70280700  0.70280700  0.26346100  1
  Al  Al4  1  0.26346100  0.70280700  0.70280700  1
  Al  Al5  1  0.70280700  0.26346100  0.70280700  1
  Al  Al6  1  0.50000000  0.50000000  0.00000000  1
  Al  Al7  1  0.50000000  0.00000000  0.50000000  1
  Al  Al8  1  0.00000000  0.50000000  0.50000000  1
  Al  Al9  1  0.73653900  0.29719300  0.29719300  1
  Al  Al10  1  0.29719300  0.29719300  0.73653900  1
  Al  Al11  1  0.29719300  0.73653900  0.29719300  1
