# generated using pymatgen
data_Nd(BO2)3
_symmetry_space_group_name_H-M   'P 1'
_cell_length_a   6.42380852
_cell_length_b   6.42380852
_cell_length_c   6.43835572
_cell_angle_alpha   62.41178654
_cell_angle_beta   62.41178654
_cell_angle_gamma   79.03304693
_symmetry_Int_Tables_number   1
_chemical_formula_structural   Nd(BO2)3
_chemical_formula_sum   'Nd2 B6 O12'
_cell_volume   208.59975865
_cell_formula_units_Z   2
loop_
 _symmetry_equiv_pos_site_id
 _symmetry_equiv_pos_as_xyz
  1  'x, y, z'
loop_
 _atom_site_type_symbol
 _atom_site_label
 _atom_site_symmetry_multiplicity
 _atom_site_fract_x
 _atom_site_fract_y
 _atom_site_fract_z
 _atom_site_occupancy
  Nd  Nd0  1  0.70171900  0.29828100  0.25000000  1
  Nd  Nd1  1  0.29828100  0.70171900  0.75000000  1
  B  B2  1  0.72240400  0.27759600  0.75000000  1
  B  B3  1  0.70630700  0.84039700  0.08512000  1
  B  B4  1  0.15960300  0.29369300  0.41488000  1
  B  B5  1  0.27759600  0.72240400  0.25000000  1
  B  B6  1  0.84039700  0.70630700  0.58512000  1
  B  B7  1  0.29369300  0.15960300  0.91488000  1
  O  O8  1  0.88511800  0.70893300  0.00418000  1
  O  O9  1  0.29106700  0.11488200  0.49582000  1
  O  O10  1  0.49102200  0.71841800  0.28867000  1
  O  O11  1  0.28158200  0.50897800  0.21133000  1
  O  O12  1  0.50897800  0.28158200  0.71133000  1
  O  O13  1  0.71841800  0.49102200  0.78867000  1
  O  O14  1  0.08396200  0.71227800  0.49259500  1
  O  O15  1  0.28772200  0.91603800  0.00740500  1
  O  O16  1  0.91603800  0.28772200  0.50740500  1
  O  O17  1  0.71227800  0.08396200  0.99259500  1
  O  O18  1  0.70893300  0.88511800  0.50418000  1
  O  O19  1  0.11488200  0.29106700  0.99582000  1
