# generated using pymatgen
data_SiPN3
_symmetry_space_group_name_H-M   'P 1'
_cell_length_a   5.30268531
_cell_length_b   5.30268531
_cell_length_c   9.41993379
_cell_angle_alpha   89.90810573
_cell_angle_beta   89.90810573
_cell_angle_gamma   120.22364574
_symmetry_Int_Tables_number   1
_chemical_formula_structural   SiPN3
_chemical_formula_sum   'Si4 P4 N12'
_cell_volume   228.86785318
_cell_formula_units_Z   4
loop_
 _symmetry_equiv_pos_site_id
 _symmetry_equiv_pos_as_xyz
  1  'x, y, z'
loop_
 _atom_site_type_symbol
 _atom_site_label
 _atom_site_symmetry_multiplicity
 _atom_site_fract_x
 _atom_site_fract_y
 _atom_site_fract_z
 _atom_site_occupancy
  Si  Si0  1  0.68172300  0.99955100  0.00243800  1
  Si  Si1  1  0.32619100  0.00405100  0.25083700  1
  Si  Si2  1  0.99955100  0.68172300  0.50243800  1
  Si  Si3  1  0.00405100  0.32619100  0.75083700  1
  P  P4  1  0.00617300  0.66353000  0.99723500  1
  P  P5  1  0.98806100  0.32546500  0.24858500  1
  P  P6  1  0.66353000  0.00617300  0.49723500  1
  P  P7  1  0.32546500  0.98806100  0.74858500  1
  N  N8  1  0.66456600  0.09529700  0.17750200  1
  N  N9  1  0.08703800  0.65603800  0.17165300  1
  N  N10  1  0.22646800  0.24709800  0.21854400  1
  N  N11  1  0.89715800  0.33984400  0.42129200  1
  N  N12  1  0.34144600  0.92073500  0.42801400  1
  N  N13  1  0.75344200  0.77612800  0.46760000  1
  N  N14  1  0.65603800  0.08703800  0.67165300  1
  N  N15  1  0.09529700  0.66456600  0.67750200  1
  N  N16  1  0.24709800  0.22646800  0.71854400  1
  N  N17  1  0.92073500  0.34144600  0.92801400  1
  N  N18  1  0.33984400  0.89715800  0.92129200  1
  N  N19  1  0.77612800  0.75344200  0.96760000  1
