# generated using pymatgen
data_Ag(Mo3S4)2
_symmetry_space_group_name_H-M   'P 1'
_cell_length_a   6.53651744
_cell_length_b   6.53651744
_cell_length_c   6.53651711
_cell_angle_alpha   92.07234075
_cell_angle_beta   92.07234075
_cell_angle_gamma   92.07234869
_symmetry_Int_Tables_number   1
_chemical_formula_structural   Ag(Mo3S4)2
_chemical_formula_sum   'Ag1 Mo6 S8'
_cell_volume   278.71805632
_cell_formula_units_Z   1
loop_
 _symmetry_equiv_pos_site_id
 _symmetry_equiv_pos_as_xyz
  1  'x, y, z'
loop_
 _atom_site_type_symbol
 _atom_site_label
 _atom_site_symmetry_multiplicity
 _atom_site_fract_x
 _atom_site_fract_y
 _atom_site_fract_z
 _atom_site_occupancy
  Ag  Ag0  1  0.00000000  0.00000000  0.00000000  1
  Mo  Mo1  1  0.21567300  0.55329200  0.40739800  1
  Mo  Mo2  1  0.55329200  0.40739800  0.21567300  1
  Mo  Mo3  1  0.40739800  0.21567300  0.55329200  1
  Mo  Mo4  1  0.59260200  0.78432700  0.44670800  1
  Mo  Mo5  1  0.44670800  0.59260200  0.78432700  1
  Mo  Mo6  1  0.78432700  0.44670800  0.59260200  1
  S  S7  1  0.38333000  0.72922200  0.13299600  1
  S  S8  1  0.13299600  0.38333000  0.72922200  1
  S  S9  1  0.72922200  0.13299600  0.38333000  1
  S  S10  1  0.27077800  0.86700400  0.61667000  1
  S  S11  1  0.77623200  0.77623200  0.77623200  1
  S  S12  1  0.86700400  0.61667000  0.27077800  1
  S  S13  1  0.61667000  0.27077800  0.86700400  1
  S  S14  1  0.22376800  0.22376800  0.22376800  1
