# generated using pymatgen
data_Pr5AgSe8
_symmetry_space_group_name_H-M   'P 1'
_cell_length_a   7.79649416
_cell_length_b   7.79649416
_cell_length_c   7.79649416
_cell_angle_alpha   109.88590425
_cell_angle_beta   109.88590425
_cell_angle_gamma   108.64499926
_symmetry_Int_Tables_number   1
_chemical_formula_structural   Pr5AgSe8
_chemical_formula_sum   'Pr5 Ag1 Se8'
_cell_volume   364.76113931
_cell_formula_units_Z   1
loop_
 _symmetry_equiv_pos_site_id
 _symmetry_equiv_pos_as_xyz
  1  'x, y, z'
loop_
 _atom_site_type_symbol
 _atom_site_label
 _atom_site_symmetry_multiplicity
 _atom_site_fract_x
 _atom_site_fract_y
 _atom_site_fract_z
 _atom_site_occupancy
  Pr  Pr0  1  0.37817400  0.76156900  0.87902100  1
  Pr  Pr1  1  0.50084700  0.62182600  0.38339500  1
  Pr  Pr2  1  0.88254800  0.49915300  0.12097900  1
  Pr  Pr3  1  0.23843100  0.11745200  0.61660500  1
  Pr  Pr4  1  0.75000000  0.25000000  0.50000000  1
  Ag  Ag5  1  0.00000000  0.00000000  0.00000000  1
  Se  Se6  1  0.27205500  0.88356300  0.24819400  1
  Se  Se7  1  0.97614000  0.72794500  0.61150800  1
  Se  Se8  1  0.60968000  0.50471700  0.74229400  1
  Se  Se9  1  0.49528300  0.23757700  0.10496300  1
  Se  Se10  1  0.13261400  0.39032000  0.89503700  1
  Se  Se11  1  0.11643700  0.36463200  0.38849200  1
  Se  Se12  1  0.63536800  0.02386000  0.75180600  1
  Se  Se13  1  0.76242300  0.86738600  0.25770600  1
