# generated using pymatgen
data_Lu2S3
_symmetry_space_group_name_H-M   'P 1'
_cell_length_a   13.52555028
_cell_length_b   13.52555028
_cell_length_c   13.52555028
_cell_angle_alpha   144.80401890
_cell_angle_beta   144.80401890
_cell_angle_gamma   50.62667703
_symmetry_Int_Tables_number   1
_chemical_formula_structural   Lu2S3
_chemical_formula_sum   'Lu16 S24'
_cell_volume   817.83586237
_cell_formula_units_Z   8
loop_
 _symmetry_equiv_pos_site_id
 _symmetry_equiv_pos_as_xyz
  1  'x, y, z'
loop_
 _atom_site_type_symbol
 _atom_site_label
 _atom_site_symmetry_multiplicity
 _atom_site_fract_x
 _atom_site_fract_y
 _atom_site_fract_z
 _atom_site_occupancy
  Lu  Lu0  1  0.72308000  0.60206200  0.40173000  1
  Lu  Lu1  1  0.41446300  0.91446300  0.50000000  1
  Lu  Lu2  1  0.99159200  0.62500000  0.86659200  1
  Lu  Lu3  1  0.33553700  0.33553700  0.00000000  1
  Lu  Lu4  1  0.02692000  0.92865000  0.37898300  1
  Lu  Lu5  1  0.54966800  0.64793800  0.62101700  1
  Lu  Lu6  1  0.75840800  0.12500000  0.13340800  1
  Lu  Lu7  1  0.35206200  0.97308000  0.90173000  1
  Lu  Lu8  1  0.66446300  0.66446300  0.00000000  1
  Lu  Lu9  1  0.37500000  0.24159200  0.36659200  1
  Lu  Lu10  1  0.87500000  0.00840800  0.63340800  1
  Lu  Lu11  1  0.07135000  0.45033200  0.09827000  1
  Lu  Lu12  1  0.08553700  0.58553700  0.50000000  1
  Lu  Lu13  1  0.67865000  0.27692000  0.87898300  1
  Lu  Lu14  1  0.20033200  0.32135000  0.59827000  1
  Lu  Lu15  1  0.39793800  0.79966800  0.12101700  1
  S  S16  1  0.49697400  0.25188700  0.87871400  1
  S  S17  1  0.70758400  0.82481300  0.74618500  1
  S  S18  1  0.37317300  0.61826000  0.12128600  1
  S  S19  1  0.25302600  0.63174000  0.25491300  1
  S  S20  1  0.37682700  0.99811300  0.74508700  1
  S  S21  1  0.07862700  0.96139900  0.25381500  1
  S  S22  1  0.84632600  0.59120200  0.90138900  1
  S  S23  1  0.04241600  0.28860100  0.61722800  1
  S  S24  1  0.05506300  0.15367400  0.74487700  1
  S  S25  1  0.68981400  0.94493700  0.09861100  1
  S  S26  1  0.67137300  0.42518700  0.38277200  1
  S  S27  1  0.57481300  0.95758400  0.24618500  1
  S  S28  1  0.71139900  0.32862700  0.75381500  1
  S  S29  1  0.40879800  0.31018600  0.25512300  1
  S  S30  1  0.17518700  0.92137300  0.88277200  1
  S  S31  1  0.36826000  0.62317300  0.62128600  1
  S  S32  1  0.38174000  0.50302600  0.75491300  1
  S  S33  1  0.03860100  0.29241600  0.11722800  1
  S  S34  1  0.00188700  0.74697400  0.37871400  1
  S  S35  1  0.90367400  0.30506300  0.24487700  1
  S  S36  1  0.06018600  0.65879800  0.75512300  1
  S  S37  1  0.74811300  0.62682700  0.24508700  1
  S  S38  1  0.69493700  0.93981400  0.59861100  1
  S  S39  1  0.34120200  0.09632600  0.40138900  1
