# generated using pymatgen
data_Sr(SmSe2)2
_symmetry_space_group_name_H-M   'P 1'
_cell_length_a   7.79343771
_cell_length_b   7.79343771
_cell_length_c   7.79343771
_cell_angle_alpha   109.40481743
_cell_angle_beta   109.40481743
_cell_angle_gamma   109.60410883
_symmetry_Int_Tables_number   1
_chemical_formula_structural   Sr(SmSe2)2
_chemical_formula_sum   'Sr2 Sm4 Se8'
_cell_volume   364.38757695
_cell_formula_units_Z   2
loop_
 _symmetry_equiv_pos_site_id
 _symmetry_equiv_pos_as_xyz
  1  'x, y, z'
loop_
 _atom_site_type_symbol
 _atom_site_label
 _atom_site_symmetry_multiplicity
 _atom_site_fract_x
 _atom_site_fract_y
 _atom_site_fract_z
 _atom_site_occupancy
  Sr  Sr0  1  0.00000000  0.00000000  0.00000000  1
  Sr  Sr1  1  0.25000000  0.75000000  0.50000000  1
  Sm  Sm2  1  0.12500000  0.50058900  0.87558900  1
  Sm  Sm3  1  0.49941100  0.37500000  0.62441100  1
  Sm  Sm4  1  0.62500000  0.24941100  0.12441100  1
  Sm  Sm5  1  0.75058900  0.87500000  0.37558900  1
  Se  Se6  1  0.86273900  0.61448900  0.09607500  1
  Se  Se7  1  0.86448900  0.61273900  0.59607500  1
  Se  Se8  1  0.38551100  0.48158700  0.24825100  1
  Se  Se9  1  0.01666400  0.26841300  0.40392500  1
  Se  Se10  1  0.23333600  0.13726100  0.75174900  1
  Se  Se11  1  0.51841300  0.76666400  0.90392500  1
  Se  Se12  1  0.38726100  0.98333600  0.25174900  1
  Se  Se13  1  0.73158700  0.13551100  0.74825100  1
