# generated using pymatgen
data_CsU2F9
_symmetry_space_group_name_H-M   'P 1'
_cell_length_a   7.17245983
_cell_length_b   8.38645342
_cell_length_c   8.72633481
_cell_angle_alpha   115.97330983
_cell_angle_beta   90.00337012
_cell_angle_gamma   114.35800884
_symmetry_Int_Tables_number   1
_chemical_formula_structural   CsU2F9
_chemical_formula_sum   'Cs2 U4 F18'
_cell_volume   419.28879915
_cell_formula_units_Z   2
loop_
 _symmetry_equiv_pos_site_id
 _symmetry_equiv_pos_as_xyz
  1  'x, y, z'
loop_
 _atom_site_type_symbol
 _atom_site_label
 _atom_site_symmetry_multiplicity
 _atom_site_fract_x
 _atom_site_fract_y
 _atom_site_fract_z
 _atom_site_occupancy
  Cs  Cs0  1  0.10782900  0.99179200  0.24494200  1
  Cs  Cs1  1  0.87816100  0.99252900  0.75070800  1
  U  U2  1  0.18464200  0.56305100  0.69993600  1
  U  U3  1  0.37631900  0.56335700  0.20003300  1
  U  U4  1  0.61331500  0.41575000  0.78814100  1
  U  U5  1  0.80427600  0.41711000  0.28891700  1
  F  F6  1  0.02773000  0.67872900  0.57669900  1
  F  F7  1  0.12241500  0.67022300  0.28354400  1
  F  F8  1  0.05570700  0.31218200  0.13233100  1
  F  F9  1  0.26064500  0.63420900  0.98974800  1
  F  F10  1  0.36579100  0.62948500  0.48777600  1
  F  F11  1  0.26174200  0.31119700  0.63054700  1
  F  F12  1  0.33827400  0.32152400  0.92697000  1
  F  F13  1  0.54086600  0.66989300  0.78340300  1
  F  F14  1  0.44300600  0.33292100  0.21938100  1
  F  F15  1  0.64537200  0.67647300  0.07606200  1
  F  F16  1  0.47841200  0.10317100  0.65467600  1
  F  F17  1  0.73330100  0.68827500  0.36609900  1
  F  F18  1  0.64167100  0.38043800  0.51508200  1
  F  F19  1  0.74058200  0.37793200  0.01416600  1
  F  F20  1  0.64149500  0.10461900  0.15631300  1
  F  F21  1  0.94614500  0.68749900  0.86452400  1
  F  F22  1  0.89563400  0.33422400  0.72088100  1
  F  F23  1  0.98587100  0.32181800  0.42852200  1
