# generated using pymatgen
data_Mg10(Fe3O8)3
_symmetry_space_group_name_H-M   'P 1'
_cell_length_a   5.96831300
_cell_length_b   6.10961102
_cell_length_c   14.70439077
_cell_angle_alpha   90.83527386
_cell_angle_beta   90.38924468
_cell_angle_gamma   118.76055502
_symmetry_Int_Tables_number   1
_chemical_formula_structural   Mg10(Fe3O8)3
_chemical_formula_sum   'Mg10 Fe9 O24'
_cell_volume   469.92928055
_cell_formula_units_Z   1
loop_
 _symmetry_equiv_pos_site_id
 _symmetry_equiv_pos_as_xyz
  1  'x, y, z'
loop_
 _atom_site_type_symbol
 _atom_site_label
 _atom_site_symmetry_multiplicity
 _atom_site_fract_x
 _atom_site_fract_y
 _atom_site_fract_z
 _atom_site_occupancy
  Mg  Mg0  1  0.83442200  0.16601700  0.79200900  1
  Mg  Mg1  1  0.66567900  0.33568800  0.95785800  1
  Mg  Mg2  1  0.33390200  0.64993200  0.67250900  1
  Mg  Mg3  1  0.15914200  0.81401200  0.46458100  1
  Mg  Mg4  1  0.99976400  0.99765600  0.62711200  1
  Mg  Mg5  1  0.83366100  0.65844700  0.29086200  1
  Mg  Mg6  1  0.62775700  0.24198600  0.34290500  1
  Mg  Mg7  1  0.33362600  0.66643900  0.29277800  1
  Mg  Mg8  1  0.50872300  0.51780100  0.11742400  1
  Mg  Mg9  1  0.00771700  0.51650100  0.11658700  1
  Fe  Fe10  1  0.99693400  0.99130100  0.00359000  1
  Fe  Fe11  1  0.33432300  0.68423300  0.91361700  1
  Fe  Fe12  1  0.83640600  0.67390100  0.79043200  1
  Fe  Fe13  1  0.65795900  0.33377000  0.58061000  1
  Fe  Fe14  1  0.15942400  0.32683500  0.45494200  1
  Fe  Fe15  1  0.32858700  0.16602300  0.79013700  1
  Fe  Fe16  1  0.04024200  0.08773400  0.23955000  1
  Fe  Fe17  1  0.64686800  0.80791900  0.46496000  1
  Fe  Fe18  1  0.51080900  0.02086000  0.12586100  1
  O  O19  1  0.98371700  0.50211200  0.87046000  1
  O  O20  1  0.50886300  0.49789600  0.86898100  1
  O  O21  1  0.66688000  0.33611000  0.71376900  1
  O  O22  1  0.50269600  0.02516600  0.87031300  1
  O  O23  1  0.31191100  0.15489200  0.53565500  1
  O  O24  1  0.16072900  0.29953500  0.71537300  1
  O  O25  1  0.83755500  0.15288900  0.53611000  1
  O  O26  1  0.15665000  0.84148800  0.71619300  1
  O  O27  1  0.99505200  0.99315700  0.37310600  1
  O  O28  1  0.00073700  0.99709300  0.87075400  1
  O  O29  1  0.83484500  0.67772500  0.54000400  1
  O  O30  1  0.69448800  0.83608400  0.71555900  1
  O  O31  1  0.67759800  0.84908300  0.21102600  1
  O  O32  1  0.46827700  0.92454200  0.38866400  1
  O  O33  1  0.17105500  0.85150700  0.21203600  1
  O  O34  1  0.50209100  0.49486000  0.37438400  1
  O  O35  1  0.34560900  0.69656400  0.04507000  1
  O  O36  1  0.32466800  0.63653400  0.53542800  1
  O  O37  1  0.99813900  0.48889000  0.37316500  1
  O  O38  1  0.20184700  0.40222800  0.19787600  1
  O  O39  1  0.82563600  0.65587100  0.04064000  1
  O  O40  1  0.82415800  0.17489100  0.04577800  1
  O  O41  1  0.67450200  0.34375800  0.20612800  1
  O  O42  1  0.34968500  0.17673500  0.04687100  1
