# generated using pymatgen
data_Ti3Zn2O8
_symmetry_space_group_name_H-M   'P 1'
_cell_length_a   5.92000854
_cell_length_b   5.92000854
_cell_length_c   5.92000918
_cell_angle_alpha   61.04571012
_cell_angle_beta   61.04571012
_cell_angle_gamma   61.04571202
_symmetry_Int_Tables_number   1
_chemical_formula_structural   Ti3Zn2O8
_chemical_formula_sum   'Ti3 Zn2 O8'
_cell_volume   150.16195938
_cell_formula_units_Z   1
loop_
 _symmetry_equiv_pos_site_id
 _symmetry_equiv_pos_as_xyz
  1  'x, y, z'
loop_
 _atom_site_type_symbol
 _atom_site_label
 _atom_site_symmetry_multiplicity
 _atom_site_fract_x
 _atom_site_fract_y
 _atom_site_fract_z
 _atom_site_occupancy
  Ti  Ti0  1  0.50000000  0.00000000  0.00000000  1
  Ti  Ti1  1  0.00000000  0.00000000  0.50000000  1
  Ti  Ti2  1  0.00000000  0.50000000  0.00000000  1
  Zn  Zn3  1  0.61556200  0.61556200  0.61556200  1
  Zn  Zn4  1  0.38443800  0.38443800  0.38443800  1
  O  O5  1  0.25248700  0.78739600  0.25248700  1
  O  O6  1  0.25248700  0.25248700  0.78739600  1
  O  O7  1  0.78739600  0.25248700  0.25248700  1
  O  O8  1  0.24321500  0.24321500  0.24321500  1
  O  O9  1  0.75678500  0.75678500  0.75678500  1
  O  O10  1  0.74751300  0.74751300  0.21260400  1
  O  O11  1  0.21260400  0.74751300  0.74751300  1
  O  O12  1  0.74751300  0.21260400  0.74751300  1
