# generated using pymatgen
data_NaCoP2HO7
_symmetry_space_group_name_H-M   'P 1'
_cell_length_a   6.68402963
_cell_length_b   9.40112451
_cell_length_c   9.21426996
_cell_angle_alpha   89.51104913
_cell_angle_beta   101.25760917
_cell_angle_gamma   70.52886371
_symmetry_Int_Tables_number   1
_chemical_formula_structural   NaCoP2HO7
_chemical_formula_sum   'Na4 Co4 P8 H4 O28'
_cell_volume   533.68518909
_cell_formula_units_Z   4
loop_
 _symmetry_equiv_pos_site_id
 _symmetry_equiv_pos_as_xyz
  1  'x, y, z'
loop_
 _atom_site_type_symbol
 _atom_site_label
 _atom_site_symmetry_multiplicity
 _atom_site_fract_x
 _atom_site_fract_y
 _atom_site_fract_z
 _atom_site_occupancy
  Na  Na0  1  0.75253800  0.17773400  0.94444000  1
  Na  Na1  1  0.75254200  0.67956500  0.44337400  1
  Na  Na2  1  0.24687400  0.81983700  0.05698300  1
  Na  Na3  1  0.24814300  0.31999000  0.55620300  1
  Co  Co4  1  0.11106900  0.96548400  0.68174100  1
  Co  Co5  1  0.88877000  0.03456900  0.32029500  1
  Co  Co6  1  0.10809400  0.46527300  0.17862800  1
  Co  Co7  1  0.88740500  0.53464800  0.81938300  1
  P  P8  1  0.21767700  0.19949600  0.94603800  1
  P  P9  1  0.21734600  0.69933400  0.44576700  1
  P  P10  1  0.78260500  0.80138900  0.05331000  1
  P  P11  1  0.78395100  0.30054500  0.55409200  1
  P  P12  1  0.63736300  0.39355400  0.22668400  1
  P  P13  1  0.63787000  0.89353000  0.72621000  1
  P  P14  1  0.36206200  0.60637500  0.77330900  1
  P  P15  1  0.36394800  0.10557200  0.27367200  1
  H  H16  1  0.30907100  0.37393200  0.82500800  1
  H  H17  1  0.31054000  0.87252100  0.32576900  1
  H  H18  1  0.68804700  0.63118200  0.17283800  1
  H  H19  1  0.68963800  0.13034000  0.67403500  1
  O  O20  1  0.37708200  0.11502600  0.09891800  1
  O  O21  1  0.37682600  0.61520100  0.59917800  1
  O  O22  1  0.62175600  0.88455000  0.90062400  1
  O  O23  1  0.62408600  0.38431600  0.40160400  1
  O  O24  1  0.11059000  0.58930600  0.37541100  1
  O  O25  1  0.10961300  0.09009900  0.87588400  1
  O  O26  1  0.88994600  0.41071100  0.62455400  1
  O  O27  1  0.88796000  0.91212800  0.12326400  1
  O  O28  1  0.75673700  0.23445200  0.18876400  1
  O  O29  1  0.75788200  0.73422300  0.68889300  1
  O  O30  1  0.24124600  0.76501400  0.81121400  1
  O  O31  1  0.24562900  0.26415100  0.31191400  1
  O  O32  1  0.04992300  0.34680500  0.98179900  1
  O  O33  1  0.05018600  0.84627800  0.48123300  1
  O  O34  1  0.95013300  0.65490700  0.01815600  1
  O  O35  1  0.95160500  0.15348500  0.51922600  1
  O  O36  1  0.40484700  0.46957800  0.14551300  1
  O  O37  1  0.40631700  0.96918000  0.64334200  1
  O  O38  1  0.59318900  0.53076000  0.85717300  1
  O  O39  1  0.59573500  0.02845200  0.35618800  1
  O  O40  1  0.36936000  0.23723100  0.85643000  1
  O  O41  1  0.37015800  0.73662700  0.35658200  1
  O  O42  1  0.63072000  0.76283200  0.14354600  1
  O  O43  1  0.63164600  0.26220000  0.64392900  1
  O  O44  1  0.77762700  0.49616500  0.21711800  1
  O  O45  1  0.77901700  0.99577900  0.71842000  1
  O  O46  1  0.22155000  0.50312300  0.78153300  1
  O  O47  1  0.22308100  0.00255200  0.28181100  1
