# generated using pymatgen
data_K2SnH2OF6
_symmetry_space_group_name_H-M   'P 1'
_cell_length_a   9.27133310
_cell_length_b   9.27133310
_cell_length_c   10.61499103
_cell_angle_alpha   68.53906144
_cell_angle_beta   68.53906144
_cell_angle_gamma   94.27708162
_symmetry_Int_Tables_number   1
_chemical_formula_structural   K2SnH2OF6
_chemical_formula_sum   'K8 Sn4 H8 O4 F24'
_cell_volume   767.07580577
_cell_formula_units_Z   4
loop_
 _symmetry_equiv_pos_site_id
 _symmetry_equiv_pos_as_xyz
  1  'x, y, z'
loop_
 _atom_site_type_symbol
 _atom_site_label
 _atom_site_symmetry_multiplicity
 _atom_site_fract_x
 _atom_site_fract_y
 _atom_site_fract_z
 _atom_site_occupancy
  K  K0  1  0.59784000  0.85320000  0.73335300  1
  K  K1  1  0.00438100  0.25530000  0.49850900  1
  K  K2  1  0.74470000  0.99561900  0.00149100  1
  K  K3  1  0.85320000  0.59784000  0.23335300  1
  K  K4  1  0.14680000  0.40216000  0.76664700  1
  K  K5  1  0.25530000  0.00438100  0.99850900  1
  K  K6  1  0.99561900  0.74470000  0.50149100  1
  K  K7  1  0.40216000  0.14680000  0.26664700  1
  Sn  Sn8  1  0.09431000  0.90569000  0.75000000  1
  Sn  Sn9  1  0.34720000  0.65280000  0.25000000  1
  Sn  Sn10  1  0.65280000  0.34720000  0.75000000  1
  Sn  Sn11  1  0.90569000  0.09431000  0.25000000  1
  H  H12  1  0.37609200  0.74152500  0.59782600  1
  H  H13  1  0.25847500  0.62390800  0.90217400  1
  H  H14  1  0.62723200  0.49011700  0.09464400  1
  H  H15  1  0.49011700  0.62723200  0.59464400  1
  H  H16  1  0.50988300  0.37276800  0.40535600  1
  H  H17  1  0.37276800  0.50988300  0.90535600  1
  H  H18  1  0.74152500  0.37609200  0.09782600  1
  H  H19  1  0.62390800  0.25847500  0.40217400  1
  O  O20  1  0.48808800  0.73903900  0.56976500  1
  O  O21  1  0.26096100  0.51191200  0.93023500  1
  O  O22  1  0.73903900  0.48808800  0.06976500  1
  O  O23  1  0.51191200  0.26096100  0.43023500  1
  F  F24  1  0.00245300  0.83461800  0.97211900  1
  F  F25  1  0.30414800  0.90204600  0.76406200  1
  F  F26  1  0.47020500  0.79126800  0.02854500  1
  F  F27  1  0.55299800  0.64790200  0.27007500  1
  F  F28  1  0.13108200  0.10844200  0.22830300  1
  F  F29  1  0.20873200  0.52979500  0.47145500  1
  F  F30  1  0.10844200  0.13108200  0.72830300  1
  F  F31  1  0.35209800  0.44700200  0.22992500  1
  F  F32  1  0.16538200  0.99754700  0.52788100  1
  F  F33  1  0.85639100  0.33552200  0.77532100  1
  F  F34  1  0.09795400  0.69585200  0.73593800  1
  F  F35  1  0.33552200  0.85639100  0.27532100  1
  F  F36  1  0.66447800  0.14360900  0.72467900  1
  F  F37  1  0.90204600  0.30414800  0.26406200  1
  F  F38  1  0.14360900  0.66447800  0.22467900  1
  F  F39  1  0.83461800  0.00245300  0.47211900  1
  F  F40  1  0.64790200  0.55299800  0.77007500  1
  F  F41  1  0.89155800  0.86891800  0.27169700  1
  F  F42  1  0.79126800  0.47020500  0.52854500  1
  F  F43  1  0.86891800  0.89155800  0.77169700  1
  F  F44  1  0.44700200  0.35209800  0.72992500  1
  F  F45  1  0.52979500  0.20873200  0.97145500  1
  F  F46  1  0.69585200  0.09795400  0.23593800  1
  F  F47  1  0.99754700  0.16538200  0.02788100  1
