# generated using pymatgen
data_AlPO4
_symmetry_space_group_name_H-M   'P 1'
_cell_length_a   5.12521560
_cell_length_b   5.12521560
_cell_length_c   7.16700400
_cell_angle_alpha   90.00000000
_cell_angle_beta   90.00000000
_cell_angle_gamma   90.09351479
_symmetry_Int_Tables_number   1
_chemical_formula_structural   AlPO4
_chemical_formula_sum   'Al2 P2 O8'
_cell_volume   188.26142748
_cell_formula_units_Z   2
loop_
 _symmetry_equiv_pos_site_id
 _symmetry_equiv_pos_as_xyz
  1  'x, y, z'
loop_
 _atom_site_type_symbol
 _atom_site_label
 _atom_site_symmetry_multiplicity
 _atom_site_fract_x
 _atom_site_fract_y
 _atom_site_fract_z
 _atom_site_occupancy
  Al  Al0  1  0.20503900  0.20503900  0.50000000  1
  Al  Al1  1  0.79496100  0.79496100  0.00000000  1
  P  P2  1  0.29612400  0.70387600  0.25000000  1
  P  P3  1  0.70387600  0.29612400  0.75000000  1
  O  O4  1  0.25861300  0.42024600  0.31434400  1
  O  O5  1  0.74138700  0.57975400  0.81434400  1
  O  O6  1  0.42024600  0.25861300  0.68565600  1
  O  O7  1  0.57975400  0.74138700  0.18565600  1
  O  O8  1  0.23919000  0.88659900  0.41521800  1
  O  O9  1  0.76081000  0.11340100  0.91521800  1
  O  O10  1  0.88659900  0.23919000  0.58478200  1
  O  O11  1  0.11340100  0.76081000  0.08478200  1
