# generated using pymatgen
data_MnO2
_symmetry_space_group_name_H-M   'P 1'
_cell_length_a   4.45814200
_cell_length_b   5.34160645
_cell_length_c   5.34139469
_cell_angle_alpha   66.84795234
_cell_angle_beta   90.00182353
_cell_angle_gamma   90.00182348
_symmetry_Int_Tables_number   1
_chemical_formula_structural   MnO2
_chemical_formula_sum   'Mn4 O8'
_cell_volume   116.95411963
_cell_formula_units_Z   4
loop_
 _symmetry_equiv_pos_site_id
 _symmetry_equiv_pos_as_xyz
  1  'x, y, z'
loop_
 _atom_site_type_symbol
 _atom_site_label
 _atom_site_symmetry_multiplicity
 _atom_site_fract_x
 _atom_site_fract_y
 _atom_site_fract_z
 _atom_site_occupancy
  Mn  Mn0  1  0.00000000  0.50000000  0.50000000  1
  Mn  Mn1  1  0.50000000  0.50000000  0.00000000  1
  Mn  Mn2  1  0.00000000  0.00000000  0.00000000  1
  Mn  Mn3  1  0.50000000  0.00000000  0.50000000  1
  O  O4  1  0.30597400  0.15298100  0.15297600  1
  O  O5  1  0.30597400  0.65298100  0.65297600  1
  O  O6  1  0.19401900  0.15298400  0.65297900  1
  O  O7  1  0.19401900  0.65298400  0.15297900  1
  O  O8  1  0.69402600  0.34701900  0.34702400  1
  O  O9  1  0.69402600  0.84701900  0.84702400  1
  O  O10  1  0.80598100  0.84701600  0.34702100  1
  O  O11  1  0.80598100  0.34701600  0.84702100  1
