# generated using pymatgen
data_Fe2PH2CO7
_symmetry_space_group_name_H-M   'P 1'
_cell_length_a   4.90288600
_cell_length_b   8.12545100
_cell_length_c   15.82057039
_cell_angle_alpha   64.31888497
_cell_angle_beta   90.00000000
_cell_angle_gamma   90.00000000
_symmetry_Int_Tables_number   1
_chemical_formula_structural   Fe2PH2CO7
_chemical_formula_sum   'Fe8 P4 H8 C4 O28'
_cell_volume   568.00503485
_cell_formula_units_Z   4
loop_
 _symmetry_equiv_pos_site_id
 _symmetry_equiv_pos_as_xyz
  1  'x, y, z'
loop_
 _atom_site_type_symbol
 _atom_site_label
 _atom_site_symmetry_multiplicity
 _atom_site_fract_x
 _atom_site_fract_y
 _atom_site_fract_z
 _atom_site_occupancy
  Fe  Fe0  1  0.45894600  0.93370500  0.35939200  1
  Fe  Fe1  1  0.95894600  0.06629500  0.14060800  1
  Fe  Fe2  1  0.54105400  0.06629500  0.64060800  1
  Fe  Fe3  1  0.04105400  0.93370500  0.85939200  1
  Fe  Fe4  1  0.96741600  0.60656300  0.30403100  1
  Fe  Fe5  1  0.46741600  0.39343700  0.19596900  1
  Fe  Fe6  1  0.03258400  0.39343700  0.69596900  1
  Fe  Fe7  1  0.53258400  0.60656300  0.80403100  1
  P  P8  1  0.52085900  0.80690000  0.19221700  1
  P  P9  1  0.02085900  0.19310000  0.30778300  1
  P  P10  1  0.47914100  0.19310000  0.80778300  1
  P  P11  1  0.97914100  0.80690000  0.69221700  1
  H  H12  1  0.74441200  0.86147000  0.52199700  1
  H  H13  1  0.24441200  0.13853000  0.97800300  1
  H  H14  1  0.25558800  0.13853000  0.47800300  1
  H  H15  1  0.75558800  0.86147000  0.02199700  1
  H  H16  1  0.51199500  0.71313400  0.53245600  1
  H  H17  1  0.01199500  0.28686600  0.96754400  1
  H  H18  1  0.48800500  0.28686600  0.46754400  1
  H  H19  1  0.98800500  0.71313400  0.03245600  1
  C  C20  1  0.88245400  0.43162100  0.50846100  1
  C  C21  1  0.38245400  0.56837900  0.99153900  1
  C  C22  1  0.11754600  0.56837900  0.49153900  1
  C  C23  1  0.61754600  0.43162100  0.00846100  1
  O  O24  1  0.14144500  0.05311400  0.40155200  1
  O  O25  1  0.64144500  0.94688600  0.09844800  1
  O  O26  1  0.85855500  0.94688600  0.59844800  1
  O  O27  1  0.35855500  0.05311400  0.90155200  1
  O  O28  1  0.70600900  0.18554400  0.30423800  1
  O  O29  1  0.20600900  0.81445600  0.19576200  1
  O  O30  1  0.29399100  0.81445600  0.69576200  1
  O  O31  1  0.79399100  0.18554400  0.80423800  1
  O  O32  1  0.64991400  0.79674500  0.48913500  1
  O  O33  1  0.14991400  0.20325500  0.01086500  1
  O  O34  1  0.35008600  0.20325500  0.51086500  1
  O  O35  1  0.85008600  0.79674500  0.98913500  1
  O  O36  1  0.65898100  0.85070800  0.27059100  1
  O  O37  1  0.15898100  0.14929200  0.22940900  1
  O  O38  1  0.34101900  0.14929200  0.72940900  1
  O  O39  1  0.84101900  0.85070800  0.77059100  1
  O  O40  1  0.18308800  0.66837400  0.40625900  1
  O  O41  1  0.68308800  0.33162600  0.09374100  1
  O  O42  1  0.81691200  0.33162600  0.59374100  1
  O  O43  1  0.31691200  0.66837400  0.90625900  1
  O  O44  1  0.62292900  0.60963100  0.21608700  1
  O  O45  1  0.12292900  0.39036900  0.28391300  1
  O  O46  1  0.37707100  0.39036900  0.78391300  1
  O  O47  1  0.87707100  0.60963100  0.71608700  1
  O  O48  1  0.77095900  0.43060100  0.43681400  1
  O  O49  1  0.27095900  0.56939900  0.06318600  1
  O  O50  1  0.22904100  0.56939900  0.56318600  1
  O  O51  1  0.72904100  0.43060100  0.93681400  1
