# generated using pymatgen
data_KNa2FeO3
_symmetry_space_group_name_H-M   'P 1'
_cell_length_a   6.37008000
_cell_length_b   6.62438300
_cell_length_c   10.32274100
_cell_angle_alpha   90.00000000
_cell_angle_beta   90.00000000
_cell_angle_gamma   90.00000000
_symmetry_Int_Tables_number   1
_chemical_formula_structural   KNa2FeO3
_chemical_formula_sum   'K4 Na8 Fe4 O12'
_cell_volume   435.59747280
_cell_formula_units_Z   4
loop_
 _symmetry_equiv_pos_site_id
 _symmetry_equiv_pos_as_xyz
  1  'x, y, z'
loop_
 _atom_site_type_symbol
 _atom_site_label
 _atom_site_symmetry_multiplicity
 _atom_site_fract_x
 _atom_site_fract_y
 _atom_site_fract_z
 _atom_site_occupancy
  K  K0  1  0.75000000  0.16227900  0.52535000  1
  K  K1  1  0.25000000  0.83772100  0.47465000  1
  K  K2  1  0.75000000  0.66227900  0.97465000  1
  K  K3  1  0.25000000  0.33772100  0.02535000  1
  Na  Na4  1  0.50610900  0.50651900  0.26954100  1
  Na  Na5  1  0.00610900  0.49348100  0.73045900  1
  Na  Na6  1  0.99389100  0.00651900  0.23045900  1
  Na  Na7  1  0.49389100  0.99348100  0.76954100  1
  Na  Na8  1  0.49389100  0.49348100  0.73045900  1
  Na  Na9  1  0.99389100  0.50651900  0.26954100  1
  Na  Na10  1  0.00610900  0.99348100  0.76954100  1
  Na  Na11  1  0.50610900  0.00651900  0.23045900  1
  Fe  Fe12  1  0.75000000  0.67000200  0.50755800  1
  Fe  Fe13  1  0.25000000  0.32999800  0.49244200  1
  Fe  Fe14  1  0.75000000  0.17000200  0.99244200  1
  Fe  Fe15  1  0.25000000  0.82999800  0.00755800  1
  O  O16  1  0.75000000  0.33291100  0.14126800  1
  O  O17  1  0.25000000  0.66708900  0.85873200  1
  O  O18  1  0.75000000  0.83291100  0.35873200  1
  O  O19  1  0.25000000  0.16708900  0.64126800  1
  O  O20  1  0.50000000  0.50000000  0.50000000  1
  O  O21  1  0.00000000  0.50000000  0.50000000  1
  O  O22  1  0.00000000  0.00000000  0.00000000  1
  O  O23  1  0.50000000  0.00000000  0.00000000  1
  O  O24  1  0.75000000  0.79359500  0.67112700  1
  O  O25  1  0.25000000  0.20640500  0.32887300  1
  O  O26  1  0.75000000  0.29359500  0.82887300  1
  O  O27  1  0.25000000  0.70640500  0.17112700  1
