# generated using pymatgen
data_Cu2WO4
_symmetry_space_group_name_H-M   'P 1'
_cell_length_a   5.93354000
_cell_length_b   8.11352510
_cell_length_c   8.29737188
_cell_angle_alpha   109.77970345
_cell_angle_beta   95.24075683
_cell_angle_gamma   92.21425802
_symmetry_Int_Tables_number   1
_chemical_formula_structural   Cu2WO4
_chemical_formula_sum   'Cu8 W4 O16'
_cell_volume   373.28046648
_cell_formula_units_Z   4
loop_
 _symmetry_equiv_pos_site_id
 _symmetry_equiv_pos_as_xyz
  1  'x, y, z'
loop_
 _atom_site_type_symbol
 _atom_site_label
 _atom_site_symmetry_multiplicity
 _atom_site_fract_x
 _atom_site_fract_y
 _atom_site_fract_z
 _atom_site_occupancy
  Cu  Cu0  1  0.22428700  0.70870000  0.90294000  1
  Cu  Cu1  1  0.77571300  0.29130000  0.09706000  1
  Cu  Cu2  1  0.12666800  0.35911700  0.55173100  1
  Cu  Cu3  1  0.00000000  0.00000000  0.00000000  1
  Cu  Cu4  1  0.85593600  0.76198500  0.16318100  1
  Cu  Cu5  1  0.87333200  0.64088300  0.44826900  1
  Cu  Cu6  1  0.14406400  0.23801500  0.83681900  1
  Cu  Cu7  1  0.00000000  0.00000000  0.50000000  1
  W  W8  1  0.51337600  0.92718700  0.67770700  1
  W  W9  1  0.65050900  0.35508300  0.72530000  1
  W  W10  1  0.48662400  0.07281300  0.32229300  1
  W  W11  1  0.34949100  0.64491700  0.27470000  1
  O  O12  1  0.28894200  0.82267100  0.75082600  1
  O  O13  1  0.49290700  0.46141400  0.16004100  1
  O  O14  1  0.50709300  0.53858600  0.83995900  1
  O  O15  1  0.56377200  0.82906900  0.21313100  1
  O  O16  1  0.43622800  0.17093100  0.78686900  1
  O  O17  1  0.71105800  0.17732900  0.24917400  1
  O  O18  1  0.85889100  0.45139100  0.62427500  1
  O  O19  1  0.41694000  0.28609200  0.50944200  1
  O  O20  1  0.24043900  0.06685900  0.17328700  1
  O  O21  1  0.75956100  0.93314100  0.82671300  1
  O  O22  1  0.13203100  0.66913000  0.10010200  1
  O  O23  1  0.14110900  0.54860900  0.37572500  1
  O  O24  1  0.70602500  0.07583600  0.54970600  1
  O  O25  1  0.86796900  0.33087000  0.89989800  1
  O  O26  1  0.58306000  0.71390800  0.49055800  1
  O  O27  1  0.29397500  0.92416400  0.45029400  1
