# generated using pymatgen
data_Co3Ag2(P2O7)2
_symmetry_space_group_name_H-M   'P 1'
_cell_length_a   5.40577600
_cell_length_b   6.43835145
_cell_length_c   16.77437159
_cell_angle_alpha   93.91942587
_cell_angle_beta   98.89961103
_cell_angle_gamma   106.98578330
_symmetry_Int_Tables_number   1
_chemical_formula_structural   Co3Ag2(P2O7)2
_chemical_formula_sum   'Co6 Ag4 P8 O28'
_cell_volume   547.63241549
_cell_formula_units_Z   2
loop_
 _symmetry_equiv_pos_site_id
 _symmetry_equiv_pos_as_xyz
  1  'x, y, z'
loop_
 _atom_site_type_symbol
 _atom_site_label
 _atom_site_symmetry_multiplicity
 _atom_site_fract_x
 _atom_site_fract_y
 _atom_site_fract_z
 _atom_site_occupancy
  Co  Co0  1  0.41693500  0.95874100  0.65363000  1
  Co  Co1  1  0.58306500  0.04125900  0.34637000  1
  Co  Co2  1  0.78560600  0.71818800  0.59188800  1
  Co  Co3  1  0.21439400  0.28181200  0.40811200  1
  Co  Co4  1  0.83239000  0.36146800  0.79916100  1
  Co  Co5  1  0.16761000  0.63853200  0.20083900  1
  Ag  Ag6  1  0.09142500  0.73365900  0.97952000  1
  Ag  Ag7  1  0.90857500  0.26634100  0.02048000  1
  Ag  Ag8  1  0.47958500  0.74302300  0.87125500  1
  Ag  Ag9  1  0.52041500  0.25697700  0.12874500  1
  P  P10  1  0.33671700  0.24276100  0.91029700  1
  P  P11  1  0.66328300  0.75723900  0.08970300  1
  P  P12  1  0.96188300  0.89954100  0.77837100  1
  P  P13  1  0.03811700  0.10045900  0.22162900  1
  P  P14  1  0.84335300  0.22068000  0.54267400  1
  P  P15  1  0.15664700  0.77932000  0.45732600  1
  P  P16  1  0.30982000  0.42391100  0.67417000  1
  P  P17  1  0.69018000  0.57608900  0.32583000  1
  O  O18  1  0.17072100  0.39913500  0.89344800  1
  O  O19  1  0.82927900  0.60086500  0.10655200  1
  O  O20  1  0.29115300  0.13771500  0.98833400  1
  O  O21  1  0.70884700  0.86228500  0.01166600  1
  O  O22  1  0.62713000  0.34016600  0.90387700  1
  O  O23  1  0.37287000  0.65983400  0.09612300  1
  O  O24  1  0.23508900  0.04344600  0.83595100  1
  O  O25  1  0.76491100  0.95655400  0.16404900  1
  O  O26  1  0.86441200  0.69336800  0.82031400  1
  O  O27  1  0.13558800  0.30663200  0.17968600  1
  O  O28  1  0.76149300  0.02849900  0.77395400  1
  O  O29  1  0.23850700  0.97150100  0.22604600  1
  O  O30  1  0.05205000  0.86056500  0.69793100  1
  O  O31  1  0.94795000  0.13943500  0.30206900  1
  O  O32  1  0.72586500  0.40478100  0.55326800  1
  O  O33  1  0.27413500  0.59521900  0.44673200  1
  O  O34  1  0.70187700  0.01533600  0.57989500  1
  O  O35  1  0.29812300  0.98466400  0.42010500  1
  O  O36  1  0.86658400  0.16063000  0.45400300  1
  O  O37  1  0.13341600  0.83937000  0.54599700  1
  O  O38  1  0.14942800  0.29688900  0.58634300  1
  O  O39  1  0.85057200  0.70311100  0.41365700  1
  O  O40  1  0.12070100  0.44336300  0.72910100  1
  O  O41  1  0.87929900  0.55663700  0.27089900  1
  O  O42  1  0.48878100  0.28398800  0.70227900  1
  O  O43  1  0.51121900  0.71601200  0.29772100  1
  O  O44  1  0.47600800  0.65069200  0.65626900  1
  O  O45  1  0.52399200  0.34930800  0.34373100  1
