# generated using pymatgen
data_Cs2KCo(CN)6
_symmetry_space_group_name_H-M   'P 1'
_cell_length_a   8.16450700
_cell_length_b   7.74269500
_cell_length_c   13.60981446
_cell_angle_alpha   55.53848624
_cell_angle_beta   90.00000000
_cell_angle_gamma   90.00000000
_symmetry_Int_Tables_number   1
_chemical_formula_structural   Cs2KCo(CN)6
_chemical_formula_sum   'Cs4 K2 Co2 C12 N12'
_cell_volume   709.36276314
_cell_formula_units_Z   2
loop_
 _symmetry_equiv_pos_site_id
 _symmetry_equiv_pos_as_xyz
  1  'x, y, z'
loop_
 _atom_site_type_symbol
 _atom_site_label
 _atom_site_symmetry_multiplicity
 _atom_site_fract_x
 _atom_site_fract_y
 _atom_site_fract_z
 _atom_site_occupancy
  Cs  Cs0  1  0.93475500  0.73064600  0.75027200  1
  Cs  Cs1  1  0.56524500  0.73064600  0.25027200  1
  Cs  Cs2  1  0.43475500  0.26935400  0.74972800  1
  Cs  Cs3  1  0.06524500  0.26935400  0.24972800  1
  K  K4  1  0.50000000  0.50000000  0.00000000  1
  K  K5  1  0.00000000  0.50000000  0.50000000  1
  Co  Co6  1  0.00000000  0.00000000  0.00000000  1
  Co  Co7  1  0.50000000  0.00000000  0.50000000  1
  C  C8  1  0.37651000  0.22991500  0.46984200  1
  C  C9  1  0.47919200  0.09269500  0.33998100  1
  C  C10  1  0.02080800  0.09269500  0.83998100  1
  C  C11  1  0.80718500  0.15858500  0.96214100  1
  C  C12  1  0.87651000  0.77008500  0.03015800  1
  C  C13  1  0.19281500  0.84141500  0.03785900  1
  C  C14  1  0.69281500  0.15858500  0.46214100  1
  C  C15  1  0.52080800  0.90730500  0.66001900  1
  C  C16  1  0.30718500  0.84141500  0.53785900  1
  C  C17  1  0.12349000  0.22991500  0.96984200  1
  C  C18  1  0.62349000  0.77008500  0.53015800  1
  C  C19  1  0.97919200  0.90730500  0.16001900  1
  N  N20  1  0.19962000  0.37581500  0.94942300  1
  N  N21  1  0.68703000  0.25899600  0.93753600  1
  N  N22  1  0.81297000  0.25899600  0.43753600  1
  N  N23  1  0.53648600  0.85054500  0.75997000  1
  N  N24  1  0.18703000  0.74100400  0.56246400  1
  N  N25  1  0.31297000  0.74100400  0.06246400  1
  N  N26  1  0.69962000  0.62418500  0.55057700  1
  N  N27  1  0.46351400  0.14945500  0.24003000  1
  N  N28  1  0.30038000  0.37581500  0.44942300  1
  N  N29  1  0.80038000  0.62418500  0.05057700  1
  N  N30  1  0.96351400  0.85054500  0.25997000  1
  N  N31  1  0.03648600  0.14945500  0.74003000  1
