# generated using pymatgen
data_K2Co3H6S3O16
_symmetry_space_group_name_H-M   'P 1'
_cell_length_a   9.77423171
_cell_length_b   9.77423171
_cell_length_c   9.91399300
_cell_angle_alpha   90.00000000
_cell_angle_beta   90.00000000
_cell_angle_gamma   133.60482791
_symmetry_Int_Tables_number   1
_chemical_formula_structural   K2Co3H6S3O16
_chemical_formula_sum   'K4 Co6 H12 S6 O32'
_cell_volume   685.83660792
_cell_formula_units_Z   2
loop_
 _symmetry_equiv_pos_site_id
 _symmetry_equiv_pos_as_xyz
  1  'x, y, z'
loop_
 _atom_site_type_symbol
 _atom_site_label
 _atom_site_symmetry_multiplicity
 _atom_site_fract_x
 _atom_site_fract_y
 _atom_site_fract_z
 _atom_site_occupancy
  K  K0  1  0.84935200  0.23489200  0.23029200  1
  K  K1  1  0.15064800  0.76510800  0.73029200  1
  K  K2  1  0.76510800  0.15064800  0.73029200  1
  K  K3  1  0.23489200  0.84935200  0.23029200  1
  Co  Co4  1  0.19807900  0.19807900  0.97084300  1
  Co  Co5  1  0.80192100  0.80192100  0.47084300  1
  Co  Co6  1  0.61883100  0.44793300  0.18574600  1
  Co  Co7  1  0.38116900  0.55206700  0.68574600  1
  Co  Co8  1  0.55206700  0.38116900  0.68574600  1
  Co  Co9  1  0.44793300  0.61883100  0.18574600  1
  H  H10  1  0.90067100  0.57076700  0.02104400  1
  H  H11  1  0.09932900  0.42923300  0.52104400  1
  H  H12  1  0.42923300  0.09932900  0.52104400  1
  H  H13  1  0.57076700  0.90067100  0.02104400  1
  H  H14  1  0.90504100  0.73606400  0.02453900  1
  H  H15  1  0.09495900  0.26393600  0.52453900  1
  H  H16  1  0.26393600  0.09495900  0.52453900  1
  H  H17  1  0.73606400  0.90504100  0.02453900  1
  H  H18  1  0.20316000  0.20316000  0.72313300  1
  H  H19  1  0.79684000  0.79684000  0.22313300  1
  H  H20  1  0.52434000  0.52434000  0.97133300  1
  H  H21  1  0.47566000  0.47566000  0.47133300  1
  S  S22  1  0.48097500  0.13126700  0.95636400  1
  S  S23  1  0.51902500  0.86873300  0.45636400  1
  S  S24  1  0.86873300  0.51902500  0.45636400  1
  S  S25  1  0.13126700  0.48097500  0.95636400  1
  S  S26  1  0.81662400  0.81662400  0.79029500  1
  S  S27  1  0.18337600  0.18337600  0.29029500  1
  O  O28  1  0.88430000  0.64019600  0.08106900  1
  O  O29  1  0.11570000  0.35980400  0.58106900  1
  O  O30  1  0.35980400  0.11570000  0.58106900  1
  O  O31  1  0.64019600  0.88430000  0.08106900  1
  O  O32  1  0.31331500  0.31331500  0.77273600  1
  O  O33  1  0.68668500  0.68668500  0.27273600  1
  O  O34  1  0.45092000  0.45092000  0.05151400  1
  O  O35  1  0.54908000  0.54908000  0.55151400  1
  O  O36  1  0.28224000  0.04867200  0.96345800  1
  O  O37  1  0.71776000  0.95132800  0.46345800  1
  O  O38  1  0.95132800  0.71776000  0.46345800  1
  O  O39  1  0.04867200  0.28224000  0.96345800  1
  O  O40  1  0.57932100  0.22756600  0.08704400  1
  O  O41  1  0.42067900  0.77243400  0.58704400  1
  O  O42  1  0.77243400  0.42067900  0.58704400  1
  O  O43  1  0.22756600  0.57932100  0.08704400  1
  O  O44  1  0.47193200  0.97516400  0.93503000  1
  O  O45  1  0.52806800  0.02483600  0.43503000  1
  O  O46  1  0.02483600  0.52806800  0.43503000  1
  O  O47  1  0.97516400  0.47193200  0.93503000  1
  O  O48  1  0.58495000  0.26596000  0.84207800  1
  O  O49  1  0.41505000  0.73404000  0.34207800  1
  O  O50  1  0.73404000  0.41505000  0.34207800  1
  O  O51  1  0.26596000  0.58495000  0.84207800  1
  O  O52  1  0.91992500  0.91992500  0.91889600  1
  O  O53  1  0.08007500  0.08007500  0.41889600  1
  O  O54  1  0.93606200  0.93606200  0.67166600  1
  O  O55  1  0.06393800  0.06393800  0.17166600  1
  O  O56  1  0.63834300  0.77438300  0.79020900  1
  O  O57  1  0.36165700  0.22561700  0.29020900  1
  O  O58  1  0.22561700  0.36165700  0.29020900  1
  O  O59  1  0.77438300  0.63834300  0.79020900  1
