# generated using pymatgen
data_KCuPO4
_symmetry_space_group_name_H-M   'P 1'
_cell_length_a   9.69380800
_cell_length_b   5.08520100
_cell_length_c   8.23467486
_cell_angle_alpha   86.75002559
_cell_angle_beta   90.00000000
_cell_angle_gamma   90.00000000
_symmetry_Int_Tables_number   1
_chemical_formula_structural   KCuPO4
_chemical_formula_sum   'K4 Cu4 P4 O16'
_cell_volume   405.27512984
_cell_formula_units_Z   4
loop_
 _symmetry_equiv_pos_site_id
 _symmetry_equiv_pos_as_xyz
  1  'x, y, z'
loop_
 _atom_site_type_symbol
 _atom_site_label
 _atom_site_symmetry_multiplicity
 _atom_site_fract_x
 _atom_site_fract_y
 _atom_site_fract_z
 _atom_site_occupancy
  K  K0  1  0.22973300  0.22750400  0.74140700  1
  K  K1  1  0.72973300  0.77249600  0.25859300  1
  K  K2  1  0.38692100  0.20041600  0.22221400  1
  K  K3  1  0.88692100  0.79958400  0.77778600  1
  Cu  Cu4  1  0.08951100  0.76818500  0.42581500  1
  Cu  Cu5  1  0.58951100  0.23181500  0.57418500  1
  Cu  Cu6  1  0.99464400  0.36103400  0.09459000  1
  Cu  Cu7  1  0.49464400  0.63896600  0.90541000  1
  P  P8  1  0.40781400  0.74074500  0.54011600  1
  P  P9  1  0.90781400  0.25925500  0.45988400  1
  P  P10  1  0.18941700  0.73122000  0.07051400  1
  P  P11  1  0.68941700  0.26878000  0.92948600  1
  O  O12  1  0.42565500  0.44133600  0.51038600  1
  O  O13  1  0.92565500  0.55866400  0.48961400  1
  O  O14  1  0.38441200  0.77776500  0.72465200  1
  O  O15  1  0.88441200  0.22223500  0.27534800  1
  O  O16  1  0.28033200  0.85482900  0.44869600  1
  O  O17  1  0.78033200  0.14517100  0.55130400  1
  O  O18  1  0.03410400  0.10043600  0.52826500  1
  O  O19  1  0.53410400  0.89956400  0.47173500  1
  O  O20  1  0.34713000  0.68793800  0.07274300  1
  O  O21  1  0.84713000  0.31206200  0.92725700  1
  O  O22  1  0.15317800  0.02297100  0.06345900  1
  O  O23  1  0.65317800  0.97702900  0.93654100  1
  O  O24  1  0.12241900  0.57533300  0.22843600  1
  O  O25  1  0.62241900  0.42466700  0.77156400  1
  O  O26  1  0.11319100  0.57709300  0.93764600  1
  O  O27  1  0.61319100  0.42290700  0.06235400  1
