# generated using pymatgen
data_Fe3O4
_symmetry_space_group_name_H-M   'P 1'
_cell_length_a   6.04535600
_cell_length_b   6.09708100
_cell_length_c   8.57602600
_cell_angle_alpha   90.00000000
_cell_angle_beta   90.00000000
_cell_angle_gamma   90.00000000
_symmetry_Int_Tables_number   1
_chemical_formula_structural   Fe3O4
_chemical_formula_sum   'Fe12 O16'
_cell_volume   316.10395850
_cell_formula_units_Z   4
loop_
 _symmetry_equiv_pos_site_id
 _symmetry_equiv_pos_as_xyz
  1  'x, y, z'
loop_
 _atom_site_type_symbol
 _atom_site_label
 _atom_site_symmetry_multiplicity
 _atom_site_fract_x
 _atom_site_fract_y
 _atom_site_fract_z
 _atom_site_occupancy
  Fe  Fe0  1  0.00000000  0.75000000  0.12720600  1
  Fe  Fe1  1  0.00000000  0.25000000  0.87279400  1
  Fe  Fe2  1  0.50000000  0.75000000  0.37763300  1
  Fe  Fe3  1  0.50000000  0.25000000  0.62236700  1
  Fe  Fe4  1  0.00000000  0.50000000  0.50000000  1
  Fe  Fe5  1  0.50000000  0.50000000  0.00000000  1
  Fe  Fe6  1  0.50000000  0.00000000  0.00000000  1
  Fe  Fe7  1  0.00000000  0.00000000  0.50000000  1
  Fe  Fe8  1  0.74179400  0.25000000  0.24618000  1
  Fe  Fe9  1  0.74179400  0.75000000  0.75382000  1
  Fe  Fe10  1  0.25820600  0.75000000  0.75382000  1
  Fe  Fe11  1  0.25820600  0.25000000  0.24618000  1
  O  O12  1  0.00000000  0.99054500  0.73735400  1
  O  O13  1  0.00000000  0.00945500  0.26264600  1
  O  O14  1  0.00000000  0.49054500  0.26264600  1
  O  O15  1  0.00000000  0.50945500  0.73735400  1
  O  O16  1  0.50000000  0.99049000  0.74582100  1
  O  O17  1  0.50000000  0.00951000  0.25417900  1
  O  O18  1  0.50000000  0.49049000  0.25417900  1
  O  O19  1  0.50000000  0.50951000  0.74582100  1
  O  O20  1  0.77009600  0.25000000  0.49299900  1
  O  O21  1  0.77009600  0.75000000  0.50700100  1
  O  O22  1  0.22990400  0.75000000  0.50700100  1
  O  O23  1  0.22990400  0.25000000  0.49299900  1
  O  O24  1  0.74783100  0.25000000  0.00832500  1
  O  O25  1  0.74783100  0.75000000  0.99167500  1
  O  O26  1  0.25216900  0.75000000  0.99167500  1
  O  O27  1  0.25216900  0.25000000  0.00832500  1
