# generated using pymatgen
data_CsReO4
_symmetry_space_group_name_H-M   'P 1'
_cell_length_a   8.65560795
_cell_length_b   8.65560795
_cell_length_c   8.65560795
_cell_angle_alpha   138.98668248
_cell_angle_beta   138.98668248
_cell_angle_gamma   59.39515908
_symmetry_Int_Tables_number   1
_chemical_formula_structural   CsReO4
_chemical_formula_sum   'Cs2 Re2 O8'
_cell_volume   276.51538577
_cell_formula_units_Z   2
loop_
 _symmetry_equiv_pos_site_id
 _symmetry_equiv_pos_as_xyz
  1  'x, y, z'
loop_
 _atom_site_type_symbol
 _atom_site_label
 _atom_site_symmetry_multiplicity
 _atom_site_fract_x
 _atom_site_fract_y
 _atom_site_fract_z
 _atom_site_occupancy
  Cs  Cs0  1  0.75000000  0.25000000  0.50000000  1
  Cs  Cs1  1  0.00000000  0.00000000  0.00000000  1
  Re  Re2  1  0.50000000  0.50000000  0.00000000  1
  Re  Re3  1  0.25000000  0.75000000  0.50000000  1
  O  O4  1  0.07906700  0.81673500  0.26233200  1
  O  O5  1  0.56673500  0.80440400  0.23766800  1
  O  O6  1  0.56673500  0.32906700  0.76233200  1
  O  O7  1  0.67093300  0.43326500  0.23766800  1
  O  O8  1  0.19559600  0.43326500  0.76233200  1
  O  O9  1  0.18326500  0.44559600  0.26233200  1
  O  O10  1  0.18326500  0.92093300  0.73766800  1
  O  O11  1  0.55440400  0.81673500  0.73766800  1
