# generated using pymatgen
data_UPO5
_symmetry_space_group_name_H-M   'P 1'
_cell_length_a   5.52418300
_cell_length_b   8.91110453
_cell_length_c   9.35239853
_cell_angle_alpha   101.89727753
_cell_angle_beta   103.11591201
_cell_angle_gamma   97.85309828
_symmetry_Int_Tables_number   1
_chemical_formula_structural   UPO5
_chemical_formula_sum   'U4 P4 O20'
_cell_volume   430.54210310
_cell_formula_units_Z   4
loop_
 _symmetry_equiv_pos_site_id
 _symmetry_equiv_pos_as_xyz
  1  'x, y, z'
loop_
 _atom_site_type_symbol
 _atom_site_label
 _atom_site_symmetry_multiplicity
 _atom_site_fract_x
 _atom_site_fract_y
 _atom_site_fract_z
 _atom_site_occupancy
  U  U0  1  0.35290600  0.29718200  0.04869400  1
  U  U1  1  0.64709400  0.70281800  0.95130600  1
  U  U2  1  0.33807400  0.80327500  0.55281200  1
  U  U3  1  0.66192600  0.19672500  0.44718800  1
  P  P4  1  0.09217800  0.51526500  0.76340900  1
  P  P5  1  0.90782200  0.48473500  0.23659100  1
  P  P6  1  0.28031200  0.92181000  0.17849500  1
  P  P7  1  0.71968800  0.07819000  0.82150500  1
  O  O8  1  0.00315700  0.14229000  0.89572300  1
  O  O9  1  0.99684300  0.85771000  0.10427700  1
  O  O10  1  0.97564100  0.37702800  0.62959800  1
  O  O11  1  0.02435900  0.62297200  0.37040200  1
  O  O12  1  0.72330300  0.35555100  0.26969600  1
  O  O13  1  0.27669700  0.64444900  0.73030400  1
  O  O14  1  0.43165000  0.81557300  0.09404700  1
  O  O15  1  0.56835000  0.18442700  0.90595300  1
  O  O16  1  0.42957600  0.30614900  0.49571800  1
  O  O17  1  0.57042400  0.69385100  0.50428200  1
  O  O18  1  0.88298800  0.58751300  0.82475300  1
  O  O19  1  0.11701200  0.41248700  0.17524700  1
  O  O20  1  0.27713800  0.47126700  0.89637800  1
  O  O21  1  0.72286200  0.52873300  0.10362200  1
  O  O22  1  0.88655400  0.08851800  0.38583500  1
  O  O23  1  0.11344600  0.91148200  0.61416500  1
  O  O24  1  0.35611200  0.93096900  0.34979000  1
  O  O25  1  0.64388800  0.06903100  0.65021000  1
  O  O26  1  0.36153400  0.09362500  0.16979700  1
  O  O27  1  0.63846600  0.90637500  0.83020300  1
