# generated using pymatgen
data_K3Pu(PS4)2
_symmetry_space_group_name_H-M   'P 1'
_cell_length_a   17.28054300
_cell_length_b   9.12925800
_cell_length_c   9.62077060
_cell_angle_alpha   89.58398607
_cell_angle_beta   90.00000000
_cell_angle_gamma   90.00000000
_symmetry_Int_Tables_number   1
_chemical_formula_structural   K3Pu(PS4)2
_chemical_formula_sum   'K12 Pu4 P8 S32'
_cell_volume   1517.71867197
_cell_formula_units_Z   4
loop_
 _symmetry_equiv_pos_site_id
 _symmetry_equiv_pos_as_xyz
  1  'x, y, z'
loop_
 _atom_site_type_symbol
 _atom_site_label
 _atom_site_symmetry_multiplicity
 _atom_site_fract_x
 _atom_site_fract_y
 _atom_site_fract_z
 _atom_site_occupancy
  K  K0  1  0.53114500  0.76807000  0.51193900  1
  K  K1  1  0.03114500  0.23193000  0.98806100  1
  K  K2  1  0.46885500  0.23193000  0.48806100  1
  K  K3  1  0.96885500  0.76807000  0.01193900  1
  K  K4  1  0.70808600  0.37773500  0.62766300  1
  K  K5  1  0.20808600  0.62226500  0.87233700  1
  K  K6  1  0.29191400  0.62226500  0.37233700  1
  K  K7  1  0.79191400  0.37773500  0.12766300  1
  K  K8  1  0.78824200  0.88510500  0.63249700  1
  K  K9  1  0.28824200  0.11489500  0.86750300  1
  K  K10  1  0.21175800  0.11489500  0.36750300  1
  K  K11  1  0.71175800  0.88510500  0.13249700  1
  Pu  Pu12  1  0.01187100  0.72051900  0.47534200  1
  Pu  Pu13  1  0.51187100  0.27948100  0.02465800  1
  Pu  Pu14  1  0.98812900  0.27948100  0.52465800  1
  Pu  Pu15  1  0.48812900  0.72051900  0.97534200  1
  P  P16  1  0.90362700  0.02686200  0.28343500  1
  P  P17  1  0.40362700  0.97313800  0.21656500  1
  P  P18  1  0.09637300  0.97313800  0.71656500  1
  P  P19  1  0.59637300  0.02686200  0.78343500  1
  P  P20  1  0.10027600  0.49906400  0.26031900  1
  P  P21  1  0.60027600  0.50093600  0.23968100  1
  P  P22  1  0.89972400  0.50093600  0.73968100  1
  P  P23  1  0.39972400  0.49906400  0.76031900  1
  S  S24  1  0.15206300  0.82905300  0.58686100  1
  S  S25  1  0.65206300  0.17094700  0.91313900  1
  S  S26  1  0.84793700  0.17094700  0.41313900  1
  S  S27  1  0.34793700  0.82905300  0.08686100  1
  S  S28  1  0.87534200  0.81325600  0.33647100  1
  S  S29  1  0.37534200  0.18674400  0.16352900  1
  S  S30  1  0.12465800  0.18674400  0.66352900  1
  S  S31  1  0.62465800  0.81325600  0.83647100  1
  S  S32  1  0.02064600  0.04655800  0.32553000  1
  S  S33  1  0.52064600  0.95344200  0.17447000  1
  S  S34  1  0.97935400  0.95344200  0.67447000  1
  S  S35  1  0.47935400  0.04655800  0.82553000  1
  S  S36  1  0.11989500  0.46629300  0.47128000  1
  S  S37  1  0.61989500  0.53370700  0.02872000  1
  S  S38  1  0.88010500  0.53370700  0.52872000  1
  S  S39  1  0.38010500  0.46629300  0.97128000  1
  S  S40  1  0.10977600  0.72018500  0.23117000  1
  S  S41  1  0.60977600  0.27981500  0.26883000  1
  S  S42  1  0.89022400  0.27981500  0.76883000  1
  S  S43  1  0.39022400  0.72018500  0.73117000  1
  S  S44  1  0.98433800  0.44544300  0.25206100  1
  S  S45  1  0.48433800  0.55455700  0.24793900  1
  S  S46  1  0.01566200  0.55455700  0.74793900  1
  S  S47  1  0.51566200  0.44544300  0.75206100  1
  S  S48  1  0.17525100  0.38511600  0.14114900  1
  S  S49  1  0.67525100  0.61488400  0.35885100  1
  S  S50  1  0.82474900  0.61488400  0.85885100  1
  S  S51  1  0.32474900  0.38511600  0.64114900  1
  S  S52  1  0.87463500  0.06544800  0.08225100  1
  S  S53  1  0.37463500  0.93455200  0.41774900  1
  S  S54  1  0.12536500  0.93455200  0.91774900  1
  S  S55  1  0.62536500  0.06544800  0.58225100  1
