# generated using pymatgen
data_Mn4V4O13
_symmetry_space_group_name_H-M   'P 1'
_cell_length_a   7.03049300
_cell_length_b   7.85935839
_cell_length_c   21.01462473
_cell_angle_alpha   92.30634993
_cell_angle_beta   99.41504027
_cell_angle_gamma   95.93267062
_symmetry_Int_Tables_number   1
_chemical_formula_structural   Mn4V4O13
_chemical_formula_sum   'Mn16 V16 O52'
_cell_volume   1137.45519439
_cell_formula_units_Z   4
loop_
 _symmetry_equiv_pos_site_id
 _symmetry_equiv_pos_as_xyz
  1  'x, y, z'
loop_
 _atom_site_type_symbol
 _atom_site_label
 _atom_site_symmetry_multiplicity
 _atom_site_fract_x
 _atom_site_fract_y
 _atom_site_fract_z
 _atom_site_occupancy
  Mn  Mn0  1  0.87358000  0.64023200  0.95413700  1
  Mn  Mn1  1  0.73345300  0.75402500  0.20261600  1
  Mn  Mn2  1  0.61672800  0.87750200  0.45724000  1
  Mn  Mn3  1  0.38327200  0.12249800  0.54276000  1
  Mn  Mn4  1  0.49904700  0.01439600  0.70454900  1
  Mn  Mn5  1  0.26654700  0.24597500  0.79738400  1
  Mn  Mn6  1  0.35960200  0.12846300  0.95406800  1
  Mn  Mn7  1  0.12642000  0.35976800  0.04586300  1
  Mn  Mn8  1  0.24696200  0.26798500  0.20349900  1
  Mn  Mn9  1  0.01940300  0.50442600  0.29692900  1
  Mn  Mn10  1  0.88501700  0.61040600  0.54809300  1
  Mn  Mn11  1  0.11498300  0.38959400  0.45190700  1
  Mn  Mn12  1  0.98059700  0.49557400  0.70307100  1
  Mn  Mn13  1  0.75303800  0.73201500  0.79650100  1
  Mn  Mn14  1  0.64039800  0.87153700  0.04593200  1
  Mn  Mn15  1  0.50095300  0.98560400  0.29545100  1
  V  V16  1  0.90117600  0.18944300  0.56491700  1
  V  V17  1  0.78509900  0.30601700  0.82612300  1
  V  V18  1  0.64530100  0.45431900  0.06354800  1
  V  V19  1  0.35469900  0.54568100  0.93645200  1
  V  V20  1  0.53733300  0.55964900  0.32546100  1
  V  V21  1  0.21490100  0.69398300  0.17387700  1
  V  V22  1  0.40460600  0.68035900  0.57771900  1
  V  V23  1  0.09882400  0.81055700  0.43508300  1
  V  V24  1  0.27045300  0.83196000  0.81286300  1
  V  V25  1  0.98565700  0.90826100  0.68944800  1
  V  V26  1  0.15973100  0.93312200  0.07600300  1
  V  V27  1  0.84026900  0.06687800  0.92399700  1
  V  V28  1  0.01434300  0.09173900  0.31055200  1
  V  V29  1  0.72954700  0.16804000  0.18713700  1
  V  V30  1  0.59539400  0.31964100  0.42228100  1
  V  V31  1  0.46266700  0.44035100  0.67453900  1
  O  O32  1  0.09126300  0.19413300  0.52150500  1
  O  O33  1  0.77613700  0.50564800  0.86167000  1
  O  O34  1  0.97239800  0.30716400  0.78251100  1
  O  O35  1  0.03941200  0.94724500  0.37387900  1
  O  O36  1  0.57981900  0.64530300  0.97799500  1
  O  O37  1  0.64220400  0.64469700  0.10697500  1
  O  O38  1  0.84434600  0.44237800  0.02594100  1
  O  O39  1  0.96058800  0.05275500  0.62612100  1
  O  O40  1  0.67617500  0.09932500  0.52340800  1
  O  O41  1  0.47123200  0.24366600  0.63654700  1
  O  O42  1  0.56613600  0.21227000  0.78418600  1
  O  O43  1  0.69303700  0.31424200  0.12586700  1
  O  O44  1  0.15565400  0.55762200  0.97405900  1
  O  O45  1  0.35779600  0.35530300  0.89302600  1
  O  O46  1  0.42018100  0.35469700  0.02200500  1
  O  O47  1  0.43386400  0.78773000  0.21581400  1
  O  O48  1  0.72519800  0.56301000  0.28204300  1
  O  O49  1  0.52876800  0.75633400  0.36345300  1
  O  O50  1  0.32382500  0.90067500  0.47659200  1
  O  O51  1  0.59669800  0.67728400  0.53711100  1
  O  O52  1  0.39873600  0.87583200  0.61599500  1
  O  O53  1  0.21005300  0.01315800  0.73205700  1
  O  O54  1  0.47440000  0.81658000  0.77820200  1
  O  O55  1  0.27054700  0.01881000  0.85860800  1
  O  O56  1  0.05883800  0.16250000  0.96540700  1
  O  O57  1  0.14881200  0.13252600  0.11148700  1
  O  O58  1  0.34747500  0.93500000  0.03262000  1
  O  O59  1  0.22386300  0.49435200  0.13833000  1
  O  O60  1  0.02760200  0.69283600  0.21748900  1
  O  O61  1  0.31733000  0.46536300  0.28451500  1
  O  O62  1  0.90873700  0.80586700  0.47849500  1
  O  O63  1  0.11007100  0.61691700  0.39535900  1
  O  O64  1  0.18662100  0.58311700  0.53547600  1
  O  O65  1  0.30696300  0.68575800  0.87413300  1
  O  O66  1  0.78108700  0.93191300  0.72233400  1
  O  O67  1  0.98095800  0.71950600  0.64414700  1
  O  O68  1  0.04293300  0.73148200  0.77025500  1
  O  O69  1  0.85118800  0.86747400  0.88851300  1
  O  O70  1  0.65252500  0.06500000  0.96738000  1
  O  O71  1  0.94116200  0.83750000  0.03459300  1
  O  O72  1  0.95706700  0.26851800  0.22974500  1
  O  O73  1  0.21891300  0.06808700  0.27766600  1
  O  O74  1  0.01904200  0.28049400  0.35585300  1
  O  O75  1  0.81337900  0.41688300  0.46452400  1
  O  O76  1  0.88992900  0.38308300  0.60464100  1
  O  O77  1  0.68267000  0.53463700  0.71548500  1
  O  O78  1  0.52560000  0.18342000  0.22179800  1
  O  O79  1  0.72945300  0.98119000  0.14139200  1
  O  O80  1  0.78994700  0.98684200  0.26794300  1
  O  O81  1  0.60126400  0.12416800  0.38400500  1
  O  O82  1  0.40330200  0.32271600  0.46288900  1
  O  O83  1  0.27480200  0.43699000  0.71795700  1
