# generated using pymatgen
data_Ca13Y6F43
_symmetry_space_group_name_H-M   'P 1'
_cell_length_a   10.38899321
_cell_length_b   10.38899321
_cell_length_c   10.38899375
_cell_angle_alpha   110.64248800
_cell_angle_beta   110.64248800
_cell_angle_gamma   110.64248522
_symmetry_Int_Tables_number   1
_chemical_formula_structural   Ca13Y6F43
_chemical_formula_sum   'Ca13 Y6 F43'
_cell_volume   823.62139328
_cell_formula_units_Z   1
loop_
 _symmetry_equiv_pos_site_id
 _symmetry_equiv_pos_as_xyz
  1  'x, y, z'
loop_
 _atom_site_type_symbol
 _atom_site_label
 _atom_site_symmetry_multiplicity
 _atom_site_fract_x
 _atom_site_fract_y
 _atom_site_fract_z
 _atom_site_occupancy
  Ca  Ca0  1  0.56768300  0.08293500  0.87376000  1
  Ca  Ca1  1  0.93003000  0.13688900  0.44446000  1
  Ca  Ca2  1  0.66355900  0.23811100  0.60742600  1
  Ca  Ca3  1  0.39935400  0.34165300  0.76460500  1
  Ca  Ca4  1  0.76460500  0.39935400  0.34165300  1
  Ca  Ca5  1  0.13688900  0.44446000  0.93003000  1
  Ca  Ca6  1  0.53628900  0.53628900  0.53628900  1
  Ca  Ca7  1  0.87376000  0.56768300  0.08293500  1
  Ca  Ca8  1  0.23811100  0.60742600  0.66355900  1
  Ca  Ca9  1  0.60742600  0.66355900  0.23811100  1
  Ca  Ca10  1  0.34165300  0.76460500  0.39935400  1
  Ca  Ca11  1  0.08293500  0.87376000  0.56768300  1
  Ca  Ca12  1  0.44446000  0.93003000  0.13688900  1
  Y  Y13  1  0.19766500  0.03668400  0.30926600  1
  Y  Y14  1  0.96799800  0.69876400  0.80922100  1
  Y  Y15  1  0.30926600  0.19766500  0.03668400  1
  Y  Y16  1  0.69876400  0.80922100  0.96799800  1
  Y  Y17  1  0.03668400  0.30926600  0.19766500  1
  Y  Y18  1  0.80922100  0.96799800  0.69876400  1
  F  F19  1  0.89040000  0.19264000  0.92323800  1
  F  F20  1  0.59627800  0.01602700  0.64284700  1
  F  F21  1  0.87633800  0.18719400  0.65932900  1
  F  F22  1  0.35006300  0.12665300  0.81440100  1
  F  F23  1  0.79937700  0.07797000  0.09461100  1
  F  F24  1  0.69892200  0.16566300  0.37737600  1
  F  F25  1  0.62504800  0.30664400  0.83123000  1
  F  F26  1  0.07797000  0.09461100  0.79937700  1
  F  F27  1  0.16083100  0.09261900  0.53157900  1
  F  F28  1  0.91232400  0.47801800  0.84882700  1
  F  F29  1  0.98709000  0.37217700  0.41110800  1
  F  F30  1  0.43807600  0.28369700  0.53970000  1
  F  F31  1  0.36336300  0.12767600  0.22341300  1
  F  F32  1  0.37217700  0.41110800  0.98709000  1
  F  F33  1  0.53157900  0.16083100  0.09261900  1
  F  F34  1  0.73381600  0.45069300  0.56366100  1
  F  F35  1  0.81440100  0.35006300  0.12665300  1
  F  F36  1  0.12767600  0.22341300  0.36336300  1
  F  F37  1  0.16566300  0.37737600  0.69892200  1
  F  F38  1  0.73988800  0.62021600  0.82042100  1
  F  F39  1  0.53970000  0.43807600  0.28369700  1
  F  F40  1  0.45069300  0.56366100  0.73381500  1
  F  F41  1  0.22341300  0.36336300  0.12767600  1
  F  F42  1  0.83123000  0.62504800  0.30664400  1
  F  F43  1  0.82042100  0.73988800  0.62021600  1
  F  F44  1  0.18719400  0.65932900  0.87633800  1
  F  F45  1  0.91750600  0.91750600  0.91750600  1
  F  F46  1  0.28369700  0.53970000  0.43807600  1
  F  F47  1  0.47801800  0.84882700  0.91232400  1
  F  F48  1  0.64284700  0.59627800  0.01602700  1
  F  F49  1  0.62021600  0.82042100  0.73988800  1
  F  F50  1  0.56366100  0.73381500  0.45069300  1
  F  F51  1  0.01602700  0.64284700  0.59627800  1
  F  F52  1  0.09261900  0.53157900  0.16083100  1
  F  F53  1  0.84882700  0.91232400  0.47801800  1
  F  F54  1  0.92323800  0.89040000  0.19264000  1
  F  F55  1  0.37737600  0.69892200  0.16566300  1
  F  F56  1  0.30664400  0.83123000  0.62504800  1
  F  F57  1  0.19264000  0.92323800  0.89040000  1
  F  F58  1  0.65932900  0.87633800  0.18719400  1
  F  F59  1  0.12665300  0.81440100  0.35006300  1
  F  F60  1  0.41110800  0.98709000  0.37217700  1
  F  F61  1  0.09461100  0.79937700  0.07797000  1
