data_image0
_chemical_formula_structural       Fe4Ge4
_chemical_formula_sum              "Fe4 Ge4"
_cell_length_a       4.66185
_cell_length_b       4.66185
_cell_length_c       4.66185
_cell_angle_alpha    90
_cell_angle_beta     90
_cell_angle_gamma    90

_space_group_name_H-M_alt    "P 1"
_space_group_IT_number       1

loop_
  _space_group_symop_operation_xyz
  'x, y, z'

loop_
  _atom_site_type_symbol
  _atom_site_label
  _atom_site_symmetry_multiplicity
  _atom_site_fract_x
  _atom_site_fract_y
  _atom_site_fract_z
  _atom_site_occupancy
  Fe  Fe1       1.0  0.13500  0.13500  0.13500  1.0000
  Fe  Fe2       1.0  0.86500  0.63500  0.36500  1.0000
  Fe  Fe3       1.0  0.36500  0.86500  0.63500  1.0000
  Fe  Fe4       1.0  0.63500  0.36500  0.86500  1.0000
  Ge  Ge1       1.0  0.34200  0.65800  0.15800  1.0000
  Ge  Ge2       1.0  0.65800  0.15800  0.34200  1.0000
  Ge  Ge3       1.0  0.15800  0.34200  0.65800  1.0000
  Ge  Ge4       1.0  0.84200  0.84200  0.84200  1.0000
