# generated using pymatgen
data_Nd12Zr12O37
_symmetry_space_group_name_H-M   'P 1'
_cell_length_a   7.56181500
_cell_length_b   7.59590008
_cell_length_c   18.65688462
_cell_angle_alpha   90.36555708
_cell_angle_beta   89.91642200
_cell_angle_gamma   119.71175384
_symmetry_Int_Tables_number   1
_chemical_formula_structural   Nd12Zr12O37
_chemical_formula_sum   'Nd12 Zr12 O37'
_cell_volume   930.72095918
_cell_formula_units_Z   1
loop_
 _symmetry_equiv_pos_site_id
 _symmetry_equiv_pos_as_xyz
  1  'x, y, z'
loop_
 _atom_site_type_symbol
 _atom_site_label
 _atom_site_symmetry_multiplicity
 _atom_site_fract_x
 _atom_site_fract_y
 _atom_site_fract_z
 _atom_site_occupancy
  Nd  Nd0  1  0.99679000  0.00324200  0.00424800  1
  Nd  Nd1  1  0.51025200  0.50446300  0.99427800  1
  Nd  Nd2  1  0.16310000  0.32233600  0.83438900  1
  Nd  Nd3  1  0.99428000  0.48886700  0.00479800  1
  Nd  Nd4  1  0.33213300  0.66557000  0.66480700  1
  Nd  Nd5  1  0.83195000  0.16997400  0.66782700  1
  Nd  Nd6  1  0.49164600  0.98138700  0.49962600  1
  Nd  Nd7  1  0.33228900  0.17043900  0.66666200  1
  Nd  Nd8  1  0.67370400  0.33111500  0.32480300  1
  Nd  Nd9  1  0.84844600  0.67969700  0.16758900  1
  Nd  Nd10  1  0.16189500  0.82176600  0.33745900  1
  Nd  Nd11  1  0.66935900  0.84003300  0.33170200  1
  Zr  Zr12  1  0.64776600  0.30046400  0.83466200  1
  Zr  Zr13  1  0.82869200  0.66146100  0.66348900  1
  Zr  Zr14  1  0.17268000  0.84036700  0.83045200  1
  Zr  Zr15  1  0.66326300  0.84272000  0.83823000  1
  Zr  Zr16  1  0.99129400  0.98189800  0.49788400  1
  Zr  Zr17  1  0.16909700  0.33603800  0.33256100  1
  Zr  Zr18  1  0.50067200  0.49884700  0.50030500  1
  Zr  Zr19  1  0.99868000  0.50051900  0.50278500  1
  Zr  Zr20  1  0.33149900  0.65899100  0.16949300  1
  Zr  Zr21  1  0.51217800  0.00293900  0.99318200  1
  Zr  Zr22  1  0.85231200  0.17248300  0.16847600  1
  Zr  Zr23  1  0.33053100  0.16493700  0.16161700  1
  O  O24  1  0.16804600  0.33220600  0.95948600  1
  O  O25  1  0.66595900  0.84945400  0.95601800  1
  O  O26  1  0.46898800  0.96058200  0.87581400  1
  O  O27  1  0.49907900  0.00095400  0.62451900  1
  O  O28  1  0.34952500  0.15780100  0.79518500  1
  O  O29  1  0.65825400  0.30816700  0.94787400  1
  O  O30  1  0.70603100  0.38911000  0.72467300  1
  O  O31  1  0.98445200  0.52185400  0.61469600  1
  O  O32  1  0.99167800  0.53963100  0.86073500  1
  O  O33  1  0.12765100  0.80971100  0.46901600  1
  O  O34  1  0.53564800  0.53309500  0.85913500  1
  O  O35  1  0.11743900  0.80308800  0.72211400  1
  O  O36  1  0.53674000  0.52004800  0.61561500  1
  O  O37  1  0.83302100  0.66942900  0.29215100  1
  O  O38  1  0.68499700  0.80890000  0.46290600  1
  O  O39  1  0.69732800  0.81106600  0.72670900  1
  O  O40  1  0.97865500  0.95584900  0.61112700  1
  O  O41  1  0.97623200  0.95236700  0.86087100  1
  O  O42  1  0.01608800  0.03481300  0.13272000  1
  O  O43  1  0.04108000  0.05646800  0.38502300  1
  O  O44  1  0.31991500  0.19575800  0.52173400  1
  O  O45  1  0.87496300  0.19390100  0.51996200  1
  O  O46  1  0.16328900  0.33855900  0.70938800  1
  O  O47  1  0.87366000  0.18324500  0.28037500  1
  O  O48  1  0.44793000  0.44089400  0.38731300  1
  O  O49  1  0.01933100  0.48160100  0.14164800  1
  O  O50  1  0.31341500  0.62949000  0.28626600  1
  O  O51  1  0.00027300  0.46168600  0.38924800  1
  O  O52  1  0.31477300  0.62390500  0.52942000  1
  O  O53  1  0.35287000  0.73348300  0.05666800  1
  O  O54  1  0.63727900  0.85186300  0.19203700  1
  O  O55  1  0.50146500  0.01302800  0.37511200  1
  O  O56  1  0.77923700  0.14877400  0.05608300  1
  O  O57  1  0.22214600  0.87455800  0.20367600  1
  O  O58  1  0.36531400  0.14678200  0.05251100  1
  O  O59  1  0.62880600  0.28189900  0.19691500  1
  O  O60  1  0.83873600  0.66622800  0.04413400  1
