# generated using pymatgen
data_Zn(FeO2)2
_symmetry_space_group_name_H-M   'P 1'
_cell_length_a   6.04049688
_cell_length_b   6.04049684
_cell_length_c   24.16479908
_cell_angle_alpha   60.00385745
_cell_angle_beta   60.00385778
_cell_angle_gamma   59.99999665
_symmetry_Int_Tables_number   1
_chemical_formula_structural   Zn(FeO2)2
_chemical_formula_sum   'Zn8 Fe16 O32'
_cell_volume   623.50339902
_cell_formula_units_Z   8
loop_
 _symmetry_equiv_pos_site_id
 _symmetry_equiv_pos_as_xyz
  1  'x, y, z'
loop_
 _atom_site_type_symbol
 _atom_site_label
 _atom_site_symmetry_multiplicity
 _atom_site_fract_x
 _atom_site_fract_y
 _atom_site_fract_z
 _atom_site_occupancy
  Zn  Zn0  1  0.00458600  0.00458600  0.99656000  1
  Zn  Zn1  1  0.00317900  0.00317900  0.24761500  1
  Zn  Zn2  1  0.62654900  0.62654900  0.03008800  1
  Zn  Zn3  1  0.99948800  0.99948800  0.50038400  1
  Zn  Zn4  1  0.99945600  0.99945600  0.75040800  1
  Zn  Zn5  1  0.62733900  0.62733900  0.27949600  1
  Zn  Zn6  1  0.24983100  0.24983100  0.56262700  1
  Zn  Zn7  1  0.24687100  0.24687100  0.81484700  1
  Fe  Fe8  1  0.24709100  0.24709100  0.06468200  1
  Fe  Fe9  1  0.12076500  0.62641000  0.15660400  1
  Fe  Fe10  1  0.62641000  0.12076500  0.15660400  1
  Fe  Fe11  1  0.24748600  0.24748600  0.31438600  1
  Fe  Fe12  1  0.62641000  0.62641000  0.15660400  1
  Fe  Fe13  1  0.12215000  0.62613200  0.40639700  1
  Fe  Fe14  1  0.62613200  0.12215000  0.40639700  1
  Fe  Fe15  1  0.62613200  0.62613200  0.40639700  1
  Fe  Fe16  1  0.12360600  0.62425900  0.65696900  1
  Fe  Fe17  1  0.62425900  0.12360600  0.65696900  1
  Fe  Fe18  1  0.62350600  0.62350600  0.53237100  1
  Fe  Fe19  1  0.62425900  0.62425900  0.65696900  1
  Fe  Fe20  1  0.12083600  0.62584000  0.90687100  1
  Fe  Fe21  1  0.62353800  0.62353800  0.78234700  1
  Fe  Fe22  1  0.62584000  0.12083600  0.90687100  1
  Fe  Fe23  1  0.62584000  0.62584000  0.90687100  1
  O  O24  1  0.37698500  0.37698500  0.09782300  1
  O  O25  1  0.38276200  0.38276200  0.21292900  1
  O  O26  1  0.37698500  0.85473900  0.09782300  1
  O  O27  1  0.85473900  0.37698500  0.09782300  1
  O  O28  1  0.40389100  0.86983000  0.21411200  1
  O  O29  1  0.37194300  0.37194300  0.34883400  1
  O  O30  1  0.86983000  0.40389100  0.21411200  1
  O  O31  1  0.38838800  0.38838800  0.45870900  1
  O  O32  1  0.37194300  0.86077800  0.34883400  1
  O  O33  1  0.86624300  0.86624300  0.10031800  1
  O  O34  1  0.86983000  0.86983000  0.21411200  1
  O  O35  1  0.86077800  0.37194300  0.34883400  1
  O  O36  1  0.40739400  0.86430700  0.46599800  1
  O  O37  1  0.38596100  0.38596100  0.59570000  1
  O  O38  1  0.86430700  0.40739400  0.46599800  1
  O  O39  1  0.38503400  0.38503400  0.71122500  1
  O  O40  1  0.38596100  0.84527600  0.59570000  1
  O  O41  1  0.86538900  0.86538900  0.35095800  1
  O  O42  1  0.84527600  0.38596100  0.59570000  1
  O  O43  1  0.86430700  0.86430700  0.46599800  1
  O  O44  1  0.40601300  0.86527600  0.71585900  1
  O  O45  1  0.38670300  0.38670300  0.84624100  1
  O  O46  1  0.86527600  0.40601300  0.71585900  1
  O  O47  1  0.37961300  0.37961300  0.96529000  1
  O  O48  1  0.38670300  0.84163200  0.84624100  1
  O  O49  1  0.86500400  0.86500400  0.60124700  1
  O  O50  1  0.84163200  0.38670300  0.84624100  1
  O  O51  1  0.86527600  0.86527600  0.71585900  1
  O  O52  1  0.40480000  0.87199900  0.96280000  1
  O  O53  1  0.87199900  0.40480000  0.96280000  1
  O  O54  1  0.86548200  0.86548200  0.85088800  1
  O  O55  1  0.87199900  0.87199900  0.96280000  1
