# generated using pymatgen
data_CsCo(CO)4
_symmetry_space_group_name_H-M   'P 1'
_cell_length_a   6.69372011
_cell_length_b   6.69372011
_cell_length_c   6.69372011
_cell_angle_alpha   99.62559607
_cell_angle_beta   99.62559607
_cell_angle_gamma   131.72695816
_symmetry_Int_Tables_number   1
_chemical_formula_structural   CsCo(CO)4
_chemical_formula_sum   'Cs1 Co1 C4 O4'
_cell_volume   204.26720838
_cell_formula_units_Z   1
loop_
 _symmetry_equiv_pos_site_id
 _symmetry_equiv_pos_as_xyz
  1  'x, y, z'
loop_
 _atom_site_type_symbol
 _atom_site_label
 _atom_site_symmetry_multiplicity
 _atom_site_fract_x
 _atom_site_fract_y
 _atom_site_fract_z
 _atom_site_occupancy
  Cs  Cs0  1  0.00000000  0.00000000  0.00000000  1
  Co  Co1  1  0.25000000  0.75000000  0.50000000  1
  C  C2  1  0.21031500  0.60923000  0.70340600  1
  C  C3  1  0.49309100  0.78968500  0.39891500  1
  C  C4  1  0.90582500  0.50690900  0.29659400  1
  C  C5  1  0.39077000  0.09417500  0.60108500  1
  O  O6  1  0.65991200  0.82145200  0.33103800  1
  O  O7  1  0.17854800  0.50958700  0.83846100  1
  O  O8  1  0.67112600  0.34008800  0.16153900  1
  O  O9  1  0.49041300  0.32887400  0.66896200  1
