# generated using pymatgen
data_Nb4As3
_symmetry_space_group_name_H-M   'P 1'
_cell_length_a   7.60640978
_cell_length_b   7.60640978
_cell_length_c   18.99305000
_cell_angle_alpha   90.00000000
_cell_angle_beta   90.00000000
_cell_angle_gamma   153.06971588
_symmetry_Int_Tables_number   1
_chemical_formula_structural   Nb4As3
_chemical_formula_sum   'Nb16 As12'
_cell_volume   497.69380427
_cell_formula_units_Z   4
loop_
 _symmetry_equiv_pos_site_id
 _symmetry_equiv_pos_as_xyz
  1  'x, y, z'
loop_
 _atom_site_type_symbol
 _atom_site_label
 _atom_site_symmetry_multiplicity
 _atom_site_fract_x
 _atom_site_fract_y
 _atom_site_fract_z
 _atom_site_occupancy
  Nb  Nb0  1  0.73773600  0.26226400  0.16187300  1
  Nb  Nb1  1  0.26226400  0.73773600  0.83812700  1
  Nb  Nb2  1  0.26226400  0.73773600  0.66187300  1
  Nb  Nb3  1  0.73773600  0.26226400  0.33812700  1
  Nb  Nb4  1  0.53386700  0.46613300  0.11965100  1
  Nb  Nb5  1  0.46613300  0.53386700  0.88034900  1
  Nb  Nb6  1  0.46613300  0.53386700  0.61965100  1
  Nb  Nb7  1  0.53386700  0.46613300  0.38034900  1
  Nb  Nb8  1  0.66835300  0.33164700  0.97125900  1
  Nb  Nb9  1  0.33164700  0.66835300  0.02874100  1
  Nb  Nb10  1  0.33164700  0.66835300  0.47125900  1
  Nb  Nb11  1  0.66835300  0.33164700  0.52874100  1
  Nb  Nb12  1  0.00000000  0.00000000  0.00000000  1
  Nb  Nb13  1  0.00000000  0.00000000  0.50000000  1
  Nb  Nb14  1  0.05332800  0.94667200  0.75000000  1
  Nb  Nb15  1  0.94667200  0.05332800  0.25000000  1
  As  As16  1  0.90185400  0.09814600  0.11811200  1
  As  As17  1  0.09814600  0.90185400  0.88188800  1
  As  As18  1  0.09814600  0.90185400  0.61811200  1
  As  As19  1  0.90185400  0.09814600  0.38188800  1
  As  As20  1  0.84206200  0.15793800  0.92259700  1
  As  As21  1  0.15793800  0.84206200  0.07740300  1
  As  As22  1  0.15793800  0.84206200  0.42259700  1
  As  As23  1  0.84206200  0.15793800  0.57740300  1
  As  As24  1  0.69184100  0.30815900  0.75000000  1
  As  As25  1  0.30815900  0.69184100  0.25000000  1
  As  As26  1  0.41287200  0.58712800  0.75000000  1
  As  As27  1  0.58712800  0.41287200  0.25000000  1
