# generated using pymatgen
data_K3IO5
_symmetry_space_group_name_H-M   'P 1'
_cell_length_a   6.31764700
_cell_length_b   6.31764700
_cell_length_c   16.86444700
_cell_angle_alpha   90.00000000
_cell_angle_beta   90.00000000
_cell_angle_gamma   90.00000000
_symmetry_Int_Tables_number   1
_chemical_formula_structural   K3IO5
_chemical_formula_sum   'K12 I4 O20'
_cell_volume   673.10500019
_cell_formula_units_Z   4
loop_
 _symmetry_equiv_pos_site_id
 _symmetry_equiv_pos_as_xyz
  1  'x, y, z'
loop_
 _atom_site_type_symbol
 _atom_site_label
 _atom_site_symmetry_multiplicity
 _atom_site_fract_x
 _atom_site_fract_y
 _atom_site_fract_z
 _atom_site_occupancy
  K  K0  1  0.50000000  0.00000000  0.38810200  1
  K  K1  1  0.00000000  0.50000000  0.11189800  1
  K  K2  1  0.00000000  0.50000000  0.61189800  1
  K  K3  1  0.50000000  0.00000000  0.88810200  1
  K  K4  1  0.50000000  0.50000000  0.00000000  1
  K  K5  1  0.00000000  0.00000000  0.00000000  1
  K  K6  1  0.00000000  0.00000000  0.50000000  1
  K  K7  1  0.50000000  0.50000000  0.50000000  1
  K  K8  1  0.50000000  0.50000000  0.25000000  1
  K  K9  1  0.00000000  0.00000000  0.25000000  1
  K  K10  1  0.00000000  0.00000000  0.75000000  1
  K  K11  1  0.50000000  0.50000000  0.75000000  1
  I  I12  1  0.50000000  0.00000000  0.12846800  1
  I  I13  1  0.00000000  0.50000000  0.37153200  1
  I  I14  1  0.00000000  0.50000000  0.87153200  1
  I  I15  1  0.50000000  0.00000000  0.62846800  1
  O  O16  1  0.50000000  0.00000000  0.23689500  1
  O  O17  1  0.00000000  0.50000000  0.26310500  1
  O  O18  1  0.00000000  0.50000000  0.76310500  1
  O  O19  1  0.50000000  0.00000000  0.73689500  1
  O  O20  1  0.69388200  0.21659600  0.10610000  1
  O  O21  1  0.28340400  0.19388200  0.10610000  1
  O  O22  1  0.71659600  0.80611800  0.10610000  1
  O  O23  1  0.19388200  0.28340400  0.39390000  1
  O  O24  1  0.80611800  0.71659600  0.39390000  1
  O  O25  1  0.30611800  0.78340400  0.10610000  1
  O  O26  1  0.21659600  0.69388200  0.39390000  1
  O  O27  1  0.78340400  0.30611800  0.39390000  1
  O  O28  1  0.80611800  0.28340400  0.89390000  1
  O  O29  1  0.21659600  0.30611800  0.89390000  1
  O  O30  1  0.78340400  0.69388200  0.89390000  1
  O  O31  1  0.30611800  0.21659600  0.60610000  1
  O  O32  1  0.69388200  0.78340400  0.60610000  1
  O  O33  1  0.19388200  0.71659600  0.89390000  1
  O  O34  1  0.28340400  0.80611800  0.60610000  1
  O  O35  1  0.71659600  0.19388200  0.60610000  1
