# generated using pymatgen
data_La14Mn15O48
_symmetry_space_group_name_H-M   'P 1'
_cell_length_a   5.47494100
_cell_length_b   9.57937959
_cell_length_c   18.31836536
_cell_angle_alpha   94.33902289
_cell_angle_beta   98.17791187
_cell_angle_gamma   90.81562419
_symmetry_Int_Tables_number   1
_chemical_formula_structural   La14Mn15O48
_chemical_formula_sum   'La14 Mn15 O48'
_cell_volume   947.93548634
_cell_formula_units_Z   1
loop_
 _symmetry_equiv_pos_site_id
 _symmetry_equiv_pos_as_xyz
  1  'x, y, z'
loop_
 _atom_site_type_symbol
 _atom_site_label
 _atom_site_symmetry_multiplicity
 _atom_site_fract_x
 _atom_site_fract_y
 _atom_site_fract_z
 _atom_site_occupancy
  La  La0  1  0.53185600  0.85667400  0.05975700  1
  La  La1  1  0.03075800  0.32953400  0.06047700  1
  La  La2  1  0.66387600  0.21372200  0.31379600  1
  La  La3  1  0.59608000  0.54172500  0.19373800  1
  La  La4  1  0.28156500  0.10385600  0.56760200  1
  La  La5  1  0.09487100  0.02114200  0.18262500  1
  La  La6  1  0.22402300  0.41298900  0.43810700  1
  La  La7  1  0.90512900  0.97885800  0.81737500  1
  La  La8  1  0.77597700  0.58701100  0.56189300  1
  La  La9  1  0.71843500  0.89614400  0.43239800  1
  La  La10  1  0.40392000  0.45827500  0.80626200  1
  La  La11  1  0.33612400  0.78627800  0.68620400  1
  La  La12  1  0.96924200  0.67046600  0.93952300  1
  La  La13  1  0.46814400  0.14332600  0.94024300  1
  Mn  Mn14  1  0.50000000  0.50000000  0.00000000  1
  Mn  Mn15  1  0.12452800  0.37821700  0.25069000  1
  Mn  Mn16  1  0.06651100  0.68374400  0.12585200  1
  Mn  Mn17  1  0.74922500  0.24958400  0.50134000  1
  Mn  Mn18  1  0.62690900  0.87029500  0.25178700  1
  Mn  Mn19  1  0.69004600  0.56531000  0.37352900  1
  Mn  Mn20  1  0.56453000  0.18861200  0.12743800  1
  Mn  Mn21  1  0.37309100  0.12970500  0.74821300  1
  Mn  Mn22  1  0.25077500  0.75041600  0.49866000  1
  Mn  Mn23  1  0.18796100  0.05849500  0.37405100  1
  Mn  Mn24  1  0.87547200  0.62178300  0.74931000  1
  Mn  Mn25  1  0.81203900  0.94150500  0.62594900  1
  Mn  Mn26  1  0.30995400  0.43469000  0.62647100  1
  Mn  Mn27  1  0.43547000  0.81138800  0.87256200  1
  Mn  Mn28  1  0.93348900  0.31625600  0.87414800  1
  O  O29  1  0.32735400  0.58223900  0.07770100  1
  O  O30  1  0.33269400  0.80793400  0.17864400  1
  O  O31  1  0.10339700  0.54004700  0.19668100  1
  O  O32  1  0.03079400  0.81285800  0.05435000  1
  O  O33  1  0.80586500  0.09955100  0.08106700  1
  O  O34  1  0.93387900  0.44390800  0.32530500  1
  O  O35  1  0.81449400  0.55770300  0.06081400  1
  O  O36  1  0.80523400  0.31614300  0.19042500  1
  O  O37  1  0.81037700  0.78713400  0.17080300  1
  O  O38  1  0.73135700  0.42051300  0.44818600  1
  O  O39  1  0.60136900  0.05364700  0.20029200  1
  O  O40  1  0.52045800  0.32053400  0.04668800  1
  O  O41  1  0.44760200  0.97535100  0.32613000  1
  O  O42  1  0.54302700  0.34500500  0.56521900  1
  O  O43  1  0.43450300  0.43492400  0.31072900  1
  O  O44  1  0.32140800  0.07589800  0.06888600  1
  O  O45  1  0.44052000  0.18620400  0.43544000  1
  O  O46  1  0.30031400  0.28526000  0.17352900  1
  O  O47  1  0.34701800  0.29810300  0.69739300  1
  O  O48  1  0.23264500  0.93260500  0.45449900  1
  O  O49  1  0.14959400  0.19569800  0.29530100  1
  O  O50  1  0.06058000  0.83988200  0.57524100  1
  O  O51  1  0.91690600  0.95900200  0.31372000  1
  O  O52  1  0.06082200  0.32327800  0.55440100  1
  O  O53  1  0.08309400  0.04099800  0.68628000  1
  O  O54  1  0.93917800  0.67672200  0.44559900  1
  O  O55  1  0.93942000  0.16011800  0.42475900  1
  O  O56  1  0.85040600  0.80430200  0.70469900  1
  O  O57  1  0.76735500  0.06739500  0.54550100  1
  O  O58  1  0.65298200  0.70189700  0.30260700  1
  O  O59  1  0.69968600  0.71474000  0.82647100  1
  O  O60  1  0.55948000  0.81379600  0.56456000  1
  O  O61  1  0.67859200  0.92410200  0.93111400  1
  O  O62  1  0.56549700  0.56507600  0.68927100  1
  O  O63  1  0.55239800  0.02464900  0.67387000  1
  O  O64  1  0.45697300  0.65499500  0.43478100  1
  O  O65  1  0.47954200  0.67946600  0.95331200  1
  O  O66  1  0.39863100  0.94635300  0.79970800  1
  O  O67  1  0.26864300  0.57948700  0.55181400  1
  O  O68  1  0.18962300  0.21286600  0.82919700  1
  O  O69  1  0.19476600  0.68385700  0.80957500  1
  O  O70  1  0.18550600  0.44229700  0.93918600  1
  O  O71  1  0.19413500  0.90044900  0.91893300  1
  O  O72  1  0.06612100  0.55609200  0.67469500  1
  O  O73  1  0.96920600  0.18714200  0.94565000  1
  O  O74  1  0.89660300  0.45995300  0.80331900  1
  O  O75  1  0.66730600  0.19206600  0.82135600  1
  O  O76  1  0.67264600  0.41776100  0.92229900  1
