# generated using pymatgen
data_Al2FeO4
_symmetry_space_group_name_H-M   'P 1'
_cell_length_a   5.82755134
_cell_length_b   5.83616304
_cell_length_c   35.04382105
_cell_angle_alpha   59.99175739
_cell_angle_beta   60.10591032
_cell_angle_gamma   59.94658287
_symmetry_Int_Tables_number   1
_chemical_formula_structural   Al2FeO4
_chemical_formula_sum   'Al24 Fe12 O48'
_cell_volume   843.05012354
_cell_formula_units_Z   12
loop_
 _symmetry_equiv_pos_site_id
 _symmetry_equiv_pos_as_xyz
  1  'x, y, z'
loop_
 _atom_site_type_symbol
 _atom_site_label
 _atom_site_symmetry_multiplicity
 _atom_site_fract_x
 _atom_site_fract_y
 _atom_site_fract_z
 _atom_site_occupancy
  Al  Al0  1  0.49509787  0.49670379  0.08343444  1
  Al  Al1  1  0.49582023  0.00917518  0.08332885  1
  Al  Al2  1  0.00776481  0.49807183  0.08308696  1
  Al  Al3  1  0.49757989  0.49388067  0.25103416  1
  Al  Al4  1  0.50022500  0.49993880  0.33323837  1
  Al  Al5  1  0.49864369  0.00233450  0.25077464  1
  Al  Al6  1  0.88161041  0.88176532  0.14284261  1
  Al  Al7  1  0.00452713  0.49496854  0.25103163  1
  Al  Al8  1  0.50088607  0.50273284  0.41616043  1
  Al  Al9  1  0.50065968  0.50004559  0.49968854  1
  Al  Al10  1  0.50107706  0.00154414  0.41634648  1
  Al  Al11  1  0.00076342  0.50266130  0.41624494  1
  Al  Al12  1  0.49816275  0.49973306  0.58332156  1
  Al  Al13  1  0.50066561  0.50057981  0.66643855  1
  Al  Al14  1  0.49935091  0.99990677  0.58292860  1
  Al  Al15  1  0.99992639  0.49977470  0.58296686  1
  Al  Al16  1  0.50011772  0.49794285  0.75005385  1
  Al  Al17  1  0.00557088  0.49883489  0.91596856  1
  Al  Al18  1  0.50142573  0.50115305  0.83249667  1
  Al  Al19  1  0.50125820  0.99918666  0.74978739  1
  Al  Al20  1  0.00174032  0.49779178  0.75015236  1
  Al  Al21  1  0.49748119  0.49971717  0.91604643  1
  Al  Al22  1  0.49623717  0.00684027  0.91625595  1
  Al  Al23  1  0.87698396  0.87772166  0.97802681  1
  Fe  Fe24  1  0.12201194  0.12326092  0.02233804  1
  Fe  Fe25  1  0.12177220  0.12049865  0.18933580  1
  Fe  Fe26  1  0.49601885  0.49763033  0.16823649  1
  Fe  Fe27  1  0.12253464  0.12346461  0.35542540  1
  Fe  Fe28  1  0.12476578  0.12489080  0.52054691  1
  Fe  Fe29  1  0.88046782  0.87955065  0.30990010  1
  Fe  Fe30  1  0.12563665  0.12563675  0.68729007  1
  Fe  Fe31  1  0.12353649  0.12377803  0.85461398  1
  Fe  Fe32  1  0.87577041  0.87632711  0.47848285  1
  Fe  Fe33  1  0.87405332  0.87692570  0.64562002  1
  Fe  Fe34  1  0.87334146  0.87385038  0.81321244  1
  Fe  Fe35  1  0.50192084  0.50181636  0.99957944  1
  O  O36  1  0.25578148  0.25731014  0.04678542  1
  O  O37  1  0.25967848  0.26344138  0.11882279  1
  O  O38  1  0.25096206  0.70981574  0.04807184  1
  O  O39  1  0.70828254  0.25160696  0.04836865  1
  O  O40  1  0.24865747  0.24526295  0.21660457  1
  O  O41  1  0.27032797  0.75903091  0.11913486  1
  O  O42  1  0.74661246  0.74704017  0.04359360  1
  O  O43  1  0.75658868  0.27132898  0.11945279  1
  O  O44  1  0.26313595  0.25775639  0.28638618  1
  O  O45  1  0.24831833  0.70607361  0.21696717  1
  O  O46  1  0.70792455  0.24646979  0.21671318  1
  O  O47  1  0.75469782  0.75665571  0.11986721  1
  O  O48  1  0.30503955  0.73207060  0.28870288  1
  O  O49  1  0.26409866  0.26645955  0.37824913  1
  O  O50  1  0.75349511  0.75196078  0.20754619  1
  O  O51  1  0.73369303  0.30353095  0.28885092  1
  O  O52  1  0.26624357  0.26775052  0.45075995  1
  O  O53  1  0.26588968  0.70247795  0.37764708  1
  O  O54  1  0.70126235  0.26614373  0.37816243  1
  O  O55  1  0.73272690  0.73013853  0.28916106  1
  O  O56  1  0.26555239  0.26621529  0.54402364  1
  O  O57  1  0.29773775  0.73626648  0.45558770  1
  O  O58  1  0.73534495  0.73672443  0.38203170  1
  O  O59  1  0.73588436  0.29832538  0.45558240  1
  O  O60  1  0.26535455  0.26241953  0.61729818  1
  O  O61  1  0.26339342  0.70181309  0.54464384  1
  O  O62  1  0.73346559  0.73366071  0.45597202  1
  O  O63  1  0.70200414  0.26368032  0.54462232  1
  O  O64  1  0.26513054  0.26469344  0.71122581  1
  O  O65  1  0.29563795  0.73323958  0.62282904  1
  O  O66  1  0.73197275  0.73379047  0.54939756  1
  O  O67  1  0.73274214  0.29750633  0.62240256  1
  O  O68  1  0.26647297  0.26222781  0.78417489  1
  O  O69  1  0.26608472  0.70187844  0.71100486  1
  O  O70  1  0.70312079  0.26448654  0.71123505  1
  O  O71  1  0.73347888  0.73411923  0.62237164  1
  O  O72  1  0.26670400  0.26956896  0.87681936  1
  O  O73  1  0.29669192  0.73289418  0.78889291  1
  O  O74  1  0.73640709  0.73001779  0.71638252  1
  O  O75  1  0.73403729  0.29412564  0.78962537  1
  O  O76  1  0.26826413  0.70244854  0.87631668  1
  O  O77  1  0.26426444  0.26630861  0.95073752  1
  O  O78  1  0.70097266  0.26874354  0.87688351  1
  O  O79  1  0.73644371  0.73232332  0.78908444  1
  O  O80  1  0.25855756  0.76083973  0.95274169  1
  O  O81  1  0.72708629  0.73054674  0.88568167  1
  O  O82  1  0.76031072  0.25963786  0.95267760  1
  O  O83  1  0.75805818  0.75853824  0.95366743  1
