# generated using pymatgen
data_CaCr2O4
_symmetry_space_group_name_H-M   'P 1'
_cell_length_a   3.03396600
_cell_length_b   9.19973800
_cell_length_c   10.78531100
_cell_angle_alpha   89.99995384
_cell_angle_beta   89.99953964
_cell_angle_gamma   89.99976836
_symmetry_Int_Tables_number   1
_chemical_formula_structural   CaCr2O4
_chemical_formula_sum   'Ca4 Cr8 O16'
_cell_volume   301.03628200
_cell_formula_units_Z   4
loop_
 _symmetry_equiv_pos_site_id
 _symmetry_equiv_pos_as_xyz
  1  'x, y, z'
loop_
 _atom_site_type_symbol
 _atom_site_label
 _atom_site_symmetry_multiplicity
 _atom_site_fract_x
 _atom_site_fract_y
 _atom_site_fract_z
 _atom_site_occupancy
  Ca  Ca0  1  0.75000500  0.24023800  0.34090300  1
  Ca  Ca1  1  0.25000400  0.75976300  0.65909500  1
  Ca  Ca2  1  0.74999900  0.74023700  0.15909500  1
  Ca  Ca3  1  0.24999700  0.25976400  0.84090600  1
  Cr  Cr4  1  0.75001200  0.05962100  0.11316300  1
  Cr  Cr5  1  0.24999500  0.94037900  0.88683900  1
  Cr  Cr6  1  0.75000100  0.58423600  0.89908300  1
  Cr  Cr7  1  0.24999900  0.41576700  0.10091500  1
  Cr  Cr8  1  0.74999800  0.55960100  0.38683400  1
  Cr  Cr9  1  0.24999900  0.44039900  0.61316700  1
  Cr  Cr10  1  0.74999800  0.08424200  0.60091300  1
  Cr  Cr11  1  0.25000300  0.91576000  0.39908200  1
  O  O12  1  0.75000000  0.79849200  0.83767000  1
  O  O13  1  0.24999600  0.20150600  0.16233100  1
  O  O14  1  0.75000000  0.29849700  0.66233900  1
  O  O15  1  0.25000000  0.70150300  0.33766100  1
  O  O16  1  0.75000300  0.88233000  0.52485700  1
  O  O17  1  0.24999200  0.11767000  0.47514300  1
  O  O18  1  0.75000700  0.38233100  0.97514600  1
  O  O19  1  0.24999600  0.61767000  0.02485400  1
  O  O20  1  0.74999900  0.47125600  0.21436600  1
  O  O21  1  0.24999700  0.52874300  0.78563400  1
  O  O22  1  0.75000600  0.97125900  0.28562800  1
  O  O23  1  0.24999500  0.02874300  0.71437300  1
  O  O24  1  0.75000000  0.58208600  0.57352300  1
  O  O25  1  0.24999900  0.41791100  0.42647700  1
  O  O26  1  0.74999800  0.08208200  0.92648300  1
  O  O27  1  0.25000100  0.91791500  0.07351700  1
