# generated using pymatgen
data_Zr3Sc4O12
_symmetry_space_group_name_H-M   'P 1'
_cell_length_a   6.20367400
_cell_length_b   6.24155608
_cell_length_c   29.98895776
_cell_angle_alpha   90.15720168
_cell_angle_beta   90.15969840
_cell_angle_gamma   99.68721450
_symmetry_Int_Tables_number   1
_chemical_formula_structural   Zr3Sc4O12
_chemical_formula_sum   'Zr15 Sc20 O60'
_cell_volume   1144.62193227
_cell_formula_units_Z   5
loop_
 _symmetry_equiv_pos_site_id
 _symmetry_equiv_pos_as_xyz
  1  'x, y, z'
loop_
 _atom_site_type_symbol
 _atom_site_label
 _atom_site_symmetry_multiplicity
 _atom_site_fract_x
 _atom_site_fract_y
 _atom_site_fract_z
 _atom_site_occupancy
  Zr  Zr0  1  0.72976000  0.25045300  0.86082800  1
  Zr  Zr1  1  0.53147000  0.05123200  0.65934500  1
  Zr  Zr2  1  0.60800900  0.78153400  0.92224600  1
  Zr  Zr3  1  0.38052100  0.07777800  0.77324400  1
  Zr  Zr4  1  0.33140000  0.85120400  0.45945500  1
  Zr  Zr5  1  0.41665700  0.58167500  0.72220900  1
  Zr  Zr6  1  0.17955800  0.87836700  0.57347700  1
  Zr  Zr7  1  0.12573500  0.65001000  0.25964900  1
  Zr  Zr8  1  0.21644000  0.38180300  0.52222900  1
  Zr  Zr9  1  0.98031800  0.67796800  0.37378200  1
  Zr  Zr10  1  0.92473600  0.44993300  0.06108500  1
  Zr  Zr11  1  0.00688800  0.00378400  0.99830200  1
  Zr  Zr12  1  0.01513500  0.17923400  0.32293900  1
  Zr  Zr13  1  0.80529500  0.97861200  0.12308600  1
  Zr  Zr14  1  0.20769300  0.20359000  0.19739800  1
  Sc  Sc15  1  0.60294800  0.59665600  0.59884100  1
  Sc  Sc16  1  0.57689300  0.29388800  0.97223500  1
  Sc  Sc17  1  0.19344100  0.01589200  0.87871700  1
  Sc  Sc18  1  0.22037700  0.51593300  0.82841600  1
  Sc  Sc19  1  0.98303900  0.81077000  0.67942200  1
  Sc  Sc20  1  0.07816500  0.54133900  0.93573300  1
  Sc  Sc21  1  0.02242900  0.31651900  0.62899100  1
  Sc  Sc22  1  0.77615600  0.49395700  0.17282300  1
  Sc  Sc23  1  0.78310600  0.61090900  0.47932900  1
  Sc  Sc24  1  0.88036000  0.34451300  0.73694800  1
  Sc  Sc25  1  0.82141700  0.11636500  0.42915200  1
  Sc  Sc26  1  0.58992500  0.41226200  0.27869700  1
  Sc  Sc27  1  0.80248900  0.79661600  0.79940000  1
  Sc  Sc28  1  0.68088400  0.14514400  0.53686000  1
  Sc  Sc29  1  0.62297800  0.91018500  0.22940300  1
  Sc  Sc30  1  0.40010800  0.21719600  0.07791600  1
  Sc  Sc31  1  0.48017300  0.94462200  0.33633700  1
  Sc  Sc32  1  0.42232600  0.71002500  0.02842000  1
  Sc  Sc33  1  0.40325300  0.39644200  0.39859100  1
  Sc  Sc34  1  0.27799900  0.74087600  0.13494300  1
  O  O35  1  0.92155400  0.31308400  0.98424200  1
  O  O36  1  0.76695000  0.92303700  0.86372100  1
  O  O37  1  0.71824700  0.11124600  0.78445200  1
  O  O38  1  0.73521200  0.49257100  0.91366300  1
  O  O39  1  0.56903600  0.72381700  0.66354400  1
  O  O40  1  0.51843900  0.91203500  0.58475600  1
  O  O41  1  0.66626700  0.89233900  0.98794500  1
  O  O42  1  0.53398500  0.28642200  0.71417600  1
  O  O43  1  0.36838100  0.52386700  0.46349800  1
  O  O44  1  0.49803500  0.09585500  0.91590600  1
  O  O45  1  0.41705800  0.26465700  0.83608200  1
  O  O46  1  0.31867100  0.71201900  0.38478700  1
  O  O47  1  0.45878000  0.71132600  0.78664600  1
  O  O48  1  0.33420800  0.08653300  0.51435200  1
  O  O49  1  0.16261300  0.32040300  0.26332600  1
  O  O50  1  0.29348100  0.89429900  0.71515500  1
  O  O51  1  0.38521200  0.54463900  0.96384600  1
  O  O52  1  0.21812500  0.06688200  0.63598400  1
  O  O53  1  0.31037600  0.70613700  0.88428200  1
  O  O54  1  0.12191000  0.51424300  0.18455900  1
  O  O55  1  0.25938200  0.51167800  0.58670800  1
  O  O56  1  0.13303600  0.88503400  0.31462000  1
  O  O57  1  0.13116800  0.91254200  0.81235700  1
  O  O58  1  0.96068700  0.11942800  0.06366400  1
  O  O59  1  0.09309900  0.69452100  0.51531500  1
  O  O60  1  0.19280100  0.33916800  0.76393800  1
  O  O61  1  0.01776800  0.86623900  0.43604200  1
  O  O62  1  0.11245100  0.50584600  0.68500900  1
  O  O63  1  0.05920300  0.31122500  0.38704500  1
  O  O64  1  0.06425300  0.30093100  0.88521800  1
  O  O65  1  0.93420200  0.69157100  0.11407600  1
  O  O66  1  0.93075700  0.71292400  0.61262500  1
  O  O67  1  0.89454800  0.49319700  0.31549200  1
  O  O68  1  0.99247400  0.13926200  0.56401700  1
  O  O69  1  0.81553600  0.66367400  0.23643900  1
  O  O70  1  0.91204400  0.30586800  0.48510100  1
  O  O71  1  0.01662000  0.86957400  0.93467300  1
  O  O72  1  0.86677400  0.09173300  0.18839700  1
  O  O73  1  0.86377200  0.10128000  0.68533500  1
  O  O74  1  0.73070800  0.51233100  0.41262500  1
  O  O75  1  0.88528000  0.50036800  0.81867200  1
  O  O76  1  0.69908900  0.29474800  0.11624100  1
  O  O77  1  0.79213500  0.93908700  0.36415500  1
  O  O78  1  0.61582900  0.46315600  0.03642000  1
  O  O79  1  0.71135800  0.10419900  0.28531500  1
  O  O80  1  0.80650600  0.66305500  0.73493600  1
  O  O81  1  0.66378000  0.90133200  0.48541000  1
  O  O82  1  0.53462300  0.31304000  0.21201000  1
  O  O83  1  0.68672000  0.30185300  0.61864100  1
  O  O84  1  0.58391700  0.74442700  0.16410600  1
  O  O85  1  0.50922300  0.90445700  0.08450100  1
  O  O86  1  0.60665900  0.46354500  0.53483000  1
  O  O87  1  0.46114800  0.69775900  0.28525100  1
  O  O88  1  0.33508700  0.11362700  0.01169300  1
  O  O89  1  0.48627000  0.10207900  0.41881300  1
  O  O90  1  0.40504700  0.26307200  0.33444900  1
  O  O91  1  0.26173000  0.49713700  0.08512100  1
  O  O92  1  0.28218800  0.90728300  0.22070500  1
  O  O93  1  0.21575300  0.06974800  0.13414600  1
  O  O94  1  0.08175100  0.70530300  0.02052400  1
