# generated using pymatgen
data_Na7Cr3Co(PO4)6
_symmetry_space_group_name_H-M   'P 1'
_cell_length_a   8.88553880
_cell_length_b   8.88617129
_cell_length_c   17.76725349
_cell_angle_alpha   59.98406498
_cell_angle_beta   60.05551841
_cell_angle_gamma   60.06157986
_symmetry_Int_Tables_number   1
_chemical_formula_structural   Na7Cr3Co(PO4)6
_chemical_formula_sum   'Na14 Cr6 Co2 P12 O48'
_cell_volume   992.73902940
_cell_formula_units_Z   2
loop_
 _symmetry_equiv_pos_site_id
 _symmetry_equiv_pos_as_xyz
  1  'x, y, z'
loop_
 _atom_site_type_symbol
 _atom_site_label
 _atom_site_symmetry_multiplicity
 _atom_site_fract_x
 _atom_site_fract_y
 _atom_site_fract_z
 _atom_site_occupancy
  Na  Na0  1  0.01407800  0.00281500  0.99695100  1
  Na  Na1  1  0.00323100  0.00236200  0.50107500  1
  Na  Na2  1  0.11481400  0.38469300  0.37809100  1
  Na  Na3  1  0.75123000  0.11263200  0.19144900  1
  Na  Na4  1  0.49944700  0.51292200  0.24403400  1
  Na  Na5  1  0.25823700  0.88190800  0.30748800  1
  Na  Na6  1  0.61491800  0.25810200  0.44011400  1
  Na  Na7  1  0.88180800  0.61910300  0.12728000  1
  Na  Na8  1  0.38107000  0.75505400  0.55760000  1
  Na  Na9  1  0.75652800  0.11510700  0.69280000  1
  Na  Na10  1  0.48701400  0.49530500  0.75601400  1
  Na  Na11  1  0.24970300  0.88668400  0.80674900  1
  Na  Na12  1  0.61411400  0.25045200  0.94372200  1
  Na  Na13  1  0.88660400  0.61010100  0.62589800  1
  Cr  Cr14  1  0.15060600  0.14728000  0.06920500  1
  Cr  Cr15  1  0.35513200  0.35866600  0.17402300  1
  Cr  Cr16  1  0.34937300  0.35130000  0.67924700  1
  Cr  Cr17  1  0.85314500  0.85113000  0.42521100  1
  Cr  Cr18  1  0.64721300  0.64649500  0.82694000  1
  Cr  Cr19  1  0.85061900  0.84977500  0.92667900  1
  Co  Co20  1  0.14564500  0.14766900  0.57648400  1
  Co  Co21  1  0.64988400  0.65008900  0.32297200  1
  P  P22  1  0.04789000  0.75040000  0.22563100  1
  P  P23  1  0.45565100  0.04555700  0.37336500  1
  P  P24  1  0.75046100  0.45690600  0.02165600  1
  P  P25  1  0.24763600  0.54347200  0.47823200  1
  P  P26  1  0.54065100  0.96133500  0.12306400  1
  P  P27  1  0.04305800  0.74335500  0.73089700  1
  P  P28  1  0.96096400  0.24699300  0.26930100  1
  P  P29  1  0.45526800  0.04186100  0.87568300  1
  P  P30  1  0.74597000  0.45532100  0.52242200  1
  P  P31  1  0.24842600  0.54100900  0.97988600  1
  P  P32  1  0.54516800  0.95466000  0.62543700  1
  P  P33  1  0.95427700  0.24879200  0.77308200  1
  O  O34  1  0.13004300  0.27728200  0.25776800  1
  O  O35  1  0.27363600  0.51659500  0.06528600  1
  O  O36  1  0.06798400  0.92309400  0.13832300  1
  O  O37  1  0.52174600  0.12927400  0.13798100  1
  O  O38  1  0.01933100  0.77867900  0.31272900  1
  O  O39  1  0.22484200  0.57756900  0.21941200  1
  O  O40  1  0.27701900  0.07044500  0.45660800  1
  O  O41  1  0.43690400  0.22824100  0.28863600  1
  O  O42  1  0.21193500  0.37936700  0.49130100  1
  O  O43  1  0.58460700  0.42957400  0.11295900  1
  O  O44  1  0.07661700  0.72608300  0.46872600  1
  O  O45  1  0.36863300  0.99655400  0.10829100  1
  O  O46  1  0.62689800  0.01797500  0.38926700  1
  O  O47  1  0.12933200  0.27320700  0.75652000  1
  O  O48  1  0.91524500  0.27420700  0.03563600  1
  O  O49  1  0.41176900  0.57016700  0.38821500  1
  O  O50  1  0.78619500  0.62263200  0.00886600  1
  O  O51  1  0.27764200  0.51772300  0.56386500  1
  O  O52  1  0.56516300  0.78052700  0.20492700  1
  O  O53  1  0.06376900  0.90946700  0.64001000  1
  O  O54  1  0.51850600  0.12621900  0.63957600  1
  O  O55  1  0.72143600  0.93831300  0.03793200  1
  O  O56  1  0.01724800  0.78460900  0.81224100  1
  O  O57  1  0.22463300  0.57819700  0.71723900  1
  O  O58  1  0.78037400  0.41071900  0.28182000  1
  O  O59  1  0.98996300  0.21491600  0.18461600  1
  O  O60  1  0.27779600  0.06688600  0.95822700  1
  O  O61  1  0.47991200  0.88198200  0.35584700  1
  O  O62  1  0.93955200  0.07616300  0.36017900  1
  O  O63  1  0.44257200  0.21849600  0.78804200  1
  O  O64  1  0.71229100  0.48042700  0.43999700  1
  O  O65  1  0.22535700  0.37046700  0.99112400  1
  O  O66  1  0.57559000  0.43785900  0.61361000  1
  O  O67  1  0.08007600  0.72190000  0.96685600  1
  O  O68  1  0.88165200  0.72177900  0.23587800  1
  O  O69  1  0.37922700  0.97231400  0.61246700  1
  O  O70  1  0.62754400  0.01645600  0.88923200  1
  O  O71  1  0.91064100  0.27566700  0.53557900  1
  O  O72  1  0.41710800  0.56846700  0.88931000  1
  O  O73  1  0.77802700  0.62609000  0.50913100  1
  O  O74  1  0.57432200  0.77403100  0.70993500  1
  O  O75  1  0.72620300  0.93372700  0.54021500  1
  O  O76  1  0.77515600  0.41872900  0.78738200  1
  O  O77  1  0.96665000  0.22152300  0.69150400  1
  O  O78  1  0.48200000  0.87685300  0.85647800  1
  O  O79  1  0.93218200  0.07993600  0.86405200  1
  O  O80  1  0.71227700  0.48205900  0.93967500  1
  O  O81  1  0.87256200  0.71225100  0.74534400  1
