# generated using pymatgen
data_SiO2
_symmetry_space_group_name_H-M   'P 1'
_cell_length_a   6.93868196
_cell_length_b   6.93868196
_cell_length_c   6.93868196
_cell_angle_alpha   131.71635118
_cell_angle_beta   131.71635118
_cell_angle_gamma   70.67738997
_symmetry_Int_Tables_number   1
_chemical_formula_structural   SiO2
_chemical_formula_sum   'Si4 O8'
_cell_volume   182.34174200
_cell_formula_units_Z   4
loop_
 _symmetry_equiv_pos_site_id
 _symmetry_equiv_pos_as_xyz
  1  'x, y, z'
loop_
 _atom_site_type_symbol
 _atom_site_label
 _atom_site_symmetry_multiplicity
 _atom_site_fract_x
 _atom_site_fract_y
 _atom_site_fract_z
 _atom_site_occupancy
  Si  Si0  1  0.37500000  0.98638200  0.11138200  1
  Si  Si1  1  0.73638200  0.12500000  0.11138200  1
  Si  Si2  1  0.01361800  0.62500000  0.88861800  1
  Si  Si3  1  0.87500000  0.26361800  0.88861800  1
  O  O4  1  0.71787700  0.28212300  0.00000000  1
  O  O5  1  0.28212300  0.71787700  0.00000000  1
  O  O6  1  0.86627300  0.36627300  0.50000000  1
  O  O7  1  0.88372700  0.88372700  0.00000000  1
  O  O8  1  0.11627300  0.11627300  0.00000000  1
  O  O9  1  0.03212300  0.53212300  0.06424700  1
  O  O10  1  0.46787700  0.96787700  0.93575300  1
  O  O11  1  0.63372700  0.13372700  0.50000000  1
