# generated using pymatgen
data_MnAs2S2(OF3)4
_symmetry_space_group_name_H-M   'P 1'
_cell_length_a   11.99514336
_cell_length_b   10.30352615
_cell_length_c   9.09321938
_cell_angle_alpha   76.11548860
_cell_angle_beta   56.49906032
_cell_angle_gamma   47.38545108
_symmetry_Int_Tables_number   1
_chemical_formula_structural   MnAs2S2(OF3)4
_chemical_formula_sum   'Mn2 As4 S4 O8 F24'
_cell_volume   673.09772945
_cell_formula_units_Z   2
loop_
 _symmetry_equiv_pos_site_id
 _symmetry_equiv_pos_as_xyz
  1  'x, y, z'
loop_
 _atom_site_type_symbol
 _atom_site_label
 _atom_site_symmetry_multiplicity
 _atom_site_fract_x
 _atom_site_fract_y
 _atom_site_fract_z
 _atom_site_occupancy
  Mn  Mn0  1  0.71139800  0.78860200  0.78860200  1
  Mn  Mn1  1  0.46139800  0.53860200  0.53860200  1
  As  As2  1  0.66347300  0.44914300  0.02151400  1
  As  As3  1  0.86587000  0.02151400  0.44914300  1
  As  As4  1  0.22848600  0.38413000  0.58652700  1
  As  As5  1  0.80085700  0.58652700  0.38413000  1
  S  S6  1  0.74688300  0.94378800  0.05443100  1
  S  S7  1  0.25489900  0.05443100  0.94378800  1
  S  S8  1  0.19556900  0.99510100  0.50311700  1
  S  S9  1  0.30621200  0.50311700  0.99510100  1
  O  O10  1  0.67323900  0.91459400  0.99341500  1
  O  O11  1  0.41875200  0.99341500  0.91459400  1
  O  O12  1  0.25658500  0.83124800  0.57676100  1
  O  O13  1  0.33540600  0.57676100  0.83124800  1
  O  O14  1  0.93478800  0.85311800  0.93312800  1
  O  O15  1  0.27896600  0.93312800  0.85311800  1
  O  O16  1  0.31687200  0.97103400  0.31521200  1
  O  O17  1  0.39688200  0.31521200  0.97103400  1
  F  F18  1  0.71196700  0.59644700  0.95342800  1
  F  F19  1  0.73815700  0.95342800  0.59644700  1
  F  F20  1  0.29657200  0.51184300  0.53803300  1
  F  F21  1  0.65355300  0.53803300  0.51184300  1
  F  F22  1  0.57885200  0.52232500  0.25217900  1
  F  F23  1  0.64664400  0.25217900  0.52232500  1
  F  F24  1  0.99782100  0.60335600  0.67114800  1
  F  F25  1  0.72767500  0.67114800  0.60335600  1
  F  F26  1  0.74425200  0.38692000  0.79956600  1
  F  F27  1  0.06926300  0.79956600  0.38692000  1
  F  F28  1  0.45043400  0.18073700  0.50574800  1
  F  F29  1  0.86308000  0.50574800  0.18073700  1
  F  F30  1  0.87682700  0.27426600  0.98729000  1
  F  F31  1  0.86161700  0.98729000  0.27426600  1
  F  F32  1  0.26271000  0.38838300  0.37317300  1
  F  F33  1  0.97573400  0.37317300  0.38838300  1
  F  F34  1  0.44519300  0.63842000  0.06784400  1
  F  F35  1  0.84854400  0.06784400  0.63842000  1
  F  F36  1  0.18215600  0.40145600  0.80480700  1
  F  F37  1  0.61158000  0.80480700  0.40145600  1
  F  F38  1  0.60619000  0.31712300  0.10101000  1
  F  F39  1  0.97567800  0.10101000  0.31712300  1
  F  F40  1  0.14899000  0.27432200  0.64381000  1
  F  F41  1  0.93287700  0.64381000  0.27432200  1
