# generated using pymatgen
data_CrHg5S2O5
_symmetry_space_group_name_H-M   'P 1'
_cell_length_a   7.20061700
_cell_length_b   8.46268105
_cell_length_c   9.67593772
_cell_angle_alpha   83.27097500
_cell_angle_beta   80.46525632
_cell_angle_gamma   69.10615936
_symmetry_Int_Tables_number   1
_chemical_formula_structural   CrHg5S2O5
_chemical_formula_sum   'Cr2 Hg10 S4 O10'
_cell_volume   542.15550201
_cell_formula_units_Z   2
loop_
 _symmetry_equiv_pos_site_id
 _symmetry_equiv_pos_as_xyz
  1  'x, y, z'
loop_
 _atom_site_type_symbol
 _atom_site_label
 _atom_site_symmetry_multiplicity
 _atom_site_fract_x
 _atom_site_fract_y
 _atom_site_fract_z
 _atom_site_occupancy
  Cr  Cr0  1  0.40745500  0.62295400  0.70095200  1
  Cr  Cr1  1  0.59254500  0.37704600  0.29904800  1
  Hg  Hg2  1  0.84965600  0.43489200  0.91843900  1
  Hg  Hg3  1  0.15034400  0.56510800  0.08156100  1
  Hg  Hg4  1  0.61348900  0.71849800  0.02671600  1
  Hg  Hg5  1  0.38651100  0.28150200  0.97328400  1
  Hg  Hg6  1  0.00000000  0.00000000  0.00000000  1
  Hg  Hg7  1  0.00000000  0.50000000  0.50000000  1
  Hg  Hg8  1  0.19396200  0.81961400  0.34829800  1
  Hg  Hg9  1  0.80603800  0.18038600  0.65170200  1
  Hg  Hg10  1  0.66854100  0.87776700  0.33865500  1
  Hg  Hg11  1  0.33145900  0.12223300  0.66134500  1
  S  S12  1  0.41040200  0.94970700  0.18925800  1
  S  S13  1  0.58959800  0.05029300  0.81074200  1
  S  S14  1  0.89774900  0.80118800  0.51102500  1
  S  S15  1  0.10225100  0.19881200  0.48897500  1
  O  O16  1  0.26127300  0.51106900  0.69596500  1
  O  O17  1  0.73872700  0.48893100  0.30403500  1
  O  O18  1  0.64998000  0.48908600  0.69508400  1
  O  O19  1  0.35002000  0.51091400  0.30491600  1
  O  O20  1  0.34283800  0.71943000  0.85231700  1
  O  O21  1  0.65716200  0.28057000  0.14768300  1
  O  O22  1  0.02288700  0.18404600  0.84908900  1
  O  O23  1  0.97711300  0.81595400  0.15091100  1
  O  O24  1  0.38536100  0.76940400  0.56649000  1
  O  O25  1  0.61463900  0.23059600  0.43351000  1
