# generated using pymatgen
data_KY(PO3)4
_symmetry_space_group_name_H-M   'P 1'
_cell_length_a   7.41751736
_cell_length_b   7.41751736
_cell_length_c   10.55999106
_cell_angle_alpha   78.96831587
_cell_angle_beta   78.96831587
_cell_angle_gamma   115.35559677
_symmetry_Int_Tables_number   1
_chemical_formula_structural   KY(PO3)4
_chemical_formula_sum   'K2 Y2 P8 O24'
_cell_volume   490.26165732
_cell_formula_units_Z   2
loop_
 _symmetry_equiv_pos_site_id
 _symmetry_equiv_pos_as_xyz
  1  'x, y, z'
loop_
 _atom_site_type_symbol
 _atom_site_label
 _atom_site_symmetry_multiplicity
 _atom_site_fract_x
 _atom_site_fract_y
 _atom_site_fract_z
 _atom_site_occupancy
  K  K0  1  0.81534400  0.18465600  0.75000000  1
  K  K1  1  0.18465600  0.81534400  0.25000000  1
  Y  Y2  1  0.87990900  0.12009100  0.25000000  1
  Y  Y3  1  0.12009100  0.87990900  0.75000000  1
  P  P4  1  0.25530700  0.30310800  0.44290500  1
  P  P5  1  0.69689200  0.74469300  0.05709500  1
  P  P6  1  0.74469300  0.69689200  0.55709500  1
  P  P7  1  0.30310800  0.25530700  0.94290500  1
  P  P8  1  0.28618300  0.62654900  0.99658300  1
  P  P9  1  0.37345100  0.71381700  0.50341700  1
  P  P10  1  0.71381700  0.37345100  0.00341700  1
  P  P11  1  0.62654900  0.28618300  0.49658300  1
  O  O12  1  0.18543500  0.24710300  0.32612600  1
  O  O13  1  0.75289700  0.81456500  0.17387400  1
  O  O14  1  0.81456500  0.75289700  0.67387400  1
  O  O15  1  0.24710300  0.18543500  0.82612600  1
  O  O16  1  0.13581800  0.15722200  0.58530800  1
  O  O17  1  0.84277800  0.86418200  0.91469200  1
  O  O18  1  0.86418200  0.84277800  0.41469200  1
  O  O19  1  0.15722200  0.13581800  0.08530800  1
  O  O20  1  0.27205600  0.52916900  0.43595200  1
  O  O21  1  0.47083100  0.72794400  0.06404800  1
  O  O22  1  0.72794400  0.47083100  0.56404800  1
  O  O23  1  0.52916900  0.27205600  0.93595200  1
  O  O24  1  0.35853900  0.49934700  0.91079700  1
  O  O25  1  0.50065300  0.64146100  0.58920300  1
  O  O26  1  0.64146100  0.50065300  0.08920300  1
  O  O27  1  0.49934700  0.35853900  0.41079700  1
  O  O28  1  0.09071400  0.48748800  0.11442400  1
  O  O29  1  0.51251200  0.90928600  0.38557600  1
  O  O30  1  0.90928600  0.51251200  0.88557600  1
  O  O31  1  0.48748800  0.09071400  0.61442400  1
  O  O32  1  0.29776800  0.80903600  0.89747200  1
  O  O33  1  0.19096400  0.70223200  0.60252800  1
  O  O34  1  0.70223200  0.19096400  0.10252800  1
  O  O35  1  0.80903600  0.29776800  0.39747200  1
