# generated using pymatgen
data_Sr3Cr
_symmetry_space_group_name_H-M   'P 1'
_cell_length_a   6.74141862
_cell_length_b   6.74141862
_cell_length_c   6.74141862
_cell_angle_alpha   131.28461215
_cell_angle_beta   131.28461215
_cell_angle_gamma   71.36127843
_symmetry_Int_Tables_number   1
_chemical_formula_structural   Sr3Cr
_chemical_formula_sum   'Sr3 Cr1'
_cell_volume   169.32631825
_cell_formula_units_Z   1
loop_
 _symmetry_equiv_pos_site_id
 _symmetry_equiv_pos_as_xyz
  1  'x, y, z'
loop_
 _atom_site_type_symbol
 _atom_site_label
 _atom_site_symmetry_multiplicity
 _atom_site_fract_x
 _atom_site_fract_y
 _atom_site_fract_z
 _atom_site_occupancy
  Sr  Sr0  1  0.75000000  0.25000000  0.50000000  1
  Sr  Sr1  1  0.25000000  0.75000000  0.50000000  1
  Sr  Sr2  1  0.50000000  0.50000000  0.00000000  1
  Cr  Cr3  1  0.00000000  0.00000000  0.00000000  1
