# generated using pymatgen
data_Sr(Mg4Al3)4
_symmetry_space_group_name_H-M   'P 1'
_cell_length_a   9.21307962
_cell_length_b   9.21307962
_cell_length_c   9.21307962
_cell_angle_alpha   109.47122063
_cell_angle_beta   109.47122063
_cell_angle_gamma   109.47122063
_symmetry_Int_Tables_number   1
_chemical_formula_structural   Sr(Mg4Al3)4
_chemical_formula_sum   'Sr1 Mg16 Al12'
_cell_volume   601.99458217
_cell_formula_units_Z   1
loop_
 _symmetry_equiv_pos_site_id
 _symmetry_equiv_pos_as_xyz
  1  'x, y, z'
loop_
 _atom_site_type_symbol
 _atom_site_label
 _atom_site_symmetry_multiplicity
 _atom_site_fract_x
 _atom_site_fract_y
 _atom_site_fract_z
 _atom_site_occupancy
  Sr  Sr0  1  0.00000000  0.00000000  0.00000000  1
  Mg  Mg1  1  0.36162600  0.36162600  0.36162600  1
  Mg  Mg2  1  0.71706100  0.31951700  0.31951700  1
  Mg  Mg3  1  0.63837400  0.00000000  0.00000000  1
  Mg  Mg4  1  0.28293900  0.60245600  0.60245600  1
  Mg  Mg5  1  0.00000000  0.68048300  0.39754400  1
  Mg  Mg6  1  0.60245600  0.60245600  0.28293900  1
  Mg  Mg7  1  0.39754400  0.00000000  0.68048300  1
  Mg  Mg8  1  0.00000000  0.00000000  0.63837400  1
  Mg  Mg9  1  0.31951700  0.71706100  0.31951700  1
  Mg  Mg10  1  0.68048300  0.39754400  0.00000000  1
  Mg  Mg11  1  0.68048300  0.00000000  0.39754400  1
  Mg  Mg12  1  0.31951700  0.31951700  0.71706100  1
  Mg  Mg13  1  0.00000000  0.63837400  0.00000000  1
  Mg  Mg14  1  0.60245600  0.28293900  0.60245600  1
  Mg  Mg15  1  0.39754400  0.68048300  0.00000000  1
  Mg  Mg16  1  0.00000000  0.39754400  0.68048300  1
  Al  Al17  1  0.81763500  0.62889200  0.62889200  1
  Al  Al18  1  0.18236500  0.81125700  0.81125700  1
  Al  Al19  1  0.00000000  0.37110800  0.18874300  1
  Al  Al20  1  0.62889200  0.81763500  0.62889200  1
  Al  Al21  1  0.37110800  0.18874300  0.00000000  1
  Al  Al22  1  0.81125700  0.18236500  0.81125700  1
  Al  Al23  1  0.18874300  0.37110800  0.00000000  1
  Al  Al24  1  0.18874300  0.00000000  0.37110800  1
  Al  Al25  1  0.81125700  0.81125700  0.18236500  1
  Al  Al26  1  0.62889200  0.62889200  0.81763500  1
  Al  Al27  1  0.37110800  0.00000000  0.18874300  1
  Al  Al28  1  0.00000000  0.18874300  0.37110800  1
