# generated using pymatgen
data_Na3Fe2(MoO4)3
_symmetry_space_group_name_H-M   'P 1'
_cell_length_a   9.29015575
_cell_length_b   9.29015575
_cell_length_c   7.32417169
_cell_angle_alpha   74.28556418
_cell_angle_beta   74.28556418
_cell_angle_gamma   96.09912704
_symmetry_Int_Tables_number   1
_chemical_formula_structural   Na3Fe2(MoO4)3
_chemical_formula_sum   'Na6 Fe4 Mo6 O24'
_cell_volume   574.64897990
_cell_formula_units_Z   2
loop_
 _symmetry_equiv_pos_site_id
 _symmetry_equiv_pos_as_xyz
  1  'x, y, z'
loop_
 _atom_site_type_symbol
 _atom_site_label
 _atom_site_symmetry_multiplicity
 _atom_site_fract_x
 _atom_site_fract_y
 _atom_site_fract_z
 _atom_site_occupancy
  Na  Na0  1  0.50891900  0.49108200  0.25000000  1
  Na  Na1  1  0.49108100  0.50891800  0.75000000  1
  Na  Na2  1  0.76759300  0.23240700  0.75000000  1
  Na  Na3  1  0.23240700  0.76759300  0.25000000  1
  Na  Na4  1  0.00000000  0.00000000  0.00000000  1
  Na  Na5  1  0.00000000  0.00000000  0.50000000  1
  Fe  Fe6  1  0.44592800  0.12610500  0.62949500  1
  Fe  Fe7  1  0.87389500  0.55407200  0.87050500  1
  Fe  Fe8  1  0.55407200  0.87389500  0.37050500  1
  Fe  Fe9  1  0.12610500  0.44592800  0.12949500  1
  Mo  Mo10  1  0.83699200  0.61926100  0.37302400  1
  Mo  Mo11  1  0.38073900  0.16300800  0.12697600  1
  Mo  Mo12  1  0.16300800  0.38073900  0.62697600  1
  Mo  Mo13  1  0.61926100  0.83699200  0.87302400  1
  Mo  Mo14  1  0.78013200  0.21986800  0.25000000  1
  Mo  Mo15  1  0.21986800  0.78013200  0.75000000  1
  O  O16  1  0.65880400  0.25816700  0.47642000  1
  O  O17  1  0.74183300  0.34119600  0.02358000  1
  O  O18  1  0.34119600  0.74183300  0.52358000  1
  O  O19  1  0.25816700  0.65880400  0.97642000  1
  O  O20  1  0.96345300  0.79474800  0.30534600  1
  O  O21  1  0.20525200  0.03654700  0.19465400  1
  O  O22  1  0.03654700  0.20525200  0.69465400  1
  O  O23  1  0.79474800  0.96345300  0.80534600  1
  O  O24  1  0.83918700  0.50265200  0.61163500  1
  O  O25  1  0.49734800  0.16081300  0.88836500  1
  O  O26  1  0.16081300  0.49734800  0.38836500  1
  O  O27  1  0.50265200  0.83918700  0.11163500  1
  O  O28  1  0.64492000  0.65515300  0.40001300  1
  O  O29  1  0.34484700  0.35508000  0.09998700  1
  O  O30  1  0.35508000  0.34484700  0.59998700  1
  O  O31  1  0.65515300  0.64492000  0.90001300  1
  O  O32  1  0.75808300  0.02173300  0.23130800  1
  O  O33  1  0.97826700  0.24191700  0.26869200  1
  O  O34  1  0.24191700  0.97826700  0.76869200  1
  O  O35  1  0.02173300  0.75808300  0.73130800  1
  O  O36  1  0.89947200  0.53729300  0.17209600  1
  O  O37  1  0.46270700  0.10052800  0.32790400  1
  O  O38  1  0.10052800  0.46270700  0.82790400  1
  O  O39  1  0.53729300  0.89947200  0.67209600  1
