# generated using pymatgen
data_Ce3Si2S8Cl
_symmetry_space_group_name_H-M   'P 1'
_cell_length_a   8.77023305
_cell_length_b   8.77023305
_cell_length_c   11.04317067
_cell_angle_alpha   83.53050238
_cell_angle_beta   83.53050238
_cell_angle_gamma   52.14660829
_symmetry_Int_Tables_number   1
_chemical_formula_structural   Ce3Si2S8Cl
_chemical_formula_sum   'Ce6 Si4 S16 Cl2'
_cell_volume   665.38056255
_cell_formula_units_Z   2
loop_
 _symmetry_equiv_pos_site_id
 _symmetry_equiv_pos_as_xyz
  1  'x, y, z'
loop_
 _atom_site_type_symbol
 _atom_site_label
 _atom_site_symmetry_multiplicity
 _atom_site_fract_x
 _atom_site_fract_y
 _atom_site_fract_z
 _atom_site_occupancy
  Ce  Ce0  1  0.68309800  0.92691400  0.68602700  1
  Ce  Ce1  1  0.07308600  0.31690200  0.81397300  1
  Ce  Ce2  1  0.31690200  0.07308600  0.31397300  1
  Ce  Ce3  1  0.92691400  0.68309800  0.18602700  1
  Ce  Ce4  1  0.37927700  0.62072300  0.75000000  1
  Ce  Ce5  1  0.62072300  0.37927700  0.25000000  1
  Si  Si6  1  0.37130500  0.30856700  0.02993200  1
  Si  Si7  1  0.69143300  0.62869500  0.47006800  1
  Si  Si8  1  0.62869500  0.69143300  0.97006800  1
  Si  Si9  1  0.30856700  0.37130500  0.52993200  1
  S  S10  1  0.60409900  0.10397100  0.14225700  1
  S  S11  1  0.89602900  0.39590100  0.35774300  1
  S  S12  1  0.39590100  0.89602900  0.85774300  1
  S  S13  1  0.10397100  0.60409900  0.64225700  1
  S  S14  1  0.14266200  0.28833200  0.08526700  1
  S  S15  1  0.71166800  0.85733800  0.41473300  1
  S  S16  1  0.85733800  0.71166800  0.91473300  1
  S  S17  1  0.28833200  0.14266200  0.58526700  1
  S  S18  1  0.27616700  0.59243800  0.05126000  1
  S  S19  1  0.40756200  0.72383300  0.44874000  1
  S  S20  1  0.72383300  0.40756200  0.94874000  1
  S  S21  1  0.59243800  0.27616700  0.55126000  1
  S  S22  1  0.44158400  0.26278800  0.84026100  1
  S  S23  1  0.73721200  0.55841600  0.65973900  1
  S  S24  1  0.55841600  0.73721200  0.15973900  1
  S  S25  1  0.26278800  0.44158400  0.34026100  1
  Cl  Cl26  1  0.99426500  0.00573500  0.25000000  1
  Cl  Cl27  1  0.00573500  0.99426500  0.75000000  1
