# generated using pymatgen
data_Hg2Mo2O7
_symmetry_space_group_name_H-M   'P 1'
_cell_length_a   7.20598000
_cell_length_b   7.33597540
_cell_length_c   8.36910536
_cell_angle_alpha   64.72746159
_cell_angle_beta   67.20498132
_cell_angle_gamma   66.22225502
_symmetry_Int_Tables_number   1
_chemical_formula_structural   Hg2Mo2O7
_chemical_formula_sum   'Hg4 Mo4 O14'
_cell_volume   353.50240332
_cell_formula_units_Z   2
loop_
 _symmetry_equiv_pos_site_id
 _symmetry_equiv_pos_as_xyz
  1  'x, y, z'
loop_
 _atom_site_type_symbol
 _atom_site_label
 _atom_site_symmetry_multiplicity
 _atom_site_fract_x
 _atom_site_fract_y
 _atom_site_fract_z
 _atom_site_occupancy
  Hg  Hg0  1  0.18202000  0.32651100  0.36675700  1
  Hg  Hg1  1  0.37513500  0.17572500  0.62046900  1
  Hg  Hg2  1  0.81798000  0.67348900  0.63324300  1
  Hg  Hg3  1  0.62486500  0.82427500  0.37953100  1
  Mo  Mo4  1  0.81388600  0.37183900  0.13200100  1
  Mo  Mo5  1  0.18611400  0.62816100  0.86799900  1
  Mo  Mo6  1  0.69581100  0.12349500  0.88124400  1
  Mo  Mo7  1  0.30418900  0.87650500  0.11875600  1
  O  O8  1  0.53326800  0.99927300  0.83752800  1
  O  O9  1  0.22864500  0.81466600  0.65152100  1
  O  O10  1  0.46673200  0.00072700  0.16247200  1
  O  O11  1  0.70415800  0.28776000  0.00662900  1
  O  O12  1  0.17837800  0.75477800  0.34192300  1
  O  O13  1  0.77135500  0.18533400  0.34847900  1
  O  O14  1  0.96805800  0.54629200  0.84980000  1
  O  O15  1  0.59741200  0.59643700  0.16225900  1
  O  O16  1  0.03194200  0.45370800  0.15020000  1
  O  O17  1  0.29584200  0.71224000  0.99337100  1
  O  O18  1  0.10298600  0.10936500  0.05102900  1
  O  O19  1  0.40258800  0.40356300  0.83774100  1
  O  O20  1  0.89701400  0.89063500  0.94897100  1
  O  O21  1  0.82162200  0.24522200  0.65807700  1
