# generated using pymatgen
data_Ba2MnNiClF7
_symmetry_space_group_name_H-M   'P 1'
_cell_length_a   5.91770400
_cell_length_b   7.84473900
_cell_length_c   9.06925783
_cell_angle_alpha   73.91406505
_cell_angle_beta   90.00000000
_cell_angle_gamma   90.00000000
_symmetry_Int_Tables_number   1
_chemical_formula_structural   Ba2MnNiClF7
_chemical_formula_sum   'Ba4 Mn2 Ni2 Cl2 F14'
_cell_volume   404.53659534
_cell_formula_units_Z   2
loop_
 _symmetry_equiv_pos_site_id
 _symmetry_equiv_pos_as_xyz
  1  'x, y, z'
loop_
 _atom_site_type_symbol
 _atom_site_label
 _atom_site_symmetry_multiplicity
 _atom_site_fract_x
 _atom_site_fract_y
 _atom_site_fract_z
 _atom_site_occupancy
  Ba  Ba0  1  0.25000000  0.69137100  0.07407200  1
  Ba  Ba1  1  0.75000000  0.30862900  0.92592800  1
  Ba  Ba2  1  0.75000000  0.33402900  0.41154200  1
  Ba  Ba3  1  0.25000000  0.66597100  0.58845800  1
  Mn  Mn4  1  0.25000000  0.16938700  0.73421200  1
  Mn  Mn5  1  0.75000000  0.83061300  0.26578800  1
  Ni  Ni6  1  0.75000000  0.81480600  0.82943300  1
  Ni  Ni7  1  0.25000000  0.18519400  0.17056700  1
  Cl  Cl8  1  0.25000000  0.11567700  0.45937800  1
  Cl  Cl9  1  0.75000000  0.88432300  0.54062200  1
  F  F10  1  0.00182600  0.63408900  0.34676900  1
  F  F11  1  0.50643200  0.99161200  0.83350700  1
  F  F12  1  0.49202800  0.36805400  0.16120000  1
  F  F13  1  0.99202800  0.63194600  0.83880000  1
  F  F14  1  0.99356800  0.99161200  0.83350700  1
  F  F15  1  0.50797200  0.63194600  0.83880000  1
  F  F16  1  0.49356800  0.00838800  0.16649300  1
  F  F17  1  0.49817400  0.63408900  0.34676900  1
  F  F18  1  0.00643200  0.00838800  0.16649300  1
  F  F19  1  0.75000000  0.73904500  0.06288000  1
  F  F20  1  0.50182600  0.36591100  0.65323100  1
  F  F21  1  0.99817400  0.36591100  0.65323100  1
  F  F22  1  0.25000000  0.26095500  0.93712000  1
  F  F23  1  0.00797200  0.36805400  0.16120000  1
