# generated using pymatgen
data_TeMoS
_symmetry_space_group_name_H-M   'P 1'
_cell_length_a   3.36181508
_cell_length_b   3.36181508
_cell_length_c   39.73002700
_cell_angle_alpha   90.00000000
_cell_angle_beta   90.00000000
_cell_angle_gamma   119.99998195
_symmetry_Int_Tables_number   1
_chemical_formula_structural   TeMoS
_chemical_formula_sum   'Te4 Mo4 S4'
_cell_volume   388.86352937
_cell_formula_units_Z   4
loop_
 _symmetry_equiv_pos_site_id
 _symmetry_equiv_pos_as_xyz
  1  'x, y, z'
loop_
 _atom_site_type_symbol
 _atom_site_label
 _atom_site_symmetry_multiplicity
 _atom_site_fract_x
 _atom_site_fract_y
 _atom_site_fract_z
 _atom_site_occupancy
  Te  Te0  1  0.33333300  0.66666700  0.70681700  1
  Te  Te1  1  0.66666700  0.33333300  0.42035200  1
  Te  Te2  1  0.66666700  0.33333300  0.51544600  1
  Te  Te3  1  0.33333300  0.66666700  0.61186400  1
  Mo  Mo4  1  0.33333300  0.66666700  0.09396600  1
  Mo  Mo5  1  0.33333300  0.66666700  0.46792300  1
  Mo  Mo6  1  0.66666700  0.33333300  0.28169500  1
  Mo  Mo7  1  0.66666700  0.33333300  0.65937700  1
  S  S8  1  0.33333300  0.66666700  0.31979400  1
  S  S9  1  0.66666700  0.33333300  0.05584700  1
  S  S10  1  0.66666700  0.33333300  0.13208000  1
  S  S11  1  0.33333300  0.66666700  0.24358900  1
