# generated using pymatgen
data_Na2Sn(CO2)4
_symmetry_space_group_name_H-M   'P 1'
_cell_length_a   6.00349175
_cell_length_b   6.00349175
_cell_length_c   13.88952596
_cell_angle_alpha   73.94363517
_cell_angle_beta   73.94363517
_cell_angle_gamma   57.37617740
_symmetry_Int_Tables_number   1
_chemical_formula_structural   Na2Sn(CO2)4
_chemical_formula_sum   'Na4 Sn2 C8 O16'
_cell_volume   400.11965741
_cell_formula_units_Z   2
loop_
 _symmetry_equiv_pos_site_id
 _symmetry_equiv_pos_as_xyz
  1  'x, y, z'
loop_
 _atom_site_type_symbol
 _atom_site_label
 _atom_site_symmetry_multiplicity
 _atom_site_fract_x
 _atom_site_fract_y
 _atom_site_fract_z
 _atom_site_occupancy
  Na  Na0  1  0.82485400  0.79900500  0.55122300  1
  Na  Na1  1  0.17514600  0.20099500  0.44877700  1
  Na  Na2  1  0.20099500  0.17514600  0.94877700  1
  Na  Na3  1  0.79900500  0.82485400  0.05122300  1
  Sn  Sn4  1  0.82418900  0.17581100  0.75000000  1
  Sn  Sn5  1  0.17581100  0.82418900  0.25000000  1
  C  C6  1  0.33094500  0.36025100  0.13424500  1
  C  C7  1  0.36025100  0.33094500  0.63424500  1
  C  C8  1  0.63974900  0.66905500  0.36575500  1
  C  C9  1  0.41795600  0.60548800  0.88961400  1
  C  C10  1  0.58204400  0.39451200  0.11038600  1
  C  C11  1  0.66905500  0.63974900  0.86575500  1
  C  C12  1  0.39451200  0.58204400  0.61038600  1
  C  C13  1  0.60548800  0.41795600  0.38961400  1
  O  O14  1  0.52743800  0.12123200  0.68516500  1
  O  O15  1  0.17880500  0.34975600  0.59834300  1
  O  O16  1  0.20952700  0.76404300  0.94044100  1
  O  O17  1  0.47256200  0.87876800  0.31483500  1
  O  O18  1  0.40715900  0.44609600  0.35870300  1
  O  O19  1  0.82119500  0.65024400  0.40165700  1
  O  O20  1  0.55390400  0.59284100  0.14129700  1
  O  O21  1  0.76404300  0.20952700  0.44044100  1
  O  O22  1  0.59284100  0.55390400  0.64129700  1
  O  O23  1  0.23595700  0.79047300  0.55955900  1
  O  O24  1  0.44609600  0.40715900  0.85870300  1
  O  O25  1  0.12123200  0.52743800  0.18516500  1
  O  O26  1  0.87876800  0.47256200  0.81483500  1
  O  O27  1  0.34975600  0.17880500  0.09834300  1
  O  O28  1  0.65024400  0.82119500  0.90165700  1
  O  O29  1  0.79047300  0.23595700  0.05955900  1
