# generated using pymatgen
data_Cr3CuO8
_symmetry_space_group_name_H-M   'P 1'
_cell_length_a   5.03006116
_cell_length_b   5.03006116
_cell_length_c   6.60719874
_cell_angle_alpha   86.44600108
_cell_angle_beta   86.44600108
_cell_angle_gamma   67.12935723
_symmetry_Int_Tables_number   1
_chemical_formula_structural   Cr3CuO8
_chemical_formula_sum   'Cr3 Cu1 O8'
_cell_volume   153.60302469
_cell_formula_units_Z   1
loop_
 _symmetry_equiv_pos_site_id
 _symmetry_equiv_pos_as_xyz
  1  'x, y, z'
loop_
 _atom_site_type_symbol
 _atom_site_label
 _atom_site_symmetry_multiplicity
 _atom_site_fract_x
 _atom_site_fract_y
 _atom_site_fract_z
 _atom_site_occupancy
  Cr  Cr0  1  0.34676500  0.34676500  0.73183600  1
  Cr  Cr1  1  0.65323500  0.65323500  0.26816400  1
  Cr  Cr2  1  0.00000000  0.00000000  0.50000000  1
  Cu  Cu3  1  0.00000000  0.00000000  0.00000000  1
  O  O4  1  0.28259800  0.79190300  0.27501000  1
  O  O5  1  0.22792700  0.22792700  0.94127100  1
  O  O6  1  0.79190300  0.28259800  0.27501000  1
  O  O7  1  0.76722000  0.76722000  0.46315500  1
  O  O8  1  0.20809700  0.71740200  0.72499000  1
  O  O9  1  0.23278000  0.23278000  0.53684500  1
  O  O10  1  0.71740200  0.20809700  0.72499000  1
  O  O11  1  0.77207300  0.77207300  0.05872900  1
