# generated using pymatgen
data_NbS2
_symmetry_space_group_name_H-M   'P 1'
_cell_length_a   3.36034878
_cell_length_b   3.36034878
_cell_length_c   39.32896900
_cell_angle_alpha   90.00000000
_cell_angle_beta   90.00000000
_cell_angle_gamma   119.98367351
_symmetry_Int_Tables_number   1
_chemical_formula_structural   NbS2
_chemical_formula_sum   'Nb4 S8'
_cell_volume   384.66558458
_cell_formula_units_Z   4
loop_
 _symmetry_equiv_pos_site_id
 _symmetry_equiv_pos_as_xyz
  1  'x, y, z'
loop_
 _atom_site_type_symbol
 _atom_site_label
 _atom_site_symmetry_multiplicity
 _atom_site_fract_x
 _atom_site_fract_y
 _atom_site_fract_z
 _atom_site_occupancy
  Nb  Nb0  1  0.75825600  0.24174400  0.49806700  1
  Nb  Nb1  1  0.24174400  0.75825600  0.99806700  1
  Nb  Nb2  1  0.09279400  0.90720600  0.66844200  1
  Nb  Nb3  1  0.90720600  0.09279400  0.16844200  1
  S  S4  1  0.42659100  0.57340900  0.62864600  1
  S  S5  1  0.57340900  0.42659100  0.12864600  1
  S  S6  1  0.42585100  0.57414900  0.70828300  1
  S  S7  1  0.09154200  0.90845800  0.53785600  1
  S  S8  1  0.09172900  0.90827100  0.45820700  1
  S  S9  1  0.57414900  0.42585100  0.20828300  1
  S  S10  1  0.90845800  0.09154200  0.03785600  1
  S  S11  1  0.90827100  0.09172900  0.95820700  1
