# generated using pymatgen
data_CaGeO3
_symmetry_space_group_name_H-M   'P 1'
_cell_length_a   10.93251273
_cell_length_b   10.93251273
_cell_length_c   10.93251273
_cell_angle_alpha   109.13940723
_cell_angle_beta   109.13940723
_cell_angle_gamma   110.13690530
_symmetry_Int_Tables_number   1
_chemical_formula_structural   CaGeO3
_chemical_formula_sum   'Ca16 Ge16 O48'
_cell_volume   1005.75929585
_cell_formula_units_Z   16
loop_
 _symmetry_equiv_pos_site_id
 _symmetry_equiv_pos_as_xyz
  1  'x, y, z'
loop_
 _atom_site_type_symbol
 _atom_site_label
 _atom_site_symmetry_multiplicity
 _atom_site_fract_x
 _atom_site_fract_y
 _atom_site_fract_z
 _atom_site_occupancy
  Ca  Ca0  1  0.36827700  0.99779200  0.12150600  1
  Ca  Ca1  1  0.88172300  0.75220800  0.37849400  1
  Ca  Ca2  1  0.12500000  0.87500000  0.75000000  1
  Ca  Ca3  1  0.12500000  0.87500000  0.25000000  1
  Ca  Ca4  1  0.24794500  0.24794500  0.00000000  1
  Ca  Ca5  1  0.24779200  0.62628500  0.12951400  1
  Ca  Ca6  1  0.00205500  0.50205500  0.50000000  1
  Ca  Ca7  1  0.49677100  0.11827700  0.87048600  1
  Ca  Ca8  1  0.49794500  0.99794500  0.50000000  1
  Ca  Ca9  1  0.62500000  0.87500000  0.75000000  1
  Ca  Ca10  1  0.75322900  0.63172300  0.62951400  1
  Ca  Ca11  1  0.87628500  0.24677100  0.87849400  1
  Ca  Ca12  1  0.00220800  0.12371500  0.37048600  1
  Ca  Ca13  1  0.37371500  0.50322900  0.62150600  1
  Ca  Ca14  1  0.75205500  0.75205500  0.00000000  1
  Ca  Ca15  1  0.12500000  0.37500000  0.25000000  1
  Ge  Ge16  1  0.99482400  0.60356400  0.86147100  1
  Ge  Ge17  1  0.12500000  0.37500000  0.75000000  1
  Ge  Ge18  1  0.85356400  0.49209200  0.10873900  1
  Ge  Ge19  1  0.86664700  0.00517600  0.60873900  1
  Ge  Ge20  1  0.50000000  0.50000000  0.00000000  1
  Ge  Ge21  1  0.75000000  0.25000000  0.50000000  1
  Ge  Ge22  1  0.38335300  0.74482400  0.89126100  1
  Ge  Ge23  1  0.74209200  0.13335300  0.13852900  1
  Ge  Ge24  1  0.50790800  0.61664700  0.36147100  1
  Ge  Ge25  1  0.25000000  0.75000000  0.50000000  1
  Ge  Ge26  1  0.00000000  0.00000000  0.00000000  1
  Ge  Ge27  1  0.25517600  0.14643600  0.63852900  1
  Ge  Ge28  1  0.62500000  0.87500000  0.25000000  1
  Ge  Ge29  1  0.39643600  0.25790800  0.39126100  1
  Ge  Ge30  1  0.62500000  0.37500000  0.75000000  1
  Ge  Ge31  1  0.62500000  0.37500000  0.25000000  1
  O  O32  1  0.25877300  0.77518100  0.34949300  1
  O  O33  1  0.55024500  0.48871800  0.85659200  1
  O  O34  1  0.82431300  0.84072000  0.84949300  1
  O  O35  1  0.02518100  0.17568700  0.01640800  1
  O  O36  1  0.92450800  0.27019500  0.28586400  1
  O  O37  1  0.88864400  0.67450800  0.15431300  1
  O  O38  1  0.63212600  0.69365300  0.14340800  1
  O  O39  1  0.04266900  0.45784300  0.86385600  1
  O  O40  1  0.53716200  0.65375000  0.54012400  1
  O  O41  1  0.98433100  0.63864400  0.71413600  1
  O  O42  1  0.20733100  0.29215700  0.63614400  1
  O  O43  1  0.71283800  0.09625000  0.95987600  1
  O  O44  1  0.26566900  0.11135600  0.78586400  1
  O  O45  1  0.44159400  0.27678600  0.24826200  1
  O  O46  1  0.51128200  0.36787500  0.06152700  1
  O  O47  1  0.30634700  0.44975500  0.93847300  1
  O  O48  1  0.73871800  0.38212600  0.43847300  1
  O  O49  1  0.36135600  0.07549200  0.34568700  1
  O  O50  1  0.99122700  0.97481900  0.15050700  1
  O  O51  1  0.52678600  0.77852500  0.33519200  1
  O  O52  1  0.52019500  0.73433100  0.84568700  1
  O  O53  1  0.69975500  0.26128200  0.64340800  1
  O  O54  1  0.34625000  0.88637500  0.88341200  1
  O  O55  1  0.42881300  0.79266900  0.08482600  1
  O  O56  1  0.09072000  0.74122700  0.51640800  1
  O  O57  1  0.72321400  0.97147500  0.16480800  1
  O  O58  1  0.72980500  0.01566900  0.65431300  1
  O  O59  1  0.80666700  0.55840600  0.83519200  1
  O  O60  1  0.11362500  0.99703700  0.45987600  1
  O  O61  1  0.44333300  0.19159400  0.66480800  1
  O  O62  1  0.59398700  0.17881300  0.13614400  1
  O  O63  1  0.90375000  0.86362500  0.61658800  1
  O  O64  1  0.24703700  0.28716200  0.38341200  1
  O  O65  1  0.32549200  0.47980500  0.21413600  1
  O  O66  1  0.13637500  0.75296300  0.04012400  1
  O  O67  1  0.15928000  0.00877300  0.98359200  1
  O  O68  1  0.80840600  0.47321400  0.25173800  1
  O  O69  1  0.22147500  0.55666700  0.74826200  1
  O  O70  1  0.61787400  0.05634700  0.35659200  1
  O  O71  1  0.02852500  0.19333300  0.75173800  1
  O  O72  1  0.54215700  0.40601300  0.58482600  1
  O  O73  1  0.42568700  0.90928000  0.65050700  1
  O  O74  1  0.94365300  0.30024500  0.56152700  1
  O  O75  1  0.22481900  0.57431300  0.48359200  1
  O  O76  1  0.65601300  0.57118700  0.36385600  1
  O  O77  1  0.82118700  0.95733100  0.41517400  1
  O  O78  1  0.70784300  0.34398700  0.91517400  1
  O  O79  1  0.00296300  0.46283800  0.11658800  1
