# generated using pymatgen
data_KMnVO4
_symmetry_space_group_name_H-M   'P 1'
_cell_length_a   5.72037500
_cell_length_b   12.29139700
_cell_length_c   24.29417837
_cell_angle_alpha   76.38773989
_cell_angle_beta   90.00000000
_cell_angle_gamma   90.00000000
_symmetry_Int_Tables_number   1
_chemical_formula_structural   KMnVO4
_chemical_formula_sum   'K16 Mn16 V16 O64'
_cell_volume   1660.17667818
_cell_formula_units_Z   16
loop_
 _symmetry_equiv_pos_site_id
 _symmetry_equiv_pos_as_xyz
  1  'x, y, z'
loop_
 _atom_site_type_symbol
 _atom_site_label
 _atom_site_symmetry_multiplicity
 _atom_site_fract_x
 _atom_site_fract_y
 _atom_site_fract_z
 _atom_site_occupancy
  K  K0  1  0.78635500  0.44120600  0.18716600  1
  K  K1  1  0.28418900  0.80701100  0.06438100  1
  K  K2  1  0.27004900  0.37667100  0.30481600  1
  K  K3  1  0.21581100  0.30701100  0.56438100  1
  K  K4  1  0.77004900  0.12332900  0.19518400  1
  K  K5  1  0.27268700  0.73455600  0.31501200  1
  K  K6  1  0.21364500  0.55879400  0.81283400  1
  K  K7  1  0.22731300  0.23455600  0.81501200  1
  K  K8  1  0.78418900  0.69298900  0.43561900  1
  K  K9  1  0.77268700  0.76544400  0.18498800  1
  K  K10  1  0.71581100  0.19298900  0.93561900  1
  K  K11  1  0.72995100  0.62332900  0.69518400  1
  K  K12  1  0.28635500  0.05879400  0.31283400  1
  K  K13  1  0.72731300  0.26544400  0.68498800  1
  K  K14  1  0.22995100  0.87667100  0.80481600  1
  K  K15  1  0.71364500  0.94120600  0.68716600  1
  Mn  Mn16  1  0.23558000  0.44057700  0.68158700  1
  Mn  Mn17  1  0.74223100  0.38605500  0.43929000  1
  Mn  Mn18  1  0.76442000  0.55942300  0.31841300  1
  Mn  Mn19  1  0.25768200  0.67636600  0.94158200  1
  Mn  Mn20  1  0.24231800  0.17636600  0.44158200  1
  Mn  Mn21  1  0.74231800  0.32363400  0.05841800  1
  Mn  Mn22  1  0.27716500  0.49962700  0.07717000  1
  Mn  Mn23  1  0.75776900  0.88605500  0.93929000  1
  Mn  Mn24  1  0.22283500  0.99962700  0.57717000  1
  Mn  Mn25  1  0.77716500  0.00037300  0.42283000  1
  Mn  Mn26  1  0.24223100  0.11394500  0.06071000  1
  Mn  Mn27  1  0.73558000  0.05942300  0.81841300  1
  Mn  Mn28  1  0.25776900  0.61394500  0.56071000  1
  Mn  Mn29  1  0.72283500  0.50037300  0.92283000  1
  Mn  Mn30  1  0.75768200  0.82363400  0.55841800  1
  Mn  Mn31  1  0.26442000  0.94057700  0.18158700  1
  V  V32  1  0.27025900  0.86465500  0.46395300  1
  V  V33  1  0.72689600  0.38576000  0.79112300  1
  V  V34  1  0.75489900  0.23392800  0.34736400  1
  V  V35  1  0.77025900  0.63534500  0.03604700  1
  V  V36  1  0.22974100  0.36465500  0.96395300  1
  V  V37  1  0.24510100  0.76607200  0.65263600  1
  V  V38  1  0.77310400  0.88576000  0.29112300  1
  V  V39  1  0.22698000  0.99431600  0.92985300  1
  V  V40  1  0.25489900  0.26607200  0.15263600  1
  V  V41  1  0.22689600  0.11424000  0.70887700  1
  V  V42  1  0.27310400  0.61424000  0.20887700  1
  V  V43  1  0.72698000  0.50568400  0.57014700  1
  V  V44  1  0.27302000  0.49431600  0.42985300  1
  V  V45  1  0.74510100  0.73392800  0.84736400  1
  V  V46  1  0.77302000  0.00568400  0.07014700  1
  V  V47  1  0.72974100  0.13534500  0.53604700  1
  O  O48  1  0.49418600  0.01448000  0.89273000  1
  O  O49  1  0.25268000  0.31264900  0.90618800  1
  O  O50  1  0.74967600  0.45493100  0.50994200  1
  O  O51  1  0.74732000  0.68735100  0.09381200  1
  O  O52  1  0.22159200  0.26036100  0.68838300  1
  O  O53  1  0.81558000  0.72612700  0.78101000  1
  O  O54  1  0.75032400  0.95493100  0.00994200  1
  O  O55  1  0.95429200  0.80403100  0.63549900  1
  O  O56  1  0.38688300  0.27541200  0.01986700  1
  O  O57  1  0.28380100  0.62574500  0.64835800  1
  O  O58  1  0.92453800  0.38042400  0.97838500  1
  O  O59  1  0.50581400  0.98552000  0.10727000  1
  O  O60  1  0.97975700  0.06852000  0.74995300  1
  O  O61  1  0.15051900  0.85019200  0.94609400  1
  O  O62  1  0.24967600  0.04506900  0.99005800  1
  O  O63  1  0.27840800  0.76036100  0.18838300  1
  O  O64  1  0.50161900  0.44073700  0.61386800  1
  O  O65  1  0.73429700  0.44424100  0.84968300  1
  O  O66  1  0.45429200  0.69596900  0.86450100  1
  O  O67  1  0.78380100  0.87425500  0.85164200  1
  O  O68  1  0.56332200  0.14262200  0.39589100  1
  O  O69  1  0.18442000  0.27387300  0.21899000  1
  O  O70  1  0.24732000  0.81264900  0.40618800  1
  O  O71  1  0.04570800  0.19596900  0.36450100  1
  O  O72  1  0.31558000  0.77387300  0.71899000  1
  O  O73  1  0.54570800  0.30403100  0.13549900  1
  O  O74  1  0.93667800  0.64262200  0.89589100  1
  O  O75  1  0.26570300  0.55575900  0.15031700  1
  O  O76  1  0.62792100  0.50342500  0.05099900  1
  O  O77  1  0.43667800  0.85737800  0.60410900  1
  O  O78  1  0.77840800  0.73963900  0.31161700  1
  O  O79  1  0.84948100  0.14980800  0.05390600  1
  O  O80  1  0.88688300  0.22458800  0.48013300  1
  O  O81  1  0.99838100  0.94073700  0.11386800  1
  O  O82  1  0.12792100  0.99657500  0.44900100  1
  O  O83  1  0.76570300  0.94424100  0.34968300  1
  O  O84  1  0.02024300  0.93148000  0.25004700  1
  O  O85  1  0.53032700  0.92946000  0.24753300  1
  O  O86  1  0.61311700  0.72458800  0.98013300  1
  O  O87  1  0.42453800  0.11957600  0.52161500  1
  O  O88  1  0.00161900  0.05926300  0.88613200  1
  O  O89  1  0.96967300  0.42946000  0.74753300  1
  O  O90  1  0.25032400  0.54506900  0.49005800  1
  O  O91  1  0.23429700  0.05575900  0.65031700  1
  O  O92  1  0.37207900  0.49657500  0.94900100  1
  O  O93  1  0.87207900  0.00342500  0.55099900  1
  O  O94  1  0.06332200  0.35737800  0.10410900  1
  O  O95  1  0.07546200  0.61957600  0.02161500  1
  O  O96  1  0.21619900  0.12574500  0.14835800  1
  O  O97  1  0.52024300  0.56852000  0.24995300  1
  O  O98  1  0.34948100  0.35019200  0.44609400  1
  O  O99  1  0.57546200  0.88042400  0.47838500  1
  O  O100  1  0.11311700  0.77541200  0.51986700  1
  O  O101  1  0.65051900  0.64980800  0.55390600  1
  O  O102  1  0.00581400  0.51448000  0.39273000  1
  O  O103  1  0.49838100  0.55926300  0.38613200  1
  O  O104  1  0.46967300  0.07054000  0.75246700  1
  O  O105  1  0.75268000  0.18735100  0.59381200  1
  O  O106  1  0.99418600  0.48552000  0.60727000  1
  O  O107  1  0.72159200  0.23963900  0.81161700  1
  O  O108  1  0.71619900  0.37425500  0.35164200  1
  O  O109  1  0.68442000  0.22612700  0.28101000  1
  O  O110  1  0.47975700  0.43148000  0.75004700  1
  O  O111  1  0.03032700  0.57054000  0.25246700  1
