# generated using pymatgen
data_SrF
_symmetry_space_group_name_H-M   'P 1'
_cell_length_a   4.23929907
_cell_length_b   4.23929907
_cell_length_c   6.82816900
_cell_angle_alpha   90.00000000
_cell_angle_beta   90.00000000
_cell_angle_gamma   120.00001673
_symmetry_Int_Tables_number   1
_chemical_formula_structural   SrF
_chemical_formula_sum   'Sr2 F2'
_cell_volume   106.27299794
_cell_formula_units_Z   2
loop_
 _symmetry_equiv_pos_site_id
 _symmetry_equiv_pos_as_xyz
  1  'x, y, z'
loop_
 _atom_site_type_symbol
 _atom_site_label
 _atom_site_symmetry_multiplicity
 _atom_site_fract_x
 _atom_site_fract_y
 _atom_site_fract_z
 _atom_site_occupancy
  Sr  Sr0  1  0.66666700  0.33333300  0.87643900  1
  Sr  Sr1  1  0.33333300  0.66666700  0.37643900  1
  F  F2  1  0.66666700  0.33333300  0.49856200  1
  F  F3  1  0.33333300  0.66666700  0.99856200  1
