# generated using pymatgen
data_SiO2
_symmetry_space_group_name_H-M   'P 1'
_cell_length_a   12.64948957
_cell_length_b   11.89508923
_cell_length_c   5.84957661
_cell_angle_alpha   83.52176750
_cell_angle_beta   69.12447884
_cell_angle_gamma   27.35375366
_symmetry_Int_Tables_number   1
_chemical_formula_structural   SiO2
_chemical_formula_sum   'Si8 O16'
_cell_volume   332.64645054
_cell_formula_units_Z   8
loop_
 _symmetry_equiv_pos_site_id
 _symmetry_equiv_pos_as_xyz
  1  'x, y, z'
loop_
 _atom_site_type_symbol
 _atom_site_label
 _atom_site_symmetry_multiplicity
 _atom_site_fract_x
 _atom_site_fract_y
 _atom_site_fract_z
 _atom_site_occupancy
  Si  Si0  1  0.99840500  0.36970500  0.20097700  1
  Si  Si1  1  0.36970500  0.99840500  0.43091300  1
  Si  Si2  1  0.25159500  0.88029500  0.04902300  1
  Si  Si3  1  0.04902300  0.81908700  0.25159500  1
  Si  Si4  1  0.88029500  0.25159500  0.81908700  1
  Si  Si5  1  0.20097700  0.43091300  0.99840500  1
  Si  Si6  1  0.81908700  0.04902300  0.88029500  1
  Si  Si7  1  0.43091300  0.20097700  0.36970500  1
  O  O8  1  0.03194500  0.46805500  0.03194500  1
  O  O9  1  0.12500000  0.12500000  0.12500000  1
  O  O10  1  0.29763900  0.29763900  0.20236100  1
  O  O11  1  0.90961400  0.90961400  0.59038600  1
  O  O12  1  0.21805500  0.78194500  0.21805500  1
  O  O13  1  0.95236100  0.95236100  0.04763900  1
  O  O14  1  0.20236100  0.20236100  0.29763900  1
  O  O15  1  0.46805500  0.03194500  0.46805500  1
  O  O16  1  0.78194500  0.21805500  0.78194500  1
  O  O17  1  0.34038600  0.34038600  0.65961400  1
  O  O18  1  0.04763900  0.04763900  0.95236100  1
  O  O19  1  0.59038600  0.59038600  0.90961400  1
  O  O20  1  0.12500000  0.12500000  0.62500000  1
  O  O21  1  0.65961400  0.65961400  0.34038600  1
  O  O22  1  0.12500000  0.62500000  0.12500000  1
  O  O23  1  0.62500000  0.12500000  0.12500000  1
