# generated using pymatgen
data_Si(PbO2)2
_symmetry_space_group_name_H-M   'P 1'
_cell_length_a   7.32009949
_cell_length_b   7.32009949
_cell_length_c   19.80596961
_cell_angle_alpha   83.95211614
_cell_angle_beta   83.95211614
_cell_angle_gamma   64.31129015
_symmetry_Int_Tables_number   1
_chemical_formula_structural   Si(PbO2)2
_chemical_formula_sum   'Si8 Pb16 O32'
_cell_volume   948.95091080
_cell_formula_units_Z   8
loop_
 _symmetry_equiv_pos_site_id
 _symmetry_equiv_pos_as_xyz
  1  'x, y, z'
loop_
 _atom_site_type_symbol
 _atom_site_label
 _atom_site_symmetry_multiplicity
 _atom_site_fract_x
 _atom_site_fract_y
 _atom_site_fract_z
 _atom_site_occupancy
  Si  Si0  1  0.08172800  0.90886400  0.33090900  1
  Si  Si1  1  0.65796200  0.33323700  0.33080900  1
  Si  Si2  1  0.90886400  0.08172800  0.83090900  1
  Si  Si3  1  0.34203800  0.66676300  0.66919100  1
  Si  Si4  1  0.09113600  0.91827200  0.16909100  1
  Si  Si5  1  0.91827200  0.09113600  0.66909100  1
  Si  Si6  1  0.33323700  0.65796200  0.83080900  1
  Si  Si7  1  0.66676300  0.34203800  0.16919100  1
  Pb  Pb8  1  0.49850500  0.74705200  0.00348500  1
  Pb  Pb9  1  0.25156000  0.99932700  0.49883600  1
  Pb  Pb10  1  0.00067300  0.74844000  0.00116400  1
  Pb  Pb11  1  0.39389300  0.14244300  0.84156900  1
  Pb  Pb12  1  0.60610700  0.85755700  0.15843100  1
  Pb  Pb13  1  0.74844000  0.00067300  0.50116400  1
  Pb  Pb14  1  0.85755700  0.60610700  0.65843100  1
  Pb  Pb15  1  0.74705200  0.49850500  0.50348500  1
  Pb  Pb16  1  0.50149500  0.25294800  0.99651500  1
  Pb  Pb17  1  0.39484000  0.14930000  0.65822600  1
  Pb  Pb18  1  0.14930000  0.39484000  0.15822600  1
  Pb  Pb19  1  0.60516000  0.85070000  0.34177400  1
  Pb  Pb20  1  0.99932700  0.25156000  0.99883600  1
  Pb  Pb21  1  0.85070000  0.60516000  0.84177400  1
  Pb  Pb22  1  0.25294800  0.50149500  0.49651500  1
  Pb  Pb23  1  0.14244300  0.39389300  0.34156900  1
  O  O24  1  0.83921300  0.58612400  0.95522200  1
  O  O25  1  0.13399200  0.88395400  0.66708500  1
  O  O26  1  0.08843200  0.33523100  0.45389100  1
  O  O27  1  0.16078700  0.41387600  0.04477800  1
  O  O28  1  0.50254700  0.71285900  0.86105500  1
  O  O29  1  0.70515100  0.52591600  0.12530400  1
  O  O30  1  0.47408400  0.29484900  0.37469600  1
  O  O31  1  0.49745300  0.28714100  0.13894500  1
  O  O32  1  0.95947100  0.25262400  0.86221400  1
  O  O33  1  0.04052900  0.74737600  0.13778600  1
  O  O34  1  0.33523100  0.08843200  0.95389100  1
  O  O35  1  0.27448600  0.95843500  0.12548300  1
  O  O36  1  0.91156800  0.66476900  0.54610900  1
  O  O37  1  0.14544500  0.85455500  0.25000000  1
  O  O38  1  0.71285900  0.50254700  0.36105500  1
  O  O39  1  0.95843500  0.27448600  0.62548300  1
  O  O40  1  0.04156500  0.72551400  0.37451700  1
  O  O41  1  0.29484900  0.47408400  0.87469600  1
  O  O42  1  0.11604600  0.86600800  0.83291500  1
  O  O43  1  0.86600800  0.11604600  0.33291500  1
  O  O44  1  0.66476900  0.91156800  0.04610900  1
  O  O45  1  0.85455500  0.14544500  0.75000000  1
  O  O46  1  0.28714100  0.49745300  0.63894500  1
  O  O47  1  0.52591600  0.70515100  0.62530400  1
  O  O48  1  0.39691900  0.60308100  0.75000000  1
  O  O49  1  0.74737600  0.04052900  0.63778600  1
  O  O50  1  0.41387600  0.16078700  0.54477800  1
  O  O51  1  0.60308100  0.39691900  0.25000000  1
  O  O52  1  0.88395400  0.13399200  0.16708500  1
  O  O53  1  0.58612400  0.83921300  0.45522200  1
  O  O54  1  0.72551400  0.04156500  0.87451700  1
  O  O55  1  0.25262400  0.95947100  0.36221400  1
