# generated using pymatgen
data_NbTe7Br5O
_symmetry_space_group_name_H-M   'P 1'
_cell_length_a   8.20446500
_cell_length_b   8.61341900
_cell_length_c   27.02271500
_cell_angle_alpha   90.00000000
_cell_angle_beta   90.00000000
_cell_angle_gamma   90.00000000
_symmetry_Int_Tables_number   1
_chemical_formula_structural   NbTe7Br5O
_chemical_formula_sum   'Nb4 Te28 Br20 O4'
_cell_volume   1909.65459219
_cell_formula_units_Z   4
loop_
 _symmetry_equiv_pos_site_id
 _symmetry_equiv_pos_as_xyz
  1  'x, y, z'
loop_
 _atom_site_type_symbol
 _atom_site_label
 _atom_site_symmetry_multiplicity
 _atom_site_fract_x
 _atom_site_fract_y
 _atom_site_fract_z
 _atom_site_occupancy
  Nb  Nb0  1  0.21543800  0.50000000  0.25000000  1
  Nb  Nb1  1  0.28456200  0.50000000  0.75000000  1
  Nb  Nb2  1  0.71543800  0.50000000  0.25000000  1
  Nb  Nb3  1  0.78456200  0.50000000  0.75000000  1
  Te  Te4  1  0.43809600  0.24782200  0.42539100  1
  Te  Te5  1  0.56190400  0.75217800  0.57460900  1
  Te  Te6  1  0.93809600  0.75217800  0.42539100  1
  Te  Te7  1  0.43809600  0.75217800  0.07460900  1
  Te  Te8  1  0.47227000  0.98369800  0.64226500  1
  Te  Te9  1  0.91711200  0.23206200  0.92151300  1
  Te  Te10  1  0.41711200  0.76793800  0.92151300  1
  Te  Te11  1  0.02773000  0.98369800  0.35773500  1
  Te  Te12  1  0.52773000  0.98369800  0.14226500  1
  Te  Te13  1  0.08288800  0.76793800  0.07848700  1
  Te  Te14  1  0.52773000  0.01630200  0.35773500  1
  Te  Te15  1  0.02773000  0.01630200  0.14226500  1
  Te  Te16  1  0.08288800  0.23206200  0.42151300  1
  Te  Te17  1  0.58288800  0.23206200  0.07848700  1
  Te  Te18  1  0.56190400  0.24782200  0.92539100  1
  Te  Te19  1  0.41711200  0.23206200  0.57848700  1
  Te  Te20  1  0.58288800  0.76793800  0.42151300  1
  Te  Te21  1  0.50000000  0.00000000  0.50000000  1
  Te  Te22  1  0.91711200  0.76793800  0.57848700  1
  Te  Te23  1  0.97227000  0.98369800  0.85773500  1
  Te  Te24  1  0.06190400  0.75217800  0.92539100  1
  Te  Te25  1  0.97227000  0.01630200  0.64226500  1
  Te  Te26  1  0.06190400  0.24782200  0.57460900  1
  Te  Te27  1  0.00000000  0.00000000  0.00000000  1
  Te  Te28  1  0.93809600  0.24782200  0.07460900  1
  Te  Te29  1  0.47227000  0.01630200  0.85773500  1
  Te  Te30  1  0.00000000  0.00000000  0.50000000  1
  Te  Te31  1  0.50000000  0.00000000  0.00000000  1
  Br  Br32  1  0.25473100  0.56660800  0.34193500  1
  Br  Br33  1  0.24526900  0.43339200  0.84193500  1
  Br  Br34  1  0.75000000  0.49303500  0.50000000  1
  Br  Br35  1  0.75187300  0.20965100  0.22860900  1
  Br  Br36  1  0.74526900  0.56660800  0.84193500  1
  Br  Br37  1  0.24526900  0.56660800  0.65806500  1
  Br  Br38  1  0.25187300  0.79034900  0.22860900  1
  Br  Br39  1  0.25473100  0.43339200  0.15806500  1
  Br  Br40  1  0.75473100  0.43339200  0.34193500  1
  Br  Br41  1  0.24812700  0.79034900  0.77139100  1
  Br  Br42  1  0.74526900  0.43339200  0.65806500  1
  Br  Br43  1  0.75187300  0.79034900  0.27139100  1
  Br  Br44  1  0.74812700  0.20965100  0.77139100  1
  Br  Br45  1  0.25000000  0.49303500  0.00000000  1
  Br  Br46  1  0.25000000  0.50696500  0.50000000  1
  Br  Br47  1  0.75473100  0.56660800  0.15806500  1
  Br  Br48  1  0.25187300  0.20965100  0.27139100  1
  Br  Br49  1  0.24812700  0.20965100  0.72860900  1
  Br  Br50  1  0.74812700  0.79034900  0.72860900  1
  Br  Br51  1  0.75000000  0.50696500  0.00000000  1
  O  O52  1  0.49810900  0.50000000  0.25000000  1
  O  O53  1  0.99810900  0.50000000  0.25000000  1
  O  O54  1  0.50189100  0.50000000  0.75000000  1
  O  O55  1  0.00189100  0.50000000  0.75000000  1
