# generated using pymatgen
data_Ba2Mn2Bi2O
_symmetry_space_group_name_H-M   'P 1'
_cell_length_a   4.89514700
_cell_length_b   4.89514422
_cell_length_c   20.48241000
_cell_angle_alpha   90.00000037
_cell_angle_beta   89.99999441
_cell_angle_gamma   120.00009942
_symmetry_Int_Tables_number   1
_chemical_formula_structural   Ba2Mn2Bi2O
_chemical_formula_sum   'Ba4 Mn4 Bi4 O2'
_cell_volume   425.05240822
_cell_formula_units_Z   2
loop_
 _symmetry_equiv_pos_site_id
 _symmetry_equiv_pos_as_xyz
  1  'x, y, z'
loop_
 _atom_site_type_symbol
 _atom_site_label
 _atom_site_symmetry_multiplicity
 _atom_site_fract_x
 _atom_site_fract_y
 _atom_site_fract_z
 _atom_site_occupancy
  Ba  Ba0  1  0.99999900  0.00000100  0.74999200  1
  Ba  Ba1  1  0.00000000  0.00000100  0.24999200  1
  Ba  Ba2  1  0.00000000  0.00000100  0.49999400  1
  Ba  Ba3  1  0.00000000  0.00000100  0.99999400  1
  Mn  Mn4  1  0.33334500  0.66665400  0.84887600  1
  Mn  Mn5  1  0.66666200  0.33333800  0.34888200  1
  Mn  Mn6  1  0.66666300  0.33333800  0.15116100  1
  Mn  Mn7  1  0.33333400  0.66666300  0.65116300  1
  Bi  Bi8  1  0.66666700  0.33333400  0.88893100  1
  Bi  Bi9  1  0.66666700  0.33333400  0.61105800  1
  Bi  Bi10  1  0.33333300  0.66666800  0.38893100  1
  Bi  Bi11  1  0.33333300  0.66666800  0.11105800  1
  O  O12  1  0.66666700  0.33333400  0.24998400  1
  O  O13  1  0.33333300  0.66666700  0.74998400  1
