# generated using pymatgen
data_SiO2
_symmetry_space_group_name_H-M   'P 1'
_cell_length_a   5.51378251
_cell_length_b   5.51378251
_cell_length_c   5.50681442
_cell_angle_alpha   83.14231000
_cell_angle_beta   83.14231000
_cell_angle_gamma   99.97561009
_symmetry_Int_Tables_number   1
_chemical_formula_structural   SiO2
_chemical_formula_sum   'Si4 O8'
_cell_volume   162.01765331
_cell_formula_units_Z   4
loop_
 _symmetry_equiv_pos_site_id
 _symmetry_equiv_pos_as_xyz
  1  'x, y, z'
loop_
 _atom_site_type_symbol
 _atom_site_label
 _atom_site_symmetry_multiplicity
 _atom_site_fract_x
 _atom_site_fract_y
 _atom_site_fract_z
 _atom_site_occupancy
  Si  Si0  1  0.71393600  0.71253800  0.71249300  1
  Si  Si1  1  0.60274200  0.85370400  0.20913300  1
  Si  Si2  1  0.28746200  0.28606400  0.28750700  1
  Si  Si3  1  0.14629600  0.39725800  0.79086700  1
  O  O4  1  0.10003700  0.26058500  0.07778900  1
  O  O5  1  0.42166700  0.57931800  0.24976100  1
  O  O6  1  0.46916900  0.08942000  0.24258400  1
  O  O7  1  0.91058000  0.53083100  0.75741600  1
  O  O8  1  0.15563100  0.21539700  0.57581900  1
  O  O9  1  0.42068200  0.57833300  0.75023900  1
  O  O10  1  0.73941500  0.89996300  0.92221100  1
  O  O11  1  0.78460300  0.84436900  0.42418100  1
