# generated using pymatgen
data_Ca2SiCl2O3
_symmetry_space_group_name_H-M   'P 1'
_cell_length_a   8.98939780
_cell_length_b   8.98939780
_cell_length_c   8.98939780
_cell_angle_alpha   106.18162350
_cell_angle_beta   106.18162350
_cell_angle_gamma   116.27204955
_symmetry_Int_Tables_number   1
_chemical_formula_structural   Ca2SiCl2O3
_chemical_formula_sum   'Ca8 Si4 Cl8 O12'
_cell_volume   553.22680872
_cell_formula_units_Z   4
loop_
 _symmetry_equiv_pos_site_id
 _symmetry_equiv_pos_as_xyz
  1  'x, y, z'
loop_
 _atom_site_type_symbol
 _atom_site_label
 _atom_site_symmetry_multiplicity
 _atom_site_fract_x
 _atom_site_fract_y
 _atom_site_fract_z
 _atom_site_occupancy
  Ca  Ca0  1  0.52104600  0.18845200  0.17184600  1
  Ca  Ca1  1  0.48426900  0.81657700  0.82823500  1
  Ca  Ca2  1  0.98834200  0.65603400  0.17176500  1
  Ca  Ca3  1  0.81657700  0.98834200  0.33230800  1
  Ca  Ca4  1  0.01660600  0.34920000  0.82815400  1
  Ca  Ca5  1  0.65603400  0.48426900  0.66769200  1
  Ca  Ca6  1  0.34920000  0.52104600  0.33259400  1
  Ca  Ca7  1  0.18845200  0.01660600  0.66740600  1
  Si  Si8  1  0.10661400  0.81516100  0.91637600  1
  Si  Si9  1  0.19023800  0.10661400  0.29145300  1
  Si  Si10  1  0.89878500  0.19023800  0.08362400  1
  Si  Si11  1  0.81516100  0.89878500  0.70854700  1
  Cl  Cl12  1  0.24697500  0.74697500  0.50000000  1
  Cl  Cl13  1  0.74697500  0.24697500  0.50000000  1
  Cl  Cl14  1  0.57739000  0.24419400  0.81784000  1
  Cl  Cl15  1  0.71421100  0.71421100  0.00000000  1
  Cl  Cl16  1  0.29028800  0.29028800  0.00000000  1
  Cl  Cl17  1  0.42635400  0.75955000  0.18216000  1
  Cl  Cl18  1  0.75955000  0.57739000  0.33319600  1
  Cl  Cl19  1  0.24419400  0.42635400  0.66680400  1
  O  O20  1  0.40226600  0.29154100  0.38780600  1
  O  O21  1  0.82916700  0.05215600  0.87627200  1
  O  O22  1  0.95289500  0.82916700  0.77701100  1
  O  O23  1  0.17588400  0.95289500  0.12372800  1
  O  O24  1  0.99025500  0.60268900  0.88822500  1
  O  O25  1  0.05215600  0.17588400  0.22298900  1
  O  O26  1  0.01446000  0.40226600  0.11072500  1
  O  O27  1  0.60268900  0.71446400  0.61243400  1
  O  O28  1  0.90373500  0.01446000  0.61219400  1
  O  O29  1  0.71446400  0.10203000  0.11177500  1
  O  O30  1  0.10203000  0.99025500  0.38756600  1
  O  O31  1  0.29154100  0.90373500  0.88927500  1
