# generated using pymatgen
data_CaBi2B2O7
_symmetry_space_group_name_H-M   'P 1'
_cell_length_a   5.56287000
_cell_length_b   8.98368900
_cell_length_c   12.76517000
_cell_angle_alpha   90.00000000
_cell_angle_beta   90.00000000
_cell_angle_gamma   90.00000000
_symmetry_Int_Tables_number   1
_chemical_formula_structural   CaBi2B2O7
_chemical_formula_sum   'Ca4 Bi8 B8 O28'
_cell_volume   637.94057103
_cell_formula_units_Z   4
loop_
 _symmetry_equiv_pos_site_id
 _symmetry_equiv_pos_as_xyz
  1  'x, y, z'
loop_
 _atom_site_type_symbol
 _atom_site_label
 _atom_site_symmetry_multiplicity
 _atom_site_fract_x
 _atom_site_fract_y
 _atom_site_fract_z
 _atom_site_occupancy
  Ca  Ca0  1  0.55392600  0.82573300  0.75000000  1
  Ca  Ca1  1  0.94607400  0.32573300  0.75000000  1
  Ca  Ca2  1  0.05392600  0.67426700  0.25000000  1
  Ca  Ca3  1  0.44607400  0.17426700  0.25000000  1
  Bi  Bi4  1  0.06644200  0.66761600  0.90835400  1
  Bi  Bi5  1  0.56644200  0.83238400  0.40835400  1
  Bi  Bi6  1  0.93355800  0.33238400  0.40835400  1
  Bi  Bi7  1  0.43355800  0.16761600  0.59164600  1
  Bi  Bi8  1  0.56644200  0.83238400  0.09164600  1
  Bi  Bi9  1  0.06644200  0.66761600  0.59164600  1
  Bi  Bi10  1  0.43355800  0.16761600  0.90835400  1
  Bi  Bi11  1  0.93355800  0.33238400  0.09164600  1
  B  B12  1  0.48496300  0.47620600  0.87991100  1
  B  B13  1  0.51503700  0.52379400  0.12008900  1
  B  B14  1  0.01503700  0.97620600  0.87991100  1
  B  B15  1  0.51503700  0.52379400  0.37991100  1
  B  B16  1  0.48496300  0.47620600  0.62008900  1
  B  B17  1  0.01503700  0.97620600  0.62008900  1
  B  B18  1  0.98496300  0.02379400  0.12008900  1
  B  B19  1  0.98496300  0.02379400  0.37991100  1
  O  O20  1  0.77009600  0.10748400  0.37871100  1
  O  O21  1  0.22990400  0.89251600  0.62128900  1
  O  O22  1  0.27009600  0.39251600  0.62128900  1
  O  O23  1  0.80415700  0.89817000  0.88923800  1
  O  O24  1  0.03593400  0.37261700  0.25000000  1
  O  O25  1  0.22990400  0.89251600  0.87871100  1
  O  O26  1  0.69584300  0.39817000  0.61076200  1
  O  O27  1  0.72990400  0.60748400  0.12128900  1
  O  O28  1  0.03703800  0.12855200  0.62457300  1
  O  O29  1  0.96296200  0.87144800  0.12457300  1
  O  O30  1  0.53703800  0.37144800  0.12457300  1
  O  O31  1  0.46296200  0.62855200  0.87542700  1
  O  O32  1  0.19584300  0.10183000  0.11076200  1
  O  O33  1  0.69584300  0.39817000  0.88923800  1
  O  O34  1  0.46296200  0.62855200  0.62457300  1
  O  O35  1  0.53593400  0.12738300  0.75000000  1
  O  O36  1  0.19584300  0.10183000  0.38923800  1
  O  O37  1  0.30415700  0.60183000  0.38923800  1
  O  O38  1  0.72990400  0.60748400  0.37871100  1
  O  O39  1  0.46406600  0.87261700  0.25000000  1
  O  O40  1  0.96406600  0.62738300  0.75000000  1
  O  O41  1  0.77009600  0.10748400  0.12128900  1
  O  O42  1  0.53703800  0.37144800  0.37542700  1
  O  O43  1  0.30415700  0.60183000  0.11076200  1
  O  O44  1  0.80415700  0.89817000  0.61076200  1
  O  O45  1  0.96296200  0.87144800  0.37542700  1
  O  O46  1  0.27009600  0.39251600  0.87871100  1
  O  O47  1  0.03703800  0.12855200  0.87542700  1
