# generated using pymatgen
data_K2Ca(NO2)4
_symmetry_space_group_name_H-M   'P 1'
_cell_length_a   5.47113253
_cell_length_b   5.47113253
_cell_length_c   11.44038345
_cell_angle_alpha   87.49738857
_cell_angle_beta   87.49738857
_cell_angle_gamma   67.59243784
_symmetry_Int_Tables_number   1
_chemical_formula_structural   K2Ca(NO2)4
_chemical_formula_sum   'K2 Ca1 N4 O8'
_cell_volume   316.15468521
_cell_formula_units_Z   1
loop_
 _symmetry_equiv_pos_site_id
 _symmetry_equiv_pos_as_xyz
  1  'x, y, z'
loop_
 _atom_site_type_symbol
 _atom_site_label
 _atom_site_symmetry_multiplicity
 _atom_site_fract_x
 _atom_site_fract_y
 _atom_site_fract_z
 _atom_site_occupancy
  K  K0  1  0.63145000  0.63145000  0.30175800  1
  K  K1  1  0.36855000  0.36855000  0.69824200  1
  Ca  Ca2  1  0.00000000  0.00000000  0.00000000  1
  N  N3  1  0.55468400  0.55468400  0.03531100  1
  N  N4  1  0.26921800  0.26921800  0.27412000  1
  N  N5  1  0.73078200  0.73078200  0.72588000  1
  N  N6  1  0.44531600  0.44531600  0.96468900  1
  O  O7  1  0.79311300  0.41979800  0.07117900  1
  O  O8  1  0.41979800  0.79311300  0.07117900  1
  O  O9  1  0.20688700  0.58020200  0.92882100  1
  O  O10  1  0.16369300  0.51723600  0.29059900  1
  O  O11  1  0.48276400  0.83630700  0.70940100  1
  O  O12  1  0.51723600  0.16369300  0.29059900  1
  O  O13  1  0.58020200  0.20688700  0.92882100  1
  O  O14  1  0.83630700  0.48276400  0.70940100  1
