# generated using pymatgen
data_Na2B4O7
_symmetry_space_group_name_H-M   'P 1'
_cell_length_a   6.85095500
_cell_length_b   9.72997739
_cell_length_c   13.44742973
_cell_angle_alpha   104.36334276
_cell_angle_beta   91.97769220
_cell_angle_gamma   106.32609632
_symmetry_Int_Tables_number   1
_chemical_formula_structural   Na2B4O7
_chemical_formula_sum   'Na12 B24 O42'
_cell_volume   828.11026754
_cell_formula_units_Z   6
loop_
 _symmetry_equiv_pos_site_id
 _symmetry_equiv_pos_as_xyz
  1  'x, y, z'
loop_
 _atom_site_type_symbol
 _atom_site_label
 _atom_site_symmetry_multiplicity
 _atom_site_fract_x
 _atom_site_fract_y
 _atom_site_fract_z
 _atom_site_occupancy
  Na  Na0  1  0.70225400  0.40451500  0.52262200  1
  Na  Na1  1  0.29774600  0.59548500  0.47737800  1
  Na  Na2  1  0.41958200  0.17204100  0.62132200  1
  Na  Na3  1  0.58041800  0.82795900  0.37867800  1
  Na  Na4  1  0.13413700  0.90714100  0.29781200  1
  Na  Na5  1  0.86586300  0.09285900  0.70218800  1
  Na  Na6  1  0.67250900  0.40142500  0.03026000  1
  Na  Na7  1  0.44740600  0.14661000  0.11388400  1
  Na  Na8  1  0.92300000  0.10831900  0.20018000  1
  Na  Na9  1  0.07700000  0.89168100  0.79982000  1
  Na  Na10  1  0.32749100  0.59857500  0.96974000  1
  Na  Na11  1  0.55259400  0.85339000  0.88611600  1
  B  B12  1  0.87998200  0.18431500  0.95470600  1
  B  B13  1  0.82078100  0.66485700  0.91176700  1
  B  B14  1  0.42629900  0.87315100  0.67305100  1
  B  B15  1  0.75668200  0.40209600  0.30003700  1
  B  B16  1  0.12001800  0.81568500  0.04529400  1
  B  B17  1  0.30451400  0.60277800  0.19927600  1
  B  B18  1  0.69548600  0.39722200  0.80072400  1
  B  B19  1  0.29550200  0.24665000  0.42046300  1
  B  B20  1  0.08453800  0.84518400  0.57506300  1
  B  B21  1  0.70848800  0.59815700  0.71923200  1
  B  B22  1  0.17921900  0.33514300  0.08823300  1
  B  B23  1  0.23492900  0.21971400  0.90330900  1
  B  B24  1  0.22615200  0.38977600  0.77531900  1
  B  B25  1  0.29151200  0.40184300  0.28076800  1
  B  B26  1  0.45811000  0.87815400  0.16859100  1
  B  B27  1  0.24331800  0.59790400  0.69996300  1
  B  B28  1  0.54189000  0.12184600  0.83140900  1
  B  B29  1  0.57370100  0.12684900  0.32694900  1
  B  B30  1  0.70449800  0.75335000  0.57953700  1
  B  B31  1  0.76507100  0.78028600  0.09669100  1
  B  B32  1  0.77384800  0.61022400  0.22468100  1
  B  B33  1  0.87026300  0.66339200  0.41634900  1
  B  B34  1  0.12973700  0.33660800  0.58365100  1
  B  B35  1  0.91546200  0.15481600  0.42493700  1
  O  O36  1  0.08651200  0.13897500  0.37658000  1
  O  O37  1  0.30270800  0.27259200  0.01495200  1
  O  O38  1  0.69729200  0.72740800  0.98504800  1
  O  O39  1  0.33396300  0.11469600  0.85012300  1
  O  O40  1  0.70089300  0.69211300  0.46860900  1
  O  O41  1  0.28264100  0.54349600  0.78391100  1
  O  O42  1  0.21969900  0.29756300  0.18768900  1
  O  O43  1  0.23056800  0.50105600  0.10603500  1
  O  O44  1  0.27195600  0.93148600  0.62898900  1
  O  O45  1  0.86494100  0.71041200  0.31695200  1
  O  O46  1  0.54123600  0.82193600  0.59095700  1
  O  O47  1  0.13505900  0.28958800  0.68304800  1
  O  O48  1  0.35932000  0.75388500  0.21808800  1
  O  O49  1  0.14401000  0.49896200  0.60872900  1
  O  O50  1  0.85599000  0.50103800  0.39127100  1
  O  O51  1  0.66886000  0.14693000  0.93394400  1
  O  O52  1  0.92882400  0.24904700  0.52222100  1
  O  O53  1  0.69716000  0.25106600  0.28067100  1
  O  O54  1  0.29910700  0.30788700  0.53139100  1
  O  O55  1  0.72804400  0.06851400  0.37101100  1
  O  O56  1  0.64068000  0.24611500  0.78191200  1
  O  O57  1  0.72919800  0.64383200  0.13624700  1
  O  O58  1  0.66603700  0.88530400  0.14987700  1
  O  O59  1  0.95697000  0.26882600  0.05437000  1
  O  O60  1  0.07117600  0.75095300  0.47777900  1
  O  O61  1  0.30284000  0.74893400  0.71932900  1
  O  O62  1  0.33114000  0.85307000  0.06605600  1
  O  O63  1  0.27080200  0.35616800  0.86375300  1
  O  O64  1  0.45876400  0.17806400  0.40904300  1
  O  O65  1  0.00500200  0.14082100  0.88292000  1
  O  O66  1  0.55849800  0.98576700  0.76080100  1
  O  O67  1  0.91348800  0.86102500  0.62342000  1
  O  O68  1  0.78030100  0.70243700  0.81231100  1
  O  O69  1  0.33114200  0.37285800  0.37124100  1
  O  O70  1  0.04303000  0.73117400  0.94563000  1
  O  O71  1  0.76943200  0.49894400  0.89396500  1
  O  O72  1  0.67431100  0.44608300  0.71210500  1
  O  O73  1  0.71735900  0.45650400  0.21608900  1
  O  O74  1  0.66885800  0.62714200  0.62875900  1
  O  O75  1  0.44150200  0.01423300  0.23919900  1
  O  O76  1  0.32568900  0.55391700  0.28789500  1
  O  O77  1  0.99499800  0.85917900  0.11708000  1
