# generated using pymatgen
data_Ba2Ti2Si2O9F2
_symmetry_space_group_name_H-M   'P 1'
_cell_length_a   8.87257800
_cell_length_b   10.95090100
_cell_length_c   19.04214100
_cell_angle_alpha   90.00000000
_cell_angle_beta   90.00000000
_cell_angle_gamma   90.00000000
_symmetry_Int_Tables_number   1
_chemical_formula_structural   Ba2Ti2Si2O9F2
_chemical_formula_sum   'Ba16 Ti16 Si16 O72 F16'
_cell_volume   1850.18627689
_cell_formula_units_Z   8
loop_
 _symmetry_equiv_pos_site_id
 _symmetry_equiv_pos_as_xyz
  1  'x, y, z'
loop_
 _atom_site_type_symbol
 _atom_site_label
 _atom_site_symmetry_multiplicity
 _atom_site_fract_x
 _atom_site_fract_y
 _atom_site_fract_z
 _atom_site_occupancy
  Ba  Ba0  1  0.74694600  0.69921800  0.78133800  1
  Ba  Ba1  1  0.24694600  0.69921800  0.71866200  1
  Ba  Ba2  1  0.25647300  0.50374500  0.02715800  1
  Ba  Ba3  1  0.75647300  0.99625500  0.97284200  1
  Ba  Ba4  1  0.25305400  0.19921800  0.71866200  1
  Ba  Ba5  1  0.75305400  0.19921800  0.78133800  1
  Ba  Ba6  1  0.25305400  0.30078200  0.21866200  1
  Ba  Ba7  1  0.75647300  0.50374500  0.47284200  1
  Ba  Ba8  1  0.74352700  0.00374500  0.47284200  1
  Ba  Ba9  1  0.75305400  0.30078200  0.28133800  1
  Ba  Ba10  1  0.74694600  0.80078200  0.28133800  1
  Ba  Ba11  1  0.24352700  0.00374500  0.02715800  1
  Ba  Ba12  1  0.24694600  0.80078200  0.21866200  1
  Ba  Ba13  1  0.74352700  0.49625500  0.97284200  1
  Ba  Ba14  1  0.24352700  0.49625500  0.52715800  1
  Ba  Ba15  1  0.25647300  0.99625500  0.52715800  1
  Ti  Ti16  1  0.05048400  0.23762400  0.92274300  1
  Ti  Ti17  1  0.96906400  0.54062300  0.16228700  1
  Ti  Ti18  1  0.96906400  0.95937700  0.66228700  1
  Ti  Ti19  1  0.94951600  0.76237600  0.07725700  1
  Ti  Ti20  1  0.03093600  0.45937700  0.83771300  1
  Ti  Ti21  1  0.44951600  0.76237600  0.42274300  1
  Ti  Ti22  1  0.55048400  0.23762400  0.57725700  1
  Ti  Ti23  1  0.44951600  0.73762400  0.92274300  1
  Ti  Ti24  1  0.55048400  0.26237600  0.07725700  1
  Ti  Ti25  1  0.53093600  0.04062300  0.16228700  1
  Ti  Ti26  1  0.53093600  0.45937700  0.66228700  1
  Ti  Ti27  1  0.03093600  0.04062300  0.33771300  1
  Ti  Ti28  1  0.94951600  0.73762400  0.57725700  1
  Ti  Ti29  1  0.46906400  0.54062300  0.33771300  1
  Ti  Ti30  1  0.05048400  0.26237600  0.42274300  1
  Ti  Ti31  1  0.46906400  0.95937700  0.83771300  1
  Si  Si32  1  0.58397600  0.51747300  0.16878800  1
  Si  Si33  1  0.41602400  0.48252700  0.83121200  1
  Si  Si34  1  0.08397600  0.98252700  0.83121200  1
  Si  Si35  1  0.44033000  0.25859600  0.40991600  1
  Si  Si36  1  0.55967000  0.74140400  0.59008400  1
  Si  Si37  1  0.44033000  0.24140400  0.90991600  1
  Si  Si38  1  0.91602400  0.48252700  0.66878800  1
  Si  Si39  1  0.05967000  0.75859600  0.40991600  1
  Si  Si40  1  0.05967000  0.74140400  0.90991600  1
  Si  Si41  1  0.94033000  0.25859600  0.09008400  1
  Si  Si42  1  0.08397600  0.51747300  0.33121200  1
  Si  Si43  1  0.94033000  0.24140400  0.59008400  1
  Si  Si44  1  0.91602400  0.01747300  0.16878800  1
  Si  Si45  1  0.41602400  0.01747300  0.33121200  1
  Si  Si46  1  0.58397600  0.98252700  0.66878800  1
  Si  Si47  1  0.55967000  0.75859600  0.09008400  1
  O  O48  1  0.73303400  0.99668400  0.17458500  1
  O  O49  1  0.98070500  0.80845800  0.97722200  1
  O  O50  1  0.97014700  0.62099200  0.88259200  1
  O  O51  1  0.51929500  0.19154200  0.47722200  1
  O  O52  1  0.49316500  0.97073800  0.25829700  1
  O  O53  1  0.97014700  0.87900800  0.38259200  1
  O  O54  1  0.23303400  0.99668400  0.32541500  1
  O  O55  1  0.95378400  0.79040500  0.67758400  1
  O  O56  1  0.76696600  0.49668400  0.17458500  1
  O  O57  1  0.26288500  0.28514400  0.42913400  1
  O  O58  1  0.76288500  0.21485600  0.57086600  1
  O  O59  1  0.47014700  0.62099200  0.61740800  1
  O  O60  1  0.73711500  0.78514400  0.07086600  1
  O  O61  1  0.50683500  0.47073800  0.24170300  1
  O  O62  1  0.52985300  0.12099200  0.88259200  1
  O  O63  1  0.44681000  0.16639800  0.33976600  1
  O  O64  1  0.54621600  0.20959500  0.17758400  1
  O  O65  1  0.98070500  0.69154200  0.47722200  1
  O  O66  1  0.46154700  0.90512700  0.93709200  1
  O  O67  1  0.45378400  0.79040500  0.82241600  1
  O  O68  1  0.53845300  0.40512700  0.56290800  1
  O  O69  1  0.53845300  0.09487300  0.06290800  1
  O  O70  1  0.05319000  0.66639800  0.33976600  1
  O  O71  1  0.02985300  0.12099200  0.61740800  1
  O  O72  1  0.48070500  0.69154200  0.02277800  1
  O  O73  1  0.05319000  0.83360200  0.83976600  1
  O  O74  1  0.04621600  0.20959500  0.32241600  1
  O  O75  1  0.01929500  0.30845800  0.52277800  1
  O  O76  1  0.02985300  0.37900800  0.11740800  1
  O  O77  1  0.26288500  0.21485600  0.92913400  1
  O  O78  1  0.94681000  0.16639800  0.16023400  1
  O  O79  1  0.73711500  0.71485600  0.57086600  1
  O  O80  1  0.49316500  0.52926200  0.75829700  1
  O  O81  1  0.97769000  0.55536700  0.60047900  1
  O  O82  1  0.55319000  0.66639800  0.16023400  1
  O  O83  1  0.04621600  0.29040500  0.82241600  1
  O  O84  1  0.26696600  0.49668400  0.32541500  1
  O  O85  1  0.47769000  0.55536700  0.89952100  1
  O  O86  1  0.76288500  0.28514400  0.07086600  1
  O  O87  1  0.26696600  0.00331600  0.82541500  1
  O  O88  1  0.73303400  0.50331600  0.67458500  1
  O  O89  1  0.47014700  0.87900800  0.11740800  1
  O  O90  1  0.76696600  0.00331600  0.67458500  1
  O  O91  1  0.46154700  0.59487300  0.43709200  1
  O  O92  1  0.55319000  0.83360200  0.66023400  1
  O  O93  1  0.97769000  0.94463300  0.10047900  1
  O  O94  1  0.03845300  0.09487300  0.43709200  1
  O  O95  1  0.96154700  0.90512700  0.56290800  1
  O  O96  1  0.02231000  0.05536700  0.89952100  1
  O  O97  1  0.23711500  0.78514400  0.42913400  1
  O  O98  1  0.52231000  0.44463300  0.10047900  1
  O  O99  1  0.95378400  0.70959500  0.17758400  1
  O  O100  1  0.96154700  0.59487300  0.06290800  1
  O  O101  1  0.52231000  0.05536700  0.60047900  1
  O  O102  1  0.48070500  0.80845800  0.52277800  1
  O  O103  1  0.23711500  0.71485600  0.92913400  1
  O  O104  1  0.99316500  0.52926200  0.74170300  1
  O  O105  1  0.01929500  0.19154200  0.02277800  1
  O  O106  1  0.02231000  0.44463300  0.39952100  1
  O  O107  1  0.94681000  0.33360200  0.66023400  1
  O  O108  1  0.52985300  0.37900800  0.38259200  1
  O  O109  1  0.00683500  0.47073800  0.25829700  1
  O  O110  1  0.47769000  0.94463300  0.39952100  1
  O  O111  1  0.03845300  0.40512700  0.93709200  1
  O  O112  1  0.23303400  0.50331600  0.82541500  1
  O  O113  1  0.00683500  0.02926200  0.75829700  1
  O  O114  1  0.51929500  0.30845800  0.97722200  1
  O  O115  1  0.54621600  0.29040500  0.67758400  1
  O  O116  1  0.45378400  0.70959500  0.32241600  1
  O  O117  1  0.99316500  0.97073800  0.24170300  1
  O  O118  1  0.50683500  0.02926200  0.74170300  1
  O  O119  1  0.44681000  0.33360200  0.83976600  1
  F  F120  1  0.82281200  0.27169400  0.41665400  1
  F  F121  1  0.29901600  0.05796700  0.16402600  1
  F  F122  1  0.79901600  0.05796700  0.33597400  1
  F  F123  1  0.20098400  0.55796700  0.16402600  1
  F  F124  1  0.67718800  0.72830600  0.91665400  1
  F  F125  1  0.82281200  0.22830600  0.91665400  1
  F  F126  1  0.29901600  0.44203300  0.66402600  1
  F  F127  1  0.32281200  0.22830600  0.58334600  1
  F  F128  1  0.70098400  0.55796700  0.33597400  1
  F  F129  1  0.20098400  0.94203300  0.66402600  1
  F  F130  1  0.32281200  0.27169400  0.08334600  1
  F  F131  1  0.70098400  0.94203300  0.83597400  1
  F  F132  1  0.67718800  0.77169400  0.41665400  1
  F  F133  1  0.17718800  0.77169400  0.08334600  1
  F  F134  1  0.79901600  0.44203300  0.83597400  1
  F  F135  1  0.17718800  0.72830600  0.58334600  1
