# generated using pymatgen
data_NaNbO2F
_symmetry_space_group_name_H-M   'P 1'
_cell_length_a   5.54797200
_cell_length_b   5.65444500
_cell_length_c   8.30973400
_cell_angle_alpha   90.00000000
_cell_angle_beta   90.00000000
_cell_angle_gamma   90.00000000
_symmetry_Int_Tables_number   1
_chemical_formula_structural   NaNbO2F
_chemical_formula_sum   'Na4 Nb4 O8 F4'
_cell_volume   260.68219346
_cell_formula_units_Z   4
loop_
 _symmetry_equiv_pos_site_id
 _symmetry_equiv_pos_as_xyz
  1  'x, y, z'
loop_
 _atom_site_type_symbol
 _atom_site_label
 _atom_site_symmetry_multiplicity
 _atom_site_fract_x
 _atom_site_fract_y
 _atom_site_fract_z
 _atom_site_occupancy
  Na  Na0  1  0.96814400  0.02469900  0.25000000  1
  Na  Na1  1  0.53185600  0.52469900  0.25000000  1
  Na  Na2  1  0.46814400  0.47530100  0.75000000  1
  Na  Na3  1  0.03185600  0.97530100  0.75000000  1
  Nb  Nb4  1  0.50000000  0.00000000  0.50000000  1
  Nb  Nb5  1  0.50000000  0.00000000  0.00000000  1
  Nb  Nb6  1  0.00000000  0.50000000  0.50000000  1
  Nb  Nb7  1  0.00000000  0.50000000  0.00000000  1
  O  O8  1  0.72521300  0.27283500  0.04110100  1
  O  O9  1  0.22521300  0.22716500  0.54110100  1
  O  O10  1  0.27478700  0.72716500  0.54110100  1
  O  O11  1  0.22521300  0.22716500  0.95889900  1
  O  O12  1  0.72521300  0.27283500  0.45889900  1
  O  O13  1  0.27478700  0.72716500  0.95889900  1
  O  O14  1  0.77478700  0.77283500  0.45889900  1
  O  O15  1  0.77478700  0.77283500  0.04110100  1
  F  F16  1  0.39046200  0.97699400  0.25000000  1
  F  F17  1  0.60953800  0.02300600  0.75000000  1
  F  F18  1  0.89046200  0.52300600  0.75000000  1
  F  F19  1  0.10953800  0.47699400  0.25000000  1
