# generated using pymatgen
data_MnH2(CO2)2
_symmetry_space_group_name_H-M   'P 1'
_cell_length_a   5.93980400
_cell_length_b   7.64368700
_cell_length_c   9.64721300
_cell_angle_alpha   90.00000000
_cell_angle_beta   90.00000000
_cell_angle_gamma   90.00000000
_symmetry_Int_Tables_number   1
_chemical_formula_structural   MnH2(CO2)2
_chemical_formula_sum   'Mn4 H8 C8 O16'
_cell_volume   438.00278988
_cell_formula_units_Z   4
loop_
 _symmetry_equiv_pos_site_id
 _symmetry_equiv_pos_as_xyz
  1  'x, y, z'
loop_
 _atom_site_type_symbol
 _atom_site_label
 _atom_site_symmetry_multiplicity
 _atom_site_fract_x
 _atom_site_fract_y
 _atom_site_fract_z
 _atom_site_occupancy
  Mn  Mn0  1  0.25000000  0.00000000  0.89365600  1
  Mn  Mn1  1  0.25000000  0.50000000  0.39365600  1
  Mn  Mn2  1  0.75000000  0.50000000  0.60634400  1
  Mn  Mn3  1  0.75000000  0.00000000  0.10634400  1
  H  H4  1  0.19082500  0.16511100  0.58777900  1
  H  H5  1  0.80917500  0.83488900  0.41222100  1
  H  H6  1  0.69082500  0.33488900  0.91222100  1
  H  H7  1  0.80917500  0.66511100  0.91222100  1
  H  H8  1  0.30917500  0.83488900  0.58777900  1
  H  H9  1  0.30917500  0.66511100  0.08777900  1
  H  H10  1  0.19082500  0.33488900  0.08777900  1
  H  H11  1  0.69082500  0.16511100  0.41222100  1
  C  C12  1  0.65316600  0.77874200  0.36855100  1
  C  C13  1  0.34683400  0.27874200  0.13144900  1
  C  C14  1  0.84683400  0.27874200  0.86855100  1
  C  C15  1  0.65316600  0.72125800  0.86855100  1
  C  C16  1  0.15316600  0.77874200  0.63144900  1
  C  C17  1  0.84683400  0.22125800  0.36855100  1
  C  C18  1  0.34683400  0.22125800  0.63144900  1
  C  C19  1  0.15316600  0.72125800  0.13144900  1
  O  O20  1  0.92691400  0.34167500  0.75876500  1
  O  O21  1  0.42691400  0.15832500  0.74123500  1
  O  O22  1  0.06543200  0.84800700  0.06274900  1
  O  O23  1  0.56543200  0.84800700  0.93725100  1
  O  O24  1  0.06543200  0.65199300  0.56274900  1
  O  O25  1  0.42691400  0.34167500  0.24123500  1
  O  O26  1  0.43456800  0.34800700  0.56274900  1
  O  O27  1  0.57308600  0.84167500  0.25876500  1
  O  O28  1  0.07308600  0.65832500  0.24123500  1
  O  O29  1  0.93456800  0.15199300  0.93725100  1
  O  O30  1  0.07308600  0.84167500  0.74123500  1
  O  O31  1  0.56543200  0.65199300  0.43725100  1
  O  O32  1  0.92691400  0.15832500  0.25876500  1
  O  O33  1  0.57308600  0.65832500  0.75876500  1
  O  O34  1  0.93456800  0.34800700  0.43725100  1
  O  O35  1  0.43456800  0.15199300  0.06274900  1
