# generated using pymatgen
data_CsTcNClO4
_symmetry_space_group_name_H-M   'P 1'
_cell_length_a   6.62629500
_cell_length_b   8.80125700
_cell_length_c   11.67825300
_cell_angle_alpha   90.00000000
_cell_angle_beta   90.00000000
_cell_angle_gamma   90.00000000
_symmetry_Int_Tables_number   1
_chemical_formula_structural   CsTcNClO4
_chemical_formula_sum   'Cs4 Tc4 N4 Cl4 O16'
_cell_volume   681.07250639
_cell_formula_units_Z   4
loop_
 _symmetry_equiv_pos_site_id
 _symmetry_equiv_pos_as_xyz
  1  'x, y, z'
loop_
 _atom_site_type_symbol
 _atom_site_label
 _atom_site_symmetry_multiplicity
 _atom_site_fract_x
 _atom_site_fract_y
 _atom_site_fract_z
 _atom_site_occupancy
  Cs  Cs0  1  0.27875100  0.38527800  0.17524000  1
  Cs  Cs1  1  0.72124900  0.88527800  0.32476000  1
  Cs  Cs2  1  0.22124900  0.61472200  0.67524000  1
  Cs  Cs3  1  0.77875100  0.11472200  0.82476000  1
  Tc  Tc4  1  0.20984100  0.92618500  0.05590200  1
  Tc  Tc5  1  0.79015900  0.42618500  0.44409800  1
  Tc  Tc6  1  0.29015900  0.07381500  0.55590200  1
  Tc  Tc7  1  0.70984100  0.57381500  0.94409800  1
  N  N8  1  0.49726200  0.97381200  0.57838700  1
  N  N9  1  0.00273800  0.02618800  0.07838700  1
  N  N10  1  0.99726200  0.52618800  0.42161300  1
  N  N11  1  0.50273800  0.47381200  0.92161300  1
  Cl  Cl12  1  0.78538100  0.28307100  0.27157900  1
  Cl  Cl13  1  0.71461900  0.71692900  0.77157900  1
  Cl  Cl14  1  0.21461900  0.78307100  0.22842100  1
  Cl  Cl15  1  0.28538100  0.21692900  0.72842100  1
  O  O16  1  0.18358000  0.85167000  0.89779200  1
  O  O17  1  0.11991800  0.73792500  0.97949400  1
  O  O18  1  0.08920000  0.92228000  0.50498300  1
  O  O19  1  0.31642000  0.14833000  0.39779200  1
  O  O20  1  0.43005900  0.04556300  0.12573700  1
  O  O21  1  0.06994100  0.95443700  0.62573700  1
  O  O22  1  0.58920000  0.57772000  0.49501700  1
  O  O23  1  0.68358000  0.64833000  0.10220800  1
  O  O24  1  0.88008200  0.23792500  0.52050600  1
  O  O25  1  0.91080000  0.42228000  0.99501700  1
  O  O26  1  0.41080000  0.07772000  0.00498300  1
  O  O27  1  0.38008200  0.26207500  0.47949400  1
  O  O28  1  0.93005900  0.45443700  0.87426300  1
  O  O29  1  0.56994100  0.54556300  0.37426300  1
  O  O30  1  0.81642000  0.35167000  0.60220800  1
  O  O31  1  0.61991800  0.76207500  0.02050600  1
