# generated using pymatgen
data_YbCu2(MoO4)3
_symmetry_space_group_name_H-M   'P 1'
_cell_length_a   11.15541000
_cell_length_b   5.12113500
_cell_length_c   8.82135899
_cell_angle_alpha   86.35701204
_cell_angle_beta   90.00000000
_cell_angle_gamma   90.00000000
_symmetry_Int_Tables_number   1
_chemical_formula_structural   YbCu2(MoO4)3
_chemical_formula_sum   'Yb2 Cu4 Mo6 O24'
_cell_volume   502.93146482
_cell_formula_units_Z   2
loop_
 _symmetry_equiv_pos_site_id
 _symmetry_equiv_pos_as_xyz
  1  'x, y, z'
loop_
 _atom_site_type_symbol
 _atom_site_label
 _atom_site_symmetry_multiplicity
 _atom_site_fract_x
 _atom_site_fract_y
 _atom_site_fract_z
 _atom_site_occupancy
  Yb  Yb0  1  0.75000000  0.29634600  0.04933600  1
  Yb  Yb1  1  0.25000000  0.70365400  0.95066400  1
  Cu  Cu2  1  0.57868500  0.26349800  0.44499300  1
  Cu  Cu3  1  0.92131500  0.26349800  0.44499300  1
  Cu  Cu4  1  0.07868500  0.73650200  0.55500700  1
  Cu  Cu5  1  0.42131500  0.73650200  0.55500700  1
  Mo  Mo6  1  0.02632000  0.18142800  0.80167100  1
  Mo  Mo7  1  0.75000000  0.72275400  0.61200300  1
  Mo  Mo8  1  0.25000000  0.27724600  0.38799700  1
  Mo  Mo9  1  0.52632000  0.81857200  0.19832900  1
  Mo  Mo10  1  0.97368000  0.81857200  0.19832900  1
  Mo  Mo11  1  0.47368000  0.18142800  0.80167100  1
  O  O12  1  0.75000000  0.57970200  0.79680300  1
  O  O13  1  0.61274500  0.10814100  0.24935000  1
  O  O14  1  0.25000000  0.42029800  0.20319700  1
  O  O15  1  0.88236100  0.93252400  0.57870000  1
  O  O16  1  0.48686600  0.59050000  0.36388200  1
  O  O17  1  0.11763900  0.06747600  0.42130000  1
  O  O18  1  0.37956100  0.37277900  0.90724200  1
  O  O19  1  0.89606900  0.10532900  0.91009900  1
  O  O20  1  0.38725500  0.89185900  0.75065000  1
  O  O21  1  0.51313400  0.40950000  0.63611800  1
  O  O22  1  0.87956100  0.62722100  0.09275800  1
  O  O23  1  0.25000000  0.53631100  0.52351900  1
  O  O24  1  0.62043900  0.62722100  0.09275800  1
  O  O25  1  0.10393100  0.89467100  0.08990100  1
  O  O26  1  0.38236100  0.06747600  0.42130000  1
  O  O27  1  0.98686600  0.40950000  0.63611800  1
  O  O28  1  0.12043900  0.37277900  0.90724200  1
  O  O29  1  0.11274500  0.89185900  0.75065000  1
  O  O30  1  0.01313400  0.59050000  0.36388200  1
  O  O31  1  0.60393100  0.10532900  0.91009900  1
  O  O32  1  0.75000000  0.46368900  0.47648100  1
  O  O33  1  0.61763900  0.93252400  0.57870000  1
  O  O34  1  0.39606900  0.89467100  0.08990100  1
  O  O35  1  0.88725500  0.10814100  0.24935000  1
