# generated using pymatgen
data_Na(CO)2
_symmetry_space_group_name_H-M   'P 1'
_cell_length_a   6.90581600
_cell_length_b   3.56214100
_cell_length_c   10.47102414
_cell_angle_alpha   87.85570877
_cell_angle_beta   90.00000000
_cell_angle_gamma   90.00000000
_symmetry_Int_Tables_number   1
_chemical_formula_structural   Na(CO)2
_chemical_formula_sum   'Na4 C8 O8'
_cell_volume   257.40148998
_cell_formula_units_Z   4
loop_
 _symmetry_equiv_pos_site_id
 _symmetry_equiv_pos_as_xyz
  1  'x, y, z'
loop_
 _atom_site_type_symbol
 _atom_site_label
 _atom_site_symmetry_multiplicity
 _atom_site_fract_x
 _atom_site_fract_y
 _atom_site_fract_z
 _atom_site_occupancy
  Na  Na0  1  0.55845100  0.29396000  0.84932800  1
  Na  Na1  1  0.44154900  0.70604000  0.15067200  1
  Na  Na2  1  0.94154900  0.29396000  0.34932800  1
  Na  Na3  1  0.05845100  0.70604000  0.65067200  1
  C  C4  1  0.85937700  0.89275500  0.99943800  1
  C  C5  1  0.48322300  0.90216500  0.59454400  1
  C  C6  1  0.14062300  0.10724500  0.00056200  1
  C  C7  1  0.35937700  0.10724500  0.50056200  1
  C  C8  1  0.98322300  0.09783500  0.90545600  1
  C  C9  1  0.51677700  0.09783500  0.40545600  1
  C  C10  1  0.64062300  0.89275500  0.49943800  1
  C  C11  1  0.01677700  0.90216500  0.09454400  1
  O  O12  1  0.95526700  0.21263200  0.79106200  1
  O  O13  1  0.04473300  0.78736800  0.20893800  1
  O  O14  1  0.31197400  0.23078300  0.00582400  1
  O  O15  1  0.54473300  0.21263200  0.29106200  1
  O  O16  1  0.45526700  0.78736800  0.70893800  1
  O  O17  1  0.81197400  0.76921700  0.49417600  1
  O  O18  1  0.18802600  0.23078300  0.50582400  1
  O  O19  1  0.68802600  0.76921700  0.99417600  1
