# generated using pymatgen
data_AlPO4
_symmetry_space_group_name_H-M   'P 1'
_cell_length_a   8.79361209
_cell_length_b   8.79361209
_cell_length_c   13.86345321
_cell_angle_alpha   88.72510049
_cell_angle_beta   88.72510049
_cell_angle_gamma   34.76434931
_symmetry_Int_Tables_number   1
_chemical_formula_structural   AlPO4
_chemical_formula_sum   'Al6 P6 O24'
_cell_volume   611.10677757
_cell_formula_units_Z   6
loop_
 _symmetry_equiv_pos_site_id
 _symmetry_equiv_pos_as_xyz
  1  'x, y, z'
loop_
 _atom_site_type_symbol
 _atom_site_label
 _atom_site_symmetry_multiplicity
 _atom_site_fract_x
 _atom_site_fract_y
 _atom_site_fract_z
 _atom_site_occupancy
  Al  Al0  1  0.59966200  0.49687200  0.76923400  1
  Al  Al1  1  0.90196900  0.76121300  0.91499000  1
  Al  Al2  1  0.23878700  0.09803100  0.08501000  1
  Al  Al3  1  0.50312800  0.40033800  0.23076600  1
  Al  Al4  1  0.26360600  0.03369200  0.46118200  1
  Al  Al5  1  0.96630800  0.73639400  0.53881800  1
  P  P6  1  0.71696700  0.57436900  0.96040300  1
  P  P7  1  0.77861100  0.54998900  0.58683400  1
  P  P8  1  0.99721800  0.89367200  0.73303900  1
  P  P9  1  0.10632800  0.00278200  0.26696100  1
  P  P10  1  0.42563100  0.28303300  0.03959700  1
  P  P11  1  0.45001100  0.22138900  0.41316600  1
  O  O12  1  0.80221800  0.24926700  0.25423700  1
  O  O13  1  0.71306800  0.54668900  0.68937900  1
  O  O14  1  0.25113200  0.77280200  0.75940500  1
  O  O15  1  0.68749600  0.47276100  0.88665000  1
  O  O16  1  0.22823700  0.02926500  0.20198600  1
  O  O17  1  0.17574900  0.55488700  0.99114300  1
  O  O18  1  0.97073500  0.77176300  0.79801400  1
  O  O19  1  0.16819300  0.98566800  0.37264700  1
  O  O20  1  0.34415400  0.14447600  0.40797700  1
  O  O21  1  0.45331100  0.28693200  0.31062100  1
  O  O22  1  0.52723900  0.31250400  0.11335000  1
  O  O23  1  0.53682000  0.72888500  0.52066500  1
  O  O24  1  0.01096900  0.26500900  0.54694000  1
  O  O25  1  0.44511300  0.82425100  0.00885700  1
  O  O26  1  0.27111500  0.46318000  0.47933500  1
  O  O27  1  0.75073300  0.19778200  0.74576300  1
  O  O28  1  0.73499100  0.98903100  0.45306000  1
  O  O29  1  0.91636600  0.35966700  0.03818600  1
  O  O30  1  0.81584200  0.63949300  0.90826300  1
  O  O31  1  0.64033300  0.08363400  0.96181400  1
  O  O32  1  0.22719700  0.74886800  0.24059500  1
  O  O33  1  0.85552400  0.65584600  0.59202300  1
  O  O34  1  0.36050700  0.18415800  0.09173700  1
  O  O35  1  0.01433200  0.83180700  0.62735300  1
