# generated using pymatgen
data_BaFe2(P2O7)2
_symmetry_space_group_name_H-M   'P 1'
_cell_length_a   7.55462777
_cell_length_b   7.55462777
_cell_length_c   9.85307081
_cell_angle_alpha   80.63620905
_cell_angle_beta   80.63620905
_cell_angle_gamma   89.39470454
_symmetry_Int_Tables_number   1
_chemical_formula_structural   BaFe2(P2O7)2
_chemical_formula_sum   'Ba2 Fe4 P8 O28'
_cell_volume   547.37904205
_cell_formula_units_Z   2
loop_
 _symmetry_equiv_pos_site_id
 _symmetry_equiv_pos_as_xyz
  1  'x, y, z'
loop_
 _atom_site_type_symbol
 _atom_site_label
 _atom_site_symmetry_multiplicity
 _atom_site_fract_x
 _atom_site_fract_y
 _atom_site_fract_z
 _atom_site_occupancy
  Ba  Ba0  1  0.00000000  0.50000000  0.50000000  1
  Ba  Ba1  1  0.50000000  0.00000000  0.00000000  1
  Fe  Fe2  1  0.95309200  0.04690800  0.25000000  1
  Fe  Fe3  1  0.04690800  0.95309200  0.75000000  1
  Fe  Fe4  1  0.50000000  0.50000000  0.00000000  1
  Fe  Fe5  1  0.50000000  0.50000000  0.50000000  1
  P  P6  1  0.23771600  0.32363700  0.79848500  1
  P  P7  1  0.76228400  0.67636300  0.20151500  1
  P  P8  1  0.67636300  0.76228400  0.70151500  1
  P  P9  1  0.12917200  0.74972400  0.05565300  1
  P  P10  1  0.32363700  0.23771600  0.29848500  1
  P  P11  1  0.25027600  0.87082800  0.44434700  1
  P  P12  1  0.74972400  0.12917200  0.55565300  1
  P  P13  1  0.87082800  0.25027600  0.94434700  1
  O  O14  1  0.28970400  0.45280100  0.66146100  1
  O  O15  1  0.45280100  0.28970400  0.16146100  1
  O  O16  1  0.06802500  0.86642500  0.39290200  1
  O  O17  1  0.87598900  0.76213600  0.71380900  1
  O  O18  1  0.10146400  0.76857000  0.90473800  1
  O  O19  1  0.02850000  0.37462800  0.84378100  1
  O  O20  1  0.86642500  0.06802500  0.89290200  1
  O  O21  1  0.64980100  0.30121800  0.58116800  1
  O  O22  1  0.89853600  0.23143000  0.09526200  1
  O  O23  1  0.54719900  0.71029600  0.83853900  1
  O  O24  1  0.93197500  0.13357500  0.60709800  1
  O  O25  1  0.65718800  0.64749600  0.08740900  1
  O  O26  1  0.97150000  0.62537200  0.15621900  1
  O  O27  1  0.76213600  0.87598900  0.21380900  1
  O  O28  1  0.76857000  0.10146400  0.40473800  1
  O  O29  1  0.37462800  0.02850000  0.34378100  1
  O  O30  1  0.35019900  0.69878200  0.41883200  1
  O  O31  1  0.13357500  0.93197500  0.10709800  1
  O  O32  1  0.69878200  0.35019900  0.91883200  1
  O  O33  1  0.64749600  0.65718800  0.58740900  1
  O  O34  1  0.12401100  0.23786400  0.28619100  1
  O  O35  1  0.23143000  0.89853600  0.59526200  1
  O  O36  1  0.35250400  0.34281200  0.41259100  1
  O  O37  1  0.71029600  0.54719900  0.33853900  1
  O  O38  1  0.62537200  0.97150000  0.65621900  1
  O  O39  1  0.30121800  0.64980100  0.08116800  1
  O  O40  1  0.23786400  0.12401100  0.78619100  1
  O  O41  1  0.34281200  0.35250400  0.91259100  1
