# generated using pymatgen
data_H2C3O4
_symmetry_space_group_name_H-M   'P 1'
_cell_length_a   6.32331600
_cell_length_b   6.32331600
_cell_length_c   11.26367400
_cell_angle_alpha   90.00000000
_cell_angle_beta   90.00000000
_cell_angle_gamma   90.00000000
_symmetry_Int_Tables_number   1
_chemical_formula_structural   H2C3O4
_chemical_formula_sum   'H8 C12 O16'
_cell_volume   450.37040457
_cell_formula_units_Z   4
loop_
 _symmetry_equiv_pos_site_id
 _symmetry_equiv_pos_as_xyz
  1  'x, y, z'
loop_
 _atom_site_type_symbol
 _atom_site_label
 _atom_site_symmetry_multiplicity
 _atom_site_fract_x
 _atom_site_fract_y
 _atom_site_fract_z
 _atom_site_occupancy
  H  H0  1  0.59189600  0.76258800  0.04615000  1
  H  H1  1  0.40810400  0.23741200  0.54615000  1
  H  H2  1  0.26258800  0.90810400  0.79615000  1
  H  H3  1  0.73741200  0.09189600  0.29615000  1
  H  H4  1  0.23741200  0.40810400  0.45385000  1
  H  H5  1  0.90810400  0.26258800  0.20385000  1
  H  H6  1  0.09189600  0.73741200  0.70385000  1
  H  H7  1  0.76258800  0.59189600  0.95385000  1
  C  C8  1  0.38955200  0.38955200  0.50000000  1
  C  C9  1  0.11044800  0.88955200  0.75000000  1
  C  C10  1  0.17986100  0.91957400  0.30353400  1
  C  C11  1  0.58042600  0.67986100  0.55353400  1
  C  C12  1  0.67986100  0.58042600  0.44646600  1
  C  C13  1  0.82013900  0.08042600  0.80353400  1
  C  C14  1  0.32013900  0.41957400  0.94646600  1
  C  C15  1  0.88955200  0.11044800  0.25000000  1
  C  C16  1  0.41957400  0.32013900  0.05353400  1
  C  C17  1  0.61044800  0.61044800  0.00000000  1
  C  C18  1  0.91957400  0.17986100  0.69646600  1
  C  C19  1  0.08042600  0.82013900  0.19646600  1
  O  O20  1  0.55862300  0.41074700  0.41441000  1
  O  O21  1  0.91074700  0.94137700  0.16441000  1
  O  O22  1  0.05862300  0.08925300  0.33559000  1
  O  O23  1  0.83316600  0.63702200  0.38774900  1
  O  O24  1  0.08925300  0.05862300  0.66441000  1
  O  O25  1  0.41074700  0.55862300  0.58559000  1
  O  O26  1  0.13702200  0.66683400  0.13774900  1
  O  O27  1  0.16683400  0.36297800  0.88774900  1
  O  O28  1  0.86297800  0.33316600  0.63774900  1
  O  O29  1  0.66683400  0.13702200  0.86225100  1
  O  O30  1  0.63702200  0.83316600  0.61225100  1
  O  O31  1  0.36297800  0.16683400  0.11225100  1
  O  O32  1  0.94137700  0.91074700  0.83559000  1
  O  O33  1  0.33316600  0.86297800  0.36225100  1
  O  O34  1  0.44137700  0.58925300  0.91441000  1
  O  O35  1  0.58925300  0.44137700  0.08559000  1
