# generated using pymatgen
data_CF2
_symmetry_space_group_name_H-M   'P 1'
_cell_length_a   6.20699100
_cell_length_b   6.37372703
_cell_length_c   6.72379312
_cell_angle_alpha   92.34148666
_cell_angle_beta   109.08003169
_cell_angle_gamma   94.32806398
_symmetry_Int_Tables_number   1
_chemical_formula_structural   CF2
_chemical_formula_sum   'C6 F12'
_cell_volume   250.06735113
_cell_formula_units_Z   6
loop_
 _symmetry_equiv_pos_site_id
 _symmetry_equiv_pos_as_xyz
  1  'x, y, z'
loop_
 _atom_site_type_symbol
 _atom_site_label
 _atom_site_symmetry_multiplicity
 _atom_site_fract_x
 _atom_site_fract_y
 _atom_site_fract_z
 _atom_site_occupancy
  C  C0  1  0.54827700  0.82598900  0.76701800  1
  C  C1  1  0.45172300  0.17401100  0.23298200  1
  C  C2  1  0.34462400  0.74304200  0.63461100  1
  C  C3  1  0.65537600  0.25695800  0.36538900  1
  C  C4  1  0.25461500  0.28828400  0.10841700  1
  C  C5  1  0.74538500  0.71171600  0.89158300  1
  F  F6  1  0.69281500  0.49959500  0.87084200  1
  F  F7  1  0.72042400  0.46093600  0.40910600  1
  F  F8  1  0.81293100  0.77494100  0.10063800  1
  F  F9  1  0.93160800  0.75355300  0.82832800  1
  F  F10  1  0.30718500  0.50040500  0.12915800  1
  F  F11  1  0.18706900  0.22505900  0.89936200  1
  F  F12  1  0.06839200  0.24644700  0.17167200  1
  F  F13  1  0.59109000  0.03901800  0.79536300  1
  F  F14  1  0.18387900  0.86138500  0.53087100  1
  F  F15  1  0.27957600  0.53906400  0.59089400  1
  F  F16  1  0.81612100  0.13861500  0.46912900  1
  F  F17  1  0.40891000  0.96098200  0.20463700  1
