# generated using pymatgen
data_SiB11H10C4F11
_symmetry_space_group_name_H-M   'P 1'
_cell_length_a   7.86211000
_cell_length_b   12.37430900
_cell_length_c   18.49124931
_cell_angle_alpha   76.18628827
_cell_angle_beta   90.00000000
_cell_angle_gamma   90.00000000
_symmetry_Int_Tables_number   1
_chemical_formula_structural   SiB11H10C4F11
_chemical_formula_sum   'Si4 B44 H40 C16 F44'
_cell_volume   1746.94836764
_cell_formula_units_Z   4
loop_
 _symmetry_equiv_pos_site_id
 _symmetry_equiv_pos_as_xyz
  1  'x, y, z'
loop_
 _atom_site_type_symbol
 _atom_site_label
 _atom_site_symmetry_multiplicity
 _atom_site_fract_x
 _atom_site_fract_y
 _atom_site_fract_z
 _atom_site_occupancy
  Si  Si0  1  0.70405800  0.27352400  0.43607000  1
  Si  Si1  1  0.20405800  0.72647600  0.06393000  1
  Si  Si2  1  0.29594200  0.72647600  0.56393000  1
  Si  Si3  1  0.79594200  0.27352400  0.93607000  1
  B  B4  1  0.20186900  0.26570500  0.12901200  1
  B  B5  1  0.52446700  0.77748700  0.76193600  1
  B  B6  1  0.70186900  0.73429500  0.37098800  1
  B  B7  1  0.47553300  0.22251300  0.23806400  1
  B  B8  1  0.83178300  0.67263200  0.30985500  1
  B  B9  1  0.73910500  0.81368800  0.78056600  1
  B  B10  1  0.51525800  0.87883400  0.88908500  1
  B  B11  1  0.26759600  0.12422100  0.14097800  1
  B  B12  1  0.34170900  0.22529700  0.06125100  1
  B  B13  1  0.26089500  0.18631200  0.21943400  1
  B  B14  1  0.44689900  0.67429000  0.83974000  1
  B  B15  1  0.73240400  0.87577900  0.85902200  1
  B  B16  1  0.02446700  0.22251300  0.73806400  1
  B  B17  1  0.84170900  0.77470300  0.43874900  1
  B  B18  1  0.38467700  0.81755800  0.82820200  1
  B  B19  1  0.48474200  0.12116600  0.11091500  1
  B  B20  1  0.76759600  0.87577900  0.35902200  1
  B  B21  1  0.66821700  0.67263200  0.80985500  1
  B  B22  1  0.98474200  0.87883400  0.38908500  1
  B  B23  1  0.94426600  0.26181200  0.58190900  1
  B  B24  1  0.38216100  0.35128400  0.09222200  1
  B  B25  1  0.97553300  0.77748700  0.26193600  1
  B  B26  1  0.23240400  0.12422100  0.64097800  1
  B  B27  1  0.79813100  0.73429500  0.87098800  1
  B  B28  1  0.76089500  0.81368800  0.28056600  1
  B  B29  1  0.11532300  0.81755800  0.32820200  1
  B  B30  1  0.33178300  0.32736800  0.19014500  1
  B  B31  1  0.61783900  0.64871600  0.90777800  1
  B  B32  1  0.16821700  0.32736800  0.69014500  1
  B  B33  1  0.55573400  0.26181200  0.08190900  1
  B  B34  1  0.94689900  0.32571000  0.66026000  1
  B  B35  1  0.05310100  0.67429000  0.33974000  1
  B  B36  1  0.65829100  0.77470300  0.93874900  1
  B  B37  1  0.11783900  0.35128400  0.59222200  1
  B  B38  1  0.88467700  0.18244200  0.67179800  1
  B  B39  1  0.01525800  0.12116600  0.61091500  1
  B  B40  1  0.23910500  0.18631200  0.71943400  1
  B  B41  1  0.44426600  0.73818800  0.91809100  1
  B  B42  1  0.88216100  0.64871600  0.40777800  1
  B  B43  1  0.29813100  0.26570500  0.62901200  1
  B  B44  1  0.61532300  0.18244200  0.17179800  1
  B  B45  1  0.15829100  0.22529700  0.56125100  1
  B  B46  1  0.05573400  0.73818800  0.41809100  1
  B  B47  1  0.55310100  0.32571000  0.16026000  1
  H  H48  1  0.97939200  0.13518800  0.01713800  1
  H  H49  1  0.84047700  0.29912600  0.31526100  1
  H  H50  1  0.02569300  0.78166900  0.61465700  1
  H  H51  1  0.41426900  0.90845700  0.56355600  1
  H  H52  1  0.44998100  0.02652900  0.24036100  1
  H  H53  1  0.46028500  0.63400300  0.12703100  1
  H  H54  1  0.52569300  0.21833100  0.88534300  1
  H  H55  1  0.97430700  0.21833100  0.38534300  1
  H  H56  1  0.55752000  0.63056200  0.53971200  1
  H  H57  1  0.96028500  0.36599700  0.37296900  1
  H  H58  1  0.34047700  0.70087400  0.18473900  1
  H  H59  1  0.50645100  0.60187600  0.63600100  1
  H  H60  1  0.15952300  0.70087400  0.68473900  1
  H  H61  1  0.49354900  0.39812400  0.36399900  1
  H  H62  1  0.22932400  0.91990200  0.98833500  1
  H  H63  1  0.08573100  0.90845700  0.06355600  1
  H  H64  1  0.94248000  0.63056200  0.03971200  1
  H  H65  1  0.52060800  0.13518800  0.51713800  1
  H  H66  1  0.03971500  0.63400300  0.62703100  1
  H  H67  1  0.00645100  0.39812400  0.86399900  1
  H  H68  1  0.47430700  0.78166900  0.11465700  1
  H  H69  1  0.60645200  0.46685000  0.42292300  1
  H  H70  1  0.44248000  0.36943800  0.46028800  1
  H  H71  1  0.39354800  0.53315000  0.57707700  1
  H  H72  1  0.27067600  0.91990200  0.48833500  1
  H  H73  1  0.89354800  0.46685000  0.92292300  1
  H  H74  1  0.05752000  0.36943800  0.96028800  1
  H  H75  1  0.55001900  0.97347100  0.75963900  1
  H  H76  1  0.94998100  0.97347100  0.25963900  1
  H  H77  1  0.02060800  0.86481200  0.98286200  1
  H  H78  1  0.99354900  0.60187600  0.13600100  1
  H  H79  1  0.53971500  0.36599700  0.87296900  1
  H  H80  1  0.05001900  0.02652900  0.74036100  1
  H  H81  1  0.91426900  0.09154300  0.93644400  1
  H  H82  1  0.10645200  0.53315000  0.07707700  1
  H  H83  1  0.58573100  0.09154300  0.43644400  1
  H  H84  1  0.77067600  0.08009800  0.01166500  1
  H  H85  1  0.47939200  0.86481200  0.48286200  1
  H  H86  1  0.72932400  0.08009800  0.51166500  1
  H  H87  1  0.65952300  0.29912600  0.81526100  1
  C  C88  1  0.12834400  0.86807400  0.01992300  1
  C  C89  1  0.61178100  0.29015300  0.87234000  1
  C  C90  1  0.62834400  0.13192600  0.48007700  1
  C  C91  1  0.93352700  0.89118400  0.29706700  1
  C  C92  1  0.06647300  0.10881600  0.70293300  1
  C  C93  1  0.45268800  0.61225000  0.57977500  1
  C  C94  1  0.43352700  0.10881600  0.20293300  1
  C  C95  1  0.37165600  0.86807400  0.51992300  1
  C  C96  1  0.87165600  0.13192600  0.98007700  1
  C  C97  1  0.88821900  0.29015300  0.37234000  1
  C  C98  1  0.95268800  0.38775000  0.92022500  1
  C  C99  1  0.11178100  0.70984700  0.62766000  1
  C  C100  1  0.54731200  0.38775000  0.42022500  1
  C  C101  1  0.38821900  0.70984700  0.12766000  1
  C  C102  1  0.04731200  0.61225000  0.07977500  1
  C  C103  1  0.56647300  0.89118400  0.79706700  1
  F  F104  1  0.72881200  0.13753800  0.69357600  1
  F  F105  1  0.83474100  0.40732500  0.66736500  1
  F  F106  1  0.77118800  0.13753800  0.19357600  1
  F  F107  1  0.18113000  0.69884400  0.47588400  1
  F  F108  1  0.33752500  0.03612500  0.64034800  1
  F  F109  1  0.46194700  0.30030900  0.60996600  1
  F  F110  1  0.68113000  0.30115600  0.02411600  1
  F  F111  1  0.47220000  0.79099900  0.68952300  1
  F  F112  1  0.16247500  0.03612500  0.14034800  1
  F  F113  1  0.64103200  0.54586400  0.95532600  1
  F  F114  1  0.04127400  0.96868900  0.41303400  1
  F  F115  1  0.77255500  0.58926200  0.27905500  1
  F  F116  1  0.72744500  0.58926200  0.77905500  1
  F  F117  1  0.28822000  0.22701200  0.99010000  1
  F  F118  1  0.22744500  0.41073800  0.72094500  1
  F  F119  1  0.52780000  0.20900100  0.31047700  1
  F  F120  1  0.84671900  0.85712900  0.72299600  1
  F  F121  1  0.65328100  0.85712900  0.22299600  1
  F  F122  1  0.71178000  0.77298800  0.00990000  1
  F  F123  1  0.14103200  0.45413600  0.54467400  1
  F  F124  1  0.81887000  0.30115600  0.52411600  1
  F  F125  1  0.97220000  0.20900100  0.81047700  1
  F  F126  1  0.21178000  0.22701200  0.49010000  1
  F  F127  1  0.66525900  0.40732500  0.16736500  1
  F  F128  1  0.83752500  0.96387500  0.85965200  1
  F  F129  1  0.31887000  0.69884400  0.97588400  1
  F  F130  1  0.53805300  0.69969100  0.39003400  1
  F  F131  1  0.27255500  0.41073800  0.22094500  1
  F  F132  1  0.27118800  0.86246200  0.30642400  1
  F  F133  1  0.85896800  0.54586400  0.45532600  1
  F  F134  1  0.35896800  0.45413600  0.04467400  1
  F  F135  1  0.54127400  0.03131100  0.08696600  1
  F  F136  1  0.33474100  0.59267500  0.83263500  1
  F  F137  1  0.22881200  0.86246200  0.80642400  1
  F  F138  1  0.16525900  0.59267500  0.33263500  1
  F  F139  1  0.45872600  0.96868900  0.91303400  1
  F  F140  1  0.96194700  0.69969100  0.89003400  1
  F  F141  1  0.02780000  0.79099900  0.18952300  1
  F  F142  1  0.78822000  0.77298800  0.50990000  1
  F  F143  1  0.15328100  0.14287100  0.27700400  1
  F  F144  1  0.34671900  0.14287100  0.77700400  1
  F  F145  1  0.95872600  0.03131100  0.58696600  1
  F  F146  1  0.03805300  0.30030900  0.10996600  1
  F  F147  1  0.66247500  0.96387500  0.35965200  1
