# generated using pymatgen
data_LaWClO4
_symmetry_space_group_name_H-M   'P 1'
_cell_length_a   3.93963200
_cell_length_b   6.05769100
_cell_length_c   19.54150100
_cell_angle_alpha   90.00000000
_cell_angle_beta   90.00000000
_cell_angle_gamma   90.00000000
_symmetry_Int_Tables_number   1
_chemical_formula_structural   LaWClO4
_chemical_formula_sum   'La4 W4 Cl4 O16'
_cell_volume   466.35935395
_cell_formula_units_Z   4
loop_
 _symmetry_equiv_pos_site_id
 _symmetry_equiv_pos_as_xyz
  1  'x, y, z'
loop_
 _atom_site_type_symbol
 _atom_site_label
 _atom_site_symmetry_multiplicity
 _atom_site_fract_x
 _atom_site_fract_y
 _atom_site_fract_z
 _atom_site_occupancy
  La  La0  1  0.25557900  0.75000000  0.10287200  1
  La  La1  1  0.74442100  0.25000000  0.89712800  1
  La  La2  1  0.24442100  0.75000000  0.60287200  1
  La  La3  1  0.75557900  0.25000000  0.39712800  1
  W  W4  1  0.70885300  0.25000000  0.67945600  1
  W  W5  1  0.79114700  0.25000000  0.17945600  1
  W  W6  1  0.29114700  0.75000000  0.32054400  1
  W  W7  1  0.20885300  0.75000000  0.82054400  1
  Cl  Cl8  1  0.74745300  0.75000000  0.48783700  1
  Cl  Cl9  1  0.75254700  0.75000000  0.98783700  1
  Cl  Cl10  1  0.25254700  0.25000000  0.51216300  1
  Cl  Cl11  1  0.24745300  0.25000000  0.01216300  1
  O  O12  1  0.25484100  0.01961900  0.36624300  1
  O  O13  1  0.75484100  0.51961900  0.13375700  1
  O  O14  1  0.75384700  0.25000000  0.27137100  1
  O  O15  1  0.75484100  0.98038100  0.13375700  1
  O  O16  1  0.26535600  0.25000000  0.17477300  1
  O  O17  1  0.24515900  0.48038100  0.86624300  1
  O  O18  1  0.74615300  0.25000000  0.77137100  1
  O  O19  1  0.24615300  0.75000000  0.72862900  1
  O  O20  1  0.25384700  0.75000000  0.22862900  1
  O  O21  1  0.25484100  0.48038100  0.36624300  1
  O  O22  1  0.23464400  0.25000000  0.67477300  1
  O  O23  1  0.76535600  0.75000000  0.32522700  1
  O  O24  1  0.73464400  0.75000000  0.82522700  1
  O  O25  1  0.74515900  0.98038100  0.63375700  1
  O  O26  1  0.24515900  0.01961900  0.86624300  1
  O  O27  1  0.74515900  0.51961900  0.63375700  1
