# generated using pymatgen
data_CuH12C4(NO)6
_symmetry_space_group_name_H-M   'P 1'
_cell_length_a   9.14677700
_cell_length_b   9.14677700
_cell_length_c   12.77044300
_cell_angle_alpha   90.00000000
_cell_angle_beta   90.00000000
_cell_angle_gamma   90.00000000
_symmetry_Int_Tables_number   1
_chemical_formula_structural   CuH12C4(NO)6
_chemical_formula_sum   'Cu4 H48 C16 N24 O24'
_cell_volume   1068.42033450
_cell_formula_units_Z   4
loop_
 _symmetry_equiv_pos_site_id
 _symmetry_equiv_pos_as_xyz
  1  'x, y, z'
loop_
 _atom_site_type_symbol
 _atom_site_label
 _atom_site_symmetry_multiplicity
 _atom_site_fract_x
 _atom_site_fract_y
 _atom_site_fract_z
 _atom_site_occupancy
  Cu  Cu0  1  0.00000000  0.50000000  0.25000000  1
  Cu  Cu1  1  0.50000000  0.50000000  0.50000000  1
  Cu  Cu2  1  0.00000000  0.00000000  0.00000000  1
  Cu  Cu3  1  0.50000000  0.00000000  0.75000000  1
  H  H4  1  0.68667400  0.82315000  0.04143200  1
  H  H5  1  0.81332600  0.32315000  0.54143200  1
  H  H6  1  0.47174400  0.37385400  0.25188600  1
  H  H7  1  0.37385400  0.52825600  0.74811400  1
  H  H8  1  0.48442400  0.14048000  0.98145600  1
  H  H9  1  0.35952000  0.01557600  0.51854400  1
  H  H10  1  0.80798800  0.80473100  0.68268500  1
  H  H11  1  0.68852100  0.64748100  0.17832000  1
  H  H12  1  0.82242600  0.70012800  0.92016000  1
  H  H13  1  0.18667400  0.67685000  0.54143200  1
  H  H14  1  0.32315000  0.18667400  0.45856800  1
  H  H15  1  0.98442400  0.35952000  0.48145600  1
  H  H16  1  0.81147900  0.14748100  0.67832000  1
  H  H17  1  0.31147900  0.35251900  0.17832000  1
  H  H18  1  0.02825600  0.87385400  0.75188600  1
  H  H19  1  0.17685000  0.68667400  0.95856800  1
  H  H20  1  0.67685000  0.81332600  0.45856800  1
  H  H21  1  0.18852100  0.85251900  0.67832000  1
  H  H22  1  0.87385400  0.97174400  0.24811400  1
  H  H23  1  0.30798800  0.69526900  0.18268500  1
  H  H24  1  0.12614600  0.02825600  0.24811400  1
  H  H25  1  0.32242600  0.79987200  0.42016000  1
  H  H26  1  0.19526900  0.80798800  0.31731500  1
  H  H27  1  0.70012800  0.17757400  0.07984000  1
  H  H28  1  0.14748100  0.18852100  0.32168000  1
  H  H29  1  0.97174400  0.12614600  0.75188600  1
  H  H30  1  0.69201200  0.30473100  0.18268500  1
  H  H31  1  0.67757400  0.20012800  0.42016000  1
  H  H32  1  0.52825600  0.62614600  0.25188600  1
  H  H33  1  0.14048000  0.51557600  0.01854400  1
  H  H34  1  0.85251900  0.81147900  0.32168000  1
  H  H35  1  0.31332600  0.17685000  0.04143200  1
  H  H36  1  0.30473100  0.30798800  0.81731500  1
  H  H37  1  0.82315000  0.31332600  0.95856800  1
  H  H38  1  0.51557600  0.85952000  0.98145600  1
  H  H39  1  0.79987200  0.67757400  0.57984000  1
  H  H40  1  0.35251900  0.68852100  0.82168000  1
  H  H41  1  0.01557600  0.64048000  0.48145600  1
  H  H42  1  0.64748100  0.31147900  0.82168000  1
  H  H43  1  0.69526900  0.69201200  0.81731500  1
  H  H44  1  0.29987200  0.82242600  0.07984000  1
  H  H45  1  0.85952000  0.48442400  0.01854400  1
  H  H46  1  0.64048000  0.98442400  0.51854400  1
  H  H47  1  0.20012800  0.32242600  0.57984000  1
  H  H48  1  0.17757400  0.29987200  0.92016000  1
  H  H49  1  0.80473100  0.19201200  0.31731500  1
  H  H50  1  0.19201200  0.19526900  0.68268500  1
  H  H51  1  0.62614600  0.47174400  0.74811400  1
  C  C52  1  0.75270700  0.49403900  0.87836100  1
  C  C53  1  0.95739700  0.74370400  0.11971300  1
  C  C54  1  0.45739700  0.75629600  0.61971300  1
  C  C55  1  0.24370400  0.45739700  0.38028700  1
  C  C56  1  0.49403900  0.24729300  0.12163900  1
  C  C57  1  0.74370400  0.04260300  0.88028700  1
  C  C58  1  0.74729300  0.99403900  0.37836100  1
  C  C59  1  0.25629600  0.95739700  0.88028700  1
  C  C60  1  0.24729300  0.50596100  0.87836100  1
  C  C61  1  0.99403900  0.25270700  0.62163900  1
  C  C62  1  0.54260300  0.24370400  0.61971300  1
  C  C63  1  0.50596100  0.75270700  0.12163900  1
  C  C64  1  0.04260300  0.25629600  0.11971300  1
  C  C65  1  0.75629600  0.54260300  0.38028700  1
  C  C66  1  0.00596100  0.74729300  0.62163900  1
  C  C67  1  0.25270700  0.00596100  0.37836100  1
  N  N68  1  0.13926400  0.25915500  0.62959300  1
  N  N69  1  0.57481600  0.82406200  0.04471000  1
  N  N70  1  0.42518400  0.17593800  0.04471000  1
  N  N71  1  0.58246700  0.67663400  0.19263400  1
  N  N72  1  0.67663400  0.41753300  0.80736600  1
  N  N73  1  0.07481600  0.67593800  0.54471000  1
  N  N74  1  0.75915500  0.63926400  0.87040700  1
  N  N75  1  0.24084500  0.36073600  0.87040700  1
  N  N76  1  0.91753300  0.17663400  0.69263400  1
  N  N77  1  0.25915500  0.86073600  0.37040700  1
  N  N78  1  0.36073600  0.75915500  0.12959300  1
  N  N79  1  0.74084500  0.13926400  0.37040700  1
  N  N80  1  0.41753300  0.32336600  0.19263400  1
  N  N81  1  0.17663400  0.08246700  0.30736600  1
  N  N82  1  0.86073600  0.74084500  0.62959300  1
  N  N83  1  0.08246700  0.82336600  0.69263400  1
  N  N84  1  0.67593800  0.92518400  0.45529000  1
  N  N85  1  0.17593800  0.57481600  0.95529000  1
  N  N86  1  0.63926400  0.24084500  0.12959300  1
  N  N87  1  0.32336600  0.58246700  0.80736600  1
  N  N88  1  0.92518400  0.32406200  0.54471000  1
  N  N89  1  0.32406200  0.07481600  0.45529000  1
  N  N90  1  0.82406200  0.42518400  0.95529000  1
  N  N91  1  0.82336600  0.91753300  0.30736600  1
  O  O92  1  0.18797000  0.90181900  0.96205600  1
  O  O93  1  0.88655500  0.60027300  0.36174100  1
  O  O94  1  0.68797000  0.59818100  0.46205600  1
  O  O95  1  0.11344500  0.39972700  0.36174100  1
  O  O96  1  0.29825800  0.55662000  0.32355600  1
  O  O97  1  0.59818100  0.31203000  0.53794400  1
  O  O98  1  0.20174200  0.05662000  0.82355600  1
  O  O99  1  0.70174200  0.44338000  0.32355600  1
  O  O100  1  0.09818100  0.18797000  0.03794400  1
  O  O101  1  0.81203000  0.09818100  0.96205600  1
  O  O102  1  0.79825800  0.94338000  0.82355600  1
  O  O103  1  0.94338000  0.20174200  0.17644400  1
  O  O104  1  0.55662000  0.70174200  0.67644400  1
  O  O105  1  0.38655500  0.89972700  0.86174100  1
  O  O106  1  0.44338000  0.29825800  0.67644400  1
  O  O107  1  0.60027300  0.11344500  0.63825900  1
  O  O108  1  0.05662000  0.79825800  0.17644400  1
  O  O109  1  0.61344500  0.10027300  0.86174100  1
  O  O110  1  0.39972700  0.88655500  0.63825900  1
  O  O111  1  0.10027300  0.38655500  0.13825900  1
  O  O112  1  0.40181900  0.68797000  0.53794400  1
  O  O113  1  0.89972700  0.61344500  0.13825900  1
  O  O114  1  0.31203000  0.40181900  0.46205600  1
  O  O115  1  0.90181900  0.81203000  0.03794400  1
