# generated using pymatgen
data_Cr2HgO7
_symmetry_space_group_name_H-M   'P 1'
_cell_length_a   7.61779303
_cell_length_b   7.61779303
_cell_length_c   9.66456000
_cell_angle_alpha   90.00000000
_cell_angle_beta   90.00000000
_cell_angle_gamma   119.99999154
_symmetry_Int_Tables_number   1
_chemical_formula_structural   Cr2HgO7
_chemical_formula_sum   'Cr6 Hg3 O21'
_cell_volume   485.70334328
_cell_formula_units_Z   3
loop_
 _symmetry_equiv_pos_site_id
 _symmetry_equiv_pos_as_xyz
  1  'x, y, z'
loop_
 _atom_site_type_symbol
 _atom_site_label
 _atom_site_symmetry_multiplicity
 _atom_site_fract_x
 _atom_site_fract_y
 _atom_site_fract_z
 _atom_site_occupancy
  Cr  Cr0  1  0.42036500  0.07557900  0.99101400  1
  Cr  Cr1  1  0.98394500  0.23829200  0.33229700  1
  Cr  Cr2  1  0.25434600  0.01605500  0.66563100  1
  Cr  Cr3  1  0.65521500  0.57963500  0.32434800  1
  Cr  Cr4  1  0.76170800  0.74565400  0.99896400  1
  Cr  Cr5  1  0.92442100  0.34478500  0.65768100  1
  Hg  Hg6  1  0.59747000  0.68639300  0.66316800  1
  Hg  Hg7  1  0.08892300  0.40253000  0.99650100  1
  Hg  Hg8  1  0.31360700  0.91107700  0.32983400  1
  O  O9  1  0.87565900  0.61912100  0.97367200  1
  O  O10  1  0.10432900  0.41843800  0.78516000  1
  O  O11  1  0.01641300  0.94476100  0.66113900  1
  O  O12  1  0.38087900  0.25653800  0.64033900  1
  O  O13  1  0.04370300  0.35748600  0.49686300  1
  O  O14  1  0.37809200  0.25957400  0.01623700  1
  O  O15  1  0.74042600  0.11851800  0.68290400  1
  O  O16  1  0.31378300  0.95629700  0.83019600  1
  O  O17  1  0.31410900  0.89567100  0.11849400  1
  O  O18  1  0.58076200  0.69072900  0.87438500  1
  O  O19  1  0.92834800  0.98358700  0.99447200  1
  O  O20  1  0.64251400  0.68621700  0.16352900  1
  O  O21  1  0.05523900  0.07165200  0.32780600  1
  O  O22  1  0.50404800  0.33825600  0.32093100  1
  O  O23  1  0.30927100  0.89003300  0.54105200  1
  O  O24  1  0.10996700  0.41923800  0.20771800  1
  O  O25  1  0.88148200  0.62190800  0.34957000  1
  O  O26  1  0.58156200  0.68589100  0.45182700  1
  O  O27  1  0.83420800  0.49595200  0.65426500  1
  O  O28  1  0.66174400  0.16579200  0.98759800  1
  O  O29  1  0.74346200  0.12434100  0.30700600  1
