# generated using pymatgen
data_NaIO3
_symmetry_space_group_name_H-M   'P 1'
_cell_length_a   5.56622400
_cell_length_b   7.42127800
_cell_length_c   8.59996000
_cell_angle_alpha   90.00000000
_cell_angle_beta   90.00000000
_cell_angle_gamma   90.00000000
_symmetry_Int_Tables_number   1
_chemical_formula_structural   NaIO3
_chemical_formula_sum   'Na4 I4 O12'
_cell_volume   355.25141080
_cell_formula_units_Z   4
loop_
 _symmetry_equiv_pos_site_id
 _symmetry_equiv_pos_as_xyz
  1  'x, y, z'
loop_
 _atom_site_type_symbol
 _atom_site_label
 _atom_site_symmetry_multiplicity
 _atom_site_fract_x
 _atom_site_fract_y
 _atom_site_fract_z
 _atom_site_occupancy
  Na  Na0  1  0.99711600  0.48614200  0.49614000  1
  Na  Na1  1  0.49711600  0.01385800  0.49614000  1
  Na  Na2  1  0.50288400  0.98614200  0.99614000  1
  Na  Na3  1  0.00288400  0.51385800  0.99614000  1
  I  I4  1  0.02475100  0.99570100  0.75155600  1
  I  I5  1  0.52475100  0.50429900  0.75155600  1
  I  I6  1  0.47524900  0.49570100  0.25155600  1
  I  I7  1  0.97524900  0.00429900  0.25155600  1
  O  O8  1  0.19696300  0.47722700  0.74635200  1
  O  O9  1  0.59901700  0.65356700  0.91358500  1
  O  O10  1  0.11145600  0.85901900  0.58416700  1
  O  O11  1  0.61145600  0.64098100  0.58416700  1
  O  O12  1  0.90098300  0.15356700  0.41358500  1
  O  O13  1  0.09901700  0.84643300  0.91358500  1
  O  O14  1  0.40098300  0.34643300  0.41358500  1
  O  O15  1  0.30303700  0.97722700  0.24635200  1
  O  O16  1  0.80303700  0.52277300  0.24635200  1
  O  O17  1  0.69696300  0.02277300  0.74635200  1
  O  O18  1  0.88854400  0.14098100  0.08416700  1
  O  O19  1  0.38854400  0.35901900  0.08416700  1
