# generated using pymatgen
data_Bi2Te2W3O16
_symmetry_space_group_name_H-M   'P 1'
_cell_length_a   11.25080595
_cell_length_b   11.25080595
_cell_length_c   13.08626277
_cell_angle_alpha   57.05538719
_cell_angle_beta   57.05538719
_cell_angle_gamma   28.91180841
_symmetry_Int_Tables_number   1
_chemical_formula_structural   Bi2Te2W3O16
_chemical_formula_sum   'Bi4 Te4 W6 O32'
_cell_volume   662.61780037
_cell_formula_units_Z   2
loop_
 _symmetry_equiv_pos_site_id
 _symmetry_equiv_pos_as_xyz
  1  'x, y, z'
loop_
 _atom_site_type_symbol
 _atom_site_label
 _atom_site_symmetry_multiplicity
 _atom_site_fract_x
 _atom_site_fract_y
 _atom_site_fract_z
 _atom_site_occupancy
  Bi  Bi0  1  0.10939700  0.44495600  0.84328700  1
  Bi  Bi1  1  0.44495600  0.10939700  0.34328700  1
  Bi  Bi2  1  0.55504400  0.89060300  0.65671300  1
  Bi  Bi3  1  0.89060300  0.55504400  0.15671300  1
  Te  Te4  1  0.90021900  0.29084200  0.84388800  1
  Te  Te5  1  0.09978100  0.70915800  0.15611200  1
  Te  Te6  1  0.70915800  0.09978100  0.65611200  1
  Te  Te7  1  0.29084200  0.90021900  0.34388800  1
  W  W8  1  0.23781900  0.51008800  0.46235700  1
  W  W9  1  0.76218100  0.48991200  0.53764300  1
  W  W10  1  0.48991200  0.76218100  0.03764300  1
  W  W11  1  0.12907800  0.87092200  0.75000000  1
  W  W12  1  0.51008800  0.23781900  0.96235700  1
  W  W13  1  0.87092200  0.12907800  0.25000000  1
  O  O14  1  0.80566500  0.11104200  0.87648900  1
  O  O15  1  0.68256400  0.56909400  0.40006000  1
  O  O16  1  0.88895800  0.19433500  0.62351100  1
  O  O17  1  0.70415400  0.90724700  0.72186900  1
  O  O18  1  0.90724700  0.70415400  0.22186900  1
  O  O19  1  0.39598400  0.70008700  0.62424800  1
  O  O20  1  0.41737600  0.18935900  0.49225900  1
  O  O21  1  0.18935900  0.41737600  0.99225900  1
  O  O22  1  0.00015400  0.82757800  0.74018200  1
  O  O23  1  0.31743600  0.43090600  0.59994000  1
  O  O24  1  0.67792000  0.93393300  0.02965500  1
  O  O25  1  0.29991300  0.60401600  0.87575200  1
  O  O26  1  0.32208000  0.06606700  0.97034500  1
  O  O27  1  0.58262400  0.81064100  0.50774100  1
  O  O28  1  0.29584600  0.09275300  0.27813100  1
  O  O29  1  0.43090600  0.31743600  0.09994000  1
  O  O30  1  0.06606700  0.32208000  0.47034500  1
  O  O31  1  0.50892900  0.73297800  0.20467400  1
  O  O32  1  0.70008700  0.39598400  0.12424800  1
  O  O33  1  0.09275300  0.29584600  0.77813100  1
  O  O34  1  0.11104200  0.80566500  0.37648900  1
  O  O35  1  0.56909400  0.68256400  0.90006000  1
  O  O36  1  0.60401600  0.29991300  0.37575200  1
  O  O37  1  0.26702200  0.49107100  0.29532600  1
  O  O38  1  0.81064100  0.58262400  0.00774100  1
  O  O39  1  0.73297800  0.50892900  0.70467400  1
  O  O40  1  0.17242200  0.99984600  0.75981800  1
  O  O41  1  0.19433500  0.88895800  0.12351100  1
  O  O42  1  0.49107100  0.26702200  0.79532600  1
  O  O43  1  0.93393300  0.67792000  0.52965500  1
  O  O44  1  0.99984600  0.17242200  0.25981800  1
  O  O45  1  0.82757800  0.00015400  0.24018200  1
