# generated using pymatgen
data_K2MoO8
_symmetry_space_group_name_H-M   'P 1'
_cell_length_a   11.12987937
_cell_length_b   11.12987937
_cell_length_c   11.12987969
_cell_angle_alpha   64.39813681
_cell_angle_beta   64.39813681
_cell_angle_gamma   64.39814243
_symmetry_Int_Tables_number   1
_chemical_formula_structural   K2MoO8
_chemical_formula_sum   'K12 Mo6 O48'
_cell_volume   1069.00935009
_cell_formula_units_Z   6
loop_
 _symmetry_equiv_pos_site_id
 _symmetry_equiv_pos_as_xyz
  1  'x, y, z'
loop_
 _atom_site_type_symbol
 _atom_site_label
 _atom_site_symmetry_multiplicity
 _atom_site_fract_x
 _atom_site_fract_y
 _atom_site_fract_z
 _atom_site_occupancy
  K  K0  1  0.33365900  0.33365900  0.33365900  1
  K  K1  1  0.60480800  0.89519200  0.25000000  1
  K  K2  1  0.89519200  0.25000000  0.60480800  1
  K  K3  1  0.83365900  0.83365900  0.83365900  1
  K  K4  1  0.25000000  0.60480800  0.89519200  1
  K  K5  1  0.66634100  0.66634100  0.66634100  1
  K  K6  1  0.00000000  0.00000000  0.00000000  1
  K  K7  1  0.39519200  0.10480800  0.75000000  1
  K  K8  1  0.75000000  0.39519200  0.10480800  1
  K  K9  1  0.16634100  0.16634100  0.16634100  1
  K  K10  1  0.50000000  0.50000000  0.50000000  1
  K  K11  1  0.10480800  0.75000000  0.39519200  1
  Mo  Mo12  1  0.75000000  0.06822200  0.43177800  1
  Mo  Mo13  1  0.93177800  0.56822200  0.25000000  1
  Mo  Mo14  1  0.06822200  0.43177800  0.75000000  1
  Mo  Mo15  1  0.56822200  0.25000000  0.93177800  1
  Mo  Mo16  1  0.25000000  0.93177800  0.56822200  1
  Mo  Mo17  1  0.43177800  0.75000000  0.06822200  1
  O  O18  1  0.18472800  0.89780900  0.77532300  1
  O  O19  1  0.89780900  0.77532300  0.18472800  1
  O  O20  1  0.53534700  0.34493000  0.06539000  1
  O  O21  1  0.43461000  0.15507000  0.96465300  1
  O  O22  1  0.56539000  0.84493000  0.03534700  1
  O  O23  1  0.57069400  0.22301900  0.42413400  1
  O  O24  1  0.72467700  0.60219100  0.31527200  1
  O  O25  1  0.77532300  0.18472800  0.89780900  1
  O  O26  1  0.27532300  0.39780900  0.68472800  1
  O  O27  1  0.07586600  0.27698100  0.92930600  1
  O  O28  1  0.22301900  0.42413400  0.57069400  1
  O  O29  1  0.42413400  0.57069400  0.22301900  1
  O  O30  1  0.07069400  0.92413400  0.72301900  1
  O  O31  1  0.60219100  0.31527200  0.72467700  1
  O  O32  1  0.27698100  0.92930600  0.07586600  1
  O  O33  1  0.06539000  0.53534700  0.34493000  1
  O  O34  1  0.34493000  0.06539000  0.53534700  1
  O  O35  1  0.46465300  0.65507000  0.93461000  1
  O  O36  1  0.13649000  0.53557200  0.19727900  1
  O  O37  1  0.63649000  0.69727900  0.03557200  1
  O  O38  1  0.15507000  0.96465300  0.43461000  1
  O  O39  1  0.80272100  0.86351000  0.46442800  1
  O  O40  1  0.69727900  0.03557200  0.63649000  1
  O  O41  1  0.36351000  0.30272100  0.96442800  1
  O  O42  1  0.53557200  0.19727900  0.13649000  1
  O  O43  1  0.19727900  0.13649000  0.53557200  1
  O  O44  1  0.22467700  0.81527200  0.10219100  1
  O  O45  1  0.03557200  0.63649000  0.69727900  1
  O  O46  1  0.77698100  0.57586600  0.42930600  1
  O  O47  1  0.10219100  0.22467700  0.81527200  1
  O  O48  1  0.68472800  0.27532300  0.39780900  1
  O  O49  1  0.92930600  0.07586600  0.27698100  1
  O  O50  1  0.96465300  0.43461000  0.15507000  1
  O  O51  1  0.42930600  0.77698100  0.57586600  1
  O  O52  1  0.31527200  0.72467700  0.60219100  1
  O  O53  1  0.46442800  0.80272100  0.86351000  1
  O  O54  1  0.30272100  0.96442800  0.36351000  1
  O  O55  1  0.93461000  0.46465300  0.65507000  1
  O  O56  1  0.84493000  0.03534700  0.56539000  1
  O  O57  1  0.57586600  0.42930600  0.77698100  1
  O  O58  1  0.65507000  0.93461000  0.46465300  1
  O  O59  1  0.86351000  0.46442800  0.80272100  1
  O  O60  1  0.39780900  0.68472800  0.27532300  1
  O  O61  1  0.03534700  0.56539000  0.84493000  1
  O  O62  1  0.92413400  0.72301900  0.07069400  1
  O  O63  1  0.96442800  0.36351000  0.30272100  1
  O  O64  1  0.72301900  0.07069400  0.92413400  1
  O  O65  1  0.81527200  0.10219100  0.22467700  1
