# generated using pymatgen
data_H3CSN(ClO)2
_symmetry_space_group_name_H-M   'P 1'
_cell_length_a   6.40655800
_cell_length_b   9.70130700
_cell_length_c   10.01845600
_cell_angle_alpha   90.00000000
_cell_angle_beta   90.00000000
_cell_angle_gamma   90.00000000
_symmetry_Int_Tables_number   1
_chemical_formula_structural   H3CSN(ClO)2
_chemical_formula_sum   'H12 C4 S4 N4 Cl8 O8'
_cell_volume   622.66693677
_cell_formula_units_Z   4
loop_
 _symmetry_equiv_pos_site_id
 _symmetry_equiv_pos_as_xyz
  1  'x, y, z'
loop_
 _atom_site_type_symbol
 _atom_site_label
 _atom_site_symmetry_multiplicity
 _atom_site_fract_x
 _atom_site_fract_y
 _atom_site_fract_z
 _atom_site_occupancy
  H  H0  1  0.88527200  0.84382400  0.56055600  1
  H  H1  1  0.26913600  0.75000000  0.07591700  1
  H  H2  1  0.11472800  0.15617600  0.43944400  1
  H  H3  1  0.88527200  0.65617600  0.56055600  1
  H  H4  1  0.23086400  0.25000000  0.57591700  1
  H  H5  1  0.73086400  0.25000000  0.92408300  1
  H  H6  1  0.61472800  0.34382400  0.06055600  1
  H  H7  1  0.61472800  0.15617600  0.06055600  1
  H  H8  1  0.11472800  0.34382400  0.43944400  1
  H  H9  1  0.76913600  0.75000000  0.42408300  1
  H  H10  1  0.38527200  0.65617600  0.93944400  1
  H  H11  1  0.38527200  0.84382400  0.93944400  1
  C  C12  1  0.60693100  0.25000000  0.99981200  1
  C  C13  1  0.39306900  0.75000000  0.00018800  1
  C  C14  1  0.10693100  0.25000000  0.50018800  1
  C  C15  1  0.89306900  0.75000000  0.49981200  1
  S  S16  1  0.63045900  0.75000000  0.09181000  1
  S  S17  1  0.86954100  0.25000000  0.59181000  1
  S  S18  1  0.13045900  0.75000000  0.40819000  1
  S  S19  1  0.36954100  0.25000000  0.90819000  1
  N  N20  1  0.84149100  0.75000000  0.97501400  1
  N  N21  1  0.65850900  0.25000000  0.47501400  1
  N  N22  1  0.15850900  0.25000000  0.02498600  1
  N  N23  1  0.34149100  0.75000000  0.52498600  1
  Cl  Cl24  1  0.66721900  0.39755500  0.37452000  1
  Cl  Cl25  1  0.16721900  0.10244500  0.12548000  1
  Cl  Cl26  1  0.16721900  0.39755500  0.12548000  1
  Cl  Cl27  1  0.33278100  0.60244500  0.62548000  1
  Cl  Cl28  1  0.83278100  0.89755500  0.87452000  1
  Cl  Cl29  1  0.66721900  0.10244500  0.37452000  1
  Cl  Cl30  1  0.83278100  0.60244500  0.87452000  1
  Cl  Cl31  1  0.33278100  0.89755500  0.62548000  1
  O  O32  1  0.84329300  0.37895800  0.66126600  1
  O  O33  1  0.65670700  0.87895800  0.16126600  1
  O  O34  1  0.15670700  0.87895800  0.33873400  1
  O  O35  1  0.34329300  0.12104200  0.83873400  1
  O  O36  1  0.84329300  0.12104200  0.66126600  1
  O  O37  1  0.34329300  0.37895800  0.83873400  1
  O  O38  1  0.65670700  0.62104200  0.16126600  1
  O  O39  1  0.15670700  0.62104200  0.33873400  1
