# generated using pymatgen
data_Na2Al2(SiO4)3
_symmetry_space_group_name_H-M   'P 1'
_cell_length_a   6.69349000
_cell_length_b   9.79889388
_cell_length_c   9.92565937
_cell_angle_alpha   83.42576758
_cell_angle_beta   70.47881770
_cell_angle_gamma   70.08798599
_symmetry_Int_Tables_number   1
_chemical_formula_structural   Na2Al2(SiO4)3
_chemical_formula_sum   'Na4 Al4 Si6 O24'
_cell_volume   576.90798245
_cell_formula_units_Z   2
loop_
 _symmetry_equiv_pos_site_id
 _symmetry_equiv_pos_as_xyz
  1  'x, y, z'
loop_
 _atom_site_type_symbol
 _atom_site_label
 _atom_site_symmetry_multiplicity
 _atom_site_fract_x
 _atom_site_fract_y
 _atom_site_fract_z
 _atom_site_occupancy
  Na  Na0  1  0.37691700  0.06114600  0.43758700  1
  Na  Na1  1  0.88266600  0.93776600  0.56039600  1
  Na  Na2  1  0.19675600  0.43791300  0.93601100  1
  Na  Na3  1  0.56907400  0.55933000  0.06452800  1
  Al  Al4  1  0.26525800  0.42589500  0.31073000  1
  Al  Al5  1  0.00475000  0.57418500  0.68833100  1
  Al  Al6  1  0.44110000  0.07301500  0.81058700  1
  Al  Al7  1  0.32657600  0.92504300  0.18781000  1
  Si  Si8  1  0.74910100  0.49929900  0.50027700  1
  Si  Si9  1  0.99625200  0.00067400  0.00044600  1
  Si  Si10  1  0.49147000  0.19367300  0.07634000  1
  Si  Si11  1  0.76340300  0.80573100  0.92270600  1
  Si  Si12  1  0.43713500  0.30547400  0.57560200  1
  Si  Si13  1  0.32095700  0.69341300  0.42235000  1
  O  O14  1  0.97648900  0.45468700  0.36473300  1
  O  O15  1  0.79564000  0.54369700  0.63725000  1
  O  O16  1  0.18108200  0.04326900  0.86477500  1
  O  O17  1  0.08648500  0.95634100  0.13795800  1
  O  O18  1  0.38962000  0.36191600  0.13272700  1
  O  O19  1  0.89184500  0.63774000  0.86646700  1
  O  O20  1  0.50174400  0.13793500  0.63299300  1
  O  O21  1  0.27794100  0.86196600  0.36614300  1
  O  O22  1  0.38384900  0.30183200  0.42773400  1
  O  O23  1  0.11659200  0.69723900  0.56973100  1
  O  O24  1  0.43252500  0.19630800  0.92959700  1
  O  O25  1  0.56011700  0.80235700  0.06884400  1
  O  O26  1  0.38284000  0.08716800  0.19490400  1
  O  O27  1  0.66804600  0.91165400  0.80300100  1
  O  O28  1  0.22317300  0.41228400  0.69422000  1
  O  O29  1  0.32767400  0.58891400  0.30300700  1
  O  O30  1  0.76523800  0.14003700  0.04346300  1
  O  O31  1  0.94766600  0.86130500  0.95671900  1
  O  O32  1  0.65639400  0.36058200  0.54355300  1
  O  O33  1  0.56330700  0.63785400  0.45405300  1
  O  O34  1  0.88361200  0.39016800  0.12122200  1
  O  O35  1  0.40217800  0.60661900  0.87827100  1
  O  O36  1  0.01997200  0.11003900  0.62658300  1
  O  O37  1  0.75534200  0.89238500  0.37457800  1
