# generated using pymatgen
data_NiAs2S6N4(OF2)8
_symmetry_space_group_name_H-M   'P 1'
_cell_length_a   16.63166700
_cell_length_b   9.81089500
_cell_length_c   15.86769330
_cell_angle_alpha   69.75872986
_cell_angle_beta   90.00000000
_cell_angle_gamma   90.00000000
_symmetry_Int_Tables_number   1
_chemical_formula_structural   NiAs2S6N4(OF2)8
_chemical_formula_sum   'Ni4 As8 S24 N16 O32 F64'
_cell_volume   2429.26017423
_cell_formula_units_Z   4
loop_
 _symmetry_equiv_pos_site_id
 _symmetry_equiv_pos_as_xyz
  1  'x, y, z'
loop_
 _atom_site_type_symbol
 _atom_site_label
 _atom_site_symmetry_multiplicity
 _atom_site_fract_x
 _atom_site_fract_y
 _atom_site_fract_z
 _atom_site_occupancy
  Ni  Ni0  1  0.14558600  0.19018000  0.25957300  1
  Ni  Ni1  1  0.64558600  0.80982000  0.24042700  1
  Ni  Ni2  1  0.35441400  0.19018000  0.75957300  1
  Ni  Ni3  1  0.85441400  0.80982000  0.74042700  1
  As  As4  1  0.49470700  0.95598500  0.81387200  1
  As  As5  1  0.31678000  0.34940100  0.55166300  1
  As  As6  1  0.50529300  0.04401500  0.18612800  1
  As  As7  1  0.68322000  0.65059900  0.44833700  1
  As  As8  1  0.99470700  0.04401500  0.68612800  1
  As  As9  1  0.00529300  0.95598500  0.31387200  1
  As  As10  1  0.81678000  0.65059900  0.94833700  1
  As  As11  1  0.18322000  0.34940100  0.05166300  1
  S  S12  1  0.82921000  0.14248300  0.59594200  1
  S  S13  1  0.65462200  0.45429800  0.33516000  1
  S  S14  1  0.07759900  0.31591400  0.42734800  1
  S  S15  1  0.57759900  0.68408600  0.07265200  1
  S  S16  1  0.15684700  0.26358300  0.79683600  1
  S  S17  1  0.65684700  0.73641700  0.70316400  1
  S  S18  1  0.84315300  0.73641700  0.20316400  1
  S  S19  1  0.67079000  0.14248300  0.09594200  1
  S  S20  1  0.17079000  0.85751700  0.40405800  1
  S  S21  1  0.84537800  0.45429800  0.83516000  1
  S  S22  1  0.29383700  0.01622000  0.62570400  1
  S  S23  1  0.32921000  0.85751700  0.90405800  1
  S  S24  1  0.79383700  0.98378000  0.87429600  1
  S  S25  1  0.34315300  0.26358300  0.29683600  1
  S  S26  1  0.04406600  0.72955300  0.79769000  1
  S  S27  1  0.92240100  0.68408600  0.57265200  1
  S  S28  1  0.20616300  0.01622000  0.12570400  1
  S  S29  1  0.70616300  0.98378000  0.37429600  1
  S  S30  1  0.54406600  0.27044700  0.70231000  1
  S  S31  1  0.42240100  0.31591400  0.92734800  1
  S  S32  1  0.95593400  0.27044700  0.20231000  1
  S  S33  1  0.45593400  0.72955300  0.29769000  1
  S  S34  1  0.15462200  0.54570200  0.16484000  1
  S  S35  1  0.34537800  0.54570200  0.66484000  1
  N  N36  1  0.97993700  0.83734800  0.75218500  1
  N  N37  1  0.15912000  0.39709300  0.15884200  1
  N  N38  1  0.34088000  0.39709300  0.65884200  1
  N  N39  1  0.61938500  0.02771400  0.16004700  1
  N  N40  1  0.38061500  0.97228600  0.83995300  1
  N  N41  1  0.02006300  0.16265200  0.24781500  1
  N  N42  1  0.84088000  0.60290700  0.84115800  1
  N  N43  1  0.18292600  0.15286800  0.14079300  1
  N  N44  1  0.88061500  0.02771400  0.66004700  1
  N  N45  1  0.47993700  0.16265200  0.74781500  1
  N  N46  1  0.31707400  0.15286800  0.64079300  1
  N  N47  1  0.68292600  0.84713200  0.35920700  1
  N  N48  1  0.81707400  0.84713200  0.85920700  1
  N  N49  1  0.65912000  0.60290700  0.34115800  1
  N  N50  1  0.52006300  0.83734800  0.25218500  1
  N  N51  1  0.11938500  0.97228600  0.33995300  1
  O  O52  1  0.87206000  0.75063300  0.62380900  1
  O  O53  1  0.62794000  0.75063300  0.12380900  1
  O  O54  1  0.99749000  0.62066400  0.61237000  1
  O  O55  1  0.86059700  0.43797800  0.75125100  1
  O  O56  1  0.34236600  0.41851600  0.25166300  1
  O  O57  1  0.28521800  0.88373500  0.69856400  1
  O  O58  1  0.49749000  0.37933600  0.88763000  1
  O  O59  1  0.02600700  0.57954300  0.83410600  1
  O  O60  1  0.21478200  0.88373500  0.19856400  1
  O  O61  1  0.23172200  0.18463900  0.79709000  1
  O  O62  1  0.37206000  0.24936700  0.87619100  1
  O  O63  1  0.84236600  0.58148400  0.24833700  1
  O  O64  1  0.12794000  0.24936700  0.37619100  1
  O  O65  1  0.63940300  0.43797800  0.25125100  1
  O  O66  1  0.97399300  0.42045700  0.16589400  1
  O  O67  1  0.75260500  0.11481400  0.08302200  1
  O  O68  1  0.13940300  0.56202200  0.24874900  1
  O  O69  1  0.36059700  0.56202200  0.74874900  1
  O  O70  1  0.52600700  0.42045700  0.66589400  1
  O  O71  1  0.50251000  0.62066400  0.11237000  1
  O  O72  1  0.24739500  0.88518600  0.91697800  1
  O  O73  1  0.73172200  0.81536100  0.70291000  1
  O  O74  1  0.26827800  0.18463900  0.29709000  1
  O  O75  1  0.00251000  0.37933600  0.38763000  1
  O  O76  1  0.74739500  0.11481400  0.58302200  1
  O  O77  1  0.76827800  0.81536100  0.20291000  1
  O  O78  1  0.71478200  0.11626500  0.30143600  1
  O  O79  1  0.15763400  0.41851600  0.75166300  1
  O  O80  1  0.25260500  0.88518600  0.41697800  1
  O  O81  1  0.78521800  0.11626500  0.80143600  1
  O  O82  1  0.47399300  0.57954300  0.33410600  1
  O  O83  1  0.65763400  0.58148400  0.74833700  1
  F  F84  1  0.11980000  0.75063500  0.73516500  1
  F  F85  1  0.40224800  0.04433400  0.21584300  1
  F  F86  1  0.59518200  0.35315600  0.40650800  1
  F  F87  1  0.53172300  0.08491900  0.28319500  1
  F  F88  1  0.50063100  0.23212600  0.12227800  1
  F  F89  1  0.57933300  0.66654900  0.46692800  1
  F  F90  1  0.52273800  0.99495900  0.91153100  1
  F  F91  1  0.90224800  0.95566600  0.28415700  1
  F  F92  1  0.28414000  0.03988600  0.06580700  1
  F  F93  1  0.09775200  0.04433400  0.71584300  1
  F  F94  1  0.20514200  0.28853800  0.96040300  1
  F  F95  1  0.92066700  0.66654900  0.96692800  1
  F  F96  1  0.46827700  0.91508100  0.71680500  1
  F  F97  1  0.40481800  0.64684400  0.59349200  1
  F  F98  1  0.79485800  0.71146200  0.03959700  1
  F  F99  1  0.71168800  0.63925100  0.93024300  1
  F  F100  1  0.16501300  0.71024100  0.38611600  1
  F  F101  1  0.96827700  0.08491900  0.78319500  1
  F  F102  1  0.12907500  0.79588600  0.49914600  1
  F  F103  1  0.76882600  0.36277900  0.87860300  1
  F  F104  1  0.78414000  0.96011400  0.43419300  1
  F  F105  1  0.29485800  0.28853800  0.46040300  1
  F  F106  1  0.21168800  0.36074900  0.56975700  1
  F  F107  1  0.49936900  0.76787400  0.87772200  1
  F  F108  1  0.83498700  0.28975900  0.61388400  1
  F  F109  1  0.73117400  0.36277900  0.37860300  1
  F  F110  1  0.42066700  0.33345100  0.53307200  1
  F  F111  1  0.62907500  0.20411400  0.00085400  1
  F  F112  1  0.21586000  0.03988600  0.56580700  1
  F  F113  1  0.91144400  0.22389300  0.12936900  1
  F  F114  1  0.81668100  0.46797800  0.02041800  1
  F  F115  1  0.37092500  0.79588600  0.99914600  1
  F  F116  1  0.02273800  0.00504100  0.58846900  1
  F  F117  1  0.34982900  0.98773800  0.55318700  1
  F  F118  1  0.38020000  0.75063500  0.23516500  1
  F  F119  1  0.70514200  0.71146200  0.53959700  1
  F  F120  1  0.15017100  0.98773800  0.05318700  1
  F  F121  1  0.28831200  0.36074900  0.06975700  1
  F  F122  1  0.03172300  0.91508100  0.21680500  1
  F  F123  1  0.59775200  0.95566600  0.78415700  1
  F  F124  1  0.33498700  0.71024100  0.88611600  1
  F  F125  1  0.58855600  0.22389300  0.62936900  1
  F  F126  1  0.61980000  0.24936500  0.76483500  1
  F  F127  1  0.26882600  0.63722100  0.62139700  1
  F  F128  1  0.00063100  0.76787400  0.37772200  1
  F  F129  1  0.78831200  0.63925100  0.43024300  1
  F  F130  1  0.66501300  0.28975900  0.11388400  1
  F  F131  1  0.07933300  0.33345100  0.03307200  1
  F  F132  1  0.41144400  0.77610700  0.37063100  1
  F  F133  1  0.47726200  0.00504100  0.08846900  1
  F  F134  1  0.23117400  0.63722100  0.12139700  1
  F  F135  1  0.08855600  0.77610700  0.87063100  1
  F  F136  1  0.87092500  0.20411400  0.50085400  1
  F  F137  1  0.09518200  0.64684400  0.09349200  1
  F  F138  1  0.99936900  0.23212600  0.62227800  1
  F  F139  1  0.97726200  0.99495900  0.41153100  1
  F  F140  1  0.68331900  0.46797800  0.52041800  1
  F  F141  1  0.65017100  0.01226200  0.44681300  1
  F  F142  1  0.90481800  0.35315600  0.90650800  1
  F  F143  1  0.88020000  0.24936500  0.26483500  1
  F  F144  1  0.18331900  0.53202200  0.97958200  1
  F  F145  1  0.71586000  0.96011400  0.93419300  1
  F  F146  1  0.84982900  0.01226200  0.94681300  1
  F  F147  1  0.31668100  0.53202200  0.47958200  1
