# generated using pymatgen
data_AgCN3O2
_symmetry_space_group_name_H-M   'P 1'
_cell_length_a   5.57427200
_cell_length_b   5.78825800
_cell_length_c   12.58828400
_cell_angle_alpha   90.00000000
_cell_angle_beta   90.00000000
_cell_angle_gamma   90.00000000
_symmetry_Int_Tables_number   1
_chemical_formula_structural   AgCN3O2
_chemical_formula_sum   'Ag4 C4 N12 O8'
_cell_volume   406.16506814
_cell_formula_units_Z   4
loop_
 _symmetry_equiv_pos_site_id
 _symmetry_equiv_pos_as_xyz
  1  'x, y, z'
loop_
 _atom_site_type_symbol
 _atom_site_label
 _atom_site_symmetry_multiplicity
 _atom_site_fract_x
 _atom_site_fract_y
 _atom_site_fract_z
 _atom_site_occupancy
  Ag  Ag0  1  0.44887300  0.25000000  0.30287600  1
  Ag  Ag1  1  0.44887300  0.75000000  0.19712400  1
  Ag  Ag2  1  0.55112700  0.75000000  0.69712400  1
  Ag  Ag3  1  0.55112700  0.25000000  0.80287600  1
  C  C4  1  0.66758600  0.75000000  0.95655200  1
  C  C5  1  0.33241400  0.75000000  0.45655200  1
  C  C6  1  0.33241400  0.25000000  0.04344800  1
  C  C7  1  0.66758600  0.25000000  0.54344800  1
  N  N8  1  0.61315700  0.25000000  0.63344800  1
  N  N9  1  0.38684300  0.25000000  0.13344800  1
  N  N10  1  0.70469800  0.75000000  0.05950600  1
  N  N11  1  0.05508300  0.75000000  0.58722000  1
  N  N12  1  0.94491700  0.25000000  0.41278000  1
  N  N13  1  0.05508300  0.25000000  0.91278000  1
  N  N14  1  0.29530200  0.75000000  0.55950600  1
  N  N15  1  0.70469800  0.25000000  0.44049400  1
  N  N16  1  0.94491700  0.75000000  0.08722000  1
  N  N17  1  0.38684300  0.75000000  0.36655200  1
  N  N18  1  0.61315700  0.75000000  0.86655200  1
  N  N19  1  0.29530200  0.25000000  0.94049400  1
  O  O20  1  0.89879600  0.25000000  0.98344500  1
  O  O21  1  0.10120400  0.75000000  0.01655500  1
  O  O22  1  0.98759400  0.75000000  0.18440300  1
  O  O23  1  0.01240600  0.75000000  0.68440300  1
  O  O24  1  0.01240600  0.25000000  0.81559700  1
  O  O25  1  0.89879600  0.75000000  0.51655500  1
  O  O26  1  0.10120400  0.25000000  0.48344500  1
  O  O27  1  0.98759400  0.25000000  0.31559700  1
