# generated using pymatgen
data_Be(PO3)2
_symmetry_space_group_name_H-M   'P 1'
_cell_length_a   7.21931280
_cell_length_b   7.21931280
_cell_length_c   8.89171800
_cell_angle_alpha   90.00000000
_cell_angle_beta   90.00000000
_cell_angle_gamma   90.92284597
_symmetry_Int_Tables_number   1
_chemical_formula_structural   Be(PO3)2
_chemical_formula_sum   'Be4 P8 O24'
_cell_volume   463.36269273
_cell_formula_units_Z   4
loop_
 _symmetry_equiv_pos_site_id
 _symmetry_equiv_pos_as_xyz
  1  'x, y, z'
loop_
 _atom_site_type_symbol
 _atom_site_label
 _atom_site_symmetry_multiplicity
 _atom_site_fract_x
 _atom_site_fract_y
 _atom_site_fract_z
 _atom_site_occupancy
  Be  Be0  1  0.17216400  0.36468300  0.77789300  1
  Be  Be1  1  0.36468300  0.17216400  0.22210700  1
  Be  Be2  1  0.82783600  0.63531700  0.27789300  1
  Be  Be3  1  0.63531700  0.82783600  0.72210700  1
  P  P4  1  0.93179500  0.93179500  0.50000000  1
  P  P5  1  0.65546200  0.11019900  0.97639400  1
  P  P6  1  0.06820500  0.06820500  0.00000000  1
  P  P7  1  0.88980100  0.34453800  0.52360600  1
  P  P8  1  0.11019900  0.65546200  0.02360600  1
  P  P9  1  0.59057400  0.40942600  0.75000000  1
  P  P10  1  0.40942600  0.59057400  0.25000000  1
  P  P11  1  0.34453800  0.88980100  0.47639400  1
  O  O12  1  0.14386900  0.91441900  0.54790800  1
  O  O13  1  0.46819000  0.86078600  0.60722500  1
  O  O14  1  0.60876300  0.64520800  0.23225800  1
  O  O15  1  0.35479200  0.39123700  0.26774200  1
  O  O16  1  0.95577300  0.60714900  0.12895800  1
  O  O17  1  0.64520800  0.60876300  0.76774200  1
  O  O18  1  0.53181000  0.13921400  0.10722500  1
  O  O19  1  0.91441900  0.14386900  0.45209200  1
  O  O20  1  0.85613100  0.08558100  0.04790800  1
  O  O21  1  0.82729800  0.89118900  0.64131400  1
  O  O22  1  0.08558100  0.85613100  0.95209200  1
  O  O23  1  0.69469200  0.31730900  0.60964300  1
  O  O24  1  0.89118900  0.82729800  0.35868600  1
  O  O25  1  0.60714900  0.95577300  0.87104200  1
  O  O26  1  0.13921400  0.53181000  0.89277500  1
  O  O27  1  0.86078600  0.46819000  0.39277500  1
  O  O28  1  0.39123700  0.35479200  0.73225800  1
  O  O29  1  0.39285100  0.04422700  0.37104200  1
  O  O30  1  0.04422700  0.39285100  0.62895800  1
  O  O31  1  0.68269100  0.30530800  0.89035700  1
  O  O32  1  0.10881100  0.17270200  0.85868600  1
  O  O33  1  0.17270200  0.10881100  0.14131400  1
  O  O34  1  0.30530800  0.68269100  0.10964300  1
  O  O35  1  0.31730900  0.69469200  0.39035700  1
