# generated using pymatgen
data_Na3V(SO)2
_symmetry_space_group_name_H-M   'P 1'
_cell_length_a   5.99795100
_cell_length_b   11.74576800
_cell_length_c   17.89753000
_cell_angle_alpha   90.00000000
_cell_angle_beta   90.00000000
_cell_angle_gamma   90.00000000
_symmetry_Int_Tables_number   1
_chemical_formula_structural   Na3V(SO)2
_chemical_formula_sum   'Na24 V8 S16 O16'
_cell_volume   1260.89066966
_cell_formula_units_Z   8
loop_
 _symmetry_equiv_pos_site_id
 _symmetry_equiv_pos_as_xyz
  1  'x, y, z'
loop_
 _atom_site_type_symbol
 _atom_site_label
 _atom_site_symmetry_multiplicity
 _atom_site_fract_x
 _atom_site_fract_y
 _atom_site_fract_z
 _atom_site_occupancy
  Na  Na0  1  0.71086200  0.62213300  0.26199700  1
  Na  Na1  1  0.28913800  0.87786700  0.76199700  1
  Na  Na2  1  0.85595600  0.16991900  0.04693900  1
  Na  Na3  1  0.28913800  0.37786700  0.73800300  1
  Na  Na4  1  0.76100600  0.37223300  0.90005700  1
  Na  Na5  1  0.73899400  0.37223300  0.40005700  1
  Na  Na6  1  0.64404400  0.66991900  0.95306100  1
  Na  Na7  1  0.21086200  0.37786700  0.23800300  1
  Na  Na8  1  0.78913800  0.62213300  0.76199700  1
  Na  Na9  1  0.64404400  0.16991900  0.54693900  1
  Na  Na10  1  0.23899400  0.12776700  0.40005700  1
  Na  Na11  1  0.76100600  0.87223300  0.59994300  1
  Na  Na12  1  0.21086200  0.87786700  0.26199700  1
  Na  Na13  1  0.85595600  0.66991900  0.45306100  1
  Na  Na14  1  0.73899400  0.87223300  0.09994300  1
  Na  Na15  1  0.35595600  0.33008100  0.04693900  1
  Na  Na16  1  0.26100600  0.62776700  0.59994300  1
  Na  Na17  1  0.14404400  0.33008100  0.54693900  1
  Na  Na18  1  0.78913800  0.12213300  0.73800300  1
  Na  Na19  1  0.26100600  0.12776700  0.90005700  1
  Na  Na20  1  0.23899400  0.62776700  0.09994300  1
  Na  Na21  1  0.71086200  0.12213300  0.23800300  1
  Na  Na22  1  0.35595600  0.83008100  0.45306100  1
  Na  Na23  1  0.14404400  0.83008100  0.95306100  1
  V  V24  1  0.16758600  0.55823400  0.88774300  1
  V  V25  1  0.66758600  0.44176600  0.61225700  1
  V  V26  1  0.83241400  0.94176600  0.38774300  1
  V  V27  1  0.66758600  0.94176600  0.88774300  1
  V  V28  1  0.16758600  0.05823400  0.61225700  1
  V  V29  1  0.33241400  0.05823400  0.11225700  1
  V  V30  1  0.33241400  0.55823400  0.38774300  1
  V  V31  1  0.83241400  0.44176600  0.11225700  1
  S  S32  1  0.20337100  0.62853600  0.28192100  1
  S  S33  1  0.29662900  0.12853600  0.71807900  1
  S  S34  1  0.77231400  0.62369500  0.60327200  1
  S  S35  1  0.27231400  0.87630500  0.60327200  1
  S  S36  1  0.72768600  0.12369500  0.39672800  1
  S  S37  1  0.79662900  0.87146400  0.78192100  1
  S  S38  1  0.29662900  0.62853600  0.78192100  1
  S  S39  1  0.27231400  0.37630500  0.89672800  1
  S  S40  1  0.79662900  0.37146400  0.71807900  1
  S  S41  1  0.72768600  0.62369500  0.10327200  1
  S  S42  1  0.22768600  0.37630500  0.39672800  1
  S  S43  1  0.77231400  0.12369500  0.89672800  1
  S  S44  1  0.70337100  0.87146400  0.28192100  1
  S  S45  1  0.22768600  0.87630500  0.10327200  1
  S  S46  1  0.70337100  0.37146400  0.21807900  1
  S  S47  1  0.20337100  0.12853600  0.21807900  1
  O  O48  1  0.73791200  0.36157600  0.03863200  1
  O  O49  1  0.88264000  0.06224600  0.61586000  1
  O  O50  1  0.38264000  0.93775400  0.88414000  1
  O  O51  1  0.61736000  0.56224600  0.38414000  1
  O  O52  1  0.11736000  0.93775400  0.38414000  1
  O  O53  1  0.76208800  0.36157600  0.53863200  1
  O  O54  1  0.73791200  0.86157600  0.46136800  1
  O  O55  1  0.26208800  0.63842400  0.96136800  1
  O  O56  1  0.23791200  0.13842400  0.03863200  1
  O  O57  1  0.11736000  0.43775400  0.11586000  1
  O  O58  1  0.23791200  0.63842400  0.46136800  1
  O  O59  1  0.61736000  0.06224600  0.11586000  1
  O  O60  1  0.76208800  0.86157600  0.96136800  1
  O  O61  1  0.38264000  0.43775400  0.61586000  1
  O  O62  1  0.88264000  0.56224600  0.88414000  1
  O  O63  1  0.26208800  0.13842400  0.53863200  1
