# generated using pymatgen
data_K2U2WO10
_symmetry_space_group_name_H-M   'P 1'
_cell_length_a   29.13646800
_cell_length_b   8.37314100
_cell_length_c   10.93894422
_cell_angle_alpha   55.37896732
_cell_angle_beta   90.00000000
_cell_angle_gamma   90.00000000
_symmetry_Int_Tables_number   1
_chemical_formula_structural   K2U2WO10
_chemical_formula_sum   'K16 U16 W8 O80'
_cell_volume   2196.15245014
_cell_formula_units_Z   8
loop_
 _symmetry_equiv_pos_site_id
 _symmetry_equiv_pos_as_xyz
  1  'x, y, z'
loop_
 _atom_site_type_symbol
 _atom_site_label
 _atom_site_symmetry_multiplicity
 _atom_site_fract_x
 _atom_site_fract_y
 _atom_site_fract_z
 _atom_site_occupancy
  K  K0  1  0.39526700  0.98380900  0.49950200  1
  K  K1  1  0.12219200  0.98387600  0.60488300  1
  K  K2  1  0.25060700  0.95966000  0.96709600  1
  K  K3  1  0.48173900  0.95098300  0.82730600  1
  K  K4  1  0.37780800  0.98387600  0.10488300  1
  K  K5  1  0.74939300  0.04034000  0.03290400  1
  K  K6  1  0.89526700  0.01619100  0.00049800  1
  K  K7  1  0.75060700  0.04034000  0.53290400  1
  K  K8  1  0.60473300  0.01619100  0.50049800  1
  K  K9  1  0.01826100  0.95098300  0.32730600  1
  K  K10  1  0.24939300  0.95966000  0.46709600  1
  K  K11  1  0.51826100  0.04901700  0.17269400  1
  K  K12  1  0.87780800  0.01612400  0.39511700  1
  K  K13  1  0.98173900  0.04901700  0.67269400  1
  K  K14  1  0.62219200  0.01612400  0.89511700  1
  K  K15  1  0.10473300  0.98380900  0.99950200  1
  U  U16  1  0.16843700  0.45657800  0.21252800  1
  U  U17  1  0.09769500  0.51738200  0.57616500  1
  U  U18  1  0.43248600  0.50020300  0.46816100  1
  U  U19  1  0.06751400  0.50020300  0.96816100  1
  U  U20  1  0.33156300  0.45657800  0.71252800  1
  U  U21  1  0.40230500  0.51738200  0.07616500  1
  U  U22  1  0.31424800  0.46721600  0.35366500  1
  U  U23  1  0.59769500  0.48261800  0.92383500  1
  U  U24  1  0.18575200  0.46721600  0.85366500  1
  U  U25  1  0.66843700  0.54342200  0.28747200  1
  U  U26  1  0.93248600  0.49979700  0.03183900  1
  U  U27  1  0.68575200  0.53278400  0.64633500  1
  U  U28  1  0.83156300  0.54342200  0.78747200  1
  U  U29  1  0.90230500  0.48261800  0.42383500  1
  U  U30  1  0.81424800  0.53278400  0.14633500  1
  U  U31  1  0.56751400  0.49979700  0.53183900  1
  W  W32  1  0.71018100  0.63068300  0.95665700  1
  W  W33  1  0.21018100  0.36931700  0.54334300  1
  W  W34  1  0.78981900  0.63068300  0.45665700  1
  W  W35  1  0.53300200  0.57912500  0.18681600  1
  W  W36  1  0.28981900  0.36931700  0.04334300  1
  W  W37  1  0.46699800  0.42087500  0.81318400  1
  W  W38  1  0.96699800  0.57912500  0.68681600  1
  W  W39  1  0.03300200  0.42087500  0.31318400  1
  O  O40  1  0.58733200  0.74846300  0.80852600  1
  O  O41  1  0.83396100  0.81054000  0.67599000  1
  O  O42  1  0.31957800  0.47262700  0.14100800  1
  O  O43  1  0.41116600  0.48479600  0.69202000  1
  O  O44  1  0.81957800  0.52737300  0.35899200  1
  O  O45  1  0.52714100  0.42575700  0.87569100  1
  O  O46  1  0.56363300  0.76832200  0.43021900  1
  O  O47  1  0.10938900  0.51196600  0.78448900  1
  O  O48  1  0.67944300  0.80039600  0.53503700  1
  O  O49  1  0.08883400  0.48479600  0.19202000  1
  O  O50  1  0.06749300  0.76960400  0.86479900  1
  O  O51  1  0.97285900  0.42575700  0.37569100  1
  O  O52  1  0.29078600  0.11519200  0.17748700  1
  O  O53  1  0.35710200  0.48760100  0.51028800  1
  O  O54  1  0.73465500  0.59627200  0.13694700  1
  O  O55  1  0.15254600  0.43565100  0.43554200  1
  O  O56  1  0.00587300  0.47632000  0.13018300  1
  O  O57  1  0.68042200  0.52737300  0.85899200  1
  O  O58  1  0.99412700  0.52368000  0.86981700  1
  O  O59  1  0.26534500  0.40372800  0.86305300  1
  O  O60  1  0.49412700  0.47632000  0.63018300  1
  O  O61  1  0.23465500  0.40372800  0.36305300  1
  O  O62  1  0.18042200  0.47262700  0.64100800  1
  O  O63  1  0.43636700  0.23167800  0.56978100  1
  O  O64  1  0.94404700  0.42785800  0.62506900  1
  O  O65  1  0.16603900  0.18946000  0.32401000  1
  O  O66  1  0.89061100  0.48803400  0.21551100  1
  O  O67  1  0.06363300  0.23167800  0.06978100  1
  O  O68  1  0.50587300  0.52368000  0.36981700  1
  O  O69  1  0.34745400  0.43565100  0.93554200  1
  O  O70  1  0.19663000  0.73113400  0.73008900  1
  O  O71  1  0.70921400  0.88480800  0.82251300  1
  O  O72  1  0.67510500  0.27712100  0.38965400  1
  O  O73  1  0.65254600  0.56434900  0.06445800  1
  O  O74  1  0.32489500  0.72287900  0.61034600  1
  O  O75  1  0.32055700  0.19960400  0.46496300  1
  O  O76  1  0.33396100  0.18946000  0.82401000  1
  O  O77  1  0.05595300  0.57214200  0.37493100  1
  O  O78  1  0.41266800  0.25153700  0.19147400  1
  O  O79  1  0.04420500  0.16736500  0.44470900  1
  O  O80  1  0.58883400  0.51520400  0.30798000  1
  O  O81  1  0.43250700  0.76960400  0.36479900  1
  O  O82  1  0.56749300  0.23039600  0.63520100  1
  O  O83  1  0.76534500  0.59627200  0.63694700  1
  O  O84  1  0.23163300  0.45586700  0.06088600  1
  O  O85  1  0.66603900  0.81054000  0.17599000  1
  O  O86  1  0.44404700  0.57214200  0.87493100  1
  O  O87  1  0.85710200  0.51239900  0.98971200  1
  O  O88  1  0.54420500  0.83263500  0.05529100  1
  O  O89  1  0.79078600  0.88480800  0.32251300  1
  O  O90  1  0.10806400  0.78076300  0.45997600  1
  O  O91  1  0.84745400  0.56434900  0.56445800  1
  O  O92  1  0.39193600  0.78076300  0.95997600  1
  O  O93  1  0.89193600  0.21923700  0.54002400  1
  O  O94  1  0.30337000  0.73113400  0.23008900  1
  O  O95  1  0.14289800  0.48760100  0.01028800  1
  O  O96  1  0.45579500  0.16736500  0.94470900  1
  O  O97  1  0.60938900  0.48803400  0.71551100  1
  O  O98  1  0.95579500  0.83263500  0.55529100  1
  O  O99  1  0.82055700  0.80039600  0.03503700  1
  O  O100  1  0.17510500  0.72287900  0.11034600  1
  O  O101  1  0.69663000  0.26886600  0.76991100  1
  O  O102  1  0.60806400  0.21923700  0.04002400  1
  O  O103  1  0.55595300  0.42785800  0.12506900  1
  O  O104  1  0.02714100  0.57424300  0.62430900  1
  O  O105  1  0.76836700  0.54413300  0.93911400  1
  O  O106  1  0.64289800  0.51239900  0.48971200  1
  O  O107  1  0.73163300  0.54413300  0.43911400  1
  O  O108  1  0.80337000  0.26886600  0.26991100  1
  O  O109  1  0.20921400  0.11519200  0.67748700  1
  O  O110  1  0.91116600  0.51520400  0.80798000  1
  O  O111  1  0.39061100  0.51196600  0.28448900  1
  O  O112  1  0.47285900  0.57424300  0.12430900  1
  O  O113  1  0.93636700  0.76832200  0.93021900  1
  O  O114  1  0.17944300  0.19960400  0.96496300  1
  O  O115  1  0.91266800  0.74846300  0.30852600  1
  O  O116  1  0.82489500  0.27712100  0.88965400  1
  O  O117  1  0.08733200  0.25153700  0.69147400  1
  O  O118  1  0.26836700  0.45586700  0.56088600  1
  O  O119  1  0.93250700  0.23039600  0.13520100  1
