# generated using pymatgen
data_SrMgF4
_symmetry_space_group_name_H-M   'P 1'
_cell_length_a   17.11305500
_cell_length_b   7.64152200
_cell_length_c   7.90727813
_cell_angle_alpha   75.10864143
_cell_angle_beta   90.00000000
_cell_angle_gamma   90.00000000
_symmetry_Int_Tables_number   1
_chemical_formula_structural   SrMgF4
_chemical_formula_sum   'Sr12 Mg12 F48'
_cell_volume   999.30491420
_cell_formula_units_Z   12
loop_
 _symmetry_equiv_pos_site_id
 _symmetry_equiv_pos_as_xyz
  1  'x, y, z'
loop_
 _atom_site_type_symbol
 _atom_site_label
 _atom_site_symmetry_multiplicity
 _atom_site_fract_x
 _atom_site_fract_y
 _atom_site_fract_z
 _atom_site_occupancy
  Sr  Sr0  1  0.00121300  0.84075500  0.66394100  1
  Sr  Sr1  1  0.83118300  0.15109000  0.83811500  1
  Sr  Sr2  1  0.98567100  0.79563100  0.17990200  1
  Sr  Sr3  1  0.16686300  0.16652400  0.83460400  1
  Sr  Sr4  1  0.64869400  0.77760900  0.68074700  1
  Sr  Sr5  1  0.14869400  0.22239100  0.31925300  1
  Sr  Sr6  1  0.48567100  0.20436900  0.82009800  1
  Sr  Sr7  1  0.66686300  0.83347600  0.16539600  1
  Sr  Sr8  1  0.33118300  0.84891000  0.16188500  1
  Sr  Sr9  1  0.32291000  0.81777900  0.66771200  1
  Sr  Sr10  1  0.50121300  0.15924500  0.33605900  1
  Sr  Sr11  1  0.82291000  0.18222100  0.33228800  1
  Mg  Mg12  1  0.14451800  0.66938300  0.45722500  1
  Mg  Mg13  1  0.97669400  0.34109500  0.54177200  1
  Mg  Mg14  1  0.14245000  0.67050600  0.95713400  1
  Mg  Mg15  1  0.64245000  0.32949400  0.04286600  1
  Mg  Mg16  1  0.30895100  0.33258500  0.54024300  1
  Mg  Mg17  1  0.80943000  0.66115600  0.95694000  1
  Mg  Mg18  1  0.47669400  0.65890500  0.45822800  1
  Mg  Mg19  1  0.97718400  0.33810000  0.03814800  1
  Mg  Mg20  1  0.30943000  0.33884400  0.04306000  1
  Mg  Mg21  1  0.64451800  0.33061700  0.54277500  1
  Mg  Mg22  1  0.47718400  0.66190000  0.96185200  1
  Mg  Mg23  1  0.80895100  0.66741500  0.45975700  1
  F  F24  1  0.91303000  0.10878900  0.58773600  1
  F  F25  1  0.19614300  0.42859700  0.54710000  1
  F  F26  1  0.07820100  0.90005400  0.92535400  1
  F  F27  1  0.40216000  0.17187200  0.09647300  1
  F  F28  1  0.57591100  0.79108900  0.94448200  1
  F  F29  1  0.13143900  0.62361500  0.21799000  1
  F  F30  1  0.30986100  0.28154500  0.80572900  1
  F  F31  1  0.95544700  0.33242800  0.79132000  1
  F  F32  1  0.24486500  0.79176600  0.41193600  1
  F  F33  1  0.41303000  0.89121100  0.41226400  1
  F  F34  1  0.69614300  0.57140300  0.45290000  1
  F  F35  1  0.74421200  0.90099600  0.42365600  1
  F  F36  1  0.86710500  0.43349700  0.05092900  1
  F  F37  1  0.02894500  0.57788700  0.95945300  1
  F  F38  1  0.87025700  0.44726600  0.46964300  1
  F  F39  1  0.80986100  0.71845500  0.19427100  1
  F  F40  1  0.24256600  0.11118900  0.12211800  1
  F  F41  1  0.29494300  0.37294100  0.28289700  1
  F  F42  1  0.20267100  0.44802700  0.98037500  1
  F  F43  1  0.74486500  0.20823400  0.58806400  1
  F  F44  1  0.23694900  0.83540700  0.92725100  1
  F  F45  1  0.41687100  0.90359800  0.88773800  1
  F  F46  1  0.99268400  0.34015500  0.29046900  1
  F  F47  1  0.57820100  0.09994600  0.07464600  1
  F  F48  1  0.49268400  0.65984500  0.70953100  1
  F  F49  1  0.63143900  0.37638500  0.78201000  1
  F  F50  1  0.70267100  0.55197300  0.01962500  1
  F  F51  1  0.73694900  0.16459300  0.07274900  1
  F  F52  1  0.24421200  0.09900400  0.57634400  1
  F  F53  1  0.53311400  0.42615600  0.49751900  1
  F  F54  1  0.07591100  0.20891100  0.05551800  1
  F  F55  1  0.40467500  0.18146800  0.56276900  1
  F  F56  1  0.79494300  0.62705900  0.71710300  1
  F  F57  1  0.06893200  0.17187500  0.59663300  1
  F  F58  1  0.14066700  0.71554600  0.69620800  1
  F  F59  1  0.64066700  0.28445400  0.30379200  1
  F  F60  1  0.90216000  0.82812800  0.90352700  1
  F  F61  1  0.58226300  0.09179800  0.62497600  1
  F  F62  1  0.36710500  0.56650300  0.94907100  1
  F  F63  1  0.91687100  0.09640200  0.11226200  1
  F  F64  1  0.90467500  0.81853200  0.43723100  1
  F  F65  1  0.56893200  0.82812500  0.40336700  1
  F  F66  1  0.74256600  0.88881100  0.87788200  1
  F  F67  1  0.37025700  0.55273400  0.53035700  1
  F  F68  1  0.03311400  0.57384400  0.50248100  1
  F  F69  1  0.45544700  0.66757200  0.20868000  1
  F  F70  1  0.08226300  0.90820200  0.37502400  1
  F  F71  1  0.52894500  0.42211300  0.04054700  1
