# generated using pymatgen
data_YMoClO4
_symmetry_space_group_name_H-M   'P 1'
_cell_length_a   6.33738323
_cell_length_b   6.33738323
_cell_length_c   6.95026674
_cell_angle_alpha   75.95139624
_cell_angle_beta   75.95139624
_cell_angle_gamma   70.87797407
_symmetry_Int_Tables_number   1
_chemical_formula_structural   YMoClO4
_chemical_formula_sum   'Y2 Mo2 Cl2 O8'
_cell_volume   251.75943451
_cell_formula_units_Z   2
loop_
 _symmetry_equiv_pos_site_id
 _symmetry_equiv_pos_as_xyz
  1  'x, y, z'
loop_
 _atom_site_type_symbol
 _atom_site_label
 _atom_site_symmetry_multiplicity
 _atom_site_fract_x
 _atom_site_fract_y
 _atom_site_fract_z
 _atom_site_occupancy
  Y  Y0  1  0.22158800  0.22158800  0.88616100  1
  Y  Y1  1  0.77841200  0.77841200  0.11383900  1
  Mo  Mo2  1  0.63794900  0.63794900  0.73147800  1
  Mo  Mo3  1  0.36205100  0.36205100  0.26852200  1
  Cl  Cl4  1  0.01093000  0.01093000  0.23191800  1
  Cl  Cl5  1  0.98907000  0.98907000  0.76808200  1
  O  O6  1  0.11004700  0.49111900  0.15351700  1
  O  O7  1  0.88995300  0.50888100  0.84648300  1
  O  O8  1  0.54249600  0.54249600  0.20199700  1
  O  O9  1  0.70652600  0.70652600  0.46580600  1
  O  O10  1  0.45750400  0.45750400  0.79800300  1
  O  O11  1  0.29347400  0.29347400  0.53419400  1
  O  O12  1  0.50888100  0.88995300  0.84648300  1
  O  O13  1  0.49111900  0.11004700  0.15351700  1
