# generated using pymatgen
data_BaV4As4O19
_symmetry_space_group_name_H-M   'P 1'
_cell_length_a   7.78455100
_cell_length_b   11.29341200
_cell_length_c   17.78606500
_cell_angle_alpha   90.00000000
_cell_angle_beta   90.00000000
_cell_angle_gamma   90.00000000
_symmetry_Int_Tables_number   1
_chemical_formula_structural   BaV4As4O19
_chemical_formula_sum   'Ba4 V16 As16 O76'
_cell_volume   1563.64663830
_cell_formula_units_Z   4
loop_
 _symmetry_equiv_pos_site_id
 _symmetry_equiv_pos_as_xyz
  1  'x, y, z'
loop_
 _atom_site_type_symbol
 _atom_site_label
 _atom_site_symmetry_multiplicity
 _atom_site_fract_x
 _atom_site_fract_y
 _atom_site_fract_z
 _atom_site_occupancy
  Ba  Ba0  1  0.75000000  0.87259200  0.26323900  1
  Ba  Ba1  1  0.25000000  0.37259200  0.23676100  1
  Ba  Ba2  1  0.75000000  0.62740800  0.76323900  1
  Ba  Ba3  1  0.25000000  0.12740800  0.73676100  1
  V  V4  1  0.55195300  0.89645400  0.87889800  1
  V  V5  1  0.54878100  0.14231800  0.38411900  1
  V  V6  1  0.94804700  0.89645400  0.87889800  1
  V  V7  1  0.04878100  0.85768200  0.61588100  1
  V  V8  1  0.44804700  0.39645400  0.62110200  1
  V  V9  1  0.94804700  0.60354600  0.37889800  1
  V  V10  1  0.05195300  0.39645400  0.62110200  1
  V  V11  1  0.55195300  0.60354600  0.37889800  1
  V  V12  1  0.95121900  0.35768200  0.88411900  1
  V  V13  1  0.95121900  0.14231800  0.38411900  1
  V  V14  1  0.04878100  0.64231800  0.11588100  1
  V  V15  1  0.44804700  0.10354600  0.12110200  1
  V  V16  1  0.45121900  0.64231800  0.11588100  1
  V  V17  1  0.05195300  0.10354600  0.12110200  1
  V  V18  1  0.45121900  0.85768200  0.61588100  1
  V  V19  1  0.54878100  0.35768200  0.88411900  1
  As  As20  1  0.25000000  0.76382600  0.77570300  1
  As  As21  1  0.75000000  0.62544500  0.96904100  1
  As  As22  1  0.25000000  0.37455500  0.03095900  1
  As  As23  1  0.75000000  0.12615200  0.98027100  1
  As  As24  1  0.75000000  0.99102600  0.72047400  1
  As  As25  1  0.25000000  0.00897400  0.27952600  1
  As  As26  1  0.75000000  0.26382600  0.72429700  1
  As  As27  1  0.25000000  0.49102600  0.77952600  1
  As  As28  1  0.25000000  0.12544500  0.53095900  1
  As  As29  1  0.25000000  0.73617400  0.27570300  1
  As  As30  1  0.75000000  0.87455500  0.46904100  1
  As  As31  1  0.75000000  0.23617400  0.22429700  1
  As  As32  1  0.25000000  0.87384800  0.01972900  1
  As  As33  1  0.75000000  0.50897400  0.22047400  1
  As  As34  1  0.25000000  0.62615200  0.51972900  1
  As  As35  1  0.75000000  0.37384800  0.48027100  1
  O  O36  1  0.25000000  0.00076400  0.58967400  1
  O  O37  1  0.43471000  0.73963700  0.32670500  1
  O  O38  1  0.94346400  0.74712600  0.16003900  1
  O  O39  1  0.05632600  0.00211300  0.83723700  1
  O  O40  1  0.94367400  0.99788700  0.16276300  1
  O  O41  1  0.55653600  0.74712600  0.16003900  1
  O  O42  1  0.44367400  0.00211300  0.83723700  1
  O  O43  1  0.93471000  0.26036300  0.67329500  1
  O  O44  1  0.75000000  0.88692900  0.79314500  1
  O  O45  1  0.25000000  0.49673400  0.57400400  1
  O  O46  1  0.93454800  0.99460200  0.66969300  1
  O  O47  1  0.93611400  0.62362800  0.01930300  1
  O  O48  1  0.75000000  0.25669400  0.92807200  1
  O  O49  1  0.56545200  0.99460200  0.66969300  1
  O  O50  1  0.56388600  0.62362800  0.01930300  1
  O  O51  1  0.05653600  0.24712600  0.33996100  1
  O  O52  1  0.93471000  0.23963700  0.17329500  1
  O  O53  1  0.25000000  0.63319200  0.20327700  1
  O  O54  1  0.44346400  0.24712600  0.33996100  1
  O  O55  1  0.93611400  0.87637200  0.51930300  1
  O  O56  1  0.55632600  0.99788700  0.16276300  1
  O  O57  1  0.55653600  0.75287400  0.66003900  1
  O  O58  1  0.25000000  0.00326600  0.07400400  1
  O  O59  1  0.25000000  0.74330600  0.07192800  1
  O  O60  1  0.43471000  0.76036300  0.82670500  1
  O  O61  1  0.55826600  0.37322500  0.52498100  1
  O  O62  1  0.25000000  0.38692900  0.70685500  1
  O  O63  1  0.44367400  0.49788700  0.33723700  1
  O  O64  1  0.43454800  0.00539800  0.33030700  1
  O  O65  1  0.94367400  0.50211300  0.66276300  1
  O  O66  1  0.94173400  0.37322500  0.52498100  1
  O  O67  1  0.93454800  0.50539800  0.16969300  1
  O  O68  1  0.44173400  0.87322500  0.97501900  1
  O  O69  1  0.25000000  0.62571700  0.72802000  1
  O  O70  1  0.75000000  0.50076400  0.91032600  1
  O  O71  1  0.25000000  0.25096000  0.09098800  1
  O  O72  1  0.94173400  0.12677500  0.02498100  1
  O  O73  1  0.75000000  0.36680800  0.79672300  1
  O  O74  1  0.75000000  0.37428300  0.27198000  1
  O  O75  1  0.06545200  0.00539800  0.33030700  1
  O  O76  1  0.75000000  0.24330600  0.42807200  1
  O  O77  1  0.75000000  0.50326600  0.42599600  1
  O  O78  1  0.43611400  0.37637200  0.98069700  1
  O  O79  1  0.56529000  0.23963700  0.17329500  1
  O  O80  1  0.75000000  0.61307100  0.29314500  1
  O  O81  1  0.56388600  0.87637200  0.51930300  1
  O  O82  1  0.94346400  0.75287400  0.66003900  1
  O  O83  1  0.55826600  0.12677500  0.02498100  1
  O  O84  1  0.06388600  0.12362800  0.48069700  1
  O  O85  1  0.06388600  0.37637200  0.98069700  1
  O  O86  1  0.25000000  0.87428300  0.22802000  1
  O  O87  1  0.25000000  0.86680800  0.70327700  1
  O  O88  1  0.75000000  0.99673400  0.92599600  1
  O  O89  1  0.06529000  0.73963700  0.32670500  1
  O  O90  1  0.25000000  0.49923600  0.08967400  1
  O  O91  1  0.05826600  0.87322500  0.97501900  1
  O  O92  1  0.05632600  0.49788700  0.33723700  1
  O  O93  1  0.43454800  0.49460200  0.83030700  1
  O  O94  1  0.56529000  0.26036300  0.67329500  1
  O  O95  1  0.25000000  0.11307100  0.20685500  1
  O  O96  1  0.06529000  0.76036300  0.82670500  1
  O  O97  1  0.06545200  0.49460200  0.83030700  1
  O  O98  1  0.56545200  0.50539800  0.16969300  1
  O  O99  1  0.25000000  0.75669400  0.57192800  1
  O  O100  1  0.05653600  0.25287400  0.83996100  1
  O  O101  1  0.75000000  0.12571700  0.77198000  1
  O  O102  1  0.75000000  0.13319200  0.29672300  1
  O  O103  1  0.75000000  0.99923600  0.41032600  1
  O  O104  1  0.25000000  0.24904000  0.59098800  1
  O  O105  1  0.44173400  0.62677500  0.47501900  1
  O  O106  1  0.44346400  0.25287400  0.83996100  1
  O  O107  1  0.05826600  0.62677500  0.47501900  1
  O  O108  1  0.55632600  0.50211300  0.66276300  1
  O  O109  1  0.75000000  0.74904000  0.90901200  1
  O  O110  1  0.43611400  0.12362800  0.48069700  1
  O  O111  1  0.75000000  0.75096000  0.40901200  1
