# generated using pymatgen
data_Na5Zr2MnF15
_symmetry_space_group_name_H-M   'P 1'
_cell_length_a   11.43924619
_cell_length_b   11.43924619
_cell_length_c   7.60409800
_cell_angle_alpha   90.00000000
_cell_angle_beta   90.00000000
_cell_angle_gamma   140.10638912
_symmetry_Int_Tables_number   1
_chemical_formula_structural   Na5Zr2MnF15
_chemical_formula_sum   'Na10 Zr4 Mn2 F30'
_cell_volume   638.18582309
_cell_formula_units_Z   2
loop_
 _symmetry_equiv_pos_site_id
 _symmetry_equiv_pos_as_xyz
  1  'x, y, z'
loop_
 _atom_site_type_symbol
 _atom_site_label
 _atom_site_symmetry_multiplicity
 _atom_site_fract_x
 _atom_site_fract_y
 _atom_site_fract_z
 _atom_site_occupancy
  Na  Na0  1  0.24151700  0.75848300  0.00000000  1
  Na  Na1  1  0.24151700  0.75848300  0.50000000  1
  Na  Na2  1  0.75848300  0.24151700  0.00000000  1
  Na  Na3  1  0.75848300  0.24151700  0.50000000  1
  Na  Na4  1  0.63138600  0.87761000  0.25000000  1
  Na  Na5  1  0.12239000  0.36861400  0.75000000  1
  Na  Na6  1  0.36861400  0.12239000  0.75000000  1
  Na  Na7  1  0.87761000  0.63138600  0.25000000  1
  Na  Na8  1  0.50000000  0.50000000  0.00000000  1
  Na  Na9  1  0.50000000  0.50000000  0.50000000  1
  Zr  Zr10  1  0.41376400  0.14325700  0.25000000  1
  Zr  Zr11  1  0.85674300  0.58623600  0.75000000  1
  Zr  Zr12  1  0.58623600  0.85674300  0.75000000  1
  Zr  Zr13  1  0.14325700  0.41376400  0.25000000  1
  Mn  Mn14  1  0.00000000  0.00000000  0.00000000  1
  Mn  Mn15  1  0.00000000  0.00000000  0.50000000  1
  F  F16  1  0.31781300  0.70664100  0.75000000  1
  F  F17  1  0.29335900  0.68218700  0.25000000  1
  F  F18  1  0.68218700  0.29335900  0.25000000  1
  F  F19  1  0.70664100  0.31781300  0.75000000  1
  F  F20  1  0.44353300  0.07730200  0.48573800  1
  F  F21  1  0.92269800  0.55646700  0.51426200  1
  F  F22  1  0.44353300  0.07730200  0.01426200  1
  F  F23  1  0.92269800  0.55646700  0.98573800  1
  F  F24  1  0.55646700  0.92269800  0.51426200  1
  F  F25  1  0.07730200  0.44353300  0.48573800  1
  F  F26  1  0.55646700  0.92269800  0.98573800  1
  F  F27  1  0.07730200  0.44353300  0.01426200  1
  F  F28  1  0.58226800  0.43645300  0.75000000  1
  F  F29  1  0.56354700  0.41773200  0.25000000  1
  F  F30  1  0.41773200  0.56354700  0.25000000  1
  F  F31  1  0.43645300  0.58226800  0.75000000  1
  F  F32  1  0.81387900  0.13930900  0.75000000  1
  F  F33  1  0.86069100  0.18612100  0.25000000  1
  F  F34  1  0.18612100  0.86069100  0.25000000  1
  F  F35  1  0.13930900  0.81387900  0.75000000  1
  F  F36  1  0.11048100  0.11048100  0.75000000  1
  F  F37  1  0.88951900  0.88951900  0.25000000  1
  F  F38  1  0.73342500  0.86574500  0.93511200  1
  F  F39  1  0.13425500  0.26657500  0.06488800  1
  F  F40  1  0.73342500  0.86574500  0.56488800  1
  F  F41  1  0.13425500  0.26657500  0.43511200  1
  F  F42  1  0.26657500  0.13425500  0.06488800  1
  F  F43  1  0.86574500  0.73342500  0.93511200  1
  F  F44  1  0.26657500  0.13425500  0.43511200  1
  F  F45  1  0.86574500  0.73342500  0.56488800  1
