# generated using pymatgen
data_La4Ti9O24
_symmetry_space_group_name_H-M   'P 1'
_cell_length_a   19.37005474
_cell_length_b   19.26780928
_cell_length_c   10.23584139
_cell_angle_alpha   75.19057459
_cell_angle_beta   74.08679968
_cell_angle_gamma   30.72262573
_symmetry_Int_Tables_number   1
_chemical_formula_structural   La4Ti9O24
_chemical_formula_sum   'La16 Ti36 O96'
_cell_volume   1875.34306348
_cell_formula_units_Z   4
loop_
 _symmetry_equiv_pos_site_id
 _symmetry_equiv_pos_as_xyz
  1  'x, y, z'
loop_
 _atom_site_type_symbol
 _atom_site_label
 _atom_site_symmetry_multiplicity
 _atom_site_fract_x
 _atom_site_fract_y
 _atom_site_fract_z
 _atom_site_occupancy
  La  La0  1  0.00935800  0.99651900  0.69314100  1
  La  La1  1  0.25348100  0.24064200  0.94901800  1
  La  La2  1  0.39262000  0.39262000  0.10738000  1
  La  La3  1  0.36817800  0.36817800  0.63182200  1
  La  La4  1  0.24064200  0.25348100  0.55685900  1
  La  La5  1  0.14262000  0.14262000  0.85738000  1
  La  La6  1  0.55685900  0.94901800  0.24064200  1
  La  La7  1  0.61817800  0.61817800  0.88182200  1
  La  La8  1  0.10738000  0.10738000  0.39262000  1
  La  La9  1  0.88182200  0.88182200  0.61817800  1
  La  La10  1  0.85738000  0.85738000  0.14262000  1
  La  La11  1  0.63182200  0.63182200  0.36817800  1
  La  La12  1  0.94901800  0.55685900  0.25348100  1
  La  La13  1  0.30098200  0.69314100  0.99651900  1
  La  La14  1  0.99651900  0.00935800  0.30098200  1
  La  La15  1  0.69314100  0.30098200  0.00935800  1
  Ti  Ti16  1  0.77317600  0.30827800  0.48102700  1
  Ti  Ti17  1  0.93029800  0.41098600  0.57335600  1
  Ti  Ti18  1  0.12819300  0.69693000  0.31146600  1
  Ti  Ti19  1  0.93853400  0.38658900  0.12180700  1
  Ti  Ti20  1  0.21471200  0.69464000  0.52791800  1
  Ti  Ti21  1  0.30827800  0.77317600  0.43751900  1
  Ti  Ti22  1  0.55307000  0.12180700  0.38658900  1
  Ti  Ti23  1  0.94172200  0.47682400  0.81248100  1
  Ti  Ti24  1  0.41098600  0.93029800  0.08536000  1
  Ti  Ti25  1  0.69464000  0.21471200  0.56273000  1
  Ti  Ti26  1  0.72208200  0.68727000  0.03528800  1
  Ti  Ti27  1  0.20494600  0.20494600  0.29505400  1
  Ti  Ti28  1  0.68727000  0.72208200  0.55536000  1
  Ti  Ti29  1  0.31146600  0.86341100  0.12819300  1
  Ti  Ti30  1  0.12180700  0.55307000  0.93853400  1
  Ti  Ti31  1  0.81248100  0.76897300  0.94172200  1
  Ti  Ti32  1  0.47682400  0.94172200  0.76897300  1
  Ti  Ti33  1  0.43751900  0.48102700  0.30827800  1
  Ti  Ti34  1  0.48102700  0.43751900  0.77317600  1
  Ti  Ti35  1  0.08536000  0.57335600  0.41098600  1
  Ti  Ti36  1  0.69693000  0.12819300  0.86341100  1
  Ti  Ti37  1  0.86341100  0.31146600  0.69693000  1
  Ti  Ti38  1  0.57335600  0.08536000  0.93029800  1
  Ti  Ti39  1  0.04505400  0.04505400  0.95494600  1
  Ti  Ti40  1  0.29505400  0.29505400  0.20494600  1
  Ti  Ti41  1  0.56273000  0.52791800  0.69464000  1
  Ti  Ti42  1  0.95494600  0.95494600  0.04505400  1
  Ti  Ti43  1  0.03528800  0.55536000  0.72208200  1
  Ti  Ti44  1  0.55536000  0.03528800  0.68727000  1
  Ti  Ti45  1  0.83901400  0.31970200  0.16464000  1
  Ti  Ti46  1  0.67664400  0.16464000  0.31970200  1
  Ti  Ti47  1  0.52791800  0.56273000  0.21471200  1
  Ti  Ti48  1  0.16464000  0.67664400  0.83901400  1
  Ti  Ti49  1  0.38658900  0.93853400  0.55307000  1
  Ti  Ti50  1  0.31970200  0.83901400  0.67664400  1
  Ti  Ti51  1  0.76897300  0.81248100  0.47682400  1
  O  O52  1  0.01495900  0.82129900  0.17193300  1
  O  O53  1  0.67126000  0.48011800  0.07681400  1
  O  O54  1  0.06273900  0.35543200  0.42863500  1
  O  O55  1  0.53982700  0.19948700  0.97632500  1
  O  O56  1  0.92400400  0.20655600  0.32783200  1
  O  O57  1  0.52280600  0.23522100  0.43982100  1
  O  O58  1  0.08727400  0.91272600  0.08727400  1
  O  O59  1  0.16831600  0.43792000  0.85762000  1
  O  O60  1  0.42870100  0.23504100  0.25819000  1
  O  O61  1  0.80215300  0.43982100  0.23522100  1
  O  O62  1  0.51448300  0.48913700  0.15261300  1
  O  O63  1  0.84376700  0.15261300  0.48913700  1
  O  O64  1  0.53614500  0.85762000  0.43792000  1
  O  O65  1  0.96563800  0.27367500  0.05051300  1
  O  O66  1  0.83504000  0.57950300  0.66389300  1
  O  O67  1  0.65367000  0.95617100  0.33303100  1
  O  O68  1  0.81208000  0.08168400  0.71385500  1
  O  O69  1  0.47819300  0.17318600  0.76988200  1
  O  O70  1  0.73551700  0.76086300  0.09738700  1
  O  O71  1  0.08168400  0.81208000  0.39238000  1
  O  O72  1  0.66389300  0.92156300  0.83504000  1
  O  O73  1  0.43982100  0.80215300  0.52280600  1
  O  O74  1  0.39238000  0.71385500  0.08168400  1
  O  O75  1  0.33727400  0.16272600  0.33727400  1
  O  O76  1  0.43792000  0.16831600  0.53614500  1
  O  O77  1  0.54919900  0.79640100  0.70219100  1
  O  O78  1  0.07806700  0.25819000  0.23504100  1
  O  O79  1  0.97632500  0.28436200  0.53982700  1
  O  O80  1  0.62354800  0.87645200  0.62354800  1
  O  O81  1  0.59633000  0.29382900  0.91696900  1
  O  O82  1  0.40623300  0.09738700  0.76086300  1
  O  O83  1  0.95617100  0.65367000  0.05712800  1
  O  O84  1  0.04344400  0.32599600  0.70839200  1
  O  O85  1  0.92216800  0.70839200  0.32599600  1
  O  O86  1  0.91696900  0.19287200  0.59633000  1
  O  O87  1  0.95220900  0.70219100  0.79640100  1
  O  O88  1  0.62645200  0.37354800  0.62645200  1
  O  O89  1  0.09680600  0.82136500  0.89456800  1
  O  O90  1  0.70219100  0.95220900  0.54919900  1
  O  O91  1  0.57950300  0.83504000  0.92156300  1
  O  O92  1  0.05051300  0.71017300  0.96563800  1
  O  O93  1  0.28436200  0.97632500  0.19948700  1
  O  O94  1  0.89456800  0.18726100  0.09680600  1
  O  O95  1  0.44784700  0.81017900  0.01477900  1
  O  O96  1  0.07681400  0.77180700  0.67126000  1
  O  O97  1  0.35543200  0.06273900  0.15319400  1
  O  O98  1  0.99181000  0.17193300  0.82129900  1
  O  O99  1  0.01477900  0.72719400  0.44784700  1
  O  O100  1  0.17193300  0.99181000  0.01495900  1
  O  O101  1  0.27367500  0.96563800  0.71017300  1
  O  O102  1  0.82136500  0.09680600  0.18726100  1
  O  O103  1  0.29382900  0.59633000  0.19287200  1
  O  O104  1  0.20655600  0.92400400  0.54160800  1
  O  O105  1  0.29779100  0.54780900  0.45359900  1
  O  O106  1  0.54780900  0.29779100  0.70080100  1
  O  O107  1  0.42863500  0.15319400  0.06273900  1
  O  O108  1  0.70839200  0.92216800  0.04344400  1
  O  O109  1  0.33303100  0.05712800  0.65367000  1
  O  O110  1  0.15319400  0.42863500  0.35543200  1
  O  O111  1  0.48011800  0.67126000  0.77180700  1
  O  O112  1  0.85762000  0.53614500  0.16831600  1
  O  O113  1  0.19948700  0.53982700  0.28436200  1
  O  O114  1  0.15261300  0.84376700  0.51448300  1
  O  O115  1  0.48913700  0.51448300  0.84376700  1
  O  O116  1  0.76988200  0.57874000  0.47819300  1
  O  O117  1  0.67049700  0.41496000  0.32843700  1
  O  O118  1  0.41496000  0.67049700  0.58610700  1
  O  O119  1  0.91272600  0.08727400  0.91272600  1
  O  O120  1  0.05712800  0.33303100  0.95617100  1
  O  O121  1  0.32843700  0.58610700  0.67049700  1
  O  O122  1  0.82129900  0.01495900  0.99181000  1
  O  O123  1  0.79640100  0.54919900  0.95220900  1
  O  O124  1  0.76086300  0.73551700  0.40623300  1
  O  O125  1  0.71385500  0.39238000  0.81208000  1
  O  O126  1  0.23504100  0.42870100  0.07806700  1
  O  O127  1  0.16272600  0.33727400  0.16272600  1
  O  O128  1  0.32599600  0.04344400  0.92216800  1
  O  O129  1  0.70080100  0.45359900  0.54780900  1
  O  O130  1  0.81017900  0.44784700  0.72719400  1
  O  O131  1  0.17318600  0.47819300  0.57874000  1
  O  O132  1  0.58610700  0.32843700  0.41496000  1
  O  O133  1  0.71017300  0.05051300  0.27367500  1
  O  O134  1  0.18726100  0.89456800  0.82136500  1
  O  O135  1  0.25819000  0.07806700  0.42870100  1
  O  O136  1  0.19287200  0.91696900  0.29382900  1
  O  O137  1  0.37354800  0.62645200  0.37354800  1
  O  O138  1  0.09738700  0.40623300  0.73551700  1
  O  O139  1  0.87645200  0.62354800  0.87645200  1
  O  O140  1  0.57874000  0.76988200  0.17318600  1
  O  O141  1  0.32783200  0.54160800  0.92400400  1
  O  O142  1  0.45359900  0.70080100  0.29779100  1
  O  O143  1  0.54160800  0.32783200  0.20655600  1
  O  O144  1  0.92156300  0.66389300  0.57950300  1
  O  O145  1  0.23522100  0.52280600  0.80215300  1
  O  O146  1  0.72719400  0.01477900  0.81017900  1
  O  O147  1  0.77180700  0.07681400  0.48011800  1
