# generated using pymatgen
data_Sr3V4CdO14
_symmetry_space_group_name_H-M   'P 1'
_cell_length_a   7.17169700
_cell_length_b   7.17169700
_cell_length_c   25.95954800
_cell_angle_alpha   90.00000000
_cell_angle_beta   90.00000000
_cell_angle_gamma   90.00000000
_symmetry_Int_Tables_number   1
_chemical_formula_structural   Sr3V4CdO14
_chemical_formula_sum   'Sr12 V16 Cd4 O56'
_cell_volume   1335.18360702
_cell_formula_units_Z   4
loop_
 _symmetry_equiv_pos_site_id
 _symmetry_equiv_pos_as_xyz
  1  'x, y, z'
loop_
 _atom_site_type_symbol
 _atom_site_label
 _atom_site_symmetry_multiplicity
 _atom_site_fract_x
 _atom_site_fract_y
 _atom_site_fract_z
 _atom_site_occupancy
  Sr  Sr0  1  0.27327800  0.27327800  0.00000000  1
  Sr  Sr1  1  0.33764300  0.39980300  0.38008700  1
  Sr  Sr2  1  0.22672200  0.77327800  0.25000000  1
  Sr  Sr3  1  0.66235700  0.60019700  0.88008700  1
  Sr  Sr4  1  0.39980300  0.33764300  0.61991300  1
  Sr  Sr5  1  0.10019700  0.83764300  0.63008700  1
  Sr  Sr6  1  0.89980300  0.16235700  0.13008700  1
  Sr  Sr7  1  0.16235700  0.89980300  0.86991300  1
  Sr  Sr8  1  0.72672200  0.72672200  0.50000000  1
  Sr  Sr9  1  0.77327800  0.22672200  0.75000000  1
  Sr  Sr10  1  0.83764300  0.10019700  0.36991300  1
  Sr  Sr11  1  0.60019700  0.66235700  0.11991300  1
  V  V12  1  0.24867800  0.64033800  0.50167500  1
  V  V13  1  0.59094000  0.83299700  0.64711700  1
  V  V14  1  0.66700300  0.09094000  0.89711700  1
  V  V15  1  0.74867800  0.85966200  0.24832500  1
  V  V16  1  0.90906000  0.33299700  0.60288300  1
  V  V17  1  0.64033800  0.24867800  0.49832500  1
  V  V18  1  0.09094000  0.66700300  0.10288300  1
  V  V19  1  0.16700300  0.40906000  0.85288300  1
  V  V20  1  0.40906000  0.16700300  0.14711700  1
  V  V21  1  0.75132200  0.35966200  0.00167500  1
  V  V22  1  0.25132200  0.14033800  0.74832500  1
  V  V23  1  0.33299700  0.90906000  0.39711700  1
  V  V24  1  0.85966200  0.74867800  0.75167500  1
  V  V25  1  0.83299700  0.59094000  0.35288300  1
  V  V26  1  0.35966200  0.75132200  0.99832500  1
  V  V27  1  0.14033800  0.25132200  0.25167500  1
  Cd  Cd28  1  0.87825100  0.87825100  0.00000000  1
  Cd  Cd29  1  0.12174900  0.12174900  0.50000000  1
  Cd  Cd30  1  0.62174900  0.37825100  0.25000000  1
  Cd  Cd31  1  0.37825100  0.62174900  0.75000000  1
  O  O32  1  0.24234700  0.70989900  0.15202200  1
  O  O33  1  0.56126300  0.84602900  0.02284000  1
  O  O34  1  0.04501500  0.14226200  0.58482400  1
  O  O35  1  0.49874700  0.07012700  0.38217800  1
  O  O36  1  0.35773800  0.54501500  0.83482400  1
  O  O37  1  0.59788400  0.40262400  0.04997500  1
  O  O38  1  0.43873700  0.15397100  0.52284000  1
  O  O39  1  0.09788400  0.09737600  0.70002500  1
  O  O40  1  0.40262400  0.59788400  0.95002500  1
  O  O41  1  0.76197500  0.39176900  0.54695400  1
  O  O42  1  0.84602900  0.56126300  0.97716000  1
  O  O43  1  0.14226200  0.04501500  0.41517600  1
  O  O44  1  0.23802500  0.60823100  0.04695400  1
  O  O45  1  0.00125300  0.57012700  0.86782200  1
  O  O46  1  0.26197500  0.10823100  0.20304600  1
  O  O47  1  0.34602900  0.93873700  0.77284000  1
  O  O48  1  0.20559000  0.92329700  0.97744200  1
  O  O49  1  0.74234700  0.79010100  0.59797800  1
  O  O50  1  0.42987300  0.99874700  0.63217800  1
  O  O51  1  0.65397100  0.06126300  0.27284000  1
  O  O52  1  0.89176900  0.73802500  0.29695400  1
  O  O53  1  0.09737600  0.09788400  0.29997500  1
  O  O54  1  0.60823100  0.23802500  0.95304600  1
  O  O55  1  0.93873700  0.34602900  0.22716000  1
  O  O56  1  0.57012700  0.00125300  0.13217800  1
  O  O57  1  0.57670300  0.70559000  0.22744200  1
  O  O58  1  0.92329700  0.20559000  0.02255800  1
  O  O59  1  0.73802500  0.89176900  0.70304600  1
  O  O60  1  0.85773800  0.95498500  0.91517600  1
  O  O61  1  0.70989900  0.24234700  0.84797800  1
  O  O62  1  0.59737600  0.40211600  0.45002500  1
  O  O63  1  0.92987300  0.50125300  0.11782200  1
  O  O64  1  0.75765300  0.29010100  0.65202200  1
  O  O65  1  0.40211600  0.59737600  0.54997500  1
  O  O66  1  0.07012700  0.49874700  0.61782200  1
  O  O67  1  0.15397100  0.43873700  0.47716000  1
  O  O68  1  0.64226200  0.45498500  0.33482400  1
  O  O69  1  0.79441000  0.07670300  0.47744200  1
  O  O70  1  0.25765300  0.20989900  0.09797800  1
  O  O71  1  0.29441000  0.42329700  0.27255800  1
  O  O72  1  0.95498500  0.85773800  0.08482400  1
  O  O73  1  0.42329700  0.29441000  0.72744200  1
  O  O74  1  0.79010100  0.74234700  0.40202200  1
  O  O75  1  0.29010100  0.75765300  0.34797800  1
  O  O76  1  0.39176900  0.76197500  0.45304600  1
  O  O77  1  0.07670300  0.79441000  0.52255800  1
  O  O78  1  0.90211600  0.90262400  0.20002500  1
  O  O79  1  0.90262400  0.90211600  0.79997500  1
  O  O80  1  0.10823100  0.26197500  0.79695400  1
  O  O81  1  0.20989900  0.25765300  0.90202200  1
  O  O82  1  0.54501500  0.35773800  0.16517600  1
  O  O83  1  0.70559000  0.57670300  0.77255800  1
  O  O84  1  0.50125300  0.92987300  0.88217800  1
  O  O85  1  0.99874700  0.42987300  0.36782200  1
  O  O86  1  0.06126300  0.65397100  0.72716000  1
  O  O87  1  0.45498500  0.64226200  0.66517600  1
