# generated using pymatgen
data_Nb2Co(P2O7)3
_symmetry_space_group_name_H-M   'P 1'
_cell_length_a   8.07858100
_cell_length_b   6.63345900
_cell_length_c   16.95723545
_cell_angle_alpha   67.53668105
_cell_angle_beta   90.00000000
_cell_angle_gamma   90.00000000
_symmetry_Int_Tables_number   1
_chemical_formula_structural   Nb2Co(P2O7)3
_chemical_formula_sum   'Nb4 Co2 P12 O42'
_cell_volume   839.77045647
_cell_formula_units_Z   2
loop_
 _symmetry_equiv_pos_site_id
 _symmetry_equiv_pos_as_xyz
  1  'x, y, z'
loop_
 _atom_site_type_symbol
 _atom_site_label
 _atom_site_symmetry_multiplicity
 _atom_site_fract_x
 _atom_site_fract_y
 _atom_site_fract_z
 _atom_site_occupancy
  Nb  Nb0  1  0.47863100  0.70278100  0.33326500  1
  Nb  Nb1  1  0.02136900  0.70278100  0.83326500  1
  Nb  Nb2  1  0.97863100  0.29721900  0.16673500  1
  Nb  Nb3  1  0.52136900  0.29721900  0.66673500  1
  Co  Co4  1  0.50000000  0.00000000  0.00000000  1
  Co  Co5  1  0.00000000  0.00000000  0.50000000  1
  P  P6  1  0.38431000  0.79637200  0.51669600  1
  P  P7  1  0.60703600  0.55108800  0.16557500  1
  P  P8  1  0.39666100  0.17923300  0.16087100  1
  P  P9  1  0.60333900  0.82076700  0.83912900  1
  P  P10  1  0.89296400  0.55108800  0.66557500  1
  P  P11  1  0.89666100  0.82076700  0.33912900  1
  P  P12  1  0.11569000  0.79637200  0.01669600  1
  P  P13  1  0.61569000  0.20362800  0.48330400  1
  P  P14  1  0.10703600  0.44891200  0.33442500  1
  P  P15  1  0.39296400  0.44891200  0.83442500  1
  P  P16  1  0.88431000  0.20362800  0.98330400  1
  P  P17  1  0.10333900  0.17923300  0.66087100  1
  O  O18  1  0.92624200  0.62736300  0.73987300  1
  O  O19  1  0.70645900  0.79596800  0.35275500  1
  O  O20  1  0.78217600  0.16781200  0.45421500  1
  O  O21  1  0.55338500  0.59553800  0.83060100  1
  O  O22  1  0.74371500  0.39125500  0.69108800  1
  O  O23  1  0.07349200  0.00307300  0.75234400  1
  O  O24  1  0.42624200  0.37263700  0.76012700  1
  O  O25  1  0.13021800  0.26922000  0.41889000  1
  O  O26  1  0.57349200  0.99692700  0.74765600  1
  O  O27  1  0.05338500  0.40446200  0.66939900  1
  O  O28  1  0.07375800  0.37263700  0.26012700  1
  O  O29  1  0.42650800  0.00307300  0.25234400  1
  O  O30  1  0.57375800  0.62736300  0.23987300  1
  O  O31  1  0.47584200  0.60126100  0.58414900  1
  O  O32  1  0.02415800  0.60126100  0.08414900  1
  O  O33  1  0.92650800  0.99692700  0.24765600  1
  O  O34  1  0.00793200  0.14027600  0.59348700  1
  O  O35  1  0.36978200  0.26922000  0.91889000  1
  O  O36  1  0.24371500  0.60874500  0.80891200  1
  O  O37  1  0.86978200  0.73078000  0.58111000  1
  O  O38  1  0.61008900  0.23365100  0.56990300  1
  O  O39  1  0.21782400  0.83218800  0.54578500  1
  O  O40  1  0.11008900  0.76634900  0.93009700  1
  O  O41  1  0.28217600  0.83218800  0.04578500  1
  O  O42  1  0.71782400  0.16781200  0.95421500  1
  O  O43  1  0.94661500  0.59553800  0.33060100  1
  O  O44  1  0.99206800  0.85972400  0.40651300  1
  O  O45  1  0.29354100  0.20403200  0.64724500  1
  O  O46  1  0.20645900  0.20403200  0.14724500  1
  O  O47  1  0.49206800  0.14027600  0.09348700  1
  O  O48  1  0.25628500  0.60874500  0.30891200  1
  O  O49  1  0.75628500  0.39125500  0.19108800  1
  O  O50  1  0.44661500  0.40446200  0.16939900  1
  O  O51  1  0.38991100  0.76634900  0.43009700  1
  O  O52  1  0.79354100  0.79596800  0.85275500  1
  O  O53  1  0.50793200  0.85972400  0.90651300  1
  O  O54  1  0.63021800  0.73078000  0.08111000  1
  O  O55  1  0.52415800  0.39873900  0.41585100  1
  O  O56  1  0.50000000  0.00000000  0.50000000  1
  O  O57  1  0.88991100  0.23365100  0.06990300  1
  O  O58  1  0.00000000  0.00000000  0.00000000  1
  O  O59  1  0.97584200  0.39873900  0.91585100  1
