# generated using pymatgen
data_Gd2S2O
_symmetry_space_group_name_H-M   'P 1'
_cell_length_a   6.94368496
_cell_length_b   7.01850300
_cell_length_c   8.37376087
_cell_angle_alpha   90.00000000
_cell_angle_beta   99.07333813
_cell_angle_gamma   90.00000000
_symmetry_Int_Tables_number   1
_chemical_formula_structural   Gd2S2O
_chemical_formula_sum   'Gd8 S8 O4'
_cell_volume   402.98285604
_cell_formula_units_Z   4
loop_
 _symmetry_equiv_pos_site_id
 _symmetry_equiv_pos_as_xyz
  1  'x, y, z'
loop_
 _atom_site_type_symbol
 _atom_site_label
 _atom_site_symmetry_multiplicity
 _atom_site_fract_x
 _atom_site_fract_y
 _atom_site_fract_z
 _atom_site_occupancy
  Gd  Gd0  1  0.24966300  0.44524400  0.86250100  1
  Gd  Gd1  1  0.75033700  0.55475600  0.13749900  1
  Gd  Gd2  1  0.18278700  0.35966600  0.42226200  1
  Gd  Gd3  1  0.68278700  0.14033400  0.42226200  1
  Gd  Gd4  1  0.74966300  0.05475600  0.86250100  1
  Gd  Gd5  1  0.25033700  0.94524400  0.13749900  1
  Gd  Gd6  1  0.81721300  0.64033400  0.57773800  1
  Gd  Gd7  1  0.31721300  0.85966600  0.57773800  1
  S  S8  1  0.57111300  0.36145500  0.67847000  1
  S  S9  1  0.92888700  0.86145500  0.32153000  1
  S  S10  1  0.52964900  0.22407500  0.07663800  1
  S  S11  1  0.47035100  0.77592500  0.92336200  1
  S  S12  1  0.07111300  0.13854500  0.67847000  1
  S  S13  1  0.02964900  0.27592500  0.07663800  1
  S  S14  1  0.97035100  0.72407500  0.92336200  1
  S  S15  1  0.42888700  0.63854500  0.32153000  1
  O  O16  1  0.64912100  0.91282100  0.61740500  1
  O  O17  1  0.85087900  0.41282100  0.38259500  1
  O  O18  1  0.14912100  0.58717900  0.61740500  1
  O  O19  1  0.35087900  0.08717900  0.38259500  1
