# generated using pymatgen
data_PdSeO4
_symmetry_space_group_name_H-M   'P 1'
_cell_length_a   5.05386299
_cell_length_b   5.05386299
_cell_length_c   8.19994808
_cell_angle_alpha   85.86525119
_cell_angle_beta   85.86525119
_cell_angle_gamma   68.95742882
_symmetry_Int_Tables_number   1
_chemical_formula_structural   PdSeO4
_chemical_formula_sum   'Pd2 Se2 O8'
_cell_volume   194.72337635
_cell_formula_units_Z   2
loop_
 _symmetry_equiv_pos_site_id
 _symmetry_equiv_pos_as_xyz
  1  'x, y, z'
loop_
 _atom_site_type_symbol
 _atom_site_label
 _atom_site_symmetry_multiplicity
 _atom_site_fract_x
 _atom_site_fract_y
 _atom_site_fract_z
 _atom_site_occupancy
  Pd  Pd0  1  0.00000000  0.50000000  0.50000000  1
  Pd  Pd1  1  0.50000000  0.00000000  0.00000000  1
  Se  Se2  1  0.93507000  0.06493000  0.25000000  1
  Se  Se3  1  0.06493000  0.93507000  0.75000000  1
  O  O4  1  0.07624700  0.26614600  0.71586400  1
  O  O5  1  0.79104100  0.26378000  0.41501200  1
  O  O6  1  0.20895900  0.73622000  0.58498800  1
  O  O7  1  0.26614600  0.07624700  0.21586400  1
  O  O8  1  0.73385400  0.92375300  0.78413600  1
  O  O9  1  0.73622000  0.20895900  0.08498800  1
  O  O10  1  0.26378000  0.79104100  0.91501200  1
  O  O11  1  0.92375300  0.73385400  0.28413600  1
