# generated using pymatgen
data_Co3P2H2O9
_symmetry_space_group_name_H-M   'P 1'
_cell_length_a   4.92648300
_cell_length_b   8.79472600
_cell_length_c   17.07390617
_cell_angle_alpha   83.94905737
_cell_angle_beta   90.00000000
_cell_angle_gamma   90.00000000
_symmetry_Int_Tables_number   1
_chemical_formula_structural   Co3P2H2O9
_chemical_formula_sum   'Co12 P8 H8 O36'
_cell_volume   735.64075780
_cell_formula_units_Z   4
loop_
 _symmetry_equiv_pos_site_id
 _symmetry_equiv_pos_as_xyz
  1  'x, y, z'
loop_
 _atom_site_type_symbol
 _atom_site_label
 _atom_site_symmetry_multiplicity
 _atom_site_fract_x
 _atom_site_fract_y
 _atom_site_fract_z
 _atom_site_occupancy
  Co  Co0  1  0.71257200  0.42972300  0.34770200  1
  Co  Co1  1  0.78742800  0.42972300  0.84770200  1
  Co  Co2  1  0.29494300  0.66723000  0.44195900  1
  Co  Co3  1  0.50503500  0.93419100  0.17736300  1
  Co  Co4  1  0.79494300  0.33277000  0.05804100  1
  Co  Co5  1  0.00503500  0.06580900  0.32263700  1
  Co  Co6  1  0.99496500  0.93419100  0.67736300  1
  Co  Co7  1  0.49496500  0.06580900  0.82263700  1
  Co  Co8  1  0.70505700  0.33277000  0.55804100  1
  Co  Co9  1  0.28742800  0.57027700  0.65229800  1
  Co  Co10  1  0.21257200  0.57027700  0.15229800  1
  Co  Co11  1  0.20505700  0.66723000  0.94195900  1
  P  P12  1  0.21110100  0.31285700  0.44585300  1
  P  P13  1  0.78889900  0.68714300  0.55414700  1
  P  P14  1  0.51386900  0.23738500  0.22015100  1
  P  P15  1  0.48613100  0.76261500  0.77984900  1
  P  P16  1  0.98613100  0.23738500  0.72015100  1
  P  P17  1  0.28889900  0.31285700  0.94585300  1
  P  P18  1  0.01386900  0.76261500  0.27984900  1
  P  P19  1  0.71110100  0.68714300  0.05414700  1
  H  H20  1  0.79649000  0.91285300  0.93276500  1
  H  H21  1  0.70351000  0.91285300  0.43276500  1
  H  H22  1  0.44794000  0.92742700  0.59341700  1
  H  H23  1  0.55206000  0.07257300  0.40658300  1
  H  H24  1  0.05206000  0.92742700  0.09341700  1
  H  H25  1  0.94794000  0.07257300  0.90658300  1
  H  H26  1  0.20351000  0.08714700  0.06723500  1
  H  H27  1  0.29649000  0.08714700  0.56723500  1
  O  O28  1  0.90377100  0.35764000  0.45314300  1
  O  O29  1  0.26226200  0.74499200  0.71551400  1
  O  O30  1  0.25164900  0.18039100  0.89635600  1
  O  O31  1  0.24835100  0.18039100  0.39635600  1
  O  O32  1  0.64522700  0.61278300  0.79070800  1
  O  O33  1  0.14392100  0.46022400  0.90390900  1
  O  O34  1  0.85607900  0.53977600  0.09609100  1
  O  O35  1  0.09622900  0.64236000  0.54685700  1
  O  O36  1  0.35477300  0.38721700  0.20929200  1
  O  O37  1  0.76809900  0.02214400  0.91380400  1
  O  O38  1  0.33015500  0.27722200  0.52963200  1
  O  O39  1  0.67075300  0.90377400  0.75542800  1
  O  O40  1  0.40377100  0.64236000  0.04685700  1
  O  O41  1  0.26809900  0.97785600  0.58619600  1
  O  O42  1  0.23190100  0.97785600  0.08619600  1
  O  O43  1  0.15816100  0.80756600  0.35562800  1
  O  O44  1  0.35607900  0.46022400  0.40390900  1
  O  O45  1  0.65816100  0.19243400  0.14437200  1
  O  O46  1  0.59622900  0.35764000  0.95314300  1
  O  O47  1  0.75164900  0.81960900  0.60364400  1
  O  O48  1  0.85477300  0.61278300  0.29070800  1
  O  O49  1  0.82924700  0.90377400  0.25542800  1
  O  O50  1  0.32924700  0.09622600  0.24457200  1
  O  O51  1  0.66984500  0.72277800  0.47036800  1
  O  O52  1  0.84183900  0.19243400  0.64437200  1
  O  O53  1  0.64392100  0.53977600  0.59609100  1
  O  O54  1  0.73190100  0.02214400  0.41380400  1
  O  O55  1  0.16984500  0.27722200  0.02963200  1
  O  O56  1  0.23773800  0.74499200  0.21551400  1
  O  O57  1  0.17075300  0.09622600  0.74457200  1
  O  O58  1  0.34183900  0.80756600  0.85562800  1
  O  O59  1  0.83015500  0.72277800  0.97036800  1
  O  O60  1  0.14522700  0.38721700  0.70929200  1
  O  O61  1  0.73773800  0.25500800  0.28448600  1
  O  O62  1  0.76226200  0.25500800  0.78448600  1
  O  O63  1  0.74835100  0.81960900  0.10364400  1
