# generated using pymatgen
data_NaCa9Co(PO4)7
_symmetry_space_group_name_H-M   'P 1'
_cell_length_a   13.83801688
_cell_length_b   13.83801688
_cell_length_c   13.83801723
_cell_angle_alpha   44.38285436
_cell_angle_beta   44.38285436
_cell_angle_gamma   44.38285335
_symmetry_Int_Tables_number   1
_chemical_formula_structural   NaCa9Co(PO4)7
_chemical_formula_sum   'Na2 Ca18 Co2 P14 O56'
_cell_volume   1178.41161014
_cell_formula_units_Z   2
loop_
 _symmetry_equiv_pos_site_id
 _symmetry_equiv_pos_as_xyz
  1  'x, y, z'
loop_
 _atom_site_type_symbol
 _atom_site_label
 _atom_site_symmetry_multiplicity
 _atom_site_fract_x
 _atom_site_fract_y
 _atom_site_fract_z
 _atom_site_occupancy
  Na  Na0  1  0.68864200  0.68864200  0.68864200  1
  Na  Na1  1  0.18864200  0.18864200  0.18864200  1
  Ca  Ca2  1  0.16275300  0.57630300  0.56460600  1
  Ca  Ca3  1  0.06460600  0.07630300  0.66275300  1
  Ca  Ca4  1  0.44096900  0.84858000  0.40934400  1
  Ca  Ca5  1  0.07630300  0.66275300  0.06460600  1
  Ca  Ca6  1  0.90934400  0.34858000  0.94096900  1
  Ca  Ca7  1  0.94924100  0.97174900  0.55939100  1
  Ca  Ca8  1  0.57630300  0.56460600  0.16275300  1
  Ca  Ca9  1  0.47174900  0.44924100  0.05939100  1
  Ca  Ca10  1  0.66275300  0.06460600  0.07630300  1
  Ca  Ca11  1  0.05939100  0.47174900  0.44924100  1
  Ca  Ca12  1  0.34858000  0.94096900  0.90934400  1
  Ca  Ca13  1  0.44924100  0.05939100  0.47174900  1
  Ca  Ca14  1  0.84858000  0.40934400  0.44096900  1
  Ca  Ca15  1  0.56460600  0.16275300  0.57630300  1
  Ca  Ca16  1  0.55939100  0.94924100  0.97174900  1
  Ca  Ca17  1  0.40934400  0.44096900  0.84858000  1
  Ca  Ca18  1  0.94096900  0.90934400  0.34858000  1
  Ca  Ca19  1  0.97174900  0.55939100  0.94924100  1
  Co  Co20  1  0.00271400  0.00271400  0.00271400  1
  Co  Co21  1  0.50271400  0.50271400  0.50271400  1
  P  P22  1  0.72593400  0.68443100  0.18837100  1
  P  P23  1  0.18837100  0.72593400  0.68443100  1
  P  P24  1  0.27416700  0.31111600  0.82518800  1
  P  P25  1  0.31111600  0.82518800  0.27416700  1
  P  P26  1  0.76846900  0.76846900  0.76846900  1
  P  P27  1  0.82518800  0.27416700  0.31111600  1
  P  P28  1  0.68837100  0.18443100  0.22593400  1
  P  P29  1  0.18443100  0.22593400  0.68837100  1
  P  P30  1  0.26846900  0.26846900  0.26846900  1
  P  P31  1  0.68443100  0.18837100  0.72593400  1
  P  P32  1  0.22593400  0.68837100  0.18443100  1
  P  P33  1  0.77416700  0.32518800  0.81111600  1
  P  P34  1  0.32518800  0.81111600  0.77416700  1
  P  P35  1  0.81111600  0.77416700  0.32518800  1
  O  O36  1  0.67369300  0.11433100  0.68949700  1
  O  O37  1  0.58916200  0.14725300  0.89905500  1
  O  O38  1  0.38088300  0.63706300  0.84964700  1
  O  O39  1  0.86565500  0.11723000  0.13823000  1
  O  O40  1  0.33787200  0.89186900  0.61213300  1
  O  O41  1  0.89186900  0.61213300  0.33787200  1
  O  O42  1  0.08916200  0.39905500  0.64725300  1
  O  O43  1  0.37964000  0.64885000  0.37306700  1
  O  O44  1  0.89905500  0.58916200  0.14725300  1
  O  O45  1  0.63823000  0.61723000  0.36565500  1
  O  O46  1  0.39905500  0.64725300  0.08916200  1
  O  O47  1  0.18949700  0.61433100  0.17369300  1
  O  O48  1  0.83787200  0.11213300  0.39186900  1
  O  O49  1  0.41752000  0.85244600  0.75628600  1
  O  O50  1  0.61213300  0.33787200  0.89186900  1
  O  O51  1  0.36565500  0.63823000  0.61723000  1
  O  O52  1  0.63706300  0.84964700  0.38088300  1
  O  O53  1  0.39261900  0.11127500  0.26026500  1
  O  O54  1  0.34964700  0.13706300  0.88088300  1
  O  O55  1  0.61433100  0.17369300  0.18949700  1
  O  O56  1  0.75628600  0.41752000  0.85244600  1
  O  O57  1  0.68949700  0.67369300  0.11433100  1
  O  O58  1  0.63098800  0.35421600  0.17265900  1
  O  O59  1  0.13098800  0.67265900  0.85421600  1
  O  O60  1  0.64885000  0.37306700  0.37964000  1
  O  O61  1  0.14725300  0.89905500  0.58916200  1
  O  O62  1  0.14885000  0.87964000  0.87306700  1
  O  O63  1  0.61127500  0.89261900  0.76026500  1
  O  O64  1  0.13706300  0.88088300  0.34964700  1
  O  O65  1  0.76026500  0.61127500  0.89261900  1
  O  O66  1  0.13823000  0.86565500  0.11723000  1
  O  O67  1  0.91752000  0.25628600  0.35244600  1
  O  O68  1  0.64725300  0.08916200  0.39905500  1
  O  O69  1  0.17265900  0.63098800  0.35421600  1
  O  O70  1  0.85421600  0.13098800  0.67265900  1
  O  O71  1  0.80992900  0.80992900  0.80992900  1
  O  O72  1  0.61723000  0.36565500  0.63823000  1
  O  O73  1  0.11433100  0.68949700  0.67369300  1
  O  O74  1  0.87964000  0.87306700  0.14885000  1
  O  O75  1  0.11723000  0.13823000  0.86565500  1
  O  O76  1  0.26026500  0.39261900  0.11127500  1
  O  O77  1  0.89261900  0.76026500  0.61127500  1
  O  O78  1  0.11213300  0.39186900  0.83787200  1
  O  O79  1  0.88088300  0.34964700  0.13706300  1
  O  O80  1  0.67265900  0.85421600  0.13098800  1
  O  O81  1  0.35421600  0.17265900  0.63098800  1
  O  O82  1  0.87306700  0.14885000  0.87964000  1
  O  O83  1  0.17369300  0.18949700  0.61433100  1
  O  O84  1  0.35244600  0.91752000  0.25628600  1
  O  O85  1  0.11127500  0.26026500  0.39261900  1
  O  O86  1  0.85244600  0.75628600  0.41752000  1
  O  O87  1  0.84964700  0.38088300  0.63706300  1
  O  O88  1  0.25628600  0.35244600  0.91752000  1
  O  O89  1  0.39186900  0.83787200  0.11213300  1
  O  O90  1  0.30992900  0.30992900  0.30992900  1
  O  O91  1  0.37306700  0.37964000  0.64885000  1
