# generated using pymatgen
data_Cs2Te(MoO4)3
_symmetry_space_group_name_H-M   'P 1'
_cell_length_a   7.50964222
_cell_length_b   7.50964222
_cell_length_c   12.64107000
_cell_angle_alpha   90.00000000
_cell_angle_beta   90.00000000
_cell_angle_gamma   120.00000194
_symmetry_Int_Tables_number   1
_chemical_formula_structural   Cs2Te(MoO4)3
_chemical_formula_sum   'Cs4 Te2 Mo6 O24'
_cell_volume   617.38056309
_cell_formula_units_Z   2
loop_
 _symmetry_equiv_pos_site_id
 _symmetry_equiv_pos_as_xyz
  1  'x, y, z'
loop_
 _atom_site_type_symbol
 _atom_site_label
 _atom_site_symmetry_multiplicity
 _atom_site_fract_x
 _atom_site_fract_y
 _atom_site_fract_z
 _atom_site_occupancy
  Cs  Cs0  1  0.66666700  0.33333300  0.22900500  1
  Cs  Cs1  1  0.66666700  0.33333300  0.59694000  1
  Cs  Cs2  1  0.33333300  0.66666700  0.72900500  1
  Cs  Cs3  1  0.33333300  0.66666700  0.09694000  1
  Te  Te4  1  0.00000000  0.00000000  0.16219800  1
  Te  Te5  1  0.00000000  0.00000000  0.66219800  1
  Mo  Mo6  1  0.85968700  0.66187800  0.89545800  1
  Mo  Mo7  1  0.33812200  0.19780900  0.89545800  1
  Mo  Mo8  1  0.66187800  0.80219100  0.39545800  1
  Mo  Mo9  1  0.80219100  0.14031300  0.89545800  1
  Mo  Mo10  1  0.14031300  0.33812200  0.39545800  1
  Mo  Mo11  1  0.19780900  0.85968700  0.39545800  1
  O  O12  1  0.91093300  0.45488500  0.85836000  1
  O  O13  1  0.12385800  0.87442700  0.90576500  1
  O  O14  1  0.25990300  0.11707600  0.73211800  1
  O  O15  1  0.79875900  0.61278900  0.03068400  1
  O  O16  1  0.08906700  0.54511500  0.35836000  1
  O  O17  1  0.45604700  0.91093300  0.35836000  1
  O  O18  1  0.85717300  0.74009700  0.73211800  1
  O  O19  1  0.61278900  0.81403100  0.53068400  1
  O  O20  1  0.24943100  0.12385800  0.40576500  1
  O  O21  1  0.12557300  0.24943100  0.90576500  1
  O  O22  1  0.87614200  0.12557300  0.40576500  1
  O  O23  1  0.18596900  0.79875900  0.53068400  1
  O  O24  1  0.14282700  0.25990300  0.23211800  1
  O  O25  1  0.87442700  0.75056900  0.40576500  1
  O  O26  1  0.11707600  0.85717300  0.23211800  1
  O  O27  1  0.74009700  0.88292400  0.23211800  1
  O  O28  1  0.54511500  0.45604700  0.85836000  1
  O  O29  1  0.45488500  0.54395300  0.35836000  1
  O  O30  1  0.54395300  0.08906700  0.85836000  1
  O  O31  1  0.20124100  0.38721100  0.53068400  1
  O  O32  1  0.88292400  0.14282700  0.73211800  1
  O  O33  1  0.38721100  0.18596900  0.03068400  1
  O  O34  1  0.81403100  0.20124100  0.03068400  1
  O  O35  1  0.75056900  0.87614200  0.90576500  1
