# generated using pymatgen
data_GdCBr
_symmetry_space_group_name_H-M   'P 1'
_cell_length_a   4.05516892
_cell_length_b   4.05516892
_cell_length_c   10.12869446
_cell_angle_alpha   85.73445504
_cell_angle_beta   85.73445504
_cell_angle_gamma   57.08846422
_symmetry_Int_Tables_number   1
_chemical_formula_structural   GdCBr
_chemical_formula_sum   'Gd2 C2 Br2'
_cell_volume   139.32694778
_cell_formula_units_Z   2
loop_
 _symmetry_equiv_pos_site_id
 _symmetry_equiv_pos_as_xyz
  1  'x, y, z'
loop_
 _atom_site_type_symbol
 _atom_site_label
 _atom_site_symmetry_multiplicity
 _atom_site_fract_x
 _atom_site_fract_y
 _atom_site_fract_z
 _atom_site_occupancy
  Gd  Gd0  1  0.85526900  0.85526900  0.14527700  1
  Gd  Gd1  1  0.14473100  0.14473100  0.85472300  1
  C  C2  1  0.57476900  0.57476900  0.03515200  1
  C  C3  1  0.42523100  0.42523100  0.96484800  1
  Br  Br4  1  0.82456900  0.82456900  0.66765200  1
  Br  Br5  1  0.17543100  0.17543100  0.33234800  1
