# generated using pymatgen
data_Pu2Ni17
_symmetry_space_group_name_H-M   'P 1'
_cell_length_a   8.25830532
_cell_length_b   8.25830532
_cell_length_c   7.98353100
_cell_angle_alpha   90.00000000
_cell_angle_beta   90.00000000
_cell_angle_gamma   119.99999453
_symmetry_Int_Tables_number   1
_chemical_formula_structural   Pu2Ni17
_chemical_formula_sum   'Pu4 Ni34'
_cell_volume   471.52805970
_cell_formula_units_Z   2
loop_
 _symmetry_equiv_pos_site_id
 _symmetry_equiv_pos_as_xyz
  1  'x, y, z'
loop_
 _atom_site_type_symbol
 _atom_site_label
 _atom_site_symmetry_multiplicity
 _atom_site_fract_x
 _atom_site_fract_y
 _atom_site_fract_z
 _atom_site_occupancy
  Pu  Pu0  1  0.00000000  0.00000000  0.75000000  1
  Pu  Pu1  1  0.66666700  0.33333300  0.25000000  1
  Pu  Pu2  1  0.00000000  0.00000000  0.25000000  1
  Pu  Pu3  1  0.33333300  0.66666700  0.75000000  1
  Ni  Ni4  1  0.04053400  0.67229400  0.25000000  1
  Ni  Ni5  1  0.66666700  0.33333300  0.90010400  1
  Ni  Ni6  1  0.50000000  0.50000000  0.50000000  1
  Ni  Ni7  1  0.83475300  0.16524700  0.47788700  1
  Ni  Ni8  1  0.33049400  0.16524700  0.02211300  1
  Ni  Ni9  1  0.16524700  0.33049400  0.52211300  1
  Ni  Ni10  1  0.63176000  0.67229400  0.25000000  1
  Ni  Ni11  1  0.83475300  0.16524700  0.02211300  1
  Ni  Ni12  1  0.33333300  0.66666700  0.40010400  1
  Ni  Ni13  1  0.66950600  0.83475300  0.52211300  1
  Ni  Ni14  1  0.32770600  0.36824000  0.25000000  1
  Ni  Ni15  1  0.95946600  0.32770600  0.75000000  1
  Ni  Ni16  1  0.63176000  0.95946600  0.25000000  1
  Ni  Ni17  1  0.95946600  0.63176000  0.75000000  1
  Ni  Ni18  1  0.16524700  0.33049400  0.97788700  1
  Ni  Ni19  1  0.83475300  0.66950600  0.47788700  1
  Ni  Ni20  1  0.33049400  0.16524700  0.47788700  1
  Ni  Ni21  1  0.83475300  0.66950600  0.02211300  1
  Ni  Ni22  1  0.66666700  0.33333300  0.59989600  1
  Ni  Ni23  1  0.50000000  0.50000000  0.00000000  1
  Ni  Ni24  1  0.32770600  0.95946600  0.25000000  1
  Ni  Ni25  1  0.36824000  0.32770600  0.75000000  1
  Ni  Ni26  1  0.66950600  0.83475300  0.97788700  1
  Ni  Ni27  1  0.50000000  0.00000000  0.00000000  1
  Ni  Ni28  1  0.67229400  0.04053400  0.75000000  1
  Ni  Ni29  1  0.16524700  0.83475300  0.97788700  1
  Ni  Ni30  1  0.33333300  0.66666700  0.09989600  1
  Ni  Ni31  1  0.67229400  0.63176000  0.75000000  1
  Ni  Ni32  1  0.00000000  0.50000000  0.00000000  1
  Ni  Ni33  1  0.04053400  0.36824000  0.25000000  1
  Ni  Ni34  1  0.16524700  0.83475300  0.52211300  1
  Ni  Ni35  1  0.36824000  0.04053400  0.75000000  1
  Ni  Ni36  1  0.00000000  0.50000000  0.50000000  1
  Ni  Ni37  1  0.50000000  0.00000000  0.50000000  1
