# generated using pymatgen
data_Ba2Nd7Si11N23
_symmetry_space_group_name_H-M   'P 1'
_cell_length_a   12.85148237
_cell_length_b   12.85148237
_cell_length_c   9.76711800
_cell_angle_alpha   90.00000000
_cell_angle_beta   90.00000000
_cell_angle_gamma   129.20851144
_symmetry_Int_Tables_number   1
_chemical_formula_structural   Ba2Nd7Si11N23
_chemical_formula_sum   'Ba4 Nd14 Si22 N46'
_cell_volume   1249.94485240
_cell_formula_units_Z   2
loop_
 _symmetry_equiv_pos_site_id
 _symmetry_equiv_pos_as_xyz
  1  'x, y, z'
loop_
 _atom_site_type_symbol
 _atom_site_label
 _atom_site_symmetry_multiplicity
 _atom_site_fract_x
 _atom_site_fract_y
 _atom_site_fract_z
 _atom_site_occupancy
  Ba  Ba0  1  0.50000000  0.50000000  0.79118600  1
  Ba  Ba1  1  0.83397300  0.83397300  0.00000000  1
  Ba  Ba2  1  0.16602700  0.16602700  0.00000000  1
  Ba  Ba3  1  0.50000000  0.50000000  0.20881400  1
  Nd  Nd4  1  0.87900200  0.12099800  0.29492100  1
  Nd  Nd5  1  0.00000000  0.50000000  0.26580900  1
  Nd  Nd6  1  0.50000000  0.00000000  0.26580900  1
  Nd  Nd7  1  0.66379500  0.33620500  0.00000000  1
  Nd  Nd8  1  0.18038500  0.38594700  0.50000000  1
  Nd  Nd9  1  0.87900200  0.12099800  0.70507900  1
  Nd  Nd10  1  0.38594700  0.18038500  0.50000000  1
  Nd  Nd11  1  0.12099800  0.87900200  0.70507900  1
  Nd  Nd12  1  0.61405300  0.81961500  0.50000000  1
  Nd  Nd13  1  0.12099800  0.87900200  0.29492100  1
  Nd  Nd14  1  0.33620500  0.66379500  0.00000000  1
  Nd  Nd15  1  0.50000000  0.00000000  0.73419100  1
  Nd  Nd16  1  0.81961500  0.61405300  0.50000000  1
  Nd  Nd17  1  0.00000000  0.50000000  0.73419100  1
  Si  Si18  1  0.67345000  0.32655000  0.33888200  1
  Si  Si19  1  0.61611500  0.84690700  0.83877200  1
  Si  Si20  1  0.67345000  0.32655000  0.66111800  1
  Si  Si21  1  0.15197800  0.15197800  0.32851600  1
  Si  Si22  1  0.78516500  0.21483500  0.50000000  1
  Si  Si23  1  0.07031500  0.66685400  0.00000000  1
  Si  Si24  1  0.21483500  0.78516500  0.50000000  1
  Si  Si25  1  0.61611500  0.84690700  0.16122800  1
  Si  Si26  1  0.32655000  0.67345000  0.33888200  1
  Si  Si27  1  0.66685400  0.07031500  0.00000000  1
  Si  Si28  1  0.92968500  0.33314600  0.00000000  1
  Si  Si29  1  0.84802200  0.84802200  0.67148400  1
  Si  Si30  1  0.84690700  0.61611500  0.83877200  1
  Si  Si31  1  0.32655000  0.67345000  0.66111800  1
  Si  Si32  1  0.84802200  0.84802200  0.32851600  1
  Si  Si33  1  0.38388500  0.15309300  0.16122800  1
  Si  Si34  1  0.33314600  0.92968500  0.00000000  1
  Si  Si35  1  0.15197800  0.15197800  0.67148400  1
  Si  Si36  1  0.84690700  0.61611500  0.16122800  1
  Si  Si37  1  0.15309300  0.38388500  0.16122800  1
  Si  Si38  1  0.15309300  0.38388500  0.83877200  1
  Si  Si39  1  0.38388500  0.15309300  0.83877200  1
  N  N40  1  0.76075700  0.23924300  0.00000000  1
  N  N41  1  0.36242000  0.63758000  0.50000000  1
  N  N42  1  0.23440200  0.41516800  0.00000000  1
  N  N43  1  0.83618800  0.71618000  0.73421300  1
  N  N44  1  0.58483200  0.76559800  0.00000000  1
  N  N45  1  0.22144600  0.52915800  0.75366500  1
  N  N46  1  0.52915800  0.22144600  0.24633500  1
  N  N47  1  0.77855400  0.47084200  0.24633500  1
  N  N48  1  0.69290300  0.01476200  0.14588300  1
  N  N49  1  0.71618000  0.83618800  0.26578700  1
  N  N50  1  0.98523800  0.30709700  0.85411700  1
  N  N51  1  0.00000000  0.50000000  0.00000000  1
  N  N52  1  0.77855400  0.47084200  0.75366500  1
  N  N53  1  0.30709700  0.98523800  0.14588300  1
  N  N54  1  0.47084200  0.77855400  0.75366500  1
  N  N55  1  0.70895200  0.04085700  0.50000000  1
  N  N56  1  0.16381200  0.28382000  0.73421300  1
  N  N57  1  0.01476200  0.69290300  0.14588300  1
  N  N58  1  0.28382000  0.16381200  0.26578700  1
  N  N59  1  0.25300500  0.74699500  0.64914500  1
  N  N60  1  0.01476200  0.69290300  0.85411700  1
  N  N61  1  0.83618800  0.71618000  0.26578700  1
  N  N62  1  0.69290300  0.01476200  0.85411700  1
  N  N63  1  0.16381200  0.28382000  0.26578700  1
  N  N64  1  0.52915800  0.22144600  0.75366500  1
  N  N65  1  0.63758000  0.36242000  0.50000000  1
  N  N66  1  0.47084200  0.77855400  0.24633500  1
  N  N67  1  0.81770600  0.81770600  0.50000000  1
  N  N68  1  0.18229400  0.18229400  0.50000000  1
  N  N69  1  0.30709700  0.98523800  0.85411700  1
  N  N70  1  0.29104800  0.95914300  0.50000000  1
  N  N71  1  0.28382000  0.16381200  0.73421300  1
  N  N72  1  0.22144600  0.52915800  0.24633500  1
  N  N73  1  0.74699500  0.25300500  0.35085500  1
  N  N74  1  0.23924300  0.76075700  0.00000000  1
  N  N75  1  0.74699500  0.25300500  0.64914500  1
  N  N76  1  0.98523800  0.30709700  0.14588300  1
  N  N77  1  0.00000000  0.00000000  0.27485200  1
  N  N78  1  0.95914300  0.29104800  0.50000000  1
  N  N79  1  0.50000000  0.00000000  0.00000000  1
  N  N80  1  0.04085700  0.70895200  0.50000000  1
  N  N81  1  0.00000000  0.00000000  0.72514800  1
  N  N82  1  0.71618000  0.83618800  0.73421300  1
  N  N83  1  0.25300500  0.74699500  0.35085500  1
  N  N84  1  0.41516800  0.23440200  0.00000000  1
  N  N85  1  0.76559800  0.58483200  0.00000000  1
