# generated using pymatgen
data_U2Zn17
_symmetry_space_group_name_H-M   'P 1'
_cell_length_a   8.99349240
_cell_length_b   8.99349240
_cell_length_c   8.80458700
_cell_angle_alpha   90.00000000
_cell_angle_beta   90.00000000
_cell_angle_gamma   120.00000293
_symmetry_Int_Tables_number   1
_chemical_formula_structural   U2Zn17
_chemical_formula_sum   'U4 Zn34'
_cell_volume   616.73181374
_cell_formula_units_Z   2
loop_
 _symmetry_equiv_pos_site_id
 _symmetry_equiv_pos_as_xyz
  1  'x, y, z'
loop_
 _atom_site_type_symbol
 _atom_site_label
 _atom_site_symmetry_multiplicity
 _atom_site_fract_x
 _atom_site_fract_y
 _atom_site_fract_z
 _atom_site_occupancy
  U  U0  1  0.00000000  0.00000000  0.25000000  1
  U  U1  1  0.00000000  0.00000000  0.75000000  1
  U  U2  1  0.66666700  0.33333300  0.75000000  1
  U  U3  1  0.33333300  0.66666700  0.25000000  1
  Zn  Zn4  1  0.36680300  0.32932900  0.25000000  1
  Zn  Zn5  1  0.36680300  0.03747500  0.25000000  1
  Zn  Zn6  1  0.50000000  0.00000000  0.00000000  1
  Zn  Zn7  1  0.50000000  0.50000000  0.50000000  1
  Zn  Zn8  1  0.67682000  0.83841000  0.02250400  1
  Zn  Zn9  1  0.16159000  0.32318000  0.02250400  1
  Zn  Zn10  1  0.83841000  0.16159000  0.97749600  1
  Zn  Zn11  1  0.32318000  0.16159000  0.97749600  1
  Zn  Zn12  1  0.63319700  0.96252500  0.75000000  1
  Zn  Zn13  1  0.67682000  0.83841000  0.47749600  1
  Zn  Zn14  1  0.33333300  0.66666700  0.89982200  1
  Zn  Zn15  1  0.32932900  0.36680300  0.75000000  1
  Zn  Zn16  1  0.96252500  0.63319700  0.25000000  1
  Zn  Zn17  1  0.16159000  0.32318000  0.47749600  1
  Zn  Zn18  1  0.32932900  0.96252500  0.75000000  1
  Zn  Zn19  1  0.67067100  0.63319700  0.25000000  1
  Zn  Zn20  1  0.66666700  0.33333300  0.39982200  1
  Zn  Zn21  1  0.32318000  0.16159000  0.52250400  1
  Zn  Zn22  1  0.16159000  0.83841000  0.02250400  1
  Zn  Zn23  1  0.00000000  0.50000000  0.00000000  1
  Zn  Zn24  1  0.03747500  0.67067100  0.75000000  1
  Zn  Zn25  1  0.33333300  0.66666700  0.60017800  1
  Zn  Zn26  1  0.67067100  0.03747500  0.25000000  1
  Zn  Zn27  1  0.66666700  0.33333300  0.10017800  1
  Zn  Zn28  1  0.83841000  0.67682000  0.97749600  1
  Zn  Zn29  1  0.96252500  0.32932900  0.25000000  1
  Zn  Zn30  1  0.83841000  0.16159000  0.52250400  1
  Zn  Zn31  1  0.03747500  0.36680300  0.75000000  1
  Zn  Zn32  1  0.83841000  0.67682000  0.52250400  1
  Zn  Zn33  1  0.50000000  0.50000000  0.00000000  1
  Zn  Zn34  1  0.63319700  0.67067100  0.75000000  1
  Zn  Zn35  1  0.16159000  0.83841000  0.47749600  1
  Zn  Zn36  1  0.50000000  0.00000000  0.50000000  1
  Zn  Zn37  1  0.00000000  0.50000000  0.50000000  1
