# generated using pymatgen
data_Ca3SiBr2
_symmetry_space_group_name_H-M   'P 1'
_cell_length_a   7.77619693
_cell_length_b   7.77619693
_cell_length_c   7.77619693
_cell_angle_alpha   147.14231095
_cell_angle_beta   135.24786486
_cell_angle_gamma   56.62064489
_symmetry_Int_Tables_number   1
_chemical_formula_structural   Ca3SiBr2
_chemical_formula_sum   'Ca3 Si1 Br2'
_cell_volume   178.28689853
_cell_formula_units_Z   1
loop_
 _symmetry_equiv_pos_site_id
 _symmetry_equiv_pos_as_xyz
  1  'x, y, z'
loop_
 _atom_site_type_symbol
 _atom_site_label
 _atom_site_symmetry_multiplicity
 _atom_site_fract_x
 _atom_site_fract_y
 _atom_site_fract_z
 _atom_site_occupancy
  Ca  Ca0  1  0.36365500  0.36365500  0.00000000  1
  Ca  Ca1  1  0.00000000  0.00000000  0.00000000  1
  Ca  Ca2  1  0.63634500  0.63634500  0.00000000  1
  Si  Si3  1  0.50000000  0.00000000  0.50000000  1
  Br  Br4  1  0.82265900  0.32265900  0.50000000  1
  Br  Br5  1  0.17734100  0.67734100  0.50000000  1
