# generated using pymatgen
data_IrCl3
_symmetry_space_group_name_H-M   'P 1'
_cell_length_a   11.72941762
_cell_length_b   11.18347638
_cell_length_c   6.22368877
_cell_angle_alpha   79.14099634
_cell_angle_beta   69.45267176
_cell_angle_gamma   31.40633190
_symmetry_Int_Tables_number   1
_chemical_formula_structural   IrCl3
_chemical_formula_sum   'Ir4 Cl12'
_cell_volume   387.88688625
_cell_formula_units_Z   4
loop_
 _symmetry_equiv_pos_site_id
 _symmetry_equiv_pos_as_xyz
  1  'x, y, z'
loop_
 _atom_site_type_symbol
 _atom_site_label
 _atom_site_symmetry_multiplicity
 _atom_site_fract_x
 _atom_site_fract_y
 _atom_site_fract_z
 _atom_site_occupancy
  Ir  Ir0  1  0.41633900  0.41633900  0.58366100  1
  Ir  Ir1  1  0.83366100  0.83366100  0.66633900  1
  Ir  Ir2  1  0.66633900  0.66633900  0.83366100  1
  Ir  Ir3  1  0.58366100  0.58366100  0.41633900  1
  Cl  Cl4  1  0.71776600  0.28223400  0.28223400  1
  Cl  Cl5  1  0.87938500  0.44448700  0.08835500  1
  Cl  Cl6  1  0.37061500  0.80551300  0.16164500  1
  Cl  Cl7  1  0.44448700  0.87938500  0.58777200  1
  Cl  Cl8  1  0.16164500  0.66222800  0.37061500  1
  Cl  Cl9  1  0.28223400  0.71776600  0.71776600  1
  Cl  Cl10  1  0.53223400  0.96776600  0.96776600  1
  Cl  Cl11  1  0.96776600  0.53223400  0.53223400  1
  Cl  Cl12  1  0.08835500  0.58777200  0.87938500  1
  Cl  Cl13  1  0.80551300  0.37061500  0.66222800  1
  Cl  Cl14  1  0.66222800  0.16164500  0.80551300  1
  Cl  Cl15  1  0.58777200  0.08835500  0.44448700  1
