# generated using pymatgen
data_C
_symmetry_space_group_name_H-M   'P 1'
_cell_length_a   14.55335435
_cell_length_b   14.55335435
_cell_length_c   14.55335385
_cell_angle_alpha   9.95676079
_cell_angle_beta   9.95676079
_cell_angle_gamma   9.95676277
_symmetry_Int_Tables_number   1
_chemical_formula_structural   C
_chemical_formula_sum   C14
_cell_volume   80.00668300
_cell_formula_units_Z   14
loop_
 _symmetry_equiv_pos_site_id
 _symmetry_equiv_pos_as_xyz
  1  'x, y, z'
loop_
 _atom_site_type_symbol
 _atom_site_label
 _atom_site_symmetry_multiplicity
 _atom_site_fract_x
 _atom_site_fract_y
 _atom_site_fract_z
 _atom_site_occupancy
  C  C0  1  0.41046400  0.41046400  0.41046400  1
  C  C1  1  0.30369500  0.30369500  0.30369500  1
  C  C2  1  0.58953600  0.58953600  0.58953600  1
  C  C3  1  0.17257500  0.17257500  0.17257500  1
  C  C4  1  0.82742500  0.82742500  0.82742500  1
  C  C5  1  0.55338700  0.55338700  0.55338700  1
  C  C6  1  0.20813800  0.20813800  0.20813800  1
  C  C7  1  0.73188700  0.73188700  0.73188700  1
  C  C8  1  0.26811300  0.26811300  0.26811300  1
  C  C9  1  0.44661300  0.44661300  0.44661300  1
  C  C10  1  0.01780400  0.01780400  0.01780400  1
  C  C11  1  0.79186200  0.79186200  0.79186200  1
  C  C12  1  0.69630500  0.69630500  0.69630500  1
  C  C13  1  0.98219600  0.98219600  0.98219600  1
