# generated using pymatgen
data_Tb3Nd
_symmetry_space_group_name_H-M   'P 1'
_cell_length_a   6.22071223
_cell_length_b   6.22071223
_cell_length_c   6.22071223
_cell_angle_alpha   131.83386560
_cell_angle_beta   131.83386560
_cell_angle_gamma   70.49154500
_symmetry_Int_Tables_number   1
_chemical_formula_structural   Tb3Nd
_chemical_formula_sum   'Tb3 Nd1'
_cell_volume   130.94349306
_cell_formula_units_Z   1
loop_
 _symmetry_equiv_pos_site_id
 _symmetry_equiv_pos_as_xyz
  1  'x, y, z'
loop_
 _atom_site_type_symbol
 _atom_site_label
 _atom_site_symmetry_multiplicity
 _atom_site_fract_x
 _atom_site_fract_y
 _atom_site_fract_z
 _atom_site_occupancy
  Tb  Tb0  1  0.75000000  0.25000000  0.50000000  1
  Tb  Tb1  1  0.25000000  0.75000000  0.50000000  1
  Tb  Tb2  1  0.50000000  0.50000000  0.00000000  1
  Nd  Nd3  1  0.00000000  0.00000000  0.00000000  1
