# generated using pymatgen
data_RbCrCl3
_symmetry_space_group_name_H-M   'P 1'
_cell_length_a   7.13548588
_cell_length_b   7.13548588
_cell_length_c   6.31259966
_cell_angle_alpha   88.02101880
_cell_angle_beta   88.02101880
_cell_angle_gamma   59.68358071
_symmetry_Int_Tables_number   1
_chemical_formula_structural   RbCrCl3
_chemical_formula_sum   'Rb2 Cr2 Cl6'
_cell_volume   277.23493635
_cell_formula_units_Z   2
loop_
 _symmetry_equiv_pos_site_id
 _symmetry_equiv_pos_as_xyz
  1  'x, y, z'
loop_
 _atom_site_type_symbol
 _atom_site_label
 _atom_site_symmetry_multiplicity
 _atom_site_fract_x
 _atom_site_fract_y
 _atom_site_fract_z
 _atom_site_occupancy
  Rb  Rb0  1  0.66582100  0.66582100  0.75480600  1
  Rb  Rb1  1  0.33417900  0.33417900  0.24519400  1
  Cr  Cr2  1  0.00000000  0.00000000  0.50000000  1
  Cr  Cr3  1  0.00000000  0.00000000  0.00000000  1
  Cl  Cl4  1  0.84241400  0.31769500  0.21984800  1
  Cl  Cl5  1  0.31769500  0.84241400  0.21984800  1
  Cl  Cl6  1  0.83678800  0.83678800  0.30954500  1
  Cl  Cl7  1  0.15758600  0.68230500  0.78015200  1
  Cl  Cl8  1  0.68230500  0.15758600  0.78015200  1
  Cl  Cl9  1  0.16321200  0.16321200  0.69045500  1
