# generated using pymatgen
data_Rb2ZnN12
_symmetry_space_group_name_H-M   'P 1'
_cell_length_a   6.67586500
_cell_length_b   7.34832800
_cell_length_c   21.16425100
_cell_angle_alpha   90.00000000
_cell_angle_beta   90.00000000
_cell_angle_gamma   90.00000000
_symmetry_Int_Tables_number   1
_chemical_formula_structural   Rb2ZnN12
_chemical_formula_sum   'Rb8 Zn4 N48'
_cell_volume   1038.24293004
_cell_formula_units_Z   4
loop_
 _symmetry_equiv_pos_site_id
 _symmetry_equiv_pos_as_xyz
  1  'x, y, z'
loop_
 _atom_site_type_symbol
 _atom_site_label
 _atom_site_symmetry_multiplicity
 _atom_site_fract_x
 _atom_site_fract_y
 _atom_site_fract_z
 _atom_site_occupancy
  Rb  Rb0  1  0.67971800  0.38022100  0.51361500  1
  Rb  Rb1  1  0.67971800  0.88022100  0.98638500  1
  Rb  Rb2  1  0.30787500  0.12212300  0.19567800  1
  Rb  Rb3  1  0.30787500  0.62212300  0.30432200  1
  Rb  Rb4  1  0.32028200  0.38022100  0.01361500  1
  Rb  Rb5  1  0.69212500  0.62212300  0.80432200  1
  Rb  Rb6  1  0.32028200  0.88022100  0.48638500  1
  Rb  Rb7  1  0.69212500  0.12212300  0.69567800  1
  Zn  Zn8  1  0.06199500  0.62188600  0.63045400  1
  Zn  Zn9  1  0.06199500  0.12188600  0.86954600  1
  Zn  Zn10  1  0.93800500  0.62188600  0.13045400  1
  Zn  Zn11  1  0.93800500  0.12188600  0.36954600  1
  N  N12  1  0.27030400  0.99483400  0.05351200  1
  N  N13  1  0.17248100  0.26395100  0.60797600  1
  N  N14  1  0.02997200  0.28369200  0.79370900  1
  N  N15  1  0.81543500  0.84093100  0.22839800  1
  N  N16  1  0.33186300  0.39855900  0.74948100  1
  N  N17  1  0.81543500  0.34093100  0.27160200  1
  N  N18  1  0.83311700  0.86615400  0.55396800  1
  N  N19  1  0.66813700  0.39855900  0.24948100  1
  N  N20  1  0.36359300  0.15299500  0.89673300  1
  N  N21  1  0.50856100  0.61816300  0.63432200  1
  N  N22  1  0.68781300  0.67683800  0.40599900  1
  N  N23  1  0.17248100  0.76395100  0.89202400  1
  N  N24  1  0.50856100  0.11816300  0.86567800  1
  N  N25  1  0.72969600  0.49483400  0.94648800  1
  N  N26  1  0.02997200  0.78369200  0.70629100  1
  N  N27  1  0.02499300  0.34926600  0.62243300  1
  N  N28  1  0.49143900  0.11816300  0.36567800  1
  N  N29  1  0.31218700  0.67683800  0.90599900  1
  N  N30  1  0.18456500  0.84093100  0.72839800  1
  N  N31  1  0.31218700  0.17683800  0.59400100  1
  N  N32  1  0.16688300  0.36615400  0.44603200  1
  N  N33  1  0.33186300  0.89855900  0.75051900  1
  N  N34  1  0.27030400  0.49483400  0.44648800  1
  N  N35  1  0.65500600  0.58344900  0.66259800  1
  N  N36  1  0.49143900  0.61816300  0.13432200  1
  N  N37  1  0.97002800  0.28369200  0.29370900  1
  N  N38  1  0.36359300  0.65299500  0.60326700  1
  N  N39  1  0.93780600  0.73363800  0.55168600  1
  N  N40  1  0.97500700  0.34926600  0.12243300  1
  N  N41  1  0.93780600  0.23363800  0.94831400  1
  N  N42  1  0.34499400  0.58344900  0.16259800  1
  N  N43  1  0.66813700  0.89855900  0.25051900  1
  N  N44  1  0.65500600  0.08344900  0.83740200  1
  N  N45  1  0.06219400  0.23363800  0.44831400  1
  N  N46  1  0.97500700  0.84926600  0.37756700  1
  N  N47  1  0.83311700  0.36615400  0.94603200  1
  N  N48  1  0.72969600  0.99483400  0.55351200  1
  N  N49  1  0.34499400  0.08344900  0.33740200  1
  N  N50  1  0.63640700  0.15299500  0.39673300  1
  N  N51  1  0.16688300  0.86615400  0.05396800  1
  N  N52  1  0.97002800  0.78369200  0.20629100  1
  N  N53  1  0.82751900  0.76395100  0.39202400  1
  N  N54  1  0.06219400  0.73363800  0.05168600  1
  N  N55  1  0.68781300  0.17683800  0.09400100  1
  N  N56  1  0.82751900  0.26395100  0.10797600  1
  N  N57  1  0.02499300  0.84926600  0.87756700  1
  N  N58  1  0.18456500  0.34093100  0.77160200  1
  N  N59  1  0.63640700  0.65299500  0.10326700  1
