# generated using pymatgen
data_GaCl3
_symmetry_space_group_name_H-M   'P 1'
_cell_length_a   7.11695200
_cell_length_b   7.17430216
_cell_length_c   7.29194265
_cell_angle_alpha   91.93479228
_cell_angle_beta   116.13160622
_cell_angle_gamma   116.90915878
_symmetry_Int_Tables_number   1
_chemical_formula_structural   GaCl3
_chemical_formula_sum   'Ga2 Cl6'
_cell_volume   285.15758719
_cell_formula_units_Z   2
loop_
 _symmetry_equiv_pos_site_id
 _symmetry_equiv_pos_as_xyz
  1  'x, y, z'
loop_
 _atom_site_type_symbol
 _atom_site_label
 _atom_site_symmetry_multiplicity
 _atom_site_fract_x
 _atom_site_fract_y
 _atom_site_fract_z
 _atom_site_occupancy
  Ga  Ga0  1  0.93104600  0.84808900  0.77981200  1
  Ga  Ga1  1  0.06895400  0.15191100  0.22018800  1
  Cl  Cl2  1  0.34509700  0.17160400  0.51739800  1
  Cl  Cl3  1  0.78902200  0.78527900  0.01918300  1
  Cl  Cl4  1  0.11852000  0.68097500  0.80344300  1
  Cl  Cl5  1  0.65490300  0.82839600  0.48260200  1
  Cl  Cl6  1  0.21097800  0.21472100  0.98081700  1
  Cl  Cl7  1  0.88148000  0.31902500  0.19655700  1
