# generated using pymatgen
data_B
_symmetry_space_group_name_H-M   'P 1'
_cell_length_a   8.67487100
_cell_length_b   8.67487100
_cell_length_c   4.97209800
_cell_angle_alpha   90.00000000
_cell_angle_beta   90.00000000
_cell_angle_gamma   90.00000000
_symmetry_Int_Tables_number   1
_chemical_formula_structural   B
_chemical_formula_sum   B48
_cell_volume   374.16721433
_cell_formula_units_Z   48
loop_
 _symmetry_equiv_pos_site_id
 _symmetry_equiv_pos_as_xyz
  1  'x, y, z'
loop_
 _atom_site_type_symbol
 _atom_site_label
 _atom_site_symmetry_multiplicity
 _atom_site_fract_x
 _atom_site_fract_y
 _atom_site_fract_z
 _atom_site_occupancy
  B  B0  1  0.82924200  0.41603700  0.90643100  1
  B  B1  1  0.58300400  0.72721000  0.41136800  1
  B  B2  1  0.58300400  0.27279000  0.58863200  1
  B  B3  1  0.12505700  0.87494300  0.61721500  1
  B  B4  1  0.37494300  0.62505700  0.88278500  1
  B  B5  1  0.58396300  0.17075800  0.90643100  1
  B  B6  1  0.41699600  0.72721000  0.58863200  1
  B  B7  1  0.27279000  0.41699600  0.41136800  1
  B  B8  1  0.41603700  0.17075800  0.09356900  1
  B  B9  1  0.41699600  0.27279000  0.41136800  1
  B  B10  1  0.75584600  0.75584600  0.57673500  1
  B  B11  1  0.25584600  0.25584600  0.92326500  1
  B  B12  1  0.32924200  0.08396300  0.40643100  1
  B  B13  1  0.17075800  0.58396300  0.90643100  1
  B  B14  1  0.24415400  0.75584600  0.42326500  1
  B  B15  1  0.41603700  0.82924200  0.90643100  1
  B  B16  1  0.77279000  0.91699600  0.08863200  1
  B  B17  1  0.25584600  0.74415400  0.07673500  1
  B  B18  1  0.08300400  0.77279000  0.91136800  1
  B  B19  1  0.67075800  0.08396300  0.59356900  1
  B  B20  1  0.22721000  0.08300400  0.08863200  1
  B  B21  1  0.72721000  0.58300400  0.41136800  1
  B  B22  1  0.91603700  0.67075800  0.40643100  1
  B  B23  1  0.24415400  0.24415400  0.57673500  1
  B  B24  1  0.91699600  0.22721000  0.91136800  1
  B  B25  1  0.82924200  0.58396300  0.09356900  1
  B  B26  1  0.08396300  0.67075800  0.59356900  1
  B  B27  1  0.62505700  0.37494300  0.88278500  1
  B  B28  1  0.91603700  0.32924200  0.59356900  1
  B  B29  1  0.74415400  0.25584600  0.07673500  1
  B  B30  1  0.12505700  0.12505700  0.38278500  1
  B  B31  1  0.74415400  0.74415400  0.92326500  1
  B  B32  1  0.22721000  0.91699600  0.91136800  1
  B  B33  1  0.77279000  0.08300400  0.91136800  1
  B  B34  1  0.27279000  0.58300400  0.58863200  1
  B  B35  1  0.91699600  0.77279000  0.08863200  1
  B  B36  1  0.08300400  0.22721000  0.08863200  1
  B  B37  1  0.72721000  0.41699600  0.58863200  1
  B  B38  1  0.67075800  0.91603700  0.40643100  1
  B  B39  1  0.58396300  0.82924200  0.09356900  1
  B  B40  1  0.62505700  0.62505700  0.11721500  1
  B  B41  1  0.17075800  0.41603700  0.09356900  1
  B  B42  1  0.75584600  0.24415400  0.42326500  1
  B  B43  1  0.87494300  0.12505700  0.61721500  1
  B  B44  1  0.08396300  0.32924200  0.40643100  1
  B  B45  1  0.37494300  0.37494300  0.11721500  1
  B  B46  1  0.87494300  0.87494300  0.38278500  1
  B  B47  1  0.32924200  0.91603700  0.59356900  1
