# generated using pymatgen
data_Ti(AlCl4)2
_symmetry_space_group_name_H-M   'P 1'
_cell_length_a   7.83732700
_cell_length_b   6.05429500
_cell_length_c   14.22392062
_cell_angle_alpha   86.45508038
_cell_angle_beta   90.00000000
_cell_angle_gamma   90.00000000
_symmetry_Int_Tables_number   1
_chemical_formula_structural   Ti(AlCl4)2
_chemical_formula_sum   'Ti2 Al4 Cl16'
_cell_volume   673.62640724
_cell_formula_units_Z   2
loop_
 _symmetry_equiv_pos_site_id
 _symmetry_equiv_pos_as_xyz
  1  'x, y, z'
loop_
 _atom_site_type_symbol
 _atom_site_label
 _atom_site_symmetry_multiplicity
 _atom_site_fract_x
 _atom_site_fract_y
 _atom_site_fract_z
 _atom_site_occupancy
  Ti  Ti0  1  0.00000000  0.00000000  0.00000000  1
  Ti  Ti1  1  0.50000000  0.00000000  0.50000000  1
  Al  Al2  1  0.74940400  0.62174000  0.91089500  1
  Al  Al3  1  0.24940400  0.37826000  0.58910500  1
  Al  Al4  1  0.25059600  0.37826000  0.08910500  1
  Al  Al5  1  0.75059600  0.62174000  0.41089500  1
  Cl  Cl6  1  0.02764600  0.29250600  0.66623400  1
  Cl  Cl7  1  0.24656100  0.25325600  0.94768600  1
  Cl  Cl8  1  0.51732200  0.77586400  0.35343400  1
  Cl  Cl9  1  0.27422300  0.74051900  0.57992400  1
  Cl  Cl10  1  0.75343900  0.74674400  0.05231400  1
  Cl  Cl11  1  0.52764600  0.70749400  0.83376600  1
  Cl  Cl12  1  0.77422300  0.25948100  0.92007600  1
  Cl  Cl13  1  0.47235400  0.29250600  0.16623400  1
  Cl  Cl14  1  0.72577700  0.25948100  0.42007600  1
  Cl  Cl15  1  0.25343900  0.25325600  0.44768600  1
  Cl  Cl16  1  0.48267800  0.22413600  0.64656600  1
  Cl  Cl17  1  0.22577700  0.74051900  0.07992400  1
  Cl  Cl18  1  0.74656100  0.74674400  0.55231400  1
  Cl  Cl19  1  0.01732200  0.22413600  0.14656600  1
  Cl  Cl20  1  0.98267800  0.77586400  0.85343400  1
  Cl  Cl21  1  0.97235400  0.70749400  0.33376600  1
