# generated using pymatgen
data_Nb(SeBr)2
_symmetry_space_group_name_H-M   'P 1'
_cell_length_a   6.81788578
_cell_length_b   6.81788578
_cell_length_c   7.61142007
_cell_angle_alpha   79.94689842
_cell_angle_beta   79.94689842
_cell_angle_gamma   120.12886143
_symmetry_Int_Tables_number   1
_chemical_formula_structural   Nb(SeBr)2
_chemical_formula_sum   'Nb2 Se4 Br4'
_cell_volume   286.67380673
_cell_formula_units_Z   2
loop_
 _symmetry_equiv_pos_site_id
 _symmetry_equiv_pos_as_xyz
  1  'x, y, z'
loop_
 _atom_site_type_symbol
 _atom_site_label
 _atom_site_symmetry_multiplicity
 _atom_site_fract_x
 _atom_site_fract_y
 _atom_site_fract_z
 _atom_site_occupancy
  Nb  Nb0  1  0.87374700  0.12625300  0.00000000  1
  Nb  Nb1  1  0.12625300  0.87374700  0.00000000  1
  Se  Se2  1  0.86855700  0.86855700  0.30805000  1
  Se  Se3  1  0.66019300  0.66019300  0.12533100  1
  Se  Se4  1  0.33980700  0.33980700  0.87466900  1
  Se  Se5  1  0.13144300  0.13144300  0.69195000  1
  Br  Br6  1  0.98589400  0.56868900  0.78304800  1
  Br  Br7  1  0.01410600  0.43131100  0.21695200  1
  Br  Br8  1  0.56868900  0.98589400  0.78304800  1
  Br  Br9  1  0.43131100  0.01410600  0.21695200  1
