data_image0
_chemical_formula_structural       Ba8Cr4O16
_chemical_formula_sum              "Ba8 Cr4 O16"
_cell_length_a       7.63211
_cell_length_b       5.79538
_cell_length_c       10.2924
_cell_angle_alpha    90
_cell_angle_beta     90
_cell_angle_gamma    90

_space_group_name_H-M_alt    "P 1"
_space_group_IT_number       1

loop_
  _space_group_symop_operation_xyz
  'x, y, z'

loop_
  _atom_site_type_symbol
  _atom_site_label
  _atom_site_symmetry_multiplicity
  _atom_site_fract_x
  _atom_site_fract_y
  _atom_site_fract_z
  _atom_site_occupancy
  Ba  Ba1       1.0  0.85500  0.23800  0.58100  1.0000
  Ba  Ba2       1.0  0.14500  0.73800  0.41900  1.0000
  Ba  Ba3       1.0  0.64500  0.73800  0.08140  1.0000
  Ba  Ba4       1.0  0.35500  0.23800  0.91900  1.0000
  Ba  Ba5       1.0  0.00928  0.23900  0.19100  1.0000
  Ba  Ba6       1.0  0.99100  0.73900  0.80900  1.0000
  Ba  Ba7       1.0  0.49100  0.73900  0.69100  1.0000
  Ba  Ba8       1.0  0.50900  0.23900  0.30900  1.0000
  Cr  Cr1       1.0  0.28100  0.23700  0.57900  1.0000
  Cr  Cr2       1.0  0.71900  0.73700  0.42100  1.0000
  Cr  Cr3       1.0  0.21900  0.73700  0.07910  1.0000
  Cr  Cr4       1.0  0.78100  0.23700  0.92100  1.0000
  O   O1        1.0  0.68500  0.98600  0.85200  1.0000
  O   O2        1.0  0.31500  0.48600  0.14800  1.0000
  O   O3        1.0  0.81500  0.48600  0.35200  1.0000
  O   O4        1.0  0.18500  0.98600  0.64800  1.0000
  O   O5        1.0  0.31200  0.98600  0.15200  1.0000
  O   O6        1.0  0.68800  0.48600  0.84800  1.0000
  O   O7        1.0  0.18800  0.48600  0.65200  1.0000
  O   O8        1.0  0.81200  0.98600  0.34800  1.0000
  O   O9        1.0  0.18600  0.24000  0.41800  1.0000
  O   O10       1.0  0.81400  0.74000  0.58200  1.0000
  O   O11       1.0  0.31400  0.74000  0.91800  1.0000
  O   O12       1.0  0.68600  0.24000  0.08190  1.0000
  O   O13       1.0  0.51400  0.23100  0.58800  1.0000
  O   O14       1.0  0.48600  0.73100  0.41200  1.0000
  O   O15       1.0  0.98600  0.73100  0.08790  1.0000
  O   O16       1.0  0.01370  0.23100  0.91200  1.0000
