# generated using pymatgen
data_AuSe
_symmetry_space_group_name_H-M   'P 1'
_cell_length_a   6.57338570
_cell_length_b   6.57338570
_cell_length_c   8.83547273
_cell_angle_alpha   78.98274013
_cell_angle_beta   78.98274013
_cell_angle_gamma   33.53336720
_symmetry_Int_Tables_number   1
_chemical_formula_structural   AuSe
_chemical_formula_sum   'Au4 Se4'
_cell_volume   206.65793663
_cell_formula_units_Z   4
loop_
 _symmetry_equiv_pos_site_id
 _symmetry_equiv_pos_as_xyz
  1  'x, y, z'
loop_
 _atom_site_type_symbol
 _atom_site_label
 _atom_site_symmetry_multiplicity
 _atom_site_fract_x
 _atom_site_fract_y
 _atom_site_fract_z
 _atom_site_occupancy
  Au  Au0  1  0.96845800  0.96845800  0.28726800  1
  Au  Au1  1  0.03154200  0.03154200  0.71273200  1
  Au  Au2  1  0.64916300  0.64916300  0.98298300  1
  Au  Au3  1  0.35083700  0.35083700  0.01701700  1
  Se  Se4  1  0.60426300  0.60426300  0.26770500  1
  Se  Se5  1  0.33319200  0.33319200  0.30080000  1
  Se  Se6  1  0.66680800  0.66680800  0.69920000  1
  Se  Se7  1  0.39573700  0.39573700  0.73229500  1
