# generated using pymatgen
data_HfOs2
_symmetry_space_group_name_H-M   'P 1'
_cell_length_a   5.21580644
_cell_length_b   5.21580644
_cell_length_c   8.56031400
_cell_angle_alpha   90.00000000
_cell_angle_beta   90.00000000
_cell_angle_gamma   120.00000552
_symmetry_Int_Tables_number   1
_chemical_formula_structural   HfOs2
_chemical_formula_sum   'Hf4 Os8'
_cell_volume   201.68018661
_cell_formula_units_Z   4
loop_
 _symmetry_equiv_pos_site_id
 _symmetry_equiv_pos_as_xyz
  1  'x, y, z'
loop_
 _atom_site_type_symbol
 _atom_site_label
 _atom_site_symmetry_multiplicity
 _atom_site_fract_x
 _atom_site_fract_y
 _atom_site_fract_z
 _atom_site_occupancy
  Hf  Hf0  1  0.33333300  0.66666700  0.43375100  1
  Hf  Hf1  1  0.66666700  0.33333300  0.56624900  1
  Hf  Hf2  1  0.66666700  0.33333300  0.93375100  1
  Hf  Hf3  1  0.33333300  0.66666700  0.06624900  1
  Os  Os4  1  0.00000000  0.00000000  0.50000000  1
  Os  Os5  1  0.00000000  0.00000000  0.00000000  1
  Os  Os6  1  0.82712600  0.17287400  0.25000000  1
  Os  Os7  1  0.82712600  0.65425200  0.25000000  1
  Os  Os8  1  0.34574800  0.17287400  0.25000000  1
  Os  Os9  1  0.17287400  0.82712600  0.75000000  1
  Os  Os10  1  0.17287400  0.34574800  0.75000000  1
  Os  Os11  1  0.65425200  0.82712600  0.75000000  1
