# generated using pymatgen
data_CdI2
_symmetry_space_group_name_H-M   'P 1'
_cell_length_a   4.33379786
_cell_length_b   4.33379786
_cell_length_c   45.35168900
_cell_angle_alpha   90.00000000
_cell_angle_beta   90.00000000
_cell_angle_gamma   119.99999785
_symmetry_Int_Tables_number   1
_chemical_formula_structural   CdI2
_chemical_formula_sum   'Cd6 I12'
_cell_volume   737.66878831
_cell_formula_units_Z   6
loop_
 _symmetry_equiv_pos_site_id
 _symmetry_equiv_pos_as_xyz
  1  'x, y, z'
loop_
 _atom_site_type_symbol
 _atom_site_label
 _atom_site_symmetry_multiplicity
 _atom_site_fract_x
 _atom_site_fract_y
 _atom_site_fract_z
 _atom_site_occupancy
  Cd  Cd0  1  0.33333300  0.66666700  0.54156200  1
  Cd  Cd1  1  0.33333300  0.66666700  0.37494800  1
  Cd  Cd2  1  0.00000000  0.00000000  0.70836100  1
  Cd  Cd3  1  0.66666700  0.33333300  0.04176400  1
  Cd  Cd4  1  0.00000000  0.00000000  0.20834800  1
  Cd  Cd5  1  0.00000000  0.00000000  0.87501600  1
  I  I6  1  0.33333300  0.66666700  0.07973600  1
  I  I7  1  0.00000000  0.00000000  0.57953400  1
  I  I8  1  0.66666700  0.33333300  0.83702200  1
  I  I9  1  0.33333300  0.66666700  0.91300600  1
  I  I10  1  0.66666700  0.33333300  0.33697800  1
  I  I11  1  0.33333300  0.66666700  0.74635300  1
  I  I12  1  0.00000000  0.00000000  0.41293500  1
  I  I13  1  0.00000000  0.00000000  0.00377200  1
  I  I14  1  0.66666700  0.33333300  0.67037800  1
  I  I15  1  0.66666700  0.33333300  0.50358300  1
  I  I16  1  0.33333300  0.66666700  0.24633500  1
  I  I17  1  0.66666700  0.33333300  0.17036800  1
