# generated using pymatgen
data_UBi2
_symmetry_space_group_name_H-M   'P 1'
_cell_length_a   4.48357600
_cell_length_b   4.48357600
_cell_length_c   9.01748500
_cell_angle_alpha   90.00000000
_cell_angle_beta   90.00000000
_cell_angle_gamma   90.00000000
_symmetry_Int_Tables_number   1
_chemical_formula_structural   UBi2
_chemical_formula_sum   'U2 Bi4'
_cell_volume   181.27357513
_cell_formula_units_Z   2
loop_
 _symmetry_equiv_pos_site_id
 _symmetry_equiv_pos_as_xyz
  1  'x, y, z'
loop_
 _atom_site_type_symbol
 _atom_site_label
 _atom_site_symmetry_multiplicity
 _atom_site_fract_x
 _atom_site_fract_y
 _atom_site_fract_z
 _atom_site_occupancy
  U  U0  1  0.50000000  0.00000000  0.71693500  1
  U  U1  1  0.00000000  0.50000000  0.28306500  1
  Bi  Bi2  1  0.50000000  0.50000000  0.00000000  1
  Bi  Bi3  1  0.00000000  0.50000000  0.64395900  1
  Bi  Bi4  1  0.00000000  0.00000000  0.00000000  1
  Bi  Bi5  1  0.50000000  0.00000000  0.35604100  1
