# generated using pymatgen
data_S
_symmetry_space_group_name_H-M   'P 1'
_cell_length_a   13.61825400
_cell_length_b   14.01928100
_cell_length_c   19.11073649
_cell_angle_alpha   71.22060293
_cell_angle_beta   90.00000000
_cell_angle_gamma   90.00000000
_symmetry_Int_Tables_number   1
_chemical_formula_structural   S
_chemical_formula_sum   S104
_cell_volume   3454.35388510
_cell_formula_units_Z   104
loop_
 _symmetry_equiv_pos_site_id
 _symmetry_equiv_pos_as_xyz
  1  'x, y, z'
loop_
 _atom_site_type_symbol
 _atom_site_label
 _atom_site_symmetry_multiplicity
 _atom_site_fract_x
 _atom_site_fract_y
 _atom_site_fract_z
 _atom_site_occupancy
  S  S0  1  0.19768100  0.35370000  0.26778400  1
  S  S1  1  0.55812200  0.59949500  0.72625500  1
  S  S2  1  0.33692800  0.29126700  0.88154100  1
  S  S3  1  0.32575400  0.95958000  0.76029400  1
  S  S4  1  0.70033400  0.22486200  0.37986400  1
  S  S5  1  0.55914300  0.73660400  0.73697200  1
  S  S6  1  0.35037500  0.79298600  0.10567500  1
  S  S7  1  0.65939100  0.92023000  0.86999800  1
  S  S8  1  0.39160700  0.75665000  0.01324300  1
  S  S9  1  0.78691900  0.46530100  0.47135800  1
  S  S10  1  0.95490800  0.62042900  0.90969500  1
  S  S11  1  0.20479100  0.46511200  0.75114200  1
  S  S12  1  0.36954700  0.90596100  0.55885700  1
  S  S13  1  0.17424600  0.95958000  0.26029400  1
  S  S14  1  0.99458300  0.66768400  0.99339100  1
  S  S15  1  0.04509200  0.37957100  0.09030500  1
  S  S16  1  0.40126800  0.07447300  0.78221600  1
  S  S17  1  0.96195600  0.72507200  0.34897700  1
  S  S18  1  0.29966600  0.77513800  0.62013600  1
  S  S19  1  0.86954700  0.09403900  0.94114300  1
  S  S20  1  0.05812200  0.40050500  0.77374500  1
  S  S21  1  0.05914300  0.26339600  0.76302800  1
  S  S22  1  0.82067100  0.00255200  0.26012000  1
  S  S23  1  0.45490800  0.37957100  0.59030500  1
  S  S24  1  0.32067100  0.99744800  0.23988000  1
  S  S25  1  0.89160700  0.24335000  0.48675700  1
  S  S26  1  0.53804400  0.72507200  0.84897700  1
  S  S27  1  0.67932900  0.00255200  0.76012000  1
  S  S28  1  0.84060900  0.92023000  0.36999800  1
  S  S29  1  0.94085700  0.73660400  0.23697200  1
  S  S30  1  0.30231900  0.35370000  0.76778400  1
  S  S31  1  0.40731500  0.89472300  0.45678000  1
  S  S32  1  0.54509200  0.62042900  0.40969500  1
  S  S33  1  0.19676000  0.68344500  0.86996600  1
  S  S34  1  0.10468200  0.05710000  0.39360800  1
  S  S35  1  0.22440700  0.54726100  0.41944000  1
  S  S36  1  0.90126800  0.92552700  0.71778400  1
  S  S37  1  0.91705800  0.39606800  0.45746600  1
  S  S38  1  0.33087000  0.23191100  0.11784500  1
  S  S39  1  0.82575400  0.04042000  0.73970600  1
  S  S40  1  0.14962500  0.79298600  0.60567500  1
  S  S41  1  0.07126700  0.65682200  0.82615400  1
  S  S42  1  0.20033400  0.77513800  0.12013600  1
  S  S43  1  0.67424600  0.04042000  0.23970600  1
  S  S44  1  0.69768100  0.64630000  0.23221600  1
  S  S45  1  0.71308100  0.46530100  0.97135800  1
  S  S46  1  0.60839300  0.24335000  0.98675700  1
  S  S47  1  0.46195600  0.27492800  0.15102300  1
  S  S48  1  0.03804400  0.27492800  0.65102300  1
  S  S49  1  0.92873300  0.34317800  0.17384600  1
  S  S50  1  0.69676000  0.31655500  0.63003400  1
  S  S51  1  0.16307200  0.29126700  0.38154100  1
  S  S52  1  0.16913000  0.23191100  0.61784500  1
  S  S53  1  0.15939100  0.07977000  0.63000200  1
  S  S54  1  0.09873200  0.07447300  0.28221600  1
  S  S55  1  0.85037500  0.20701400  0.39432500  1
  S  S56  1  0.50541700  0.66768400  0.49339100  1
  S  S57  1  0.96012000  0.82229800  0.96840300  1
  S  S58  1  0.79520900  0.53488800  0.24885800  1
  S  S59  1  0.60468200  0.94290000  0.10639200  1
  S  S60  1  0.57126700  0.34317800  0.67384600  1
  S  S61  1  0.28323000  0.14752700  0.91066800  1
  S  S62  1  0.77559300  0.45273900  0.58056000  1
  S  S63  1  0.66307200  0.70873300  0.11845900  1
  S  S64  1  0.59268500  0.10527700  0.54322000  1
  S  S65  1  0.44187800  0.40050500  0.27374500  1
  S  S66  1  0.83087000  0.76808900  0.38215500  1
  S  S67  1  0.21677000  0.14752700  0.41066800  1
  S  S68  1  0.94187800  0.59949500  0.22625500  1
  S  S69  1  0.72440700  0.45273900  0.08056000  1
  S  S70  1  0.71677000  0.85247300  0.08933200  1
  S  S71  1  0.00541700  0.33231600  0.00660900  1
  S  S72  1  0.46012000  0.17770200  0.53159700  1
  S  S73  1  0.28691900  0.53469900  0.02864200  1
  S  S74  1  0.03988000  0.17770200  0.03159700  1
  S  S75  1  0.44085700  0.26339600  0.26302800  1
  S  S76  1  0.21308100  0.53469900  0.52864200  1
  S  S77  1  0.41705800  0.60393200  0.04253400  1
  S  S78  1  0.42873300  0.65682200  0.32615400  1
  S  S79  1  0.80324000  0.31655500  0.13003400  1
  S  S80  1  0.09268500  0.89472300  0.95678000  1
  S  S81  1  0.64962500  0.20701400  0.89432500  1
  S  S82  1  0.10839300  0.75665000  0.51324300  1
  S  S83  1  0.30324000  0.68344500  0.36996600  1
  S  S84  1  0.63045300  0.09403900  0.44114300  1
  S  S85  1  0.80231900  0.64630000  0.73221600  1
  S  S86  1  0.34060900  0.07977000  0.13000200  1
  S  S87  1  0.53988000  0.82229800  0.46840300  1
  S  S88  1  0.29520900  0.46511200  0.25114200  1
  S  S89  1  0.27559300  0.54726100  0.91944000  1
  S  S90  1  0.13045300  0.90596100  0.05885700  1
  S  S91  1  0.90731500  0.10527700  0.04322000  1
  S  S92  1  0.17932900  0.99744800  0.73988000  1
  S  S93  1  0.83692800  0.70873300  0.61845900  1
  S  S94  1  0.78323000  0.85247300  0.58933200  1
  S  S95  1  0.89531800  0.94290000  0.60639200  1
  S  S96  1  0.66913000  0.76808900  0.88215500  1
  S  S97  1  0.70479100  0.53488800  0.74885800  1
  S  S98  1  0.39531800  0.05710000  0.89360800  1
  S  S99  1  0.58294200  0.39606800  0.95746600  1
  S  S100  1  0.59873200  0.92552700  0.21778400  1
  S  S101  1  0.79966600  0.22486200  0.87986400  1
  S  S102  1  0.08294200  0.60393200  0.54253400  1
  S  S103  1  0.49458300  0.33231600  0.50660900  1
