# generated using pymatgen
data_Cs3Mo5P7O24
_symmetry_space_group_name_H-M   'P 1'
_cell_length_a   12.54066211
_cell_length_b   12.54066211
_cell_length_c   9.60148300
_cell_angle_alpha   90.00000000
_cell_angle_beta   90.00000000
_cell_angle_gamma   120.00000058
_symmetry_Int_Tables_number   1
_chemical_formula_structural   Cs3Mo5P7O24
_chemical_formula_sum   'Cs6 Mo10 P14 O48'
_cell_volume   1307.70528716
_cell_formula_units_Z   2
loop_
 _symmetry_equiv_pos_site_id
 _symmetry_equiv_pos_as_xyz
  1  'x, y, z'
loop_
 _atom_site_type_symbol
 _atom_site_label
 _atom_site_symmetry_multiplicity
 _atom_site_fract_x
 _atom_site_fract_y
 _atom_site_fract_z
 _atom_site_occupancy
  Cs  Cs0  1  0.60585500  0.68734600  0.52585500  1
  Cs  Cs1  1  0.31265400  0.91850900  0.52585500  1
  Cs  Cs2  1  0.39414500  0.08149100  0.02585500  1
  Cs  Cs3  1  0.68734600  0.60585500  0.02585500  1
  Cs  Cs4  1  0.91850900  0.31265400  0.02585500  1
  Cs  Cs5  1  0.08149100  0.39414500  0.52585500  1
  Mo  Mo6  1  0.19384700  0.67755200  0.12144900  1
  Mo  Mo7  1  0.67755200  0.19384700  0.62144900  1
  Mo  Mo8  1  0.00000000  0.00000000  0.97326700  1
  Mo  Mo9  1  0.51629500  0.32244800  0.62144900  1
  Mo  Mo10  1  0.00000000  0.00000000  0.47326700  1
  Mo  Mo11  1  0.48370500  0.80615300  0.12144900  1
  Mo  Mo12  1  0.66666700  0.33333300  0.34907000  1
  Mo  Mo13  1  0.80615300  0.48370500  0.62144900  1
  Mo  Mo14  1  0.33333300  0.66666700  0.84907000  1
  Mo  Mo15  1  0.32244800  0.51629500  0.12144900  1
  P  P16  1  0.14905200  0.23059300  0.22697500  1
  P  P17  1  0.65282500  0.06828400  0.29639500  1
  P  P18  1  0.41545900  0.34717500  0.29639500  1
  P  P19  1  0.58454100  0.93171600  0.79639500  1
  P  P20  1  0.33333300  0.66666700  0.29962100  1
  P  P21  1  0.66666700  0.33333300  0.79962100  1
  P  P22  1  0.34717500  0.41545900  0.79639500  1
  P  P23  1  0.76940700  0.91845900  0.22697500  1
  P  P24  1  0.93171600  0.58454100  0.29639500  1
  P  P25  1  0.23059300  0.14905200  0.72697500  1
  P  P26  1  0.85094800  0.08154100  0.72697500  1
  P  P27  1  0.91845900  0.76940700  0.72697500  1
  P  P28  1  0.08154100  0.85094800  0.22697500  1
  P  P29  1  0.06828400  0.65282500  0.79639500  1
  O  O30  1  0.34267500  0.40803500  0.95604000  1
  O  O31  1  0.04453300  0.76025900  0.73626200  1
  O  O32  1  0.52775900  0.96625700  0.23859900  1
  O  O33  1  0.07355300  0.90903800  0.09271500  1
  O  O34  1  0.19022000  0.82568300  0.22261400  1
  O  O35  1  0.83548500  0.92644700  0.09271500  1
  O  O36  1  0.09096200  0.16451500  0.09271500  1
  O  O37  1  0.49083000  0.80668500  0.73387200  1
  O  O38  1  0.82568300  0.19022000  0.72261400  1
  O  O39  1  0.45870100  0.66485200  0.00047300  1
  O  O40  1  0.56150200  0.03374300  0.73859900  1
  O  O41  1  0.16451500  0.09096200  0.59271500  1
  O  O42  1  0.17431700  0.36453600  0.22261400  1
  O  O43  1  0.19331500  0.68414500  0.73387200  1
  O  O44  1  0.43849800  0.47224100  0.23859900  1
  O  O45  1  0.80668500  0.49083000  0.23387200  1
  O  O46  1  0.79384900  0.33514800  0.50047300  1
  O  O47  1  0.50917000  0.31585500  0.23387200  1
  O  O48  1  0.16916800  0.07598700  0.85776500  1
  O  O49  1  0.90903800  0.07355300  0.59271500  1
  O  O50  1  0.68414500  0.19331500  0.23387200  1
  O  O51  1  0.59196500  0.93464000  0.95604000  1
  O  O52  1  0.36453600  0.17431700  0.72261400  1
  O  O53  1  0.95546700  0.71572600  0.23626200  1
  O  O54  1  0.96625700  0.52775900  0.73859900  1
  O  O55  1  0.33514800  0.79384900  0.00047300  1
  O  O56  1  0.76025900  0.04453300  0.23626200  1
  O  O57  1  0.03374300  0.56150200  0.23859900  1
  O  O58  1  0.66485200  0.45870100  0.50047300  1
  O  O59  1  0.92644700  0.83548500  0.59271500  1
  O  O60  1  0.93464000  0.59196500  0.45604000  1
  O  O61  1  0.83083200  0.90681900  0.35776500  1
  O  O62  1  0.23974100  0.28427400  0.73626200  1
  O  O63  1  0.65732500  0.06536000  0.45604000  1
  O  O64  1  0.92401300  0.09318100  0.85776500  1
  O  O65  1  0.90681900  0.83083200  0.85776500  1
  O  O66  1  0.80978000  0.63546400  0.72261400  1
  O  O67  1  0.63546400  0.80978000  0.22261400  1
  O  O68  1  0.31585500  0.50917000  0.73387200  1
  O  O69  1  0.47224100  0.43849800  0.73859900  1
  O  O70  1  0.07598700  0.16916800  0.35776500  1
  O  O71  1  0.09318100  0.92401300  0.35776500  1
  O  O72  1  0.06536000  0.65732500  0.95604000  1
  O  O73  1  0.20615100  0.54129900  0.00047300  1
  O  O74  1  0.54129900  0.20615100  0.50047300  1
  O  O75  1  0.28427400  0.23974100  0.23626200  1
  O  O76  1  0.40803500  0.34267500  0.45604000  1
  O  O77  1  0.71572600  0.95546700  0.73626200  1
