# generated using pymatgen
data_K2V8O21
_symmetry_space_group_name_H-M   'P 1'
_cell_length_a   7.88777716
_cell_length_b   7.88777716
_cell_length_c   15.09031420
_cell_angle_alpha   88.94227394
_cell_angle_beta   88.94227394
_cell_angle_gamma   26.61559920
_symmetry_Int_Tables_number   1
_chemical_formula_structural   K2V8O21
_chemical_formula_sum   'K2 V8 O21'
_cell_volume   420.54245634
_cell_formula_units_Z   1
loop_
 _symmetry_equiv_pos_site_id
 _symmetry_equiv_pos_as_xyz
  1  'x, y, z'
loop_
 _atom_site_type_symbol
 _atom_site_label
 _atom_site_symmetry_multiplicity
 _atom_site_fract_x
 _atom_site_fract_y
 _atom_site_fract_z
 _atom_site_occupancy
  K  K0  1  0.52639700  0.52639700  0.68811700  1
  K  K1  1  0.47360300  0.47360300  0.31188300  1
  V  V2  1  0.68844100  0.68844100  0.92906600  1
  V  V3  1  0.09107200  0.09107200  0.07455400  1
  V  V4  1  0.83058400  0.83058400  0.52118700  1
  V  V5  1  0.18983100  0.18983100  0.26967800  1
  V  V6  1  0.90892800  0.90892800  0.92544600  1
  V  V7  1  0.16941600  0.16941600  0.47881300  1
  V  V8  1  0.31155900  0.31155900  0.07093400  1
  V  V9  1  0.81016900  0.81016900  0.73032200  1
  O  O10  1  0.78737100  0.78737100  0.86010100  1
  O  O11  1  0.29124100  0.29124100  0.52644800  1
  O  O12  1  0.38302000  0.38302000  0.95260700  1
  O  O13  1  0.95470900  0.95470900  0.82586300  1
  O  O14  1  0.04529100  0.04529100  0.17413700  1
  O  O15  1  0.88499300  0.88499300  0.62335100  1
  O  O16  1  0.28688100  0.28688100  0.31102400  1
  O  O17  1  0.33636600  0.33636600  0.73954100  1
  O  O18  1  0.90610800  0.90610800  0.44317800  1
  O  O19  1  0.19421300  0.19421300  0.96657800  1
  O  O20  1  0.38691800  0.38691800  0.14439800  1
  O  O21  1  0.11500700  0.11500700  0.37664900  1
  O  O22  1  0.70875900  0.70875900  0.47355200  1
  O  O23  1  0.71311900  0.71311900  0.68897600  1
  O  O24  1  0.00000000  0.00000000  0.00000000  1
  O  O25  1  0.61698000  0.61698000  0.04739300  1
  O  O26  1  0.21262900  0.21262900  0.13989900  1
  O  O27  1  0.66363400  0.66363400  0.26045900  1
  O  O28  1  0.09389200  0.09389200  0.55682200  1
  O  O29  1  0.61308200  0.61308200  0.85560200  1
  O  O30  1  0.80578700  0.80578700  0.03342200  1
