# generated using pymatgen
data_Bi3Rh
_symmetry_space_group_name_H-M   'P 1'
_cell_length_a   4.33119200
_cell_length_b   8.96464400
_cell_length_c   11.54035700
_cell_angle_alpha   90.00000000
_cell_angle_beta   90.00000000
_cell_angle_gamma   90.00000000
_symmetry_Int_Tables_number   1
_chemical_formula_structural   Bi3Rh
_chemical_formula_sum   'Bi12 Rh4'
_cell_volume   448.08430055
_cell_formula_units_Z   4
loop_
 _symmetry_equiv_pos_site_id
 _symmetry_equiv_pos_as_xyz
  1  'x, y, z'
loop_
 _atom_site_type_symbol
 _atom_site_label
 _atom_site_symmetry_multiplicity
 _atom_site_fract_x
 _atom_site_fract_y
 _atom_site_fract_z
 _atom_site_occupancy
  Bi  Bi0  1  0.25000000  0.89957500  0.08951100  1
  Bi  Bi1  1  0.25000000  0.30292000  0.11342900  1
  Bi  Bi2  1  0.75000000  0.59696800  0.17710100  1
  Bi  Bi3  1  0.75000000  0.09696800  0.32289900  1
  Bi  Bi4  1  0.75000000  0.60042500  0.58951100  1
  Bi  Bi5  1  0.25000000  0.90303200  0.67710100  1
  Bi  Bi6  1  0.25000000  0.80292000  0.38657100  1
  Bi  Bi7  1  0.25000000  0.39957500  0.41048900  1
  Bi  Bi8  1  0.25000000  0.40303200  0.82289900  1
  Bi  Bi9  1  0.75000000  0.19708000  0.61342900  1
  Bi  Bi10  1  0.75000000  0.10042500  0.91048900  1
  Bi  Bi11  1  0.75000000  0.69708000  0.88657100  1
  Rh  Rh12  1  0.25000000  0.10196200  0.48036200  1
  Rh  Rh13  1  0.25000000  0.60196200  0.01963800  1
  Rh  Rh14  1  0.75000000  0.39803800  0.98036200  1
  Rh  Rh15  1  0.75000000  0.89803800  0.51963800  1
