# generated using pymatgen
data_Pu
_symmetry_space_group_name_H-M   'P 1'
_cell_length_a   6.11924918
_cell_length_b   6.11924918
_cell_length_c   5.18275600
_cell_angle_alpha   90.00000000
_cell_angle_beta   90.00000000
_cell_angle_gamma   119.99999109
_symmetry_Int_Tables_number   1
_chemical_formula_structural   Pu
_chemical_formula_sum   Pu8
_cell_volume   168.06903628
_cell_formula_units_Z   8
loop_
 _symmetry_equiv_pos_site_id
 _symmetry_equiv_pos_as_xyz
  1  'x, y, z'
loop_
 _atom_site_type_symbol
 _atom_site_label
 _atom_site_symmetry_multiplicity
 _atom_site_fract_x
 _atom_site_fract_y
 _atom_site_fract_z
 _atom_site_occupancy
  Pu  Pu0  1  0.73735800  0.65725600  0.75000000  1
  Pu  Pu1  1  0.34274400  0.08010300  0.75000000  1
  Pu  Pu2  1  0.08010300  0.73735800  0.25000000  1
  Pu  Pu3  1  0.65725600  0.91989700  0.25000000  1
  Pu  Pu4  1  0.91989700  0.26264200  0.75000000  1
  Pu  Pu5  1  0.66666700  0.33333300  0.25000000  1
  Pu  Pu6  1  0.26264200  0.34274400  0.25000000  1
  Pu  Pu7  1  0.33333300  0.66666700  0.75000000  1
