# generated using pymatgen
data_Tl10Hg3Cl16
_symmetry_space_group_name_H-M   'P 1'
_cell_length_a   13.66393357
_cell_length_b   13.66393357
_cell_length_c   13.66393357
_cell_angle_alpha   143.10287554
_cell_angle_beta   143.10287554
_cell_angle_gamma   53.17094460
_symmetry_Int_Tables_number   1
_chemical_formula_structural   Tl10Hg3Cl16
_chemical_formula_sum   'Tl10 Hg3 Cl16'
_cell_volume   913.84736494
_cell_formula_units_Z   1
loop_
 _symmetry_equiv_pos_site_id
 _symmetry_equiv_pos_as_xyz
  1  'x, y, z'
loop_
 _atom_site_type_symbol
 _atom_site_label
 _atom_site_symmetry_multiplicity
 _atom_site_fract_x
 _atom_site_fract_y
 _atom_site_fract_z
 _atom_site_occupancy
  Tl  Tl0  1  0.91634500  0.45243200  0.19020400  1
  Tl  Tl1  1  0.45243200  0.26222800  0.53608700  1
  Tl  Tl2  1  0.73777200  0.27385900  0.19020400  1
  Tl  Tl3  1  0.73695000  0.73695000  0.00000000  1
  Tl  Tl4  1  0.08365500  0.54756800  0.80979600  1
  Tl  Tl5  1  0.54756800  0.73777200  0.46391300  1
  Tl  Tl6  1  0.27385900  0.08365500  0.53608700  1
  Tl  Tl7  1  0.72614100  0.91634500  0.46391300  1
  Tl  Tl8  1  0.26305000  0.26305000  0.00000000  1
  Tl  Tl9  1  0.26222800  0.72614100  0.80979600  1
  Hg  Hg10  1  0.00000000  0.00000000  0.00000000  1
  Hg  Hg11  1  0.25000000  0.75000000  0.50000000  1
  Hg  Hg12  1  0.75000000  0.25000000  0.50000000  1
  Cl  Cl13  1  0.39423900  0.39423900  0.00000000  1
  Cl  Cl14  1  0.66422200  0.48907800  0.52396200  1
  Cl  Cl15  1  0.32648500  0.84877700  0.17526100  1
  Cl  Cl16  1  0.03488300  0.85974000  0.52396200  1
  Cl  Cl17  1  0.48907800  0.96511700  0.82485600  1
  Cl  Cl18  1  0.14026000  0.66422200  0.17514400  1
  Cl  Cl19  1  0.85974000  0.33577800  0.82485600  1
  Cl  Cl20  1  0.51092200  0.03488300  0.17514400  1
  Cl  Cl21  1  0.33577800  0.51092200  0.47603800  1
  Cl  Cl22  1  0.09706200  0.09706200  0.00000000  1
  Cl  Cl23  1  0.84877700  0.67351500  0.52229200  1
  Cl  Cl24  1  0.67351500  0.15122300  0.82473900  1
  Cl  Cl25  1  0.96511700  0.14026000  0.47603800  1
  Cl  Cl26  1  0.60576100  0.60576100  0.00000000  1
  Cl  Cl27  1  0.15122300  0.32648500  0.47770800  1
  Cl  Cl28  1  0.90293800  0.90293800  0.00000000  1
