# generated using pymatgen
data_CdI2
_symmetry_space_group_name_H-M   'P 1'
_cell_length_a   4.33286015
_cell_length_b   4.33286015
_cell_length_c   66.71659400
_cell_angle_alpha   90.00000000
_cell_angle_beta   90.00000000
_cell_angle_gamma   120.00000223
_symmetry_Int_Tables_number   1
_chemical_formula_structural   CdI2
_chemical_formula_sum   'Cd9 I18'
_cell_volume   1084.71046790
_cell_formula_units_Z   9
loop_
 _symmetry_equiv_pos_site_id
 _symmetry_equiv_pos_as_xyz
  1  'x, y, z'
loop_
 _atom_site_type_symbol
 _atom_site_label
 _atom_site_symmetry_multiplicity
 _atom_site_fract_x
 _atom_site_fract_y
 _atom_site_fract_z
 _atom_site_occupancy
  Cd  Cd0  1  0.00000000  0.00000000  0.58331400  1
  Cd  Cd1  1  0.00000000  0.00000000  0.36109200  1
  Cd  Cd2  1  0.33333300  0.66666700  0.47223400  1
  Cd  Cd3  1  0.33333300  0.66666700  0.91664400  1
  Cd  Cd4  1  0.00000000  0.00000000  0.02779000  1
  Cd  Cd5  1  0.33333300  0.66666700  0.13889600  1
  Cd  Cd6  1  0.00000000  0.00000000  0.69445700  1
  Cd  Cd7  1  0.33333300  0.66666700  0.80555900  1
  Cd  Cd8  1  0.00000000  0.00000000  0.25000700  1
  I  I9  1  0.33333300  0.66666700  0.55744900  1
  I  I10  1  0.66666700  0.33333300  0.72033700  1
  I  I11  1  0.33333300  0.66666700  0.22415100  1
  I  I12  1  0.66666700  0.33333300  0.27588400  1
  I  I13  1  0.33333300  0.66666700  0.66858700  1
  I  I14  1  0.66666700  0.33333300  0.05366300  1
  I  I15  1  0.66666700  0.33333300  0.60918700  1
  I  I16  1  0.00000000  0.00000000  0.89078600  1
  I  I17  1  0.66666700  0.33333300  0.94250300  1
  I  I18  1  0.00000000  0.00000000  0.11304200  1
  I  I19  1  0.33333300  0.66666700  0.00193600  1
  I  I20  1  0.00000000  0.00000000  0.44635300  1
  I  I21  1  0.66666700  0.33333300  0.16474500  1
  I  I22  1  0.00000000  0.00000000  0.77966800  1
  I  I23  1  0.66666700  0.33333300  0.38695700  1
  I  I24  1  0.33333300  0.66666700  0.33520600  1
  I  I25  1  0.66666700  0.33333300  0.83144200  1
  I  I26  1  0.66666700  0.33333300  0.49811100  1
