# generated using pymatgen
data_CdI2
_symmetry_space_group_name_H-M   'P 1'
_cell_length_a   4.33183598
_cell_length_b   4.33183598
_cell_length_c   74.39011900
_cell_angle_alpha   90.00000000
_cell_angle_beta   90.00000000
_cell_angle_gamma   119.99999972
_symmetry_Int_Tables_number   1
_chemical_formula_structural   CdI2
_chemical_formula_sum   'Cd10 I20'
_cell_volume   1208.89865701
_cell_formula_units_Z   10
loop_
 _symmetry_equiv_pos_site_id
 _symmetry_equiv_pos_as_xyz
  1  'x, y, z'
loop_
 _atom_site_type_symbol
 _atom_site_label
 _atom_site_symmetry_multiplicity
 _atom_site_fract_x
 _atom_site_fract_y
 _atom_site_fract_z
 _atom_site_occupancy
  Cd  Cd0  1  0.00000000  0.00000000  0.72501600  1
  Cd  Cd1  1  0.00000000  0.00000000  0.92498400  1
  Cd  Cd2  1  0.66666700  0.33333300  0.42501000  1
  Cd  Cd3  1  0.66666700  0.33333300  0.02500700  1
  Cd  Cd4  1  0.00000000  0.00000000  0.22501600  1
  Cd  Cd5  1  0.00000000  0.00000000  0.32499500  1
  Cd  Cd6  1  0.00000000  0.00000000  0.52498100  1
  Cd  Cd7  1  0.00000000  0.00000000  0.12499700  1
  Cd  Cd8  1  0.00000000  0.00000000  0.82499800  1
  Cd  Cd9  1  0.00000000  0.00000000  0.62498900  1
  I  I10  1  0.00000000  0.00000000  0.40181000  1
  I  I11  1  0.33333300  0.66666700  0.44821100  1
  I  I12  1  0.33333300  0.66666700  0.34820200  1
  I  I13  1  0.66666700  0.33333300  0.10178900  1
  I  I14  1  0.66666700  0.33333300  0.90177700  1
  I  I15  1  0.33333300  0.66666700  0.94818500  1
  I  I16  1  0.66666700  0.33333300  0.70181300  1
  I  I17  1  0.66666700  0.33333300  0.80179500  1
  I  I18  1  0.33333300  0.66666700  0.04821200  1
  I  I19  1  0.66666700  0.33333300  0.30179200  1
  I  I20  1  0.00000000  0.00000000  0.00180500  1
  I  I21  1  0.33333300  0.66666700  0.54818000  1
  I  I22  1  0.66666700  0.33333300  0.60177700  1
  I  I23  1  0.33333300  0.66666700  0.14820700  1
  I  I24  1  0.33333300  0.66666700  0.24822400  1
  I  I25  1  0.66666700  0.33333300  0.50178200  1
  I  I26  1  0.33333300  0.66666700  0.84820600  1
  I  I27  1  0.33333300  0.66666700  0.64820200  1
  I  I28  1  0.66666700  0.33333300  0.20181400  1
  I  I29  1  0.33333300  0.66666700  0.74822300  1
