# generated using pymatgen
data_VSnH9(CO)3
_symmetry_space_group_name_H-M   'P 1'
_cell_length_a   11.70548100
_cell_length_b   11.43066800
_cell_length_c   13.66133301
_cell_angle_alpha   66.37151754
_cell_angle_beta   90.00000000
_cell_angle_gamma   90.00000000
_symmetry_Int_Tables_number   1
_chemical_formula_structural   VSnH9(CO)3
_chemical_formula_sum   'V8 Sn8 H72 C24 O24'
_cell_volume   1674.66130294
_cell_formula_units_Z   8
loop_
 _symmetry_equiv_pos_site_id
 _symmetry_equiv_pos_as_xyz
  1  'x, y, z'
loop_
 _atom_site_type_symbol
 _atom_site_label
 _atom_site_symmetry_multiplicity
 _atom_site_fract_x
 _atom_site_fract_y
 _atom_site_fract_z
 _atom_site_occupancy
  V  V0  1  0.76640000  0.73198300  0.81733800  1
  V  V1  1  0.29122000  0.94732200  0.33356200  1
  V  V2  1  0.20878000  0.44732200  0.33356200  1
  V  V3  1  0.23360000  0.26801700  0.18266200  1
  V  V4  1  0.73360000  0.23198300  0.81733800  1
  V  V5  1  0.26640000  0.76801700  0.18266200  1
  V  V6  1  0.70878000  0.05267800  0.66643800  1
  V  V7  1  0.79122000  0.55267800  0.66643800  1
  Sn  Sn8  1  0.53210000  0.74528000  0.02148600  1
  Sn  Sn9  1  0.42781500  0.21198900  0.54085000  1
  Sn  Sn10  1  0.46790000  0.25472000  0.97851400  1
  Sn  Sn11  1  0.03210000  0.75472000  0.97851400  1
  Sn  Sn12  1  0.96790000  0.24528000  0.02148600  1
  Sn  Sn13  1  0.92781500  0.28801100  0.45915000  1
  Sn  Sn14  1  0.07218500  0.71198900  0.54085000  1
  Sn  Sn15  1  0.57218500  0.78801100  0.45915000  1
  H  H16  1  0.39671500  0.77300100  0.59415800  1
  H  H17  1  0.21617700  0.11234100  0.60288500  1
  H  H18  1  0.48051100  0.16111700  0.36842500  1
  H  H19  1  0.56796700  0.07697700  0.15480600  1
  H  H20  1  0.44298900  0.77610500  0.82880200  1
  H  H21  1  0.79352200  0.48732500  0.44671600  1
  H  H22  1  0.70647800  0.98732500  0.44671600  1
  H  H23  1  0.82112700  0.49735600  0.31465800  1
  H  H24  1  0.91053300  0.19158200  0.30736800  1
  H  H25  1  0.20160000  0.57822300  0.01744400  1
  H  H26  1  0.78382300  0.88765900  0.39711500  1
  H  H27  1  0.98051100  0.33888300  0.63157500  1
  H  H28  1  0.06796700  0.42302300  0.84519400  1
  H  H29  1  0.06245200  0.93574800  0.56585500  1
  H  H30  1  0.48952600  0.32986700  0.33178600  1
  H  H31  1  0.55211800  0.33463100  0.63947600  1
  H  H32  1  0.70160000  0.92177700  0.98255600  1
  H  H33  1  0.20647800  0.51267500  0.55328400  1
  H  H34  1  0.44788200  0.66536900  0.36052400  1
  H  H35  1  0.17887300  0.50264400  0.68534200  1
  H  H36  1  0.41053300  0.30841800  0.69263200  1
  H  H37  1  0.32112700  0.00264400  0.68534200  1
  H  H38  1  0.33195900  0.79751200  0.91113000  1
  H  H39  1  0.93754800  0.06425200  0.43414500  1
  H  H40  1  0.89784800  0.02973600  0.18662000  1
  H  H41  1  0.66804100  0.20248800  0.08887000  1
  H  H42  1  0.80413400  0.32534100  0.12294800  1
  H  H43  1  0.30413400  0.17465900  0.87705200  1
  H  H44  1  0.01047400  0.82986700  0.33178600  1
  H  H45  1  0.95529100  0.98776800  0.84205400  1
  H  H46  1  0.93376100  0.99147600  0.07563300  1
  H  H47  1  0.94788200  0.83463100  0.63947600  1
  H  H48  1  0.39784800  0.47026400  0.81338000  1
  H  H49  1  0.71617700  0.38765900  0.39711500  1
  H  H50  1  0.89671500  0.72699900  0.40584200  1
  H  H51  1  0.10328500  0.27300100  0.59415800  1
  H  H52  1  0.43203300  0.92302300  0.84519400  1
  H  H53  1  0.06623900  0.00852400  0.92436700  1
  H  H54  1  0.51047400  0.67013300  0.66821400  1
  H  H55  1  0.29352200  0.01267500  0.55328400  1
  H  H56  1  0.94298900  0.72389500  0.17119800  1
  H  H57  1  0.04470900  0.01223200  0.15794600  1
  H  H58  1  0.79840000  0.42177700  0.98255600  1
  H  H59  1  0.56623900  0.49147600  0.07563300  1
  H  H60  1  0.56245200  0.56425200  0.43414500  1
  H  H61  1  0.60215200  0.52973600  0.18662000  1
  H  H62  1  0.93203300  0.57697700  0.15480600  1
  H  H63  1  0.16804100  0.29751200  0.91113000  1
  H  H64  1  0.10215200  0.97026400  0.81338000  1
  H  H65  1  0.40603100  0.04992300  0.93657100  1
  H  H66  1  0.28382300  0.61234100  0.60288500  1
  H  H67  1  0.45529100  0.51223200  0.15794600  1
  H  H68  1  0.90603100  0.45007700  0.06342900  1
  H  H69  1  0.01948900  0.66111700  0.36842500  1
  H  H70  1  0.59396900  0.95007700  0.06342900  1
  H  H71  1  0.43376100  0.50852400  0.92436700  1
  H  H72  1  0.69586600  0.82534100  0.12294800  1
  H  H73  1  0.09396900  0.54992300  0.93657100  1
  H  H74  1  0.98952600  0.17013300  0.66821400  1
  H  H75  1  0.05211800  0.16536900  0.36052400  1
  H  H76  1  0.55701100  0.22389500  0.17119800  1
  H  H77  1  0.43754800  0.43574800  0.56585500  1
  H  H78  1  0.83195900  0.70248800  0.08887000  1
  H  H79  1  0.51948900  0.83888300  0.63157500  1
  H  H80  1  0.54470900  0.48776800  0.84205400  1
  H  H81  1  0.58946700  0.69158200  0.30736800  1
  H  H82  1  0.19586600  0.67465900  0.87705200  1
  H  H83  1  0.60328500  0.22699900  0.40584200  1
  H  H84  1  0.05701100  0.27610500  0.82880200  1
  H  H85  1  0.67887300  0.99735600  0.31465800  1
  H  H86  1  0.08946700  0.80841800  0.69263200  1
  H  H87  1  0.29840000  0.07822300  0.01744400  1
  C  C88  1  0.96032000  0.04475700  0.12287000  1
  C  C89  1  0.51063900  0.23581300  0.39338800  1
  C  C90  1  0.79875600  0.43300900  0.39648100  1
  C  C91  1  0.29875600  0.06699100  0.60351900  1
  C  C92  1  0.70124400  0.93300900  0.39648100  1
  C  C93  1  0.46032000  0.45524300  0.87713000  1
  C  C94  1  0.20124400  0.56699100  0.60351900  1
  C  C95  1  0.53968000  0.54475700  0.12287000  1
  C  C96  1  0.64474700  0.87659600  0.05122500  1
  C  C97  1  0.98936100  0.73581300  0.39338800  1
  C  C98  1  0.42069500  0.81930000  0.88483800  1
  C  C99  1  0.03968000  0.95524300  0.87713000  1
  C  C100  1  0.03867400  0.83836900  0.61922300  1
  C  C101  1  0.48936100  0.76418700  0.60661200  1
  C  C102  1  0.07930500  0.31930000  0.88483800  1
  C  C103  1  0.92069500  0.68070000  0.11516200  1
  C  C104  1  0.46132600  0.33836900  0.61922300  1
  C  C105  1  0.35525300  0.12340400  0.94877500  1
  C  C106  1  0.85525300  0.37659600  0.05122500  1
  C  C107  1  0.57930500  0.18070000  0.11516200  1
  C  C108  1  0.14474700  0.62340400  0.94877500  1
  C  C109  1  0.01063900  0.26418700  0.60661200  1
  C  C110  1  0.96132600  0.16163100  0.38077700  1
  C  C111  1  0.53867400  0.66163100  0.38077700  1
  O  O112  1  0.66873800  0.71192600  0.91230200  1
  O  O113  1  0.21753800  0.85857400  0.44344500  1
  O  O114  1  0.28246200  0.35857400  0.44344500  1
  O  O115  1  0.78246200  0.14142600  0.55655500  1
  O  O116  1  0.74741300  0.10355200  0.77101200  1
  O  O117  1  0.75258700  0.60355200  0.77101200  1
  O  O118  1  0.16873800  0.78807400  0.08769800  1
  O  O119  1  0.93269600  0.57572000  0.64022200  1
  O  O120  1  0.06730400  0.42428000  0.35977800  1
  O  O121  1  0.39785200  0.77116000  0.13147700  1
  O  O122  1  0.89785200  0.72884000  0.86852300  1
  O  O123  1  0.43269600  0.92428000  0.35977800  1
  O  O124  1  0.25258700  0.89644800  0.22898800  1
  O  O125  1  0.83126200  0.21192600  0.91230200  1
  O  O126  1  0.33126200  0.28807400  0.08769800  1
  O  O127  1  0.56730400  0.07572000  0.64022200  1
  O  O128  1  0.25529100  0.11564200  0.29271900  1
  O  O129  1  0.24470900  0.61564200  0.29271900  1
  O  O130  1  0.10214800  0.27116000  0.13147700  1
  O  O131  1  0.71753800  0.64142600  0.55655500  1
  O  O132  1  0.74470900  0.88435800  0.70728100  1
  O  O133  1  0.24741300  0.39644800  0.22898800  1
  O  O134  1  0.60214800  0.22884000  0.86852300  1
  O  O135  1  0.75529100  0.38435800  0.70728100  1
