# generated using pymatgen
data_SiO2
_symmetry_space_group_name_H-M   'P 1'
_cell_length_a   8.64466900
_cell_length_b   8.64466900
_cell_length_c   14.03461300
_cell_angle_alpha   90.00000000
_cell_angle_beta   90.00000000
_cell_angle_gamma   90.00000000
_symmetry_Int_Tables_number   1
_chemical_formula_structural   SiO2
_chemical_formula_sum   'Si20 O40'
_cell_volume   1048.81086962
_cell_formula_units_Z   20
loop_
 _symmetry_equiv_pos_site_id
 _symmetry_equiv_pos_as_xyz
  1  'x, y, z'
loop_
 _atom_site_type_symbol
 _atom_site_label
 _atom_site_symmetry_multiplicity
 _atom_site_fract_x
 _atom_site_fract_y
 _atom_site_fract_z
 _atom_site_occupancy
  Si  Si0  1  0.25207100  0.43010700  0.11027900  1
  Si  Si1  1  0.56989300  0.25207100  0.11027900  1
  Si  Si2  1  0.43010700  0.74792900  0.11027900  1
  Si  Si3  1  0.25207100  0.56989300  0.38972100  1
  Si  Si4  1  0.74792900  0.43010700  0.38972100  1
  Si  Si5  1  0.74792900  0.56989300  0.11027900  1
  Si  Si6  1  0.43010700  0.25207100  0.38972100  1
  Si  Si7  1  0.56989300  0.74792900  0.38972100  1
  Si  Si8  1  0.74792900  0.56989300  0.88972100  1
  Si  Si9  1  0.43010700  0.74792900  0.88972100  1
  Si  Si10  1  0.56989300  0.25207100  0.88972100  1
  Si  Si11  1  0.74792900  0.43010700  0.61027900  1
  Si  Si12  1  0.25207100  0.56989300  0.61027900  1
  Si  Si13  1  0.25207100  0.43010700  0.88972100  1
  Si  Si14  1  0.56989300  0.74792900  0.61027900  1
  Si  Si15  1  0.43010700  0.25207100  0.61027900  1
  Si  Si16  1  0.00000000  0.50000000  0.25000000  1
  Si  Si17  1  0.50000000  0.00000000  0.25000000  1
  Si  Si18  1  0.00000000  0.50000000  0.75000000  1
  Si  Si19  1  0.50000000  0.00000000  0.75000000  1
  O  O20  1  0.10819600  0.60812500  0.31880100  1
  O  O21  1  0.39187500  0.10819600  0.31880100  1
  O  O22  1  0.60812500  0.89180400  0.31880100  1
  O  O23  1  0.10819600  0.39187500  0.18119900  1
  O  O24  1  0.89180400  0.60812500  0.18119900  1
  O  O25  1  0.89180400  0.39187500  0.31880100  1
  O  O26  1  0.60812500  0.10819600  0.18119900  1
  O  O27  1  0.39187500  0.89180400  0.18119900  1
  O  O28  1  0.89180400  0.39187500  0.68119900  1
  O  O29  1  0.60812500  0.89180400  0.68119900  1
  O  O30  1  0.39187500  0.10819600  0.68119900  1
  O  O31  1  0.89180400  0.60812500  0.81880100  1
  O  O32  1  0.10819600  0.39187500  0.81880100  1
  O  O33  1  0.10819600  0.60812500  0.68119900  1
  O  O34  1  0.39187500  0.89180400  0.81880100  1
  O  O35  1  0.60812500  0.10819600  0.81880100  1
  O  O36  1  0.19558100  0.41273100  0.00000000  1
  O  O37  1  0.58726900  0.19558100  0.00000000  1
  O  O38  1  0.41273100  0.80441900  0.00000000  1
  O  O39  1  0.19558100  0.58726900  0.50000000  1
  O  O40  1  0.80441900  0.41273100  0.50000000  1
  O  O41  1  0.80441900  0.58726900  0.00000000  1
  O  O42  1  0.41273100  0.19558100  0.50000000  1
  O  O43  1  0.58726900  0.80441900  0.50000000  1
  O  O44  1  0.39312200  0.31001700  0.13079500  1
  O  O45  1  0.68998300  0.39312200  0.13079500  1
  O  O46  1  0.31001700  0.60687800  0.13079500  1
  O  O47  1  0.39312200  0.68998300  0.36920500  1
  O  O48  1  0.60687800  0.31001700  0.36920500  1
  O  O49  1  0.60687800  0.68998300  0.13079500  1
  O  O50  1  0.31001700  0.39312200  0.36920500  1
  O  O51  1  0.68998300  0.60687800  0.36920500  1
  O  O52  1  0.60687800  0.68998300  0.86920500  1
  O  O53  1  0.31001700  0.60687800  0.86920500  1
  O  O54  1  0.68998300  0.39312200  0.86920500  1
  O  O55  1  0.60687800  0.31001700  0.63079500  1
  O  O56  1  0.39312200  0.68998300  0.63079500  1
  O  O57  1  0.39312200  0.31001700  0.86920500  1
  O  O58  1  0.68998300  0.60687800  0.63079500  1
  O  O59  1  0.31001700  0.39312200  0.63079500  1
