# generated using pymatgen
data_HC2
_symmetry_space_group_name_H-M   'P 1'
_cell_length_a   4.76227100
_cell_length_b   10.22836600
_cell_length_c   16.35924354
_cell_angle_alpha   68.90081635
_cell_angle_beta   90.00000000
_cell_angle_gamma   90.00000000
_symmetry_Int_Tables_number   1
_chemical_formula_structural   HC2
_chemical_formula_sum   'H24 C48'
_cell_volume   743.44010510
_cell_formula_units_Z   24
loop_
 _symmetry_equiv_pos_site_id
 _symmetry_equiv_pos_as_xyz
  1  'x, y, z'
loop_
 _atom_site_type_symbol
 _atom_site_label
 _atom_site_symmetry_multiplicity
 _atom_site_fract_x
 _atom_site_fract_y
 _atom_site_fract_z
 _atom_site_occupancy
  H  H0  1  0.82238000  0.93212900  0.72829300  1
  H  H1  1  0.53368800  0.69197600  0.24157000  1
  H  H2  1  0.13070100  0.80957500  0.34285400  1
  H  H3  1  0.03368800  0.30802400  0.25843000  1
  H  H4  1  0.40964000  0.49805100  0.41561600  1
  H  H5  1  0.17762000  0.06787100  0.27170700  1
  H  H6  1  0.24829200  0.53459600  0.68742500  1
  H  H7  1  0.25170800  0.53459600  0.18742500  1
  H  H8  1  0.91316400  0.60399500  0.45408000  1
  H  H9  1  0.63070100  0.19042500  0.15714600  1
  H  H10  1  0.08683600  0.39600500  0.54592000  1
  H  H11  1  0.46631200  0.30802400  0.75843000  1
  H  H12  1  0.96631200  0.69197600  0.74157000  1
  H  H13  1  0.90964000  0.50194900  0.08438400  1
  H  H14  1  0.75170800  0.46540400  0.31257500  1
  H  H15  1  0.86929900  0.19042500  0.65714600  1
  H  H16  1  0.59036000  0.50194900  0.58438400  1
  H  H17  1  0.67762000  0.93212900  0.22829300  1
  H  H18  1  0.74829200  0.46540400  0.81257500  1
  H  H19  1  0.58683600  0.60399500  0.95408000  1
  H  H20  1  0.41316400  0.39600500  0.04592000  1
  H  H21  1  0.32238000  0.06787100  0.77170700  1
  H  H22  1  0.09036000  0.49805100  0.91561600  1
  H  H23  1  0.36929900  0.80957500  0.84285400  1
  C  C24  1  0.29875100  0.01868300  0.55931500  1
  C  C25  1  0.42089200  0.13804100  0.49368600  1
  C  C26  1  0.85649000  0.70907600  0.45111900  1
  C  C27  1  0.70124900  0.98131700  0.44068500  1
  C  C28  1  0.92089200  0.86195900  0.00631400  1
  C  C29  1  0.25631700  0.76199400  0.63198400  1
  C  C30  1  0.07910800  0.13804100  0.99368600  1
  C  C31  1  0.35649000  0.29092400  0.04888100  1
  C  C32  1  0.94452000  0.21646100  0.30965100  1
  C  C33  1  0.14351000  0.29092400  0.54888100  1
  C  C34  1  0.65775900  0.72437900  0.51227700  1
  C  C35  1  0.40366500  0.03720700  0.11847000  1
  C  C36  1  0.44452000  0.78353900  0.19034900  1
  C  C37  1  0.20124900  0.01868300  0.05931500  1
  C  C38  1  0.03406100  0.39209600  0.92072200  1
  C  C39  1  0.59633500  0.96279300  0.88153000  1
  C  C40  1  0.05548000  0.78353900  0.69034900  1
  C  C41  1  0.47672900  0.08327300  0.81667500  1
  C  C42  1  0.96593900  0.60790400  0.07927800  1
  C  C43  1  0.55548000  0.21646100  0.80965100  1
  C  C44  1  0.79875100  0.98131700  0.94068500  1
  C  C45  1  0.84118500  0.37400300  0.86290200  1
  C  C46  1  0.90366500  0.96279300  0.38153000  1
  C  C47  1  0.46593900  0.39209600  0.42072200  1
  C  C48  1  0.53406100  0.60790400  0.57927800  1
  C  C49  1  0.34224100  0.27562100  0.48772300  1
  C  C50  1  0.75631700  0.23800600  0.86801600  1
  C  C51  1  0.47678600  0.17589000  0.11157200  1
  C  C52  1  0.52327100  0.91672700  0.18332500  1
  C  C53  1  0.57910800  0.86195900  0.50631400  1
  C  C54  1  0.15881500  0.62599700  0.13709800  1
  C  C55  1  0.62226900  0.11933600  0.43412700  1
  C  C56  1  0.24368300  0.76199400  0.13198400  1
  C  C57  1  0.87773100  0.11933600  0.93412700  1
  C  C58  1  0.09633500  0.03720700  0.61847000  1
  C  C59  1  0.15775900  0.27562100  0.98772300  1
  C  C60  1  0.52321400  0.82411000  0.88842800  1
  C  C61  1  0.37773100  0.88066400  0.56587300  1
  C  C62  1  0.65881500  0.37400300  0.36290200  1
  C  C63  1  0.84224100  0.72437900  0.01227700  1
  C  C64  1  0.97672900  0.91672700  0.68332500  1
  C  C65  1  0.74368300  0.23800600  0.36801600  1
  C  C66  1  0.12226900  0.88066400  0.06587300  1
  C  C67  1  0.64351000  0.70907600  0.95111900  1
  C  C68  1  0.34118500  0.62599700  0.63709800  1
  C  C69  1  0.97678600  0.82411000  0.38842800  1
  C  C70  1  0.02327100  0.08327300  0.31667500  1
  C  C71  1  0.02321400  0.17589000  0.61157200  1
