data_image0
_chemical_formula_structural       C2Cu2N2S2
_chemical_formula_sum              "C2 Cu2 N2 S2"
_cell_length_a       3.80724
_cell_length_b       3.80707
_cell_length_c       10.9144
_cell_angle_alpha    90
_cell_angle_beta     90
_cell_angle_gamma    120.001

_space_group_name_H-M_alt    "P 1"
_space_group_IT_number       1

loop_
  _space_group_symop_operation_xyz
  'x, y, z'

loop_
  _atom_site_type_symbol
  _atom_site_label
  _atom_site_symmetry_multiplicity
  _atom_site_fract_x
  _atom_site_fract_y
  _atom_site_fract_z
  _atom_site_occupancy
  C   C1        1.0  0.33300  0.66700  0.28100  1.0000
  C   C2        1.0  0.66700  0.33300  0.78100  1.0000
  Cu  Cu1       1.0  0.33300  0.66700  0.00000  1.0000
  Cu  Cu2       1.0  0.66700  0.33300  0.50000  1.0000
  N   N1        1.0  0.33300  0.66700  0.17300  1.0000
  N   N2        1.0  0.66700  0.33300  0.67300  1.0000
  S   S1        1.0  0.33300  0.66700  0.43300  1.0000
  S   S2        1.0  0.66700  0.33300  0.93300  1.0000
