# generated using pymatgen
data_ZnH8C4(NO3)2
_symmetry_space_group_name_H-M   'P 1'
_cell_length_a   8.75696500
_cell_length_b   10.81890000
_cell_length_c   10.95019700
_cell_angle_alpha   90.00000000
_cell_angle_beta   90.00000000
_cell_angle_gamma   90.00000000
_symmetry_Int_Tables_number   1
_chemical_formula_structural   ZnH8C4(NO3)2
_chemical_formula_sum   'Zn4 H32 C16 N8 O24'
_cell_volume   1037.42964252
_cell_formula_units_Z   4
loop_
 _symmetry_equiv_pos_site_id
 _symmetry_equiv_pos_as_xyz
  1  'x, y, z'
loop_
 _atom_site_type_symbol
 _atom_site_label
 _atom_site_symmetry_multiplicity
 _atom_site_fract_x
 _atom_site_fract_y
 _atom_site_fract_z
 _atom_site_occupancy
  Zn  Zn0  1  0.79197100  0.75000000  0.75000000  1
  Zn  Zn1  1  0.70802900  0.25000000  0.75000000  1
  Zn  Zn2  1  0.20802900  0.25000000  0.25000000  1
  Zn  Zn3  1  0.29197100  0.75000000  0.25000000  1
  H  H4  1  0.25000000  0.50000000  0.05834800  1
  H  H5  1  0.58885800  0.68758900  0.46293900  1
  H  H6  1  0.25000000  0.00000000  0.44165200  1
  H  H7  1  0.75000000  0.50000000  0.00959900  1
  H  H8  1  0.08885800  0.81241100  0.96293900  1
  H  H9  1  0.85212300  0.49784700  0.77903200  1
  H  H10  1  0.54910200  0.12235200  0.38943100  1
  H  H11  1  0.04910200  0.37764800  0.88943100  1
  H  H12  1  0.64787700  0.50215300  0.77903200  1
  H  H13  1  0.08885800  0.68758900  0.53706100  1
  H  H14  1  0.85212300  0.00215300  0.72096800  1
  H  H15  1  0.45089800  0.87764800  0.61056900  1
  H  H16  1  0.91114200  0.18758900  0.03706100  1
  H  H17  1  0.45089800  0.62235200  0.88943100  1
  H  H18  1  0.64787700  0.99784700  0.72096800  1
  H  H19  1  0.14787700  0.99784700  0.27903200  1
  H  H20  1  0.41114200  0.31241100  0.53706100  1
  H  H21  1  0.35212300  0.00215300  0.27903200  1
  H  H22  1  0.95089800  0.62235200  0.11056900  1
  H  H23  1  0.35212300  0.49784700  0.22096800  1
  H  H24  1  0.25000000  0.50000000  0.99040100  1
  H  H25  1  0.91114200  0.31241100  0.46293900  1
  H  H26  1  0.75000000  0.00000000  0.55834800  1
  H  H27  1  0.75000000  0.50000000  0.94165200  1
  H  H28  1  0.25000000  0.00000000  0.50959900  1
  H  H29  1  0.58885800  0.81241100  0.03706100  1
  H  H30  1  0.75000000  0.00000000  0.49040100  1
  H  H31  1  0.95089800  0.87764800  0.38943100  1
  H  H32  1  0.54910200  0.37764800  0.11056900  1
  H  H33  1  0.04910200  0.12235200  0.61056900  1
  H  H34  1  0.41114200  0.18758900  0.96293900  1
  H  H35  1  0.14787700  0.50215300  0.22096800  1
  C  C36  1  0.75000000  0.00000000  0.17501800  1
  C  C37  1  0.75000000  0.50000000  0.32498200  1
  C  C38  1  0.25000000  0.50000000  0.67501800  1
  C  C39  1  0.75000000  0.00000000  0.78261000  1
  C  C40  1  0.48252700  0.27025500  0.97700100  1
  C  C41  1  0.48252700  0.22974500  0.52299900  1
  C  C42  1  0.51747300  0.72974500  0.02299900  1
  C  C43  1  0.25000000  0.00000000  0.82498200  1
  C  C44  1  0.51747300  0.77025500  0.47700100  1
  C  C45  1  0.01747300  0.72974500  0.97700100  1
  C  C46  1  0.98252700  0.22974500  0.47700100  1
  C  C47  1  0.01747300  0.77025500  0.52299900  1
  C  C48  1  0.25000000  0.50000000  0.28261000  1
  C  C49  1  0.75000000  0.50000000  0.71739000  1
  C  C50  1  0.98252700  0.27025500  0.02299900  1
  C  C51  1  0.25000000  0.00000000  0.21739000  1
  N  N52  1  0.18598900  0.46463500  0.78525300  1
  N  N53  1  0.31401100  0.53536500  0.78525300  1
  N  N54  1  0.81401100  0.53536500  0.21474700  1
  N  N55  1  0.31401100  0.96463500  0.71474700  1
  N  N56  1  0.18598900  0.03536500  0.71474700  1
  N  N57  1  0.68598900  0.03536500  0.28525300  1
  N  N58  1  0.68598900  0.46463500  0.21474700  1
  N  N59  1  0.81401100  0.96463500  0.28525300  1
  O  O60  1  0.97727600  0.30808000  0.90789300  1
  O  O61  1  0.24550700  0.39138000  0.34907500  1
  O  O62  1  0.74550700  0.39138000  0.65092500  1
  O  O63  1  0.44363400  0.82225800  0.39563700  1
  O  O64  1  0.47727600  0.30808000  0.09210700  1
  O  O65  1  0.05636600  0.32225800  0.10436300  1
  O  O66  1  0.25449300  0.89138000  0.15092500  1
  O  O67  1  0.75449300  0.89138000  0.84907500  1
  O  O68  1  0.97727600  0.19192000  0.59210700  1
  O  O69  1  0.52272400  0.69192000  0.90789300  1
  O  O70  1  0.02272400  0.80808000  0.40789300  1
  O  O71  1  0.47727600  0.19192000  0.40789300  1
  O  O72  1  0.52272400  0.80808000  0.59210700  1
  O  O73  1  0.94363400  0.82225800  0.60436300  1
  O  O74  1  0.05636600  0.17774200  0.39563700  1
  O  O75  1  0.74550700  0.10862000  0.84907500  1
  O  O76  1  0.55636600  0.17774200  0.60436300  1
  O  O77  1  0.55636600  0.32225800  0.89563700  1
  O  O78  1  0.25449300  0.60862000  0.34907500  1
  O  O79  1  0.02272400  0.69192000  0.09210700  1
  O  O80  1  0.24550700  0.10862000  0.15092500  1
  O  O81  1  0.44363400  0.67774200  0.10436300  1
  O  O82  1  0.75449300  0.60862000  0.65092500  1
  O  O83  1  0.94363400  0.67774200  0.89563700  1
