# generated using pymatgen
data_FePH5CO4
_symmetry_space_group_name_H-M   'P 1'
_cell_length_a   4.85601800
_cell_length_b   5.82552346
_cell_length_c   8.99659037
_cell_angle_alpha   89.98436939
_cell_angle_beta   89.63290663
_cell_angle_gamma   90.81591903
_symmetry_Int_Tables_number   1
_chemical_formula_structural   FePH5CO4
_chemical_formula_sum   'Fe2 P2 H10 C2 O8'
_cell_volume   254.47212157
_cell_formula_units_Z   2
loop_
 _symmetry_equiv_pos_site_id
 _symmetry_equiv_pos_as_xyz
  1  'x, y, z'
loop_
 _atom_site_type_symbol
 _atom_site_label
 _atom_site_symmetry_multiplicity
 _atom_site_fract_x
 _atom_site_fract_y
 _atom_site_fract_z
 _atom_site_occupancy
  Fe  Fe0  1  0.22255000  0.00000600  0.97375100  1
  Fe  Fe1  1  0.71845700  0.49905500  0.02628900  1
  P  P2  1  0.66173000  0.99849300  0.18859400  1
  P  P3  1  0.15780500  0.50007300  0.81147600  1
  H  H4  1  0.85826400  0.49915900  0.60062500  1
  H  H5  1  0.35795300  0.99920300  0.40002500  1
  H  H6  1  0.14397900  0.36656900  0.20146800  1
  H  H7  1  0.64566900  0.13523900  0.79850500  1
  H  H8  1  0.64605600  0.86588200  0.79830800  1
  H  H9  1  0.14677900  0.63514000  0.20109700  1
  H  H10  1  0.16971100  0.34758600  0.56311100  1
  H  H11  1  0.66903600  0.84767300  0.43635700  1
  H  H12  1  0.67147100  0.15453800  0.43666500  1
  H  H13  1  0.17233600  0.65418100  0.56318400  1
  C  C14  1  0.58224500  0.00073000  0.38427300  1
  C  C15  1  0.08228500  0.50023000  0.61576600  1
  O  O16  1  0.02429400  0.50022800  0.21188900  1
  O  O17  1  0.52486000  0.99898100  0.78989700  1
  O  O18  1  0.46972600  0.50011200  0.83117700  1
  O  O19  1  0.97390600  0.00350900  0.16868000  1
  O  O20  1  0.51678900  0.20780800  0.11290300  1
  O  O21  1  0.01785400  0.71589000  0.88260800  1
  O  O22  1  0.00935000  0.28786100  0.88517000  1
  O  O23  1  0.52029100  0.78185200  0.11818500  1
