# generated using pymatgen
data_Fe3O4
_symmetry_space_group_name_H-M   'P 1'
_cell_length_a   5.92114818
_cell_length_b   5.92114818
_cell_length_c   5.10076598
_cell_angle_alpha   75.80183402
_cell_angle_beta   75.80183402
_cell_angle_gamma   60.63205989
_symmetry_Int_Tables_number   1
_chemical_formula_structural   Fe3O4
_chemical_formula_sum   'Fe6 O8'
_cell_volume   149.42747017
_cell_formula_units_Z   2
loop_
 _symmetry_equiv_pos_site_id
 _symmetry_equiv_pos_as_xyz
  1  'x, y, z'
loop_
 _atom_site_type_symbol
 _atom_site_label
 _atom_site_symmetry_multiplicity
 _atom_site_fract_x
 _atom_site_fract_y
 _atom_site_fract_z
 _atom_site_occupancy
  Fe  Fe0  1  0.60713200  0.10771300  0.31823500  1
  Fe  Fe1  1  0.60611000  0.60611000  0.32926100  1
  Fe  Fe2  1  0.10887900  0.10887900  0.31836400  1
  Fe  Fe3  1  0.10771300  0.60713200  0.31823500  1
  Fe  Fe4  1  0.36001600  0.36001600  0.81468100  1
  Fe  Fe5  1  0.85371200  0.85371200  0.82445700  1
  O  O6  1  0.96356100  0.96356100  0.10781400  1
  O  O7  1  0.98758600  0.49037900  0.08230900  1
  O  O8  1  0.20811000  0.74426300  0.56390900  1
  O  O9  1  0.46234800  0.46234800  0.12003900  1
  O  O10  1  0.75243500  0.75243500  0.53731400  1
  O  O11  1  0.49037900  0.98758600  0.08230900  1
  O  O12  1  0.74426300  0.20811000  0.56390900  1
  O  O13  1  0.24888900  0.24888900  0.52338800  1
