# generated using pymatgen
data_Rb4CeH12C3O17
_symmetry_space_group_name_H-M   'P 1'
_cell_length_a   9.53983500
_cell_length_b   11.66490953
_cell_length_c   12.29089014
_cell_angle_alpha   61.94977758
_cell_angle_beta   68.43327446
_cell_angle_gamma   74.92900940
_symmetry_Int_Tables_number   1
_chemical_formula_structural   Rb4CeH12C3O17
_chemical_formula_sum   'Rb8 Ce2 H24 C6 O34'
_cell_volume   1116.22918797
_cell_formula_units_Z   2
loop_
 _symmetry_equiv_pos_site_id
 _symmetry_equiv_pos_as_xyz
  1  'x, y, z'
loop_
 _atom_site_type_symbol
 _atom_site_label
 _atom_site_symmetry_multiplicity
 _atom_site_fract_x
 _atom_site_fract_y
 _atom_site_fract_z
 _atom_site_occupancy
  Rb  Rb0  1  0.29702800  0.63415900  0.07044300  1
  Rb  Rb1  1  0.70297200  0.36584100  0.92955700  1
  Rb  Rb2  1  0.29458100  0.94539300  0.53320600  1
  Rb  Rb3  1  0.70541900  0.05460700  0.46679400  1
  Rb  Rb4  1  0.19029700  0.88509200  0.24534800  1
  Rb  Rb5  1  0.80970300  0.11490800  0.75465200  1
  Rb  Rb6  1  0.77601900  0.51060300  0.17198500  1
  Rb  Rb7  1  0.22398100  0.48939700  0.82801500  1
  Ce  Ce8  1  0.85975000  0.67088600  0.51286500  1
  Ce  Ce9  1  0.14025000  0.32911400  0.48713500  1
  H  H10  1  0.49600100  0.75386800  0.09171800  1
  H  H11  1  0.48940300  0.98143100  0.23275800  1
  H  H12  1  0.55038400  0.86960500  0.80336800  1
  H  H13  1  0.71602700  0.62941600  0.91797600  1
  H  H14  1  0.28397300  0.37058400  0.08202400  1
  H  H15  1  0.97964100  0.71071400  0.99276300  1
  H  H16  1  0.51059700  0.01856900  0.76724200  1
  H  H17  1  0.19645400  0.99024500  0.93950400  1
  H  H18  1  0.99772900  0.45527800  0.66095900  1
  H  H19  1  0.52733700  0.73536600  0.14597000  1
  H  H20  1  0.06452100  0.91600500  0.96887500  1
  H  H21  1  0.05615700  0.67540100  0.96578300  1
  H  H22  1  0.40397200  0.69346300  0.44750900  1
  H  H23  1  0.59602800  0.30653700  0.55249100  1
  H  H24  1  0.91391200  0.88709100  0.71210100  1
  H  H25  1  0.93547900  0.08399500  0.03112500  1
  H  H26  1  0.02035900  0.28928600  0.00723700  1
  H  H27  1  0.94384300  0.32459900  0.03421700  1
  H  H28  1  0.50399900  0.24613200  0.90828200  1
  H  H29  1  0.08608800  0.11290900  0.28789900  1
  H  H30  1  0.80354600  0.00975500  0.06049600  1
  H  H31  1  0.00227100  0.54472200  0.33904100  1
  H  H32  1  0.47266300  0.26463400  0.85403000  1
  H  H33  1  0.44961600  0.13039500  0.19663200  1
  C  C34  1  0.04667100  0.25232800  0.33462300  1
  C  C35  1  0.44912100  0.31973500  0.33028400  1
  C  C36  1  0.95332900  0.74767200  0.66537700  1
  C  C37  1  0.29826100  0.23971000  0.70888300  1
  C  C38  1  0.70173900  0.76029000  0.29111700  1
  C  C39  1  0.55087900  0.68026500  0.66971600  1
  O  O40  1  0.68636900  0.86229000  0.20636300  1
  O  O41  1  0.95897100  0.62381500  0.70778400  1
  O  O42  1  0.95021100  0.79427000  0.74813200  1
  O  O43  1  0.04102900  0.37618500  0.29221600  1
  O  O44  1  0.94087800  0.38447500  0.68104400  1
  O  O45  1  0.04978900  0.20573000  0.25186800  1
  O  O46  1  0.62291100  0.56669300  0.69527200  1
  O  O47  1  0.34534400  0.77808300  0.42206700  1
  O  O48  1  0.64994700  0.32139000  0.16259300  1
  O  O49  1  0.65465600  0.22191700  0.57793300  1
  O  O50  1  0.18632500  0.17684800  0.02418100  1
  O  O51  1  0.84848400  0.82698000  0.36402800  1
  O  O52  1  0.31363100  0.13771000  0.79363700  1
  O  O53  1  0.41096600  0.04624000  0.25485100  1
  O  O54  1  0.29077200  0.35158500  0.63516700  1
  O  O55  1  0.61542800  0.78452600  0.60489500  1
  O  O56  1  0.94636200  0.82799800  0.55262600  1
  O  O57  1  0.15151600  0.17302000  0.63597200  1
  O  O58  1  0.05912200  0.61552500  0.31895600  1
  O  O59  1  0.84884500  0.09176700  0.00267700  1
  O  O60  1  0.38457200  0.21547400  0.39510500  1
  O  O61  1  0.11220700  0.57608600  0.43170200  1
  O  O62  1  0.88779300  0.42391400  0.56829800  1
  O  O63  1  0.60507700  0.30725400  0.29730700  1
  O  O64  1  0.70922800  0.64841500  0.36483300  1
  O  O65  1  0.15115500  0.90823300  0.99732300  1
  O  O66  1  0.35005300  0.67861000  0.83740700  1
  O  O67  1  0.43528400  0.99286900  0.00274600  1
  O  O68  1  0.56471600  0.00713100  0.99725400  1
  O  O69  1  0.58903400  0.95376000  0.74514900  1
  O  O70  1  0.39492300  0.69274600  0.70269300  1
  O  O71  1  0.37708900  0.43330700  0.30472800  1
  O  O72  1  0.05363800  0.17200200  0.44737400  1
  O  O73  1  0.81367500  0.82315200  0.97581900  1
