# generated using pymatgen
data_MnH12C2(NCl2)2
_symmetry_space_group_name_H-M   'P 1'
_cell_length_a   7.27227300
_cell_length_b   7.31860900
_cell_length_c   19.45317600
_cell_angle_alpha   90.00000000
_cell_angle_beta   90.00000000
_cell_angle_gamma   90.00000000
_symmetry_Int_Tables_number   1
_chemical_formula_structural   MnH12C2(NCl2)2
_chemical_formula_sum   'Mn4 H48 C8 N8 Cl16'
_cell_volume   1035.35488112
_cell_formula_units_Z   4
loop_
 _symmetry_equiv_pos_site_id
 _symmetry_equiv_pos_as_xyz
  1  'x, y, z'
loop_
 _atom_site_type_symbol
 _atom_site_label
 _atom_site_symmetry_multiplicity
 _atom_site_fract_x
 _atom_site_fract_y
 _atom_site_fract_z
 _atom_site_occupancy
  Mn  Mn0  1  0.00000000  0.50000000  0.50000000  1
  Mn  Mn1  1  0.50000000  0.00000000  0.50000000  1
  Mn  Mn2  1  0.50000000  0.50000000  0.00000000  1
  Mn  Mn3  1  0.00000000  0.00000000  0.00000000  1
  H  H4  1  0.48971400  0.15820600  0.89087600  1
  H  H5  1  0.94225200  0.95333300  0.72334700  1
  H  H6  1  0.06744000  0.45248700  0.08149800  1
  H  H7  1  0.98971400  0.65820600  0.10912400  1
  H  H8  1  0.05774800  0.04666700  0.27665300  1
  H  H9  1  0.15390300  0.51872900  0.89413900  1
  H  H10  1  0.94225200  0.54666700  0.22334700  1
  H  H11  1  0.32583100  0.50097300  0.69766400  1
  H  H12  1  0.00585800  0.17814300  0.69537500  1
  H  H13  1  0.55774800  0.95333300  0.22334700  1
  H  H14  1  0.34609700  0.98127100  0.89413900  1
  H  H15  1  0.44225200  0.04666700  0.77665300  1
  H  H16  1  0.55774800  0.54666700  0.72334700  1
  H  H17  1  0.82583100  0.00097300  0.30233600  1
  H  H18  1  0.34609700  0.51872900  0.39413900  1
  H  H19  1  0.93256000  0.95248700  0.41850200  1
  H  H20  1  0.17416900  0.99902700  0.69766400  1
  H  H21  1  0.65390300  0.48127100  0.60586100  1
  H  H22  1  0.50585800  0.67814300  0.30462500  1
  H  H23  1  0.49414200  0.17814300  0.19537500  1
  H  H24  1  0.43256000  0.45248700  0.58149800  1
  H  H25  1  0.44225200  0.45333300  0.27665300  1
  H  H26  1  0.65390300  0.01872900  0.10586100  1
  H  H27  1  0.93256000  0.54751300  0.91850200  1
  H  H28  1  0.56744000  0.54751300  0.41850200  1
  H  H29  1  0.05774800  0.45333300  0.77665300  1
  H  H30  1  0.67416900  0.49902700  0.30233600  1
  H  H31  1  0.06744000  0.04751300  0.58149800  1
  H  H32  1  0.51028600  0.84179400  0.10912400  1
  H  H33  1  0.99414200  0.67814300  0.80462500  1
  H  H34  1  0.49414200  0.32185700  0.69537500  1
  H  H35  1  0.50585800  0.82185700  0.80462500  1
  H  H36  1  0.48971400  0.34179400  0.39087600  1
  H  H37  1  0.17416900  0.50097300  0.19766400  1
  H  H38  1  0.84609700  0.01872900  0.60586100  1
  H  H39  1  0.51028600  0.65820600  0.60912400  1
  H  H40  1  0.43256000  0.04751300  0.08149800  1
  H  H41  1  0.82583100  0.49902700  0.80233600  1
  H  H42  1  0.01028600  0.15820600  0.39087600  1
  H  H43  1  0.01028600  0.34179400  0.89087600  1
  H  H44  1  0.15390300  0.98127100  0.39413900  1
  H  H45  1  0.32583100  0.99902700  0.19766400  1
  H  H46  1  0.67416900  0.00097300  0.80233600  1
  H  H47  1  0.56744000  0.95248700  0.91850200  1
  H  H48  1  0.84609700  0.48127100  0.10586100  1
  H  H49  1  0.98971400  0.84179400  0.60912400  1
  H  H50  1  0.00585800  0.32185700  0.19537500  1
  H  H51  1  0.99414200  0.82185700  0.30462500  1
  C  C52  1  0.02933900  0.46830500  0.18835300  1
  C  C53  1  0.47066100  0.03169500  0.18835300  1
  C  C54  1  0.97066100  0.53169500  0.81164700  1
  C  C55  1  0.02933900  0.03169500  0.68835300  1
  C  C56  1  0.97066100  0.96830500  0.31164700  1
  C  C57  1  0.52933900  0.96830500  0.81164700  1
  C  C58  1  0.52933900  0.53169500  0.31164700  1
  C  C59  1  0.47066100  0.46830500  0.68835300  1
  N  N60  1  0.48138400  0.01714400  0.88353900  1
  N  N61  1  0.51861600  0.51714400  0.61646100  1
  N  N62  1  0.51861600  0.98285600  0.11646100  1
  N  N63  1  0.01861600  0.01714400  0.38353900  1
  N  N64  1  0.98138400  0.51714400  0.11646100  1
  N  N65  1  0.01861600  0.48285600  0.88353900  1
  N  N66  1  0.98138400  0.98285600  0.61646100  1
  N  N67  1  0.48138400  0.48285600  0.38353900  1
  Cl  Cl68  1  0.96947100  0.53048000  0.62697200  1
  Cl  Cl69  1  0.25000000  0.75000000  0.99926100  1
  Cl  Cl70  1  0.75000000  0.25000000  0.50073900  1
  Cl  Cl71  1  0.03052900  0.03048000  0.87302800  1
  Cl  Cl72  1  0.75000000  0.75000000  0.98128700  1
  Cl  Cl73  1  0.75000000  0.75000000  0.48128700  1
  Cl  Cl74  1  0.75000000  0.25000000  0.00073900  1
  Cl  Cl75  1  0.46947100  0.46952000  0.87302800  1
  Cl  Cl76  1  0.96947100  0.96952000  0.12697200  1
  Cl  Cl77  1  0.25000000  0.25000000  0.51871300  1
  Cl  Cl78  1  0.53052900  0.96952000  0.62697200  1
  Cl  Cl79  1  0.25000000  0.75000000  0.49926100  1
  Cl  Cl80  1  0.03052900  0.46952000  0.37302800  1
  Cl  Cl81  1  0.25000000  0.25000000  0.01871300  1
  Cl  Cl82  1  0.46947100  0.03048000  0.37302800  1
  Cl  Cl83  1  0.53052900  0.53048000  0.12697200  1
