# generated using pymatgen
data_K3Yb(SO4)3
_symmetry_space_group_name_H-M   'P 1'
_cell_length_a   9.62654842
_cell_length_b   9.62654842
_cell_length_c   9.55056960
_cell_angle_alpha   71.31481080
_cell_angle_beta   71.31481080
_cell_angle_gamma   111.27118391
_symmetry_Int_Tables_number   1
_chemical_formula_structural   K3Yb(SO4)3
_chemical_formula_sum   'K6 Yb2 S6 O24'
_cell_volume   679.04483749
_cell_formula_units_Z   2
loop_
 _symmetry_equiv_pos_site_id
 _symmetry_equiv_pos_as_xyz
  1  'x, y, z'
loop_
 _atom_site_type_symbol
 _atom_site_label
 _atom_site_symmetry_multiplicity
 _atom_site_fract_x
 _atom_site_fract_y
 _atom_site_fract_z
 _atom_site_occupancy
  K  K0  1  0.07701400  0.57529800  0.63316800  1
  K  K1  1  0.57529800  0.07701400  0.13316800  1
  K  K2  1  0.78292000  0.68256800  0.97268200  1
  K  K3  1  0.68256800  0.78292000  0.47268200  1
  K  K4  1  0.18300000  0.19982300  0.30740200  1
  K  K5  1  0.19982300  0.18300000  0.80740200  1
  Yb  Yb6  1  0.64451200  0.34736300  0.50811000  1
  Yb  Yb7  1  0.34736300  0.64451200  0.00811000  1
  S  S8  1  0.00326300  0.32127500  0.10045700  1
  S  S9  1  0.71112900  0.02802900  0.68671800  1
  S  S10  1  0.43125900  0.56405100  0.35760900  1
  S  S11  1  0.02802900  0.71112900  0.18671800  1
  S  S12  1  0.56405100  0.43125900  0.85760900  1
  S  S13  1  0.32127500  0.00326300  0.60045700  1
  O  O14  1  0.52558800  0.56752100  0.86860300  1
  O  O15  1  0.66043500  0.26380300  0.29482500  1
  O  O16  1  0.42789900  0.97724700  0.47029300  1
  O  O17  1  0.91498900  0.60305000  0.37623000  1
  O  O18  1  0.60305000  0.91498900  0.87623000  1
  O  O19  1  0.26380300  0.66043500  0.79482500  1
  O  O20  1  0.41557700  0.54887000  0.21072600  1
  O  O21  1  0.15386900  0.83682900  0.72684800  1
  O  O22  1  0.41401000  0.06283300  0.68802500  1
  O  O23  1  0.26529900  0.44140600  0.51682700  1
  O  O24  1  0.83682900  0.15386900  0.22684800  1
  O  O25  1  0.44140600  0.26529900  0.01682700  1
  O  O26  1  0.99410000  0.84855500  0.11311000  1
  O  O27  1  0.06283300  0.41401000  0.18802500  1
  O  O28  1  0.74309200  0.48927400  0.82267900  1
  O  O29  1  0.84855500  0.99410000  0.61311000  1
  O  O30  1  0.56752100  0.52558800  0.36860300  1
  O  O31  1  0.28277300  0.13414600  0.52274500  1
  O  O32  1  0.97724700  0.42789900  0.97029300  1
  O  O33  1  0.21230400  0.77302600  0.13294400  1
  O  O34  1  0.13414600  0.28277300  0.02274500  1
  O  O35  1  0.77302600  0.21230400  0.63294400  1
  O  O36  1  0.48927400  0.74309200  0.32267900  1
  O  O37  1  0.54887000  0.41557700  0.71072600  1
