# generated using pymatgen
data_Sr(H8O5)2
_symmetry_space_group_name_H-M   'P 1'
_cell_length_a   6.28713047
_cell_length_b   6.28713047
_cell_length_c   11.60724348
_cell_angle_alpha   88.75297329
_cell_angle_beta   88.75297329
_cell_angle_gamma   89.61884991
_symmetry_Int_Tables_number   1
_chemical_formula_structural   Sr(H8O5)2
_chemical_formula_sum   'Sr2 H32 O20'
_cell_volume   458.58516347
_cell_formula_units_Z   2
loop_
 _symmetry_equiv_pos_site_id
 _symmetry_equiv_pos_as_xyz
  1  'x, y, z'
loop_
 _atom_site_type_symbol
 _atom_site_label
 _atom_site_symmetry_multiplicity
 _atom_site_fract_x
 _atom_site_fract_y
 _atom_site_fract_z
 _atom_site_occupancy
  Sr  Sr0  1  0.00000000  0.00000000  0.00000000  1
  Sr  Sr1  1  0.00000000  0.00000000  0.50000000  1
  H  H2  1  0.69328700  0.91127300  0.79269000  1
  H  H3  1  0.61379500  0.73152300  0.88922900  1
  H  H4  1  0.38247000  0.27762400  0.89181500  1
  H  H5  1  0.44343100  0.03782000  0.88375700  1
  H  H6  1  0.72365700  0.38105300  0.88948400  1
  H  H7  1  0.96303000  0.44305700  0.88731100  1
  H  H8  1  0.08868100  0.68088400  0.79278900  1
  H  H9  1  0.27010500  0.61107300  0.88975600  1
  H  H10  1  0.68088400  0.08868100  0.29278900  1
  H  H11  1  0.61107300  0.27010500  0.38975600  1
  H  H12  1  0.44305700  0.96303000  0.38731100  1
  H  H13  1  0.38105300  0.72365700  0.38948400  1
  H  H14  1  0.73152300  0.61379500  0.38922900  1
  H  H15  1  0.91127300  0.69328700  0.29269000  1
  H  H16  1  0.03782000  0.44343100  0.38375700  1
  H  H17  1  0.27762400  0.38247000  0.39181500  1
  H  H18  1  0.30671300  0.08872700  0.20731000  1
  H  H19  1  0.38620500  0.26847700  0.11077100  1
  H  H20  1  0.61753000  0.72237600  0.10818500  1
  H  H21  1  0.55656900  0.96218000  0.11624300  1
  H  H22  1  0.27634300  0.61894700  0.11051600  1
  H  H23  1  0.03697000  0.55694300  0.11268900  1
  H  H24  1  0.72989500  0.38892700  0.11024400  1
  H  H25  1  0.91131900  0.31911600  0.20721100  1
  H  H26  1  0.31911600  0.91131900  0.70721100  1
  H  H27  1  0.38892700  0.72989500  0.61024400  1
  H  H28  1  0.55694300  0.03697000  0.61268900  1
  H  H29  1  0.61894700  0.27634300  0.61051600  1
  H  H30  1  0.08872700  0.30671300  0.70731000  1
  H  H31  1  0.26847700  0.38620500  0.61077100  1
  H  H32  1  0.72237600  0.61753000  0.60818500  1
  H  H33  1  0.96218000  0.55656900  0.61624300  1
  O  O34  1  0.49629500  0.50472400  0.93493600  1
  O  O35  1  0.50472400  0.49629500  0.43493600  1
  O  O36  1  0.50370500  0.49527600  0.06506400  1
  O  O37  1  0.49527600  0.50370500  0.56506400  1
  O  O38  1  0.66911900  0.88245000  0.87564300  1
  O  O39  1  0.32052400  0.13591000  0.87079700  1
  O  O40  1  0.86993200  0.32060900  0.87286200  1
  O  O41  1  0.12268100  0.67607800  0.87496200  1
  O  O42  1  0.67607800  0.12268100  0.37496200  1
  O  O43  1  0.32060900  0.86993200  0.37286200  1
  O  O44  1  0.88245000  0.66911900  0.37564300  1
  O  O45  1  0.13591000  0.32052400  0.37079700  1
  O  O46  1  0.33088100  0.11755000  0.12435700  1
  O  O47  1  0.67947600  0.86409000  0.12920300  1
  O  O48  1  0.13006800  0.67939100  0.12713800  1
  O  O49  1  0.87731900  0.32392200  0.12503800  1
  O  O50  1  0.32392200  0.87731900  0.62503800  1
  O  O51  1  0.67939100  0.13006800  0.62713800  1
  O  O52  1  0.11755000  0.33088100  0.62435700  1
  O  O53  1  0.86409000  0.67947600  0.62920300  1
