# generated using pymatgen
data_Ba(H8O5)2
_symmetry_space_group_name_H-M   'P 1'
_cell_length_a   6.38798200
_cell_length_b   6.42158891
_cell_length_c   11.79486272
_cell_angle_alpha   92.62861675
_cell_angle_beta   91.31512114
_cell_angle_gamma   90.57725129
_symmetry_Int_Tables_number   1
_chemical_formula_structural   Ba(H8O5)2
_chemical_formula_sum   'Ba2 H32 O20'
_cell_volume   483.17058895
_cell_formula_units_Z   2
loop_
 _symmetry_equiv_pos_site_id
 _symmetry_equiv_pos_as_xyz
  1  'x, y, z'
loop_
 _atom_site_type_symbol
 _atom_site_label
 _atom_site_symmetry_multiplicity
 _atom_site_fract_x
 _atom_site_fract_y
 _atom_site_fract_z
 _atom_site_occupancy
  Ba  Ba0  1  0.99462100  0.99381400  0.49406600  1
  Ba  Ba1  1  0.99736000  0.99793600  0.00751500  1
  H  H2  1  0.61199100  0.73359900  0.61414300  1
  H  H3  1  0.54585900  0.96951300  0.62085900  1
  H  H4  1  0.32509600  0.15153100  0.71157900  1
  H  H5  1  0.39695900  0.29643100  0.60758600  1
  H  H6  1  0.71757000  0.39144400  0.61363000  1
  H  H7  1  0.95182000  0.46496600  0.63271700  1
  H  H8  1  0.27248300  0.60715200  0.60652800  1
  H  H9  1  0.16745600  0.72486500  0.71255400  1
  H  H10  1  0.72017600  0.22146100  0.21580900  1
  H  H11  1  0.59922100  0.28982100  0.10275900  1
  H  H12  1  0.39810500  0.72678600  0.09987000  1
  H  H13  1  0.45864900  0.95886300  0.14217500  1
  H  H14  1  0.71871900  0.60841100  0.09988200  1
  H  H15  1  0.77924200  0.72270700  0.21822300  1
  H  H16  1  0.27645600  0.40998100  0.09866300  1
  H  H17  1  0.04474800  0.46101200  0.14255800  1
  H  H18  1  0.40043000  0.26247000  0.39931600  1
  H  H19  1  0.30192400  0.15317700  0.28679000  1
  H  H20  1  0.60037400  0.70367500  0.39455500  1
  H  H21  1  0.55347700  0.92891200  0.35060500  1
  H  H22  1  0.18045400  0.67848300  0.28533600  1
  H  H23  1  0.27585200  0.57933800  0.39567000  1
  H  H24  1  0.71066900  0.38293100  0.39563500  1
  H  H25  1  0.93991200  0.42876100  0.35046100  1
  H  H26  1  0.38296000  0.70871100  0.88701500  1
  H  H27  1  0.44133600  0.94093300  0.86199200  1
  H  H28  1  0.59823700  0.26700600  0.88579200  1
  H  H29  1  0.70754300  0.11912800  0.78910700  1
  H  H30  1  0.09898000  0.33083500  0.78373300  1
  H  H31  1  0.27822200  0.38887800  0.88526700  1
  H  H32  1  0.71568900  0.59965100  0.88829600  1
  H  H33  1  0.95287100  0.53676900  0.88141400  1
  O  O34  1  0.48494700  0.49766900  0.57223100  1
  O  O35  1  0.49588800  0.49619400  0.04844800  1
  O  O36  1  0.48919600  0.48467800  0.44552300  1
  O  O37  1  0.48804100  0.48140300  0.92156100  1
  O  O38  1  0.66998000  0.87836700  0.62573800  1
  O  O39  1  0.33759300  0.14965700  0.62919500  1
  O  O40  1  0.86141400  0.33738200  0.63135000  1
  O  O41  1  0.13503900  0.67106800  0.63435500  1
  O  O42  1  0.66225000  0.16543800  0.14142300  1
  O  O43  1  0.33946600  0.85781100  0.13674800  1
  O  O44  1  0.84049000  0.67628200  0.14477000  1
  O  O45  1  0.14921900  0.34827800  0.13539100  1
  O  O46  1  0.34401200  0.12289500  0.36474600  1
  O  O47  1  0.66617600  0.82372700  0.35556200  1
  O  O48  1  0.14181100  0.63997300  0.36182500  1
  O  O49  1  0.83300800  0.31612800  0.35539600  1
  O  O50  1  0.31915900  0.84331700  0.86276900  1
  O  O51  1  0.65474100  0.12064400  0.86641800  1
  O  O52  1  0.13194100  0.31917700  0.86445200  1
  O  O53  1  0.85991700  0.65886900  0.87984600  1
