# generated using pymatgen
data_H2SO4
_symmetry_space_group_name_H-M   'P 1'
_cell_length_a   4.74754530
_cell_length_b   4.74754530
_cell_length_c   9.08371579
_cell_angle_alpha   72.30557186
_cell_angle_beta   72.30557186
_cell_angle_gamma   60.97452722
_symmetry_Int_Tables_number   1
_chemical_formula_structural   H2SO4
_chemical_formula_sum   'H4 S2 O8'
_cell_volume   167.52000640
_cell_formula_units_Z   2
loop_
 _symmetry_equiv_pos_site_id
 _symmetry_equiv_pos_as_xyz
  1  'x, y, z'
loop_
 _atom_site_type_symbol
 _atom_site_label
 _atom_site_symmetry_multiplicity
 _atom_site_fract_x
 _atom_site_fract_y
 _atom_site_fract_z
 _atom_site_occupancy
  H  H0  1  0.46633800  0.69896200  0.39028800  1
  H  H1  1  0.69896200  0.46633800  0.89028800  1
  H  H2  1  0.27241100  0.24662400  0.16826800  1
  H  H3  1  0.24662400  0.27241100  0.66826800  1
  S  S4  1  0.09271600  0.87176900  0.25526800  1
  S  S5  1  0.87176900  0.09271600  0.75526800  1
  O  O6  1  0.31719800  0.68252300  0.13655400  1
  O  O7  1  0.23651700  0.72791600  0.41178300  1
  O  O8  1  0.72791600  0.23651700  0.91178300  1
  O  O9  1  0.68252300  0.31719800  0.63655400  1
  O  O10  1  0.06028300  0.23202300  0.20467400  1
  O  O11  1  0.76028700  0.91116800  0.30292800  1
  O  O12  1  0.91116800  0.76028700  0.80292800  1
  O  O13  1  0.23202300  0.06028300  0.70467400  1
