# generated using pymatgen
data_CdInGaS4
_symmetry_space_group_name_H-M   'P 1'
_cell_length_a   4.05669395
_cell_length_b   4.05669395
_cell_length_c   12.71509000
_cell_angle_alpha   90.00000000
_cell_angle_beta   90.00000000
_cell_angle_gamma   119.99999916
_symmetry_Int_Tables_number   1
_chemical_formula_structural   CdInGaS4
_chemical_formula_sum   'Cd1 In1 Ga1 S4'
_cell_volume   181.21517482
_cell_formula_units_Z   1
loop_
 _symmetry_equiv_pos_site_id
 _symmetry_equiv_pos_as_xyz
  1  'x, y, z'
loop_
 _atom_site_type_symbol
 _atom_site_label
 _atom_site_symmetry_multiplicity
 _atom_site_fract_x
 _atom_site_fract_y
 _atom_site_fract_z
 _atom_site_occupancy
  Cd  Cd0  1  0.00000000  0.00000000  0.54315300  1
  In  In1  1  0.33333300  0.66666700  0.82712800  1
  Ga  Ga2  1  0.33333300  0.66666700  0.26443600  1
  S  S3  1  0.00000000  0.00000000  0.34479200  1
  S  S4  1  0.66666700  0.33333300  0.89929400  1
  S  S5  1  0.33333300  0.66666700  0.62592800  1
  S  S6  1  0.33333300  0.66666700  0.10027000  1
