# generated using pymatgen
data_Se2SN2Cl
_symmetry_space_group_name_H-M   'P 1'
_cell_length_a   8.28275300
_cell_length_b   8.85177600
_cell_length_c   15.51892400
_cell_angle_alpha   90.00000000
_cell_angle_beta   90.00000000
_cell_angle_gamma   90.00000000
_symmetry_Int_Tables_number   1
_chemical_formula_structural   Se2SN2Cl
_chemical_formula_sum   'Se16 S8 N16 Cl8'
_cell_volume   1137.80210271
_cell_formula_units_Z   8
loop_
 _symmetry_equiv_pos_site_id
 _symmetry_equiv_pos_as_xyz
  1  'x, y, z'
loop_
 _atom_site_type_symbol
 _atom_site_label
 _atom_site_symmetry_multiplicity
 _atom_site_fract_x
 _atom_site_fract_y
 _atom_site_fract_z
 _atom_site_occupancy
  Se  Se0  1  0.82053100  0.96433900  0.07811700  1
  Se  Se1  1  0.32053100  0.03566100  0.42188300  1
  Se  Se2  1  0.05405300  0.29932100  0.54526100  1
  Se  Se3  1  0.55405300  0.20067900  0.54526100  1
  Se  Se4  1  0.05405300  0.79932100  0.95473900  1
  Se  Se5  1  0.94594700  0.20067900  0.04526100  1
  Se  Se6  1  0.94594700  0.70067900  0.45473900  1
  Se  Se7  1  0.55405300  0.70067900  0.95473900  1
  Se  Se8  1  0.17946900  0.03566100  0.92188300  1
  Se  Se9  1  0.44594700  0.29932100  0.04526100  1
  Se  Se10  1  0.67946900  0.96433900  0.57811700  1
  Se  Se11  1  0.44594700  0.79932100  0.45473900  1
  Se  Se12  1  0.17946900  0.53566100  0.57811700  1
  Se  Se13  1  0.82053100  0.46433900  0.42188300  1
  Se  Se14  1  0.67946900  0.46433900  0.92188300  1
  Se  Se15  1  0.32053100  0.53566100  0.07811700  1
  S  S16  1  0.51301000  0.40975900  0.21913900  1
  S  S17  1  0.51301000  0.90975900  0.28086100  1
  S  S18  1  0.98699000  0.90975900  0.78086100  1
  S  S19  1  0.48699000  0.09024100  0.71913900  1
  S  S20  1  0.48699000  0.59024100  0.78086100  1
  S  S21  1  0.01301000  0.59024100  0.28086100  1
  S  S22  1  0.01301000  0.09024100  0.21913900  1
  S  S23  1  0.98699000  0.40975900  0.71913900  1
  N  N24  1  0.54025600  0.28109900  0.15115400  1
  N  N25  1  0.10101600  0.04038000  0.81215800  1
  N  N26  1  0.95974400  0.28109900  0.65115400  1
  N  N27  1  0.39898400  0.54038000  0.18784200  1
  N  N28  1  0.60101600  0.95962000  0.68784200  1
  N  N29  1  0.89898400  0.95962000  0.18784200  1
  N  N30  1  0.95974400  0.78109900  0.84884600  1
  N  N31  1  0.54025600  0.78109900  0.34884600  1
  N  N32  1  0.39898400  0.04038000  0.31215800  1
  N  N33  1  0.60101600  0.45962000  0.81215800  1
  N  N34  1  0.04025600  0.21890100  0.15115400  1
  N  N35  1  0.10101600  0.54038000  0.68784200  1
  N  N36  1  0.45974400  0.71890100  0.84884600  1
  N  N37  1  0.89898400  0.45962000  0.31215800  1
  N  N38  1  0.04025600  0.71890100  0.34884600  1
  N  N39  1  0.45974400  0.21890100  0.65115400  1
  Cl  Cl40  1  0.28098700  0.90422000  0.08448300  1
  Cl  Cl41  1  0.28098700  0.40422000  0.41551700  1
  Cl  Cl42  1  0.78098700  0.59578000  0.08448300  1
  Cl  Cl43  1  0.71901300  0.59578000  0.58448300  1
  Cl  Cl44  1  0.21901300  0.90422000  0.58448300  1
  Cl  Cl45  1  0.21901300  0.40422000  0.91551700  1
  Cl  Cl46  1  0.78098700  0.09578000  0.41551700  1
  Cl  Cl47  1  0.71901300  0.09578000  0.91551700  1
