# generated using pymatgen
data_FeHO2
_symmetry_space_group_name_H-M   'P 1'
_cell_length_a   10.01207000
_cell_length_b   3.02381500
_cell_length_c   4.65263400
_cell_angle_alpha   90.00000000
_cell_angle_beta   90.00000000
_cell_angle_gamma   90.00000000
_symmetry_Int_Tables_number   1
_chemical_formula_structural   FeHO2
_chemical_formula_sum   'Fe4 H4 O8'
_cell_volume   140.85685405
_cell_formula_units_Z   4
loop_
 _symmetry_equiv_pos_site_id
 _symmetry_equiv_pos_as_xyz
  1  'x, y, z'
loop_
 _atom_site_type_symbol
 _atom_site_label
 _atom_site_symmetry_multiplicity
 _atom_site_fract_x
 _atom_site_fract_y
 _atom_site_fract_z
 _atom_site_occupancy
  Fe  Fe0  1  0.64978800  0.25000000  0.54364600  1
  Fe  Fe1  1  0.14978800  0.25000000  0.95635400  1
  Fe  Fe2  1  0.36097900  0.75000000  0.45346900  1
  Fe  Fe3  1  0.86097900  0.75000000  0.04653100  1
  H  H4  1  0.43894300  0.25000000  0.90516300  1
  H  H5  1  0.93894300  0.25000000  0.59483700  1
  H  H6  1  0.59535700  0.75000000  0.09702200  1
  H  H7  1  0.09535700  0.75000000  0.40297800  1
  O  O8  1  0.30282400  0.25000000  0.20473300  1
  O  O9  1  0.80282400  0.25000000  0.29526700  1
  O  O10  1  0.70526900  0.75000000  0.79541700  1
  O  O11  1  0.20526900  0.75000000  0.70458300  1
  O  O12  1  0.46027200  0.25000000  0.69782100  1
  O  O13  1  0.96027200  0.25000000  0.80217900  1
  O  O14  1  0.55868100  0.75000000  0.29634500  1
  O  O15  1  0.05868100  0.75000000  0.20365500  1
