# generated using pymatgen
data_Si2H2O3
_symmetry_space_group_name_H-M   'P 1'
_cell_length_a   8.72387500
_cell_length_b   10.26472869
_cell_length_c   12.72292474
_cell_angle_alpha   88.10881197
_cell_angle_beta   110.04260728
_cell_angle_gamma   115.02776849
_symmetry_Int_Tables_number   1
_chemical_formula_structural   Si2H2O3
_chemical_formula_sum   'Si20 H20 O30'
_cell_volume   961.38678607
_cell_formula_units_Z   10
loop_
 _symmetry_equiv_pos_site_id
 _symmetry_equiv_pos_as_xyz
  1  'x, y, z'
loop_
 _atom_site_type_symbol
 _atom_site_label
 _atom_site_symmetry_multiplicity
 _atom_site_fract_x
 _atom_site_fract_y
 _atom_site_fract_z
 _atom_site_occupancy
  Si  Si0  1  0.82581100  0.13098100  0.11264300  1
  Si  Si1  1  0.11655200  0.38090700  0.37509800  1
  Si  Si2  1  0.13799900  0.87975900  0.87453200  1
  Si  Si3  1  0.91239700  0.62755600  0.61189700  1
  Si  Si4  1  0.99205100  0.88711300  0.23768600  1
  Si  Si5  1  0.34421200  0.58253200  0.27280000  1
  Si  Si6  1  0.00967900  0.08323200  0.77290400  1
  Si  Si7  1  0.63422300  0.38466300  0.73776100  1
  Si  Si8  1  0.36944600  0.96469400  0.19647600  1
  Si  Si9  1  0.71443400  0.49664200  0.29875500  1
  Si  Si10  1  0.58049300  0.99640100  0.79888700  1
  Si  Si11  1  0.29410000  0.46421200  0.69664200  1
  Si  Si12  1  0.60595900  0.22549200  0.44130000  1
  Si  Si13  1  0.42141500  0.25379100  0.02846700  1
  Si  Si14  1  0.36074800  0.75139900  0.52868400  1
  Si  Si15  1  0.56076000  0.72463800  0.94151800  1
  Si  Si16  1  0.24217500  0.09935200  0.50207400  1
  Si  Si17  1  0.11274200  0.36694800  0.00457000  1
  Si  Si18  1  0.75849100  0.86725200  0.50380900  1
  Si  Si19  1  0.86044900  0.59870200  0.00150700  1
  H  H20  1  0.10506000  0.11250300  0.16133800  1
  H  H21  1  0.65018700  0.60200800  0.65151000  1
  H  H22  1  0.64311400  0.69540100  0.27817200  1
  H  H23  1  0.82512300  0.19453900  0.77474900  1
  H  H24  1  0.42623900  0.21069200  0.21100800  1
  H  H25  1  0.42559000  0.35396500  0.32742400  1
  H  H26  1  0.75587100  0.85272300  0.82651400  1
  H  H27  1  0.49555000  0.71323700  0.71410900  1
  H  H28  1  0.18005900  0.29688800  0.54788600  1
  H  H29  1  0.16541800  0.79756300  0.04857900  1
  H  H30  1  0.81286100  0.21621800  0.28204600  1
  H  H31  1  0.17885700  0.71167100  0.78107100  1
  H  H32  1  0.93494900  0.94260100  0.39755100  1
  H  H33  1  0.21581500  0.60712500  0.08191700  1
  H  H34  1  0.97550400  0.10494000  0.58191100  1
  H  H35  1  0.90983000  0.44550200  0.89512100  1
  H  H36  1  0.63348500  0.01939300  0.36816700  1
  H  H37  1  0.74020100  0.46886900  0.12616500  1
  H  H38  1  0.35422600  0.96796900  0.62638600  1
  H  H39  1  0.25551600  0.51935800  0.86846600  1
  O  O40  1  0.98591500  0.04670300  0.16383900  1
  O  O41  1  0.27377800  0.40907000  0.31184900  1
  O  O42  1  0.94733600  0.91040200  0.81306700  1
  O  O43  1  0.71496800  0.54169300  0.65890800  1
  O  O44  1  0.20317300  0.93019100  0.24575500  1
  O  O45  1  0.56355900  0.59195000  0.27541500  1
  O  O46  1  0.80177100  0.09173400  0.77385900  1
  O  O47  1  0.47107600  0.42396100  0.74628800  1
  O  O48  1  0.38774800  0.13715000  0.14552200  1
  O  O49  1  0.53215900  0.33590200  0.32428700  1
  O  O50  1  0.62834900  0.83552000  0.82438100  1
  O  O51  1  0.40180500  0.63768400  0.64792300  1
  O  O52  1  0.39907500  0.15610900  0.44388600  1
  O  O53  1  0.27562100  0.31212700  0.04279200  1
  O  O54  1  0.57717200  0.81337200  0.53970400  1
  O  O55  1  0.70032300  0.65413500  0.94268000  1
  O  O56  1  0.95977600  0.25660800  0.05743800  1
  O  O57  1  0.16714300  0.24885400  0.47465900  1
  O  O58  1  0.05587400  0.74995900  0.97521500  1
  O  O59  1  0.85103400  0.75476100  0.55642100  1
  O  O60  1  0.92135300  0.24272300  0.26288100  1
  O  O61  1  0.07817600  0.73878300  0.76272000  1
  O  O62  1  0.05063100  0.97859200  0.37957800  1
  O  O63  1  0.23186700  0.52565800  0.11808800  1
  O  O64  1  0.91205000  0.02478600  0.61782900  1
  O  O65  1  0.81178200  0.48125900  0.87726800  1
  O  O66  1  0.56743800  0.07576500  0.32847000  1
  O  O67  1  0.64319400  0.41587000  0.15836500  1
  O  O68  1  0.42941000  0.91409000  0.65901900  1
  O  O69  1  0.33831200  0.57558800  0.82875900  1
