# generated using pymatgen
data_ReC4IO4
_symmetry_space_group_name_H-M   'P 1'
_cell_length_a   12.38941500
_cell_length_b   10.18446500
_cell_length_c   13.27742918
_cell_angle_alpha   72.17634814
_cell_angle_beta   90.00000000
_cell_angle_gamma   90.00000000
_symmetry_Int_Tables_number   1
_chemical_formula_structural   ReC4IO4
_chemical_formula_sum   'Re8 C32 I8 O32'
_cell_volume   1594.92911351
_cell_formula_units_Z   8
loop_
 _symmetry_equiv_pos_site_id
 _symmetry_equiv_pos_as_xyz
  1  'x, y, z'
loop_
 _atom_site_type_symbol
 _atom_site_label
 _atom_site_symmetry_multiplicity
 _atom_site_fract_x
 _atom_site_fract_y
 _atom_site_fract_z
 _atom_site_occupancy
  Re  Re0  1  0.12828100  0.60992700  0.68343800  1
  Re  Re1  1  0.86959300  0.83532900  0.21017400  1
  Re  Re2  1  0.13040700  0.16467100  0.78982600  1
  Re  Re3  1  0.87171900  0.39007300  0.31656200  1
  Re  Re4  1  0.62828100  0.39007300  0.81656200  1
  Re  Re5  1  0.37171900  0.60992700  0.18343800  1
  Re  Re6  1  0.63040700  0.83532900  0.71017400  1
  Re  Re7  1  0.36959300  0.16467100  0.28982600  1
  C  C8  1  0.96427300  0.39793400  0.19058400  1
  C  C9  1  0.78373100  0.24936600  0.28963900  1
  C  C10  1  0.78136300  0.97377500  0.11345300  1
  C  C11  1  0.53572700  0.39793400  0.69058400  1
  C  C12  1  0.46275300  0.74904200  0.09038100  1
  C  C13  1  0.72425000  0.39254100  0.93734200  1
  C  C14  1  0.53962300  0.97277700  0.73948300  1
  C  C15  1  0.27575000  0.60745900  0.06265800  1
  C  C16  1  0.28136300  0.02622500  0.38654700  1
  C  C17  1  0.46037700  0.02722300  0.26051700  1
  C  C18  1  0.71863700  0.97377500  0.61345300  1
  C  C19  1  0.28373100  0.75063400  0.21036100  1
  C  C20  1  0.03572700  0.60206600  0.80941600  1
  C  C21  1  0.77318900  0.83352300  0.33198400  1
  C  C22  1  0.22425000  0.60745900  0.56265800  1
  C  C23  1  0.96636400  0.82259600  0.09252100  1
  C  C24  1  0.72681100  0.83352300  0.83198400  1
  C  C25  1  0.77575000  0.39254100  0.43734200  1
  C  C26  1  0.21626900  0.75063400  0.71036100  1
  C  C27  1  0.71626900  0.24936600  0.78963900  1
  C  C28  1  0.46636400  0.17740400  0.40747900  1
  C  C29  1  0.03363600  0.17740400  0.90747900  1
  C  C30  1  0.03724700  0.74904200  0.59038100  1
  C  C31  1  0.21863700  0.02622500  0.88654700  1
  C  C32  1  0.03962300  0.02722300  0.76051700  1
  C  C33  1  0.96275300  0.25095800  0.40961900  1
  C  C34  1  0.96037700  0.97277700  0.23948300  1
  C  C35  1  0.53363600  0.82259600  0.59252100  1
  C  C36  1  0.27318900  0.16647700  0.16801600  1
  C  C37  1  0.53724700  0.25095800  0.90961900  1
  C  C38  1  0.46427300  0.60206600  0.30941600  1
  C  C39  1  0.22681100  0.16647700  0.66801600  1
  I  I40  1  0.00849300  0.38493400  0.65074700  1
  I  I41  1  0.25323600  0.38812500  0.81993600  1
  I  I42  1  0.74676400  0.61187500  0.18006400  1
  I  I43  1  0.99150700  0.61506600  0.34925300  1
  I  I44  1  0.24676400  0.38812500  0.31993600  1
  I  I45  1  0.50849300  0.61506600  0.84925300  1
  I  I46  1  0.49150700  0.38493400  0.15074700  1
  I  I47  1  0.75323600  0.61187500  0.68006400  1
  O  O48  1  0.72890000  0.05761100  0.05416400  1
  O  O49  1  0.77999900  0.38968700  0.00798700  1
  O  O50  1  0.01668500  0.16561800  0.46571600  1
  O  O51  1  0.77024800  0.16353200  0.77433700  1
  O  O52  1  0.98455400  0.94458800  0.74190700  1
  O  O53  1  0.27024800  0.83646800  0.72566300  1
  O  O54  1  0.01437200  0.40171300  0.11619100  1
  O  O55  1  0.27999900  0.61031300  0.49201300  1
  O  O56  1  0.51668500  0.83438200  0.03428400  1
  O  O57  1  0.72000100  0.38968700  0.50798700  1
  O  O58  1  0.48331500  0.16561800  0.96571600  1
  O  O59  1  0.27110000  0.94238900  0.94583600  1
  O  O60  1  0.28170500  0.16740800  0.59708400  1
  O  O61  1  0.21829500  0.16740800  0.09708400  1
  O  O62  1  0.47715200  0.81704100  0.52452100  1
  O  O63  1  0.78170500  0.83259200  0.90291600  1
  O  O64  1  0.22890000  0.94238900  0.44583600  1
  O  O65  1  0.48562800  0.40171300  0.61619100  1
  O  O66  1  0.72975200  0.16353200  0.27433700  1
  O  O67  1  0.51544600  0.94458800  0.24190700  1
  O  O68  1  0.22975200  0.83646800  0.22566300  1
  O  O69  1  0.02284800  0.81704100  0.02452100  1
  O  O70  1  0.71829500  0.83259200  0.40291600  1
  O  O71  1  0.22000100  0.61031300  0.99201300  1
  O  O72  1  0.98562800  0.59828700  0.88380900  1
  O  O73  1  0.01544600  0.05541200  0.25809300  1
  O  O74  1  0.51437200  0.59828700  0.38380900  1
  O  O75  1  0.97715200  0.18295900  0.97547900  1
  O  O76  1  0.98331500  0.83438200  0.53428400  1
  O  O77  1  0.48455400  0.05541200  0.75809300  1
  O  O78  1  0.52284800  0.18295900  0.47547900  1
  O  O79  1  0.77110000  0.05761100  0.55416400  1
