# generated using pymatgen
data_Ga(HO)3
_symmetry_space_group_name_H-M   'P 1'
_cell_length_a   6.50311088
_cell_length_b   6.50311088
_cell_length_c   6.50311096
_cell_angle_alpha   109.68271027
_cell_angle_beta   109.68271027
_cell_angle_gamma   109.68270485
_symmetry_Int_Tables_number   1
_chemical_formula_structural   Ga(HO)3
_chemical_formula_sum   'Ga4 H12 O12'
_cell_volume   210.03603846
_cell_formula_units_Z   4
loop_
 _symmetry_equiv_pos_site_id
 _symmetry_equiv_pos_as_xyz
  1  'x, y, z'
loop_
 _atom_site_type_symbol
 _atom_site_label
 _atom_site_symmetry_multiplicity
 _atom_site_fract_x
 _atom_site_fract_y
 _atom_site_fract_z
 _atom_site_occupancy
  Ga  Ga0  1  0.50000000  0.00000000  0.00000000  1
  Ga  Ga1  1  0.50000000  0.50000000  0.50000000  1
  Ga  Ga2  1  0.00000000  0.00000000  0.50000000  1
  Ga  Ga3  1  0.00000000  0.50000000  0.00000000  1
  H  H4  1  0.81677400  0.45511200  0.27316700  1
  H  H5  1  0.03832200  0.30778500  0.34701800  1
  H  H6  1  0.96167800  0.69221500  0.65298200  1
  H  H7  1  0.18322600  0.54488800  0.72683300  1
  H  H8  1  0.72683300  0.18322600  0.54488800  1
  H  H9  1  0.65298200  0.96167800  0.69221500  1
  H  H10  1  0.34701800  0.03832200  0.30778500  1
  H  H11  1  0.27316700  0.81677400  0.45511200  1
  H  H12  1  0.30778500  0.34701800  0.03832200  1
  H  H13  1  0.45511200  0.27316700  0.81677400  1
  H  H14  1  0.54488800  0.72683300  0.18322600  1
  H  H15  1  0.69221500  0.65298200  0.96167800  1
  O  O16  1  0.82166700  0.31865500  0.14627500  1
  O  O17  1  0.17294000  0.31229700  0.48689700  1
  O  O18  1  0.82706000  0.68770300  0.51310300  1
  O  O19  1  0.17833300  0.68134500  0.85372500  1
  O  O20  1  0.85372500  0.17833300  0.68134500  1
  O  O21  1  0.51310300  0.82706000  0.68770300  1
  O  O22  1  0.48689700  0.17294000  0.31229700  1
  O  O23  1  0.14627500  0.82166700  0.31865500  1
  O  O24  1  0.31229700  0.48689700  0.17294000  1
  O  O25  1  0.31865500  0.14627500  0.82166700  1
  O  O26  1  0.68134500  0.85372500  0.17833300  1
  O  O27  1  0.68770300  0.51310300  0.82706000  1
