# generated using pymatgen
data_CaCO3
_symmetry_space_group_name_H-M   'P 1'
_cell_length_a   3.63301700
_cell_length_b   7.76828000
_cell_length_c   10.85871500
_cell_angle_alpha   90.00000000
_cell_angle_beta   90.00000000
_cell_angle_gamma   90.00000000
_symmetry_Int_Tables_number   1
_chemical_formula_structural   CaCO3
_chemical_formula_sum   'Ca4 C4 O12'
_cell_volume   306.45783960
_cell_formula_units_Z   4
loop_
 _symmetry_equiv_pos_site_id
 _symmetry_equiv_pos_as_xyz
  1  'x, y, z'
loop_
 _atom_site_type_symbol
 _atom_site_label
 _atom_site_symmetry_multiplicity
 _atom_site_fract_x
 _atom_site_fract_y
 _atom_site_fract_z
 _atom_site_occupancy
  Ca  Ca0  1  0.50000000  0.50000000  0.00000000  1
  Ca  Ca1  1  0.00000000  0.00000000  0.00000000  1
  Ca  Ca2  1  0.00000000  0.00000000  0.50000000  1
  Ca  Ca3  1  0.50000000  0.50000000  0.50000000  1
  C  C4  1  0.14619400  0.29165100  0.75000000  1
  C  C5  1  0.85380600  0.70834900  0.25000000  1
  C  C6  1  0.64619400  0.20834900  0.25000000  1
  C  C7  1  0.35380600  0.79165100  0.75000000  1
  O  O8  1  0.98844100  0.28166500  0.01547800  1
  O  O9  1  0.99064400  0.16304400  0.75000000  1
  O  O10  1  0.00935600  0.83695600  0.25000000  1
  O  O11  1  0.98844100  0.28166500  0.48452200  1
  O  O12  1  0.48844100  0.21833500  0.98452200  1
  O  O13  1  0.51155900  0.78166500  0.48452200  1
  O  O14  1  0.01155900  0.71833500  0.98452200  1
  O  O15  1  0.48844100  0.21833500  0.51547800  1
  O  O16  1  0.51155900  0.78166500  0.01547800  1
  O  O17  1  0.01155900  0.71833500  0.51547800  1
  O  O18  1  0.49064400  0.33695600  0.25000000  1
  O  O19  1  0.50935600  0.66304400  0.75000000  1
