# generated using pymatgen
data_KAuC2(SN)2
_symmetry_space_group_name_H-M   'P 1'
_cell_length_a   7.34684361
_cell_length_b   7.34684361
_cell_length_c   18.07212666
_cell_angle_alpha   71.44077419
_cell_angle_beta   71.44077419
_cell_angle_gamma   49.09365033
_symmetry_Int_Tables_number   1
_chemical_formula_structural   KAuC2(SN)2
_chemical_formula_sum   'K4 Au4 C8 S8 N8'
_cell_volume   690.63109182
_cell_formula_units_Z   4
loop_
 _symmetry_equiv_pos_site_id
 _symmetry_equiv_pos_as_xyz
  1  'x, y, z'
loop_
 _atom_site_type_symbol
 _atom_site_label
 _atom_site_symmetry_multiplicity
 _atom_site_fract_x
 _atom_site_fract_y
 _atom_site_fract_z
 _atom_site_occupancy
  K  K0  1  0.19009000  0.14718100  0.94804600  1
  K  K1  1  0.80991000  0.85281900  0.05195400  1
  K  K2  1  0.14718100  0.19009000  0.44804600  1
  K  K3  1  0.85281900  0.80991000  0.55195400  1
  Au  Au4  1  0.82354700  0.17645300  0.25000000  1
  Au  Au5  1  0.67429300  0.32570700  0.75000000  1
  Au  Au6  1  0.32570700  0.67429300  0.25000000  1
  Au  Au7  1  0.17645300  0.82354700  0.75000000  1
  C  C8  1  0.71661400  0.82797400  0.36517100  1
  C  C9  1  0.82797400  0.71661400  0.86517100  1
  C  C10  1  0.28338600  0.17202600  0.63482900  1
  C  C11  1  0.44924300  0.57274900  0.58844100  1
  C  C12  1  0.57274900  0.44924300  0.08844100  1
  C  C13  1  0.17202600  0.28338600  0.13482900  1
  C  C14  1  0.55075700  0.42725100  0.41155900  1
  C  C15  1  0.42725100  0.55075700  0.91155900  1
  S  S16  1  0.70274600  0.30958300  0.61784200  1
  S  S17  1  0.30958300  0.70274600  0.11784200  1
  S  S18  1  0.99432000  0.38093200  0.21937100  1
  S  S19  1  0.29725400  0.69041700  0.38215800  1
  S  S20  1  0.69041700  0.29725400  0.88215800  1
  S  S21  1  0.38093200  0.99432000  0.71937100  1
  S  S22  1  0.61906800  0.00568000  0.28062900  1
  S  S23  1  0.00568000  0.61906800  0.78062900  1
  N  N24  1  0.72749300  0.24369000  0.43595900  1
  N  N25  1  0.29357500  0.22617700  0.07280300  1
  N  N26  1  0.70642500  0.77382300  0.92719700  1
  N  N27  1  0.77382300  0.70642500  0.42719700  1
  N  N28  1  0.75631000  0.27250700  0.06404100  1
  N  N29  1  0.27250700  0.75631000  0.56404100  1
  N  N30  1  0.22617700  0.29357500  0.57280300  1
  N  N31  1  0.24369000  0.72749300  0.93595900  1
