# generated using pymatgen
data_Bi2Te2S
_symmetry_space_group_name_H-M   'P 1'
_cell_length_a   9.68665684
_cell_length_b   9.68665684
_cell_length_c   4.47926611
_cell_angle_alpha   77.92415560
_cell_angle_beta   77.92415560
_cell_angle_gamma   26.11630425
_symmetry_Int_Tables_number   1
_chemical_formula_structural   Bi2Te2S
_chemical_formula_sum   'Bi2 Te2 S1'
_cell_volume   180.69493327
_cell_formula_units_Z   1
loop_
 _symmetry_equiv_pos_site_id
 _symmetry_equiv_pos_as_xyz
  1  'x, y, z'
loop_
 _atom_site_type_symbol
 _atom_site_label
 _atom_site_symmetry_multiplicity
 _atom_site_fract_x
 _atom_site_fract_y
 _atom_site_fract_z
 _atom_site_occupancy
  Bi  Bi0  1  0.13732700  0.13732700  0.88555100  1
  Bi  Bi1  1  0.86267300  0.86267300  0.11444900  1
  Te  Te2  1  0.32402400  0.32402400  0.66222200  1
  Te  Te3  1  0.67597600  0.67597600  0.33777800  1
  S  S4  1  0.00000000  0.00000000  0.00000000  1
