# generated using pymatgen
data_Mn2SnC10(ClO5)2
_symmetry_space_group_name_H-M   'P 1'
_cell_length_a   12.35173600
_cell_length_b   10.41397400
_cell_length_c   16.10476549
_cell_angle_alpha   60.91523599
_cell_angle_beta   90.00000000
_cell_angle_gamma   90.00000000
_symmetry_Int_Tables_number   1
_chemical_formula_structural   Mn2SnC10(ClO5)2
_chemical_formula_sum   'Mn8 Sn4 C40 Cl8 O40'
_cell_volume   1810.34517324
_cell_formula_units_Z   4
loop_
 _symmetry_equiv_pos_site_id
 _symmetry_equiv_pos_as_xyz
  1  'x, y, z'
loop_
 _atom_site_type_symbol
 _atom_site_label
 _atom_site_symmetry_multiplicity
 _atom_site_fract_x
 _atom_site_fract_y
 _atom_site_fract_z
 _atom_site_occupancy
  Mn  Mn0  1  0.20055200  0.50204500  0.37326900  1
  Mn  Mn1  1  0.15500300  0.93661500  0.86294200  1
  Mn  Mn2  1  0.29944800  0.50204500  0.87326900  1
  Mn  Mn3  1  0.84499700  0.06338500  0.13705800  1
  Mn  Mn4  1  0.79944800  0.49795500  0.62673100  1
  Mn  Mn5  1  0.34499700  0.93661500  0.36294200  1
  Mn  Mn6  1  0.70055200  0.49795500  0.12673100  1
  Mn  Mn7  1  0.65500300  0.06338500  0.63705800  1
  Sn  Sn8  1  0.32261500  0.74657100  0.29537300  1
  Sn  Sn9  1  0.17738500  0.74657100  0.79537300  1
  Sn  Sn10  1  0.67738500  0.25342900  0.70462700  1
  Sn  Sn11  1  0.82261500  0.25342900  0.20462700  1
  C  C12  1  0.16904300  0.08771000  0.73797400  1
  C  C13  1  0.99213600  0.06675600  0.15942900  1
  C  C14  1  0.86524700  0.94164900  0.08705000  1
  C  C15  1  0.73871900  0.53027300  0.72091200  1
  C  C16  1  0.67907200  0.57793100  0.54878200  1
  C  C17  1  0.59316700  0.38327900  0.21085600  1
  C  C18  1  0.33095700  0.08771000  0.23797400  1
  C  C19  1  0.12560300  0.32770400  0.42339100  1
  C  C20  1  0.85449700  0.45052700  0.53834100  1
  C  C21  1  0.76128100  0.53027300  0.22091200  1
  C  C22  1  0.36524700  0.05835100  0.41295000  1
  C  C23  1  0.30493500  0.93037300  0.87825500  1
  C  C24  1  0.32092800  0.42206900  0.45121800  1
  C  C25  1  0.14550300  0.54947300  0.46165900  1
  C  C26  1  0.35449700  0.54947300  0.96165900  1
  C  C27  1  0.63475300  0.94164900  0.58705000  1
  C  C28  1  0.26128100  0.46972700  0.27908800  1
  C  C29  1  0.83095700  0.91229000  0.26202600  1
  C  C30  1  0.37439700  0.32770400  0.92339100  1
  C  C31  1  0.66904300  0.91229000  0.76202600  1
  C  C32  1  0.69506500  0.06962700  0.12174500  1
  C  C33  1  0.23871900  0.46972700  0.77908800  1
  C  C34  1  0.50786400  0.06675600  0.65942900  1
  C  C35  1  0.40683300  0.61672100  0.78914400  1
  C  C36  1  0.13475300  0.05835100  0.91295000  1
  C  C37  1  0.80493500  0.06962700  0.62174500  1
  C  C38  1  0.87439700  0.67229600  0.57660900  1
  C  C39  1  0.62560300  0.67229600  0.07660900  1
  C  C40  1  0.49213600  0.93324400  0.34057100  1
  C  C41  1  0.35840800  0.76683800  0.48006500  1
  C  C42  1  0.09316700  0.61672100  0.28914400  1
  C  C43  1  0.00786400  0.93324400  0.84057100  1
  C  C44  1  0.82092800  0.57793100  0.04878200  1
  C  C45  1  0.90683300  0.38327900  0.71085600  1
  C  C46  1  0.19506500  0.93037300  0.37825500  1
  C  C47  1  0.64550300  0.45052700  0.03834100  1
  C  C48  1  0.14159200  0.76683800  0.98006500  1
  C  C49  1  0.85840800  0.23316200  0.01993500  1
  C  C50  1  0.17907200  0.42206900  0.95121800  1
  C  C51  1  0.64159200  0.23316200  0.51993500  1
  Cl  Cl52  1  0.50083700  0.66106700  0.28326400  1
  Cl  Cl53  1  0.49916300  0.33893300  0.71673600  1
  Cl  Cl54  1  0.71581800  0.12466200  0.87249800  1
  Cl  Cl55  1  0.28418200  0.87533800  0.12750200  1
  Cl  Cl56  1  0.00083700  0.33893300  0.21673600  1
  Cl  Cl57  1  0.78418200  0.12466200  0.37249800  1
  Cl  Cl58  1  0.99916300  0.66106700  0.78326400  1
  Cl  Cl59  1  0.21581800  0.87533800  0.62750200  1
  O  O60  1  0.70327200  0.55468500  0.77826300  1
  O  O61  1  0.97433700  0.31041700  0.76206400  1
  O  O62  1  0.67475200  0.81612900  0.83900100  1
  O  O63  1  0.13401500  0.66157100  0.05301400  1
  O  O64  1  0.41965700  0.21667100  0.95521800  1
  O  O65  1  0.17475200  0.18387100  0.66099900  1
  O  O66  1  0.52566300  0.31041700  0.26206400  1
  O  O67  1  0.08034300  0.21667100  0.45521800  1
  O  O68  1  0.20327200  0.44531500  0.72173700  1
  O  O69  1  0.36598500  0.66157100  0.55301400  1
  O  O70  1  0.10215700  0.92683600  0.38814000  1
  O  O71  1  0.29672800  0.44531500  0.22173700  1
  O  O72  1  0.58412900  0.93707300  0.32636900  1
  O  O73  1  0.89784300  0.07316400  0.61186000  1
  O  O74  1  0.58034300  0.78332900  0.04478200  1
  O  O75  1  0.91587100  0.93707300  0.82636900  1
  O  O76  1  0.89446400  0.62587200  0.99846000  1
  O  O77  1  0.88019300  0.86503100  0.05472000  1
  O  O78  1  0.60553600  0.62587200  0.49846000  1
  O  O79  1  0.10553600  0.37412800  0.00154000  1
  O  O80  1  0.60215700  0.07316400  0.11186000  1
  O  O81  1  0.39784300  0.92683600  0.88814000  1
  O  O82  1  0.61980700  0.86503100  0.55472000  1
  O  O83  1  0.39045900  0.57768900  0.01737500  1
  O  O84  1  0.79672800  0.55468500  0.27826300  1
  O  O85  1  0.60954100  0.42231100  0.98262500  1
  O  O86  1  0.39446400  0.37412800  0.50154000  1
  O  O87  1  0.41587100  0.06292700  0.67363100  1
  O  O88  1  0.86598500  0.33842900  0.94698600  1
  O  O89  1  0.08412900  0.06292700  0.17363100  1
  O  O90  1  0.91965700  0.78332900  0.54478200  1
  O  O91  1  0.32524800  0.18387100  0.16099900  1
  O  O92  1  0.11980700  0.13496900  0.94528000  1
  O  O93  1  0.63401500  0.33842900  0.44698600  1
  O  O94  1  0.82524800  0.81612900  0.33900100  1
  O  O95  1  0.02566300  0.68958300  0.23793600  1
  O  O96  1  0.10954100  0.57768900  0.51737500  1
  O  O97  1  0.47433700  0.68958300  0.73793600  1
  O  O98  1  0.38019300  0.13496900  0.44528000  1
  O  O99  1  0.89045900  0.42231100  0.48262500  1
