# generated using pymatgen
data_SiO2
_symmetry_space_group_name_H-M   'P 1'
_cell_length_a   10.67970454
_cell_length_b   10.67970454
_cell_length_c   10.67970454
_cell_angle_alpha   134.72441553
_cell_angle_beta   128.64477978
_cell_angle_gamma   70.84118447
_symmetry_Int_Tables_number   1
_chemical_formula_structural   SiO2
_chemical_formula_sum   'Si12 O24'
_cell_volume   662.21759067
_cell_formula_units_Z   12
loop_
 _symmetry_equiv_pos_site_id
 _symmetry_equiv_pos_as_xyz
  1  'x, y, z'
loop_
 _atom_site_type_symbol
 _atom_site_label
 _atom_site_symmetry_multiplicity
 _atom_site_fract_x
 _atom_site_fract_y
 _atom_site_fract_z
 _atom_site_occupancy
  Si  Si0  1  0.19862300  0.70351300  0.76464600  1
  Si  Si1  1  0.30137700  0.06602300  0.50489000  1
  Si  Si2  1  0.06113300  0.79648700  0.99511000  1
  Si  Si3  1  0.43886700  0.43397700  0.73535400  1
  Si  Si4  1  0.93997500  0.09157900  0.97525900  1
  Si  Si5  1  0.56002500  0.53528400  0.15160400  1
  Si  Si6  1  0.88368000  0.40842100  0.34839600  1
  Si  Si7  1  0.61632000  0.96471600  0.52474100  1
  Si  Si8  1  0.24252600  0.26542700  0.84848700  1
  Si  Si9  1  0.25747400  0.10596000  0.02290100  1
  Si  Si10  1  0.58305900  0.23457300  0.47709900  1
  Si  Si11  1  0.91694100  0.39404000  0.65151300  1
  O  O12  1  0.19554600  0.75000000  0.94554600  1
  O  O13  1  0.30445400  0.25000000  0.55445400  1
  O  O14  1  0.02169900  0.58756500  0.52901200  1
  O  O15  1  0.47830100  0.00731300  0.56586500  1
  O  O16  1  0.94144800  0.91243500  0.93413500  1
  O  O17  1  0.55855300  0.49268700  0.97098800  1
  O  O18  1  0.23405500  0.88885800  0.83690500  1
  O  O19  1  0.26594500  0.10285000  0.65480300  1
  O  O20  1  0.94804700  0.61114200  0.84519700  1
  O  O21  1  0.55195300  0.39715000  0.66309500  1
  O  O22  1  0.34242000  0.59242000  0.75000000  1
  O  O23  1  0.15758000  0.90758000  0.25000000  1
  O  O24  1  0.11530400  0.15510800  0.05927000  1
  O  O25  1  0.38469600  0.44396700  0.03980400  1
  O  O26  1  0.90416300  0.34489200  0.46019600  1
  O  O27  1  0.59583700  0.05603300  0.44073000  1
  O  O28  1  0.90555900  0.25000000  0.15555900  1
  O  O29  1  0.59444100  0.75000000  0.34444100  1
  O  O30  1  0.79690300  0.04690300  0.75000000  1
  O  O31  1  0.70309700  0.45309700  0.25000000  1
  O  O32  1  0.06566600  0.31566600  0.75000000  1
  O  O33  1  0.43433400  0.18433400  0.25000000  1
  O  O34  1  0.25000000  0.19861500  0.94861500  1
  O  O35  1  0.75000000  0.30138500  0.55138500  1
