# generated using pymatgen
data_SiO2
_symmetry_space_group_name_H-M   'P 1'
_cell_length_a   7.22369800
_cell_length_b   9.10983500
_cell_length_c   14.44775100
_cell_angle_alpha   90.00000000
_cell_angle_beta   90.00000000
_cell_angle_gamma   90.00000000
_symmetry_Int_Tables_number   1
_chemical_formula_structural   SiO2
_chemical_formula_sum   'Si16 O32'
_cell_volume   950.75877051
_cell_formula_units_Z   16
loop_
 _symmetry_equiv_pos_site_id
 _symmetry_equiv_pos_as_xyz
  1  'x, y, z'
loop_
 _atom_site_type_symbol
 _atom_site_label
 _atom_site_symmetry_multiplicity
 _atom_site_fract_x
 _atom_site_fract_y
 _atom_site_fract_z
 _atom_site_occupancy
  Si  Si0  1  0.21556100  0.34076500  0.14109400  1
  Si  Si1  1  0.78443900  0.65923500  0.64109400  1
  Si  Si2  1  0.21556100  0.65923500  0.85890600  1
  Si  Si3  1  0.78443900  0.34076500  0.35890600  1
  Si  Si4  1  0.78443900  0.65923500  0.85890600  1
  Si  Si5  1  0.21556100  0.34076500  0.35890600  1
  Si  Si6  1  0.78443900  0.34076500  0.14109400  1
  Si  Si7  1  0.21556100  0.65923500  0.64109400  1
  Si  Si8  1  0.50000000  0.59664700  0.14313400  1
  Si  Si9  1  0.50000000  0.40335300  0.64313400  1
  Si  Si10  1  0.50000000  0.40335300  0.85686600  1
  Si  Si11  1  0.50000000  0.59664700  0.35686600  1
  Si  Si12  1  0.50000000  0.17322500  0.02057500  1
  Si  Si13  1  0.50000000  0.82677500  0.52057500  1
  Si  Si14  1  0.50000000  0.82677500  0.97942500  1
  Si  Si15  1  0.50000000  0.17322500  0.47942500  1
  O  O16  1  0.31453900  0.21402600  0.07942800  1
  O  O17  1  0.68546100  0.78597400  0.57942800  1
  O  O18  1  0.31453900  0.78597400  0.92057200  1
  O  O19  1  0.68546100  0.21402600  0.42057200  1
  O  O20  1  0.68546100  0.78597400  0.92057200  1
  O  O21  1  0.31453900  0.21402600  0.42057200  1
  O  O22  1  0.68546100  0.21402600  0.07942800  1
  O  O23  1  0.31453900  0.78597400  0.57942800  1
  O  O24  1  0.00000000  0.35329200  0.11136900  1
  O  O25  1  0.00000000  0.64670800  0.61136900  1
  O  O26  1  0.00000000  0.64670800  0.88863100  1
  O  O27  1  0.00000000  0.35329200  0.38863100  1
  O  O28  1  0.31481600  0.49902400  0.12249900  1
  O  O29  1  0.68518400  0.50097600  0.62249900  1
  O  O30  1  0.31481600  0.50097600  0.87750100  1
  O  O31  1  0.68518400  0.49902400  0.37750100  1
  O  O32  1  0.68518400  0.50097600  0.87750100  1
  O  O33  1  0.31481600  0.49902400  0.37750100  1
  O  O34  1  0.68518400  0.49902400  0.12249900  1
  O  O35  1  0.31481600  0.50097600  0.62249900  1
  O  O36  1  0.23420400  0.29609700  0.25000000  1
  O  O37  1  0.76579600  0.70390300  0.75000000  1
  O  O38  1  0.23420400  0.70390300  0.75000000  1
  O  O39  1  0.76579600  0.29609700  0.25000000  1
  O  O40  1  0.50000000  0.73950100  0.07733400  1
  O  O41  1  0.50000000  0.26049900  0.57733400  1
  O  O42  1  0.50000000  0.26049900  0.92266600  1
  O  O43  1  0.50000000  0.73950100  0.42266600  1
  O  O44  1  0.50000000  0.65239200  0.25000000  1
  O  O45  1  0.50000000  0.34760800  0.75000000  1
  O  O46  1  0.50000000  0.00000000  0.00000000  1
  O  O47  1  0.50000000  0.00000000  0.50000000  1
