data_image0
_chemical_formula_structural       C4Gd2Ru2
_chemical_formula_sum              "C4 Gd2 Ru2"
_cell_length_a       4.37543
_cell_length_b       5.11771
_cell_length_c       5.23154
_cell_angle_alpha    90
_cell_angle_beta     90
_cell_angle_gamma    64.6923

_space_group_name_H-M_alt    "P 1"
_space_group_IT_number       1

loop_
  _space_group_symop_operation_xyz
  'x, y, z'

loop_
  _atom_site_type_symbol
  _atom_site_label
  _atom_site_symmetry_multiplicity
  _atom_site_fract_x
  _atom_site_fract_y
  _atom_site_fract_z
  _atom_site_occupancy
  C   C1        1.0  0.24300  0.82800  0.25000  1.0000
  C   C2        1.0  0.92900  0.82800  0.25000  1.0000
  C   C3        1.0  0.07120  0.17200  0.75000  1.0000
  C   C4        1.0  0.75700  0.17200  0.75000  1.0000
  Gd  Gd1       1.0  0.81800  0.36500  0.25000  1.0000
  Gd  Gd2       1.0  0.18200  0.63500  0.75000  1.0000
  Ru  Ru1       1.0  0.50000  0.00000  0.00000  1.0000
  Ru  Ru2       1.0  0.50000  0.00000  0.50000  1.0000
