# generated using pymatgen
data_Cr(CO)6
_symmetry_space_group_name_H-M   'P 1'
_cell_length_a   6.47559800
_cell_length_b   11.35781101
_cell_length_c   12.03496500
_cell_angle_alpha   90.00177338
_cell_angle_beta   89.99847733
_cell_angle_gamma   90.00306427
_symmetry_Int_Tables_number   1
_chemical_formula_structural   Cr(CO)6
_chemical_formula_sum   'Cr4 C24 O24'
_cell_volume   885.15504479
_cell_formula_units_Z   4
loop_
 _symmetry_equiv_pos_site_id
 _symmetry_equiv_pos_as_xyz
  1  'x, y, z'
loop_
 _atom_site_type_symbol
 _atom_site_label
 _atom_site_symmetry_multiplicity
 _atom_site_fract_x
 _atom_site_fract_y
 _atom_site_fract_z
 _atom_site_occupancy
  Cr  Cr0  1  0.56178500  0.75001600  0.37281000  1
  Cr  Cr1  1  0.93831200  0.74994800  0.87272600  1
  Cr  Cr2  1  0.06172200  0.24999100  0.12730000  1
  Cr  Cr3  1  0.43823000  0.25003100  0.62721400  1
  C  C4  1  0.81259200  0.24999200  0.04040900  1
  C  C5  1  0.31261800  0.75001800  0.45967800  1
  C  C6  1  0.68737100  0.25002500  0.54032800  1
  C  C7  1  0.18746200  0.74997000  0.95961500  1
  C  C8  1  0.19120900  0.25002500  0.71531300  1
  C  C9  1  0.30876300  0.25000300  0.21538200  1
  C  C10  1  0.69128800  0.74995900  0.78463100  1
  C  C11  1  0.80878100  0.75001300  0.28469400  1
  C  C12  1  0.05353800  0.87057000  0.77897400  1
  C  C13  1  0.94644800  0.37060600  0.22105300  1
  C  C14  1  0.94644800  0.12939300  0.22104400  1
  C  C15  1  0.44654400  0.87060900  0.27904900  1
  C  C16  1  0.55349500  0.37063200  0.72098300  1
  C  C17  1  0.55349000  0.12943500  0.72096600  1
  C  C18  1  0.44652500  0.62941000  0.27904200  1
  C  C19  1  0.05353400  0.62933600  0.77895000  1
  C  C20  1  0.82349300  0.86906800  0.96780700  1
  C  C21  1  0.67659600  0.86914900  0.46790500  1
  C  C22  1  0.32341100  0.13091500  0.53210900  1
  C  C23  1  0.17651100  0.13090300  0.03218200  1
  C  C24  1  0.67658200  0.63089400  0.46789200  1
  C  C25  1  0.17651300  0.36907900  0.03218700  1
  C  C26  1  0.82347100  0.63084400  0.96783200  1
  C  C27  1  0.32342100  0.36912800  0.53210700  1
  O  O28  1  0.33854900  0.74999100  0.01115200  1
  O  O29  1  0.16148400  0.75001300  0.51117100  1
  O  O30  1  0.66150400  0.24999400  0.98885100  1
  O  O31  1  0.83848100  0.25001700  0.48880200  1
  O  O32  1  0.54222000  0.74999200  0.73125500  1
  O  O33  1  0.95782000  0.75001100  0.23127300  1
  O  O34  1  0.04214800  0.25000900  0.76869900  1
  O  O35  1  0.45785100  0.25000400  0.26874400  1
  O  O36  1  0.62285900  0.05637300  0.77663500  1
  O  O37  1  0.87702900  0.05631000  0.27668500  1
  O  O38  1  0.37718500  0.94366700  0.22337100  1
  O  O39  1  0.12287100  0.55626400  0.72328000  1
  O  O40  1  0.37715600  0.55634400  0.22336100  1
  O  O41  1  0.12285000  0.94366200  0.72332100  1
  O  O42  1  0.62289900  0.44369600  0.77666600  1
  O  O43  1  0.87703000  0.44368800  0.27669200  1
  O  O44  1  0.25530700  0.05953500  0.47395200  1
  O  O45  1  0.24462000  0.05953800  0.97398600  1
  O  O46  1  0.75536600  0.94047200  0.02594100  1
  O  O47  1  0.25531000  0.44049900  0.47393600  1
  O  O48  1  0.75533400  0.55947600  0.02598500  1
  O  O49  1  0.24462000  0.44043800  0.97399400  1
  O  O50  1  0.74468900  0.94055900  0.52604200  1
  O  O51  1  0.74466700  0.55948900  0.52602400  1
