# generated using pymatgen
data_Na4V2O7
_symmetry_space_group_name_H-M   'P 1'
_cell_length_a   8.32400745
_cell_length_b   8.32400745
_cell_length_c   32.97887239
_cell_angle_alpha   85.26819415
_cell_angle_beta   85.26819415
_cell_angle_gamma   41.07989153
_symmetry_Int_Tables_number   1
_chemical_formula_structural   Na4V2O7
_chemical_formula_sum   'Na32 V16 O56'
_cell_volume   1495.71072741
_cell_formula_units_Z   8
loop_
 _symmetry_equiv_pos_site_id
 _symmetry_equiv_pos_as_xyz
  1  'x, y, z'
loop_
 _atom_site_type_symbol
 _atom_site_label
 _atom_site_symmetry_multiplicity
 _atom_site_fract_x
 _atom_site_fract_y
 _atom_site_fract_z
 _atom_site_occupancy
  Na  Na0  1  0.81286000  0.18714000  0.25000000  1
  Na  Na1  1  0.43558600  0.08709800  0.10385400  1
  Na  Na2  1  0.56441400  0.91290200  0.89614600  1
  Na  Na3  1  0.96132700  0.32161200  0.97708900  1
  Na  Na4  1  0.79475700  0.19075200  0.34987900  1
  Na  Na5  1  0.03867300  0.67838800  0.02291100  1
  Na  Na6  1  0.42043800  0.96390800  0.68872400  1
  Na  Na7  1  0.32698700  0.87911300  0.37202100  1
  Na  Na8  1  0.03609200  0.57956200  0.81127600  1
  Na  Na9  1  0.08709800  0.43558600  0.60385400  1
  Na  Na10  1  0.67838800  0.03867300  0.52291100  1
  Na  Na11  1  0.32161200  0.96132700  0.47708900  1
  Na  Na12  1  0.16118900  0.70277500  0.43931400  1
  Na  Na13  1  0.29722500  0.83881100  0.06068600  1
  Na  Na14  1  0.12088700  0.67301300  0.12797900  1
  Na  Na15  1  0.67301300  0.12088700  0.62797900  1
  Na  Na16  1  0.83393300  0.40565700  0.76897200  1
  Na  Na17  1  0.70277500  0.16118900  0.93931400  1
  Na  Na18  1  0.80924800  0.20524300  0.15012100  1
  Na  Na19  1  0.00000000  0.50000000  0.50000000  1
  Na  Na20  1  0.50000000  0.00000000  0.00000000  1
  Na  Na21  1  0.16606700  0.59434300  0.23102800  1
  Na  Na22  1  0.96390800  0.42043800  0.18872400  1
  Na  Na23  1  0.20524300  0.80924800  0.65012100  1
  Na  Na24  1  0.59434300  0.16606700  0.73102800  1
  Na  Na25  1  0.19075200  0.79475700  0.84987900  1
  Na  Na26  1  0.91290200  0.56441400  0.39614600  1
  Na  Na27  1  0.57956200  0.03609200  0.31127600  1
  Na  Na28  1  0.40565700  0.83393300  0.26897200  1
  Na  Na29  1  0.83881100  0.29722500  0.56068600  1
  Na  Na30  1  0.87911300  0.32698700  0.87202100  1
  Na  Na31  1  0.18714000  0.81286000  0.75000000  1
  V  V32  1  0.75522400  0.34659100  0.44605000  1
  V  V33  1  0.20392400  0.60934000  0.32335500  1
  V  V34  1  0.05193900  0.55686000  0.69576800  1
  V  V35  1  0.60934000  0.20392400  0.82335500  1
  V  V36  1  0.55491900  0.10339800  0.42939700  1
  V  V37  1  0.39066000  0.79607600  0.17664500  1
  V  V38  1  0.34659100  0.75522400  0.94605000  1
  V  V39  1  0.79607600  0.39066000  0.67664500  1
  V  V40  1  0.55686000  0.05193900  0.19576800  1
  V  V41  1  0.94806100  0.44314000  0.30423200  1
  V  V42  1  0.44508100  0.89660200  0.57060300  1
  V  V43  1  0.89660200  0.44508100  0.07060300  1
  V  V44  1  0.24477600  0.65340900  0.55395000  1
  V  V45  1  0.10339800  0.55491900  0.92939700  1
  V  V46  1  0.65340900  0.24477600  0.05395000  1
  V  V47  1  0.44314000  0.94806100  0.80423200  1
  O  O48  1  0.75251600  0.66661200  0.56257400  1
  O  O49  1  0.82124800  0.31060100  0.04922500  1
  O  O50  1  0.96269100  0.22088100  0.40627000  1
  O  O51  1  0.83891700  0.92963800  0.19029100  1
  O  O52  1  0.51851300  0.57012000  0.70202200  1
  O  O53  1  0.07036200  0.16108300  0.30970900  1
  O  O54  1  0.16108300  0.07036200  0.80970900  1
  O  O55  1  0.09548800  0.46620800  0.74553900  1
  O  O56  1  0.66940800  0.66627100  0.32974300  1
  O  O57  1  0.84893500  0.57166800  0.67051600  1
  O  O58  1  0.33372900  0.33059200  0.17025700  1
  O  O59  1  0.85569700  0.98541300  0.79168700  1
  O  O60  1  0.03730900  0.77911900  0.59373000  1
  O  O61  1  0.29503900  0.80261000  0.13171600  1
  O  O62  1  0.24748400  0.33338800  0.43742600  1
  O  O63  1  0.17875200  0.68939900  0.95077500  1
  O  O64  1  0.90451200  0.53379200  0.25446100  1
  O  O65  1  0.77911900  0.03730900  0.09373000  1
  O  O66  1  0.69861100  0.11225000  0.01054400  1
  O  O67  1  0.33338800  0.24748400  0.93742600  1
  O  O68  1  0.66661200  0.75251600  0.06257400  1
  O  O69  1  0.46620800  0.09548800  0.24553900  1
  O  O70  1  0.92963800  0.83891700  0.69029100  1
  O  O71  1  0.97162500  0.35856000  0.12045300  1
  O  O72  1  0.31060100  0.82124800  0.54922500  1
  O  O73  1  0.53379200  0.90451200  0.75446100  1
  O  O74  1  0.19739000  0.70496100  0.36828400  1
  O  O75  1  0.98541300  0.85569700  0.29168700  1
  O  O76  1  0.02837500  0.64144000  0.87954700  1
  O  O77  1  0.66627100  0.66940800  0.82974300  1
  O  O78  1  0.57012000  0.51851300  0.20202200  1
  O  O79  1  0.70496100  0.19739000  0.86828400  1
  O  O80  1  0.33059200  0.33372900  0.67025700  1
  O  O81  1  0.42988000  0.48148700  0.79797800  1
  O  O82  1  0.57166800  0.84893500  0.17051600  1
  O  O83  1  0.64144000  0.02837500  0.37954700  1
  O  O84  1  0.30138900  0.88775000  0.98945600  1
  O  O85  1  0.31408100  0.15753300  0.54239400  1
  O  O86  1  0.48148700  0.42988000  0.29797800  1
  O  O87  1  0.68939900  0.17875200  0.45077500  1
  O  O88  1  0.88775000  0.30138900  0.48945600  1
  O  O89  1  0.01458700  0.14430300  0.70831300  1
  O  O90  1  0.51378500  0.34791600  0.56348000  1
  O  O91  1  0.48621500  0.65208400  0.43652000  1
  O  O92  1  0.84246700  0.68591900  0.95760600  1
  O  O93  1  0.14430300  0.01458700  0.20831300  1
  O  O94  1  0.68591900  0.84246700  0.45760600  1
  O  O95  1  0.35856000  0.97162500  0.62045300  1
  O  O96  1  0.42833200  0.15106500  0.82948400  1
  O  O97  1  0.11225000  0.69861100  0.51054400  1
  O  O98  1  0.15753300  0.31408100  0.04239400  1
  O  O99  1  0.15106500  0.42833200  0.32948400  1
  O  O100  1  0.22088100  0.96269100  0.90627000  1
  O  O101  1  0.80261000  0.29503900  0.63171600  1
  O  O102  1  0.34791600  0.51378500  0.06348000  1
  O  O103  1  0.65208400  0.48621500  0.93652000  1
