# generated using pymatgen
data_K3Cr11S18
_symmetry_space_group_name_H-M   'P 1'
_cell_length_a   10.87955143
_cell_length_b   10.87955143
_cell_length_c   16.47179061
_cell_angle_alpha   80.17276715
_cell_angle_beta   80.17276715
_cell_angle_gamma   18.62003268
_symmetry_Int_Tables_number   1
_chemical_formula_structural   K3Cr11S18
_chemical_formula_sum   'K3 Cr11 S18'
_cell_volume   613.13226592
_cell_formula_units_Z   1
loop_
 _symmetry_equiv_pos_site_id
 _symmetry_equiv_pos_as_xyz
  1  'x, y, z'
loop_
 _atom_site_type_symbol
 _atom_site_label
 _atom_site_symmetry_multiplicity
 _atom_site_fract_x
 _atom_site_fract_y
 _atom_site_fract_z
 _atom_site_occupancy
  K  K0  1  0.19672600  0.19672600  0.91133800  1
  K  K1  1  0.80327400  0.80327400  0.08866200  1
  K  K2  1  0.50000000  0.50000000  0.50000000  1
  Cr  Cr3  1  0.15406700  0.15406700  0.27834300  1
  Cr  Cr4  1  0.84593300  0.84593300  0.72165700  1
  Cr  Cr5  1  0.70819000  0.70819000  0.42974500  1
  Cr  Cr6  1  0.41139200  0.41139200  0.86779700  1
  Cr  Cr7  1  0.53245000  0.53245000  0.74320800  1
  Cr  Cr8  1  0.46755000  0.46755000  0.25679200  1
  Cr  Cr9  1  0.29181000  0.29181000  0.57025500  1
  Cr  Cr10  1  0.58860800  0.58860800  0.13220300  1
  Cr  Cr11  1  0.16756300  0.16756300  0.67956800  1
  Cr  Cr12  1  0.83243700  0.83243700  0.32043200  1
  Cr  Cr13  1  0.00000000  0.00000000  0.00000000  1
  S  S14  1  0.36708600  0.36708600  0.22679700  1
  S  S15  1  0.57947500  0.57947500  0.99162300  1
  S  S16  1  0.16766200  0.16766200  0.12615200  1
  S  S17  1  0.27318500  0.27318500  0.71858000  1
  S  S18  1  0.70834100  0.70834100  0.57596800  1
  S  S19  1  0.42450000  0.42450000  0.71881500  1
  S  S20  1  0.63291400  0.63291400  0.77320300  1
  S  S21  1  0.06402100  0.06402100  0.64801400  1
  S  S22  1  0.83233800  0.83233800  0.87384800  1
  S  S23  1  0.86653800  0.86653800  0.57396900  1
  S  S24  1  0.93597900  0.93597900  0.35198600  1
  S  S25  1  0.57550000  0.57550000  0.28118500  1
  S  S26  1  0.13346200  0.13346200  0.42603100  1
  S  S27  1  0.42052500  0.42052500  0.00837700  1
  S  S28  1  0.00604500  0.00604500  0.14764200  1
  S  S29  1  0.72681500  0.72681500  0.28142000  1
  S  S30  1  0.99395500  0.99395500  0.85235800  1
  S  S31  1  0.29165900  0.29165900  0.42403200  1
