# generated using pymatgen
data_Ti13O22
_symmetry_space_group_name_H-M   'P 1'
_cell_length_a   7.70800520
_cell_length_b   7.70800520
_cell_length_c   14.09688800
_cell_angle_alpha   90.00000000
_cell_angle_beta   90.00000000
_cell_angle_gamma   97.60139861
_symmetry_Int_Tables_number   1
_chemical_formula_structural   Ti13O22
_chemical_formula_sum   'Ti26 O44'
_cell_volume   830.18318978
_cell_formula_units_Z   2
loop_
 _symmetry_equiv_pos_site_id
 _symmetry_equiv_pos_as_xyz
  1  'x, y, z'
loop_
 _atom_site_type_symbol
 _atom_site_label
 _atom_site_symmetry_multiplicity
 _atom_site_fract_x
 _atom_site_fract_y
 _atom_site_fract_z
 _atom_site_occupancy
  Ti  Ti0  1  0.20082200  0.94389500  0.81832800  1
  Ti  Ti1  1  0.05610500  0.79917800  0.18167200  1
  Ti  Ti2  1  0.23397700  0.76602300  0.50000000  1
  Ti  Ti3  1  0.44278300  0.92484400  0.34970000  1
  Ti  Ti4  1  0.07515600  0.55721700  0.65030000  1
  Ti  Ti5  1  0.42484400  0.94278300  0.15030000  1
  Ti  Ti6  1  0.05721700  0.57515600  0.84970000  1
  Ti  Ti7  1  0.26602300  0.73397700  0.00000000  1
  Ti  Ti8  1  0.44389500  0.70082200  0.68167200  1
  Ti  Ti9  1  0.29917800  0.55610500  0.31832800  1
  Ti  Ti10  1  0.00000000  0.00000000  0.00000000  1
  Ti  Ti11  1  0.65907600  0.65907600  0.15735100  1
  Ti  Ti12  1  0.15907600  0.15907600  0.34264900  1
  Ti  Ti13  1  0.50000000  0.50000000  0.50000000  1
  Ti  Ti14  1  0.34092400  0.34092400  0.84264900  1
  Ti  Ti15  1  0.84092400  0.84092400  0.65735100  1
  Ti  Ti16  1  0.55610500  0.29917800  0.31832800  1
  Ti  Ti17  1  0.70082200  0.44389500  0.68167200  1
  Ti  Ti18  1  0.73397700  0.26602300  0.00000000  1
  Ti  Ti19  1  0.94278300  0.42484400  0.15030000  1
  Ti  Ti20  1  0.57515600  0.05721700  0.84970000  1
  Ti  Ti21  1  0.55721700  0.07515600  0.65030000  1
  Ti  Ti22  1  0.92484400  0.44278300  0.34970000  1
  Ti  Ti23  1  0.76602300  0.23397700  0.50000000  1
  Ti  Ti24  1  0.79917800  0.05610500  0.18167200  1
  Ti  Ti25  1  0.94389500  0.20082200  0.81832800  1
  O  O26  1  0.22320700  0.97256600  0.41816800  1
  O  O27  1  0.02743400  0.77679300  0.58183200  1
  O  O28  1  0.20743800  0.95369300  0.08038900  1
  O  O29  1  0.04630700  0.79256200  0.91961100  1
  O  O30  1  0.39415800  0.90134800  0.90902100  1
  O  O31  1  0.09865200  0.60584200  0.09097900  1
  O  O32  1  0.27813700  0.77813700  0.25000000  1
  O  O33  1  0.22186300  0.72186300  0.75000000  1
  O  O34  1  0.40134800  0.89415800  0.59097900  1
  O  O35  1  0.10584200  0.59865200  0.40902100  1
  O  O36  1  0.61998300  0.88413400  0.24190500  1
  O  O37  1  0.61586600  0.88001700  0.74190500  1
  O  O38  1  0.11998300  0.38413400  0.25809500  1
  O  O39  1  0.11586600  0.38001700  0.75809500  1
  O  O40  1  0.45369300  0.70743800  0.41961100  1
  O  O41  1  0.29256200  0.54630700  0.58038900  1
  O  O42  1  0.47256600  0.72320700  0.08183200  1
  O  O43  1  0.27679300  0.52743400  0.91816800  1
  O  O44  1  0.84833600  0.84833600  0.09900500  1
  O  O45  1  0.51033600  0.51033600  0.24849200  1
  O  O46  1  0.01033600  0.01033600  0.25150800  1
  O  O47  1  0.34833600  0.34833600  0.40099500  1
  O  O48  1  0.65166400  0.65166400  0.59900500  1
  O  O49  1  0.48966400  0.48966400  0.75150800  1
  O  O50  1  0.15166400  0.15166400  0.90099500  1
  O  O51  1  0.98966400  0.98966400  0.74849200  1
  O  O52  1  0.72320700  0.47256600  0.08183200  1
  O  O53  1  0.52743400  0.27679300  0.91816800  1
  O  O54  1  0.70743800  0.45369300  0.41961100  1
  O  O55  1  0.54630700  0.29256200  0.58038900  1
  O  O56  1  0.38413400  0.11998300  0.25809500  1
  O  O57  1  0.38001700  0.11586600  0.75809500  1
  O  O58  1  0.88413400  0.61998300  0.24190500  1
  O  O59  1  0.88001700  0.61586600  0.74190500  1
  O  O60  1  0.59865200  0.10584200  0.40902100  1
  O  O61  1  0.89415800  0.40134800  0.59097900  1
  O  O62  1  0.77813700  0.27813700  0.25000000  1
  O  O63  1  0.72186300  0.22186300  0.75000000  1
  O  O64  1  0.60584200  0.09865200  0.09097900  1
  O  O65  1  0.90134800  0.39415800  0.90902100  1
  O  O66  1  0.95369300  0.20743800  0.08038900  1
  O  O67  1  0.79256200  0.04630700  0.91961100  1
  O  O68  1  0.97256600  0.22320700  0.41816800  1
  O  O69  1  0.77679300  0.02743400  0.58183200  1
