# generated using pymatgen
data_W2C7Br4O7
_symmetry_space_group_name_H-M   'P 1'
_cell_length_a   8.27735000
_cell_length_b   9.92943800
_cell_length_c   20.81091600
_cell_angle_alpha   90.00000000
_cell_angle_beta   90.00000000
_cell_angle_gamma   90.00000000
_symmetry_Int_Tables_number   1
_chemical_formula_structural   W2C7Br4O7
_chemical_formula_sum   'W8 C28 Br16 O28'
_cell_volume   1710.43739935
_cell_formula_units_Z   4
loop_
 _symmetry_equiv_pos_site_id
 _symmetry_equiv_pos_as_xyz
  1  'x, y, z'
loop_
 _atom_site_type_symbol
 _atom_site_label
 _atom_site_symmetry_multiplicity
 _atom_site_fract_x
 _atom_site_fract_y
 _atom_site_fract_z
 _atom_site_occupancy
  W  W0  1  0.75000000  0.21603600  0.64548700  1
  W  W1  1  0.75000000  0.84936500  0.59557800  1
  W  W2  1  0.25000000  0.15063500  0.40442200  1
  W  W3  1  0.75000000  0.65063500  0.09557800  1
  W  W4  1  0.75000000  0.28396400  0.14548700  1
  W  W5  1  0.25000000  0.71603600  0.85451300  1
  W  W6  1  0.25000000  0.34936500  0.90442200  1
  W  W7  1  0.25000000  0.78396400  0.35451300  1
  C  C8  1  0.25000000  0.62616800  0.41835500  1
  C  C9  1  0.75000000  0.37383200  0.58164500  1
  C  C10  1  0.25000000  0.19916900  0.49871700  1
  C  C11  1  0.94520100  0.76983300  0.08138300  1
  C  C12  1  0.25000000  0.73954400  0.25715300  1
  C  C13  1  0.53991000  0.17380600  0.15916200  1
  C  C14  1  0.46009000  0.67380600  0.34083800  1
  C  C15  1  0.96009000  0.32619400  0.65916200  1
  C  C16  1  0.44520100  0.23016700  0.91861700  1
  C  C17  1  0.96009000  0.17380600  0.15916200  1
  C  C18  1  0.75000000  0.26045600  0.74284700  1
  C  C19  1  0.94520100  0.73016700  0.58138300  1
  C  C20  1  0.46009000  0.82619400  0.84083800  1
  C  C21  1  0.75000000  0.69916900  0.00128300  1
  C  C22  1  0.03991000  0.67380600  0.34083800  1
  C  C23  1  0.05479900  0.26983300  0.41861700  1
  C  C24  1  0.53991000  0.32619400  0.65916200  1
  C  C25  1  0.25000000  0.87383200  0.91835500  1
  C  C26  1  0.44520100  0.26983300  0.41861700  1
  C  C27  1  0.25000000  0.76045600  0.75715300  1
  C  C28  1  0.55479900  0.73016700  0.58138300  1
  C  C29  1  0.75000000  0.80083100  0.50128300  1
  C  C30  1  0.75000000  0.12616800  0.08164500  1
  C  C31  1  0.03991000  0.82619400  0.84083800  1
  C  C32  1  0.05479900  0.23016700  0.91861700  1
  C  C33  1  0.75000000  0.23954400  0.24284700  1
  C  C34  1  0.25000000  0.30083100  0.99871700  1
  C  C35  1  0.55479900  0.76983300  0.08138300  1
  Br  Br36  1  0.53717600  0.01165600  0.66279700  1
  Br  Br37  1  0.25000000  0.59079300  0.97178000  1
  Br  Br38  1  0.25000000  0.31772400  0.30240400  1
  Br  Br39  1  0.03717600  0.98834400  0.33720300  1
  Br  Br40  1  0.96282400  0.01165600  0.66279700  1
  Br  Br41  1  0.75000000  0.40920700  0.02822000  1
  Br  Br42  1  0.03717600  0.51165600  0.83720300  1
  Br  Br43  1  0.75000000  0.09079300  0.52822000  1
  Br  Br44  1  0.53717600  0.48834400  0.16279700  1
  Br  Br45  1  0.25000000  0.90920700  0.47178000  1
  Br  Br46  1  0.25000000  0.18227600  0.80240400  1
  Br  Br47  1  0.46282400  0.98834400  0.33720300  1
  Br  Br48  1  0.46282400  0.51165600  0.83720300  1
  Br  Br49  1  0.75000000  0.81772400  0.19759600  1
  Br  Br50  1  0.75000000  0.68227600  0.69759600  1
  Br  Br51  1  0.96282400  0.48834400  0.16279700  1
  O  O52  1  0.42670900  0.39047600  0.66863000  1
  O  O53  1  0.75000000  0.21899500  0.29735600  1
  O  O54  1  0.75000000  0.76664500  0.44758900  1
  O  O55  1  0.75000000  0.28100500  0.79735600  1
  O  O56  1  0.55657100  0.16067800  0.92612600  1
  O  O57  1  0.94342900  0.33932200  0.42612600  1
  O  O58  1  0.07329100  0.10952400  0.16863000  1
  O  O59  1  0.25000000  0.53984100  0.45548200  1
  O  O60  1  0.92670900  0.89047600  0.83137000  1
  O  O61  1  0.05657100  0.83932200  0.07387400  1
  O  O62  1  0.42670900  0.10952400  0.16863000  1
  O  O63  1  0.25000000  0.23335500  0.55241100  1
  O  O64  1  0.25000000  0.26664500  0.05241100  1
  O  O65  1  0.25000000  0.78100500  0.70264400  1
  O  O66  1  0.92670900  0.60952400  0.33137000  1
  O  O67  1  0.44342900  0.66067800  0.57387400  1
  O  O68  1  0.57329100  0.89047600  0.83137000  1
  O  O69  1  0.75000000  0.03984100  0.04451800  1
  O  O70  1  0.07329100  0.39047600  0.66863000  1
  O  O71  1  0.75000000  0.46015900  0.54451800  1
  O  O72  1  0.75000000  0.73335500  0.94758900  1
  O  O73  1  0.25000000  0.71899500  0.20264400  1
  O  O74  1  0.05657100  0.66067800  0.57387400  1
  O  O75  1  0.94342900  0.16067800  0.92612600  1
  O  O76  1  0.57329100  0.60952400  0.33137000  1
  O  O77  1  0.25000000  0.96015900  0.95548200  1
  O  O78  1  0.44342900  0.83932200  0.07387400  1
  O  O79  1  0.55657100  0.33932200  0.42612600  1
