# generated using pymatgen
data_LaSiAs3
_symmetry_space_group_name_H-M   'P 1'
_cell_length_a   5.96675200
_cell_length_b   6.03071200
_cell_length_c   26.66903300
_cell_angle_alpha   90.00000000
_cell_angle_beta   90.00000000
_cell_angle_gamma   90.00000000
_symmetry_Int_Tables_number   1
_chemical_formula_structural   LaSiAs3
_chemical_formula_sum   'La8 Si8 As24'
_cell_volume   959.65215991
_cell_formula_units_Z   8
loop_
 _symmetry_equiv_pos_site_id
 _symmetry_equiv_pos_as_xyz
  1  'x, y, z'
loop_
 _atom_site_type_symbol
 _atom_site_label
 _atom_site_symmetry_multiplicity
 _atom_site_fract_x
 _atom_site_fract_y
 _atom_site_fract_z
 _atom_site_occupancy
  La  La0  1  0.00240300  0.99991700  0.09093100  1
  La  La1  1  0.00240300  0.49991700  0.40906900  1
  La  La2  1  0.99759700  0.50008300  0.59093100  1
  La  La3  1  0.49759700  0.49991700  0.90906900  1
  La  La4  1  0.99759700  0.00008300  0.90906900  1
  La  La5  1  0.50240300  0.50008300  0.09093100  1
  La  La6  1  0.50240300  0.00008300  0.40906900  1
  La  La7  1  0.49759700  0.99991700  0.59093100  1
  Si  Si8  1  0.92023800  0.41470500  0.20672400  1
  Si  Si9  1  0.57976200  0.41470500  0.70672400  1
  Si  Si10  1  0.92023800  0.91470500  0.29327600  1
  Si  Si11  1  0.07976200  0.08529500  0.70672400  1
  Si  Si12  1  0.42023800  0.58529500  0.29327600  1
  Si  Si13  1  0.07976200  0.58529500  0.79327600  1
  Si  Si14  1  0.42023800  0.08529500  0.20672400  1
  Si  Si15  1  0.57976200  0.91470500  0.79327600  1
  As  As16  1  0.25240100  0.74780300  0.50022200  1
  As  As17  1  0.02350500  0.53770800  0.28865600  1
  As  As18  1  0.52350500  0.46229200  0.21134400  1
  As  As19  1  0.02350500  0.03770800  0.21134400  1
  As  As20  1  0.49480600  0.00450100  0.87616000  1
  As  As21  1  0.49480600  0.50450100  0.62384000  1
  As  As22  1  0.24759900  0.74780300  0.00022200  1
  As  As23  1  0.74759900  0.75219700  0.00022200  1
  As  As24  1  0.47649500  0.53770800  0.78865600  1
  As  As25  1  0.50519400  0.49549900  0.37616000  1
  As  As26  1  0.74759900  0.25219700  0.49977800  1
  As  As27  1  0.99480600  0.49549900  0.87616000  1
  As  As28  1  0.00519400  0.00450100  0.37616000  1
  As  As29  1  0.52350500  0.96229200  0.28865600  1
  As  As30  1  0.97649500  0.46229200  0.71134400  1
  As  As31  1  0.75240100  0.25219700  0.99977800  1
  As  As32  1  0.50519400  0.99549900  0.12384000  1
  As  As33  1  0.00519400  0.50450100  0.12384000  1
  As  As34  1  0.47649500  0.03770800  0.71134400  1
  As  As35  1  0.97649500  0.96229200  0.78865600  1
  As  As36  1  0.99480600  0.99549900  0.62384000  1
  As  As37  1  0.24759900  0.24780300  0.49977800  1
  As  As38  1  0.25240100  0.24780300  0.99977800  1
  As  As39  1  0.75240100  0.75219700  0.50022200  1
