# generated using pymatgen
data_K2CoCl4
_symmetry_space_group_name_H-M   'P 1'
_cell_length_a   14.55514674
_cell_length_b   14.55514670
_cell_length_c   27.21581454
_cell_angle_alpha   89.93401607
_cell_angle_beta   89.93401607
_cell_angle_gamma   119.00204953
_symmetry_Int_Tables_number   1
_chemical_formula_structural   K2CoCl4
_chemical_formula_sum   'K48 Co24 Cl96'
_cell_volume   5042.71055662
_cell_formula_units_Z   24
loop_
 _symmetry_equiv_pos_site_id
 _symmetry_equiv_pos_as_xyz
  1  'x, y, z'
loop_
 _atom_site_type_symbol
 _atom_site_label
 _atom_site_symmetry_multiplicity
 _atom_site_fract_x
 _atom_site_fract_y
 _atom_site_fract_z
 _atom_site_occupancy
  K  K0  1  0.26449846  0.92876359  0.04436134  1
  K  K1  1  0.11215231  0.17556446  0.33115103  1
  K  K2  1  0.46361656  0.78210939  0.54359814  1
  K  K3  1  0.17556446  0.11215231  0.83115103  1
  K  K4  1  0.63256619  0.07151627  0.99933126  1
  K  K5  1  0.28214742  0.45615645  0.11982688  1
  K  K6  1  0.81408443  0.48408146  0.70993172  1
  K  K7  1  0.96937978  0.30309530  0.21129192  1
  K  K8  1  0.07151627  0.63256619  0.49933126  1
  K  K9  1  0.56891710  0.12993270  0.50118834  1
  K  K10  1  0.62698596  0.56815254  0.49890559  1
  K  K11  1  0.66529434  0.59578446  0.16769041  1
  K  K12  1  0.26992920  0.95134253  0.38092064  1
  K  K13  1  0.45223662  0.79256242  0.88026256  1
  K  K14  1  0.30309530  0.96937978  0.71129192  1
  K  K15  1  0.30034195  0.47667361  0.78979050  1
  K  K16  1  0.92876359  0.26449846  0.54436134  1
  K  K17  1  0.95134253  0.26992920  0.88092064  1
  K  K18  1  0.11128081  0.67366841  0.16966888  1
  K  K19  1  0.13885309  0.07239277  0.50031262  1
  K  K20  1  0.66752952  0.60618041  0.83345219  1
  K  K21  1  0.78385426  0.93858524  0.11904053  1
  K  K22  1  0.80750357  0.96852396  0.79080476  1
  K  K23  1  0.79256242  0.45223662  0.38026256  1
  K  K24  1  0.17229925  0.60972890  0.66530832  1
  K  K25  1  0.48408146  0.81408443  0.20993172  1
  K  K26  1  0.16522648  0.10442433  0.16669515  1
  K  K27  1  0.79063916  0.95371599  0.45709283  1
  K  K28  1  0.56815254  0.62698596  0.99890559  1
  K  K29  1  0.95371599  0.79063916  0.95709283  1
  K  K30  1  0.25955680  0.43109627  0.45602241  1
  K  K31  1  0.60972890  0.17229925  0.16530832  1
  K  K32  1  0.47667361  0.30034195  0.28979050  1
  K  K33  1  0.45615645  0.28214742  0.61982688  1
  K  K34  1  0.59578446  0.66529434  0.66769041  1
  K  K35  1  0.07239277  0.13885309  0.00031262  1
  K  K36  1  0.65848211  0.09086880  0.33544111  1
  K  K37  1  0.17312422  0.60831087  0.33179869  1
  K  K38  1  0.12993270  0.56891710  0.00118834  1
  K  K39  1  0.60618041  0.66752952  0.33345219  1
  K  K40  1  0.96852396  0.80750357  0.29080476  1
  K  K41  1  0.93858524  0.78385426  0.61904053  1
  K  K42  1  0.78210939  0.46361656  0.04359814  1
  K  K43  1  0.67366841  0.11128081  0.66966888  1
  K  K44  1  0.60831087  0.17312422  0.83179869  1
  K  K45  1  0.09086880  0.65848211  0.83544111  1
  K  K46  1  0.43109627  0.25955680  0.95602241  1
  K  K47  1  0.10442433  0.16522648  0.66669515  1
  Co  Co48  1  0.43829830  0.27243982  0.09482528  1
  Co  Co49  1  0.77494105  0.44227893  0.90566940  1
  Co  Co50  1  0.29007554  0.95308168  0.57250131  1
  Co  Co51  1  0.78926351  0.46459132  0.57206789  1
  Co  Co52  1  0.27243982  0.43829830  0.59482528  1
  Co  Co53  1  0.80265563  0.46491214  0.24248705  1
  Co  Co54  1  0.46491214  0.80265563  0.74248705  1
  Co  Co55  1  0.29766864  0.96816539  0.24038428  1
  Co  Co56  1  0.28723956  0.46267199  0.92717526  1
  Co  Co57  1  0.46267199  0.28723956  0.42717526  1
  Co  Co58  1  0.94733771  0.77910810  0.09634265  1
  Co  Co59  1  0.95308168  0.29007554  0.07250131  1
  Co  Co60  1  0.96816539  0.29766864  0.74038428  1
  Co  Co61  1  0.96504393  0.79951667  0.75971298  1
  Co  Co62  1  0.94497518  0.27927274  0.40399636  1
  Co  Co63  1  0.30050248  0.46746209  0.25860809  1
  Co  Co64  1  0.44227893  0.77494105  0.40566940  1
  Co  Co65  1  0.79171064  0.95506785  0.92945093  1
  Co  Co66  1  0.79951667  0.96504393  0.25971298  1
  Co  Co67  1  0.46459132  0.78926351  0.07206789  1
  Co  Co68  1  0.27927274  0.94497518  0.90399636  1
  Co  Co69  1  0.77910810  0.94733771  0.59634265  1
  Co  Co70  1  0.95506785  0.79171064  0.42945093  1
  Co  Co71  1  0.46746209  0.30050248  0.75860809  1
  Cl  Cl72  1  0.78468417  0.71865297  0.06449527  1
  Cl  Cl73  1  0.73849820  0.78237258  0.92141263  1
  Cl  Cl74  1  0.70002920  0.30664855  0.27894491  1
  Cl  Cl75  1  0.67972171  0.50950348  0.61213880  1
  Cl  Cl76  1  0.80583647  0.70032407  0.72330665  1
  Cl  Cl77  1  0.48070864  0.16216550  0.05371513  1
  Cl  Cl78  1  0.01484657  0.46777837  0.75228833  1
  Cl  Cl79  1  0.78291524  0.22843357  0.43491324  1
  Cl  Cl80  1  0.24557091  0.78229940  0.57742897  1
  Cl  Cl81  1  0.97003988  0.01509947  0.24563916  1
  Cl  Cl82  1  0.00968913  0.31721150  0.99434884  1
  Cl  Cl83  1  0.01509947  0.97003988  0.74563916  1
  Cl  Cl84  1  0.46777837  0.01484657  0.25228833  1
  Cl  Cl85  1  0.43904695  0.76037069  0.66253400  1
  Cl  Cl86  1  0.07289432  0.75173211  0.72045433  1
  Cl  Cl87  1  0.56118925  0.44374382  0.38863363  1
  Cl  Cl88  1  0.25229091  0.43904644  0.33793136  1
  Cl  Cl89  1  0.17615305  0.98908805  0.61382027  1
  Cl  Cl90  1  0.29108977  0.23651056  0.41709845  1
  Cl  Cl91  1  0.26642343  0.58645745  0.22038049  1
  Cl  Cl92  1  0.93339514  0.74540530  0.17665205  1
  Cl  Cl93  1  0.81558516  0.51348573  0.49298367  1
  Cl  Cl94  1  0.27868241  0.24349104  0.06931860  1
  Cl  Cl95  1  0.93056302  0.23775014  0.32443297  1
  Cl  Cl96  1  0.24104441  0.43265856  0.67552383  1
  Cl  Cl97  1  0.55134358  0.43923700  0.07336576  1
  Cl  Cl98  1  0.56139728  0.94861692  0.10881468  1
  Cl  Cl99  1  0.75173211  0.07289432  0.22045433  1
  Cl  Cl100  1  0.93507398  0.75473838  0.83931193  1
  Cl  Cl101  1  0.04505648  0.95246325  0.39208443  1
  Cl  Cl102  1  0.25737988  0.08093767  0.28064647  1
  Cl  Cl103  1  0.94864666  0.04189860  0.57339157  1
  Cl  Cl104  1  0.02080530  0.69328097  0.05707162  1
  Cl  Cl105  1  0.04189860  0.94864666  0.07339157  1
  Cl  Cl106  1  0.51348573  0.81558516  0.99298367  1
  Cl  Cl107  1  0.43923700  0.55134358  0.57336576  1
  Cl  Cl108  1  0.43265856  0.24104441  0.17552383  1
  Cl  Cl109  1  0.93420844  0.55791193  0.93560968  1
  Cl  Cl110  1  0.05122777  0.44683655  0.11127471  1
  Cl  Cl111  1  0.58645745  0.26642343  0.72038049  1
  Cl  Cl112  1  0.78237258  0.73849820  0.42141263  1
  Cl  Cl113  1  0.19188504  0.01358395  0.94673885  1
  Cl  Cl114  1  0.19434039  0.31242030  0.22058414  1
  Cl  Cl115  1  0.65682928  0.47938310  0.94248159  1
  Cl  Cl116  1  0.16944360  0.49707511  0.88765589  1
  Cl  Cl117  1  0.78229940  0.24557091  0.07742897  1
  Cl  Cl118  1  0.55791193  0.93420844  0.43560968  1
  Cl  Cl119  1  0.69328097  0.02080530  0.55707162  1
  Cl  Cl120  1  0.29241564  0.73245052  0.08444091  1
  Cl  Cl121  1  0.22843357  0.78291524  0.93491324  1
  Cl  Cl122  1  0.01280726  0.81677174  0.50738374  1
  Cl  Cl123  1  0.31520141  0.51470377  0.00586940  1
  Cl  Cl124  1  0.57680911  0.75997716  0.78131990  1
  Cl  Cl125  1  0.30664855  0.70002920  0.77894491  1
  Cl  Cl126  1  0.81216061  0.19307963  0.77795104  1
  Cl  Cl127  1  0.04322538  0.45109334  0.42152849  1
  Cl  Cl128  1  0.75473838  0.93507398  0.33931193  1
  Cl  Cl129  1  0.73245052  0.29241564  0.58444091  1
  Cl  Cl130  1  0.68605522  0.00030690  0.88678771  1
  Cl  Cl131  1  0.19307963  0.81216061  0.27795104  1
  Cl  Cl132  1  0.75763320  0.44369625  0.82413594  1
  Cl  Cl133  1  0.76037069  0.43904695  0.16253400  1
  Cl  Cl134  1  0.50737142  0.46902915  0.74693458  1
  Cl  Cl135  1  0.00030690  0.68605522  0.38678771  1
  Cl  Cl136  1  0.71865297  0.78468417  0.56449527  1
  Cl  Cl137  1  0.44683655  0.05122777  0.61127471  1
  Cl  Cl138  1  0.45109334  0.04322538  0.92152849  1
  Cl  Cl139  1  0.08093767  0.25737988  0.78064647  1
  Cl  Cl140  1  0.23775014  0.93056302  0.82443297  1
  Cl  Cl141  1  0.47938310  0.65682928  0.44248159  1
  Cl  Cl142  1  0.25000863  0.93963161  0.16122067  1
  Cl  Cl143  1  0.51470377  0.31520141  0.50586940  1
  Cl  Cl144  1  0.93963161  0.25000863  0.66122067  1
  Cl  Cl145  1  0.46902915  0.50737142  0.24693458  1
  Cl  Cl146  1  0.51152398  0.97244842  0.75623778  1
  Cl  Cl147  1  0.97244842  0.51152398  0.25623778  1
  Cl  Cl148  1  0.01358395  0.19188504  0.44673885  1
  Cl  Cl149  1  0.44374382  0.56118925  0.88863363  1
  Cl  Cl150  1  0.49707511  0.16944360  0.38765589  1
  Cl  Cl151  1  0.44369625  0.75763320  0.32413594  1
  Cl  Cl152  1  0.74540530  0.93339514  0.67665205  1
  Cl  Cl153  1  0.94861692  0.56139728  0.60881468  1
  Cl  Cl154  1  0.28126317  0.74417620  0.42885367  1
  Cl  Cl155  1  0.98908805  0.17615305  0.11382027  1
  Cl  Cl156  1  0.31721150  0.00968913  0.49434884  1
  Cl  Cl157  1  0.74417620  0.28126317  0.92885367  1
  Cl  Cl158  1  0.50950348  0.67972171  0.11213880  1
  Cl  Cl159  1  0.70032407  0.80583647  0.22330665  1
  Cl  Cl160  1  0.81677174  0.01280726  0.00738374  1
  Cl  Cl161  1  0.23651056  0.29108977  0.91709845  1
  Cl  Cl162  1  0.24349104  0.27868241  0.56931860  1
  Cl  Cl163  1  0.43904644  0.25229091  0.83793136  1
  Cl  Cl164  1  0.75997716  0.57680911  0.28131990  1
  Cl  Cl165  1  0.31242030  0.19434039  0.72058414  1
  Cl  Cl166  1  0.95246325  0.04505648  0.89208443  1
  Cl  Cl167  1  0.16216550  0.48070864  0.55371513  1
