# generated using pymatgen
data_NaCa2TiSi2O8F
_symmetry_space_group_name_H-M   'P 1'
_cell_length_a   5.80429400
_cell_length_b   7.60714591
_cell_length_c   19.27502629
_cell_angle_alpha   101.30828057
_cell_angle_beta   90.28643214
_cell_angle_gamma   89.97194391
_symmetry_Int_Tables_number   1
_chemical_formula_structural   NaCa2TiSi2O8F
_chemical_formula_sum   'Na4 Ca8 Ti4 Si8 O32 F4'
_cell_volume   834.53870000
_cell_formula_units_Z   4
loop_
 _symmetry_equiv_pos_site_id
 _symmetry_equiv_pos_as_xyz
  1  'x, y, z'
loop_
 _atom_site_type_symbol
 _atom_site_label
 _atom_site_symmetry_multiplicity
 _atom_site_fract_x
 _atom_site_fract_y
 _atom_site_fract_z
 _atom_site_occupancy
  Na  Na0  1  0.27008200  0.50004600  0.49595000  1
  Na  Na1  1  0.97694800  0.00077800  0.99709300  1
  Na  Na2  1  0.98139900  0.49664700  0.99798600  1
  Na  Na3  1  0.27589000  0.04594500  0.49807900  1
  Ca  Ca4  1  0.07512000  0.65806200  0.32855000  1
  Ca  Ca5  1  0.46454100  0.32963800  0.67426600  1
  Ca  Ca6  1  0.78636000  0.83689900  0.17641500  1
  Ca  Ca7  1  0.46176800  0.83115200  0.67192900  1
  Ca  Ca8  1  0.18756700  0.65765000  0.82177500  1
  Ca  Ca9  1  0.77877300  0.33467900  0.17905500  1
  Ca  Ca10  1  0.17720700  0.16203500  0.82347300  1
  Ca  Ca11  1  0.07197800  0.15420300  0.32664800  1
  Ti  Ti12  1  0.77601200  0.87214300  0.50096100  1
  Ti  Ti13  1  0.53499500  0.23669200  0.97497100  1
  Ti  Ti14  1  0.41125100  0.76376900  0.02697400  1
  Ti  Ti15  1  0.78013900  0.31480300  0.50299100  1
  Si  Si16  1  0.29294000  0.09460900  0.15321600  1
  Si  Si17  1  0.57923400  0.43165000  0.35444200  1
  Si  Si18  1  0.68456500  0.90443300  0.84446100  1
  Si  Si19  1  0.68421600  0.44180100  0.84797700  1
  Si  Si20  1  0.95017600  0.58272700  0.65088300  1
  Si  Si21  1  0.94735000  0.04952100  0.65037000  1
  Si  Si22  1  0.57678900  0.89947600  0.35152400  1
  Si  Si23  1  0.29117500  0.56025500  0.15698500  1
  O  O24  1  0.71124400  0.77274900  0.04809500  1
  O  O25  1  0.70290400  0.58978000  0.68622800  1
  O  O26  1  0.66425000  0.41107300  0.92853700  1
  O  O27  1  0.68121100  0.27645600  0.05827900  1
  O  O28  1  0.66661000  0.02137400  0.92414000  1
  O  O29  1  0.23422800  0.22805700  0.95348900  1
  O  O30  1  0.31910700  0.91100900  0.32520800  1
  O  O31  1  0.05711400  0.60062600  0.20172400  1
  O  O32  1  0.54070500  0.26151400  0.55513100  1
  O  O33  1  0.61114800  0.98655200  0.43486800  1
  O  O34  1  0.60903700  0.41839200  0.43650500  1
  O  O35  1  0.31976200  0.39862600  0.32754500  1
  O  O36  1  0.05668500  0.09040700  0.19604500  1
  O  O37  1  0.95140800  0.05324800  0.56623800  1
  O  O38  1  0.80398800  0.38617000  0.30614700  1
  O  O39  1  0.27316300  0.98375000  0.07255700  1
  O  O40  1  0.45153400  0.90004400  0.79907400  1
  O  O41  1  0.26286200  0.60484400  0.07857100  1
  O  O42  1  0.53943800  0.09291000  0.18863800  1
  O  O43  1  0.70441600  0.08297600  0.68728200  1
  O  O44  1  0.93970400  0.90708300  0.81471700  1
  O  O45  1  0.98574000  0.73074000  0.45115000  1
  O  O46  1  0.80158200  0.90084500  0.30388000  1
  O  O47  1  0.93905200  0.40687300  0.81867400  1
  O  O48  1  0.55878000  0.78268100  0.54897900  1
  O  O49  1  0.96755900  0.47308400  0.57014000  1
  O  O50  1  0.18606100  0.10150800  0.69154800  1
  O  O51  1  0.00855600  0.20882400  0.44662800  1
  O  O52  1  0.45331700  0.39560800  0.80216800  1
  O  O53  1  0.54027200  0.59187200  0.19134000  1
  O  O54  1  0.18844000  0.58086600  0.69377600  1
  O  O55  1  0.27227200  0.71969300  0.94269600  1
  F  F56  1  0.68337100  0.68370000  0.86580200  1
  F  F57  1  0.98416100  0.80440200  0.63302500  1
  F  F58  1  0.26087900  0.31845900  0.13393300  1
  F  F59  1  0.57996700  0.67059300  0.36427000  1
