# generated using pymatgen
data_Rb6U2W4O21
_symmetry_space_group_name_H-M   'P 1'
_cell_length_a   10.35858100
_cell_length_b   13.43510750
_cell_length_c   19.17744386
_cell_angle_alpha   97.99561512
_cell_angle_beta   96.51946683
_cell_angle_gamma   104.18682481
_symmetry_Int_Tables_number   1
_chemical_formula_structural   Rb6U2W4O21
_chemical_formula_sum   'Rb24 U8 W16 O84'
_cell_volume   2531.87332158
_cell_formula_units_Z   4
loop_
 _symmetry_equiv_pos_site_id
 _symmetry_equiv_pos_as_xyz
  1  'x, y, z'
loop_
 _atom_site_type_symbol
 _atom_site_label
 _atom_site_symmetry_multiplicity
 _atom_site_fract_x
 _atom_site_fract_y
 _atom_site_fract_z
 _atom_site_occupancy
  Rb  Rb0  1  0.70179200  0.93659900  0.65178900  1
  Rb  Rb1  1  0.19714800  0.57199400  0.47108500  1
  Rb  Rb2  1  0.90982800  0.23384800  0.04719500  1
  Rb  Rb3  1  0.44010500  0.93830400  0.89903500  1
  Rb  Rb4  1  0.35346500  0.76481100  0.69270500  1
  Rb  Rb5  1  0.26789000  0.42870500  0.00518800  1
  Rb  Rb6  1  0.52256700  0.57356500  0.26380800  1
  Rb  Rb7  1  0.29820800  0.06340100  0.34821100  1
  Rb  Rb8  1  0.47743300  0.42643500  0.73619200  1
  Rb  Rb9  1  0.19630400  0.93853200  0.14474500  1
  Rb  Rb10  1  0.04561100  0.06816500  0.59964000  1
  Rb  Rb11  1  0.55989500  0.06169600  0.10096500  1
  Rb  Rb12  1  0.80369600  0.06146800  0.85525500  1
  Rb  Rb13  1  0.40738900  0.21121100  0.54378300  1
  Rb  Rb14  1  0.80285200  0.42800600  0.52891500  1
  Rb  Rb15  1  0.64653500  0.23518900  0.30729500  1
  Rb  Rb16  1  0.04547300  0.56492700  0.76607700  1
  Rb  Rb17  1  0.14521400  0.23092600  0.80639000  1
  Rb  Rb18  1  0.73211000  0.57129500  0.99481200  1
  Rb  Rb19  1  0.95438900  0.93183500  0.40036000  1
  Rb  Rb20  1  0.09017200  0.76615200  0.95280500  1
  Rb  Rb21  1  0.59261100  0.78878900  0.45621700  1
  Rb  Rb22  1  0.85478600  0.76907400  0.19361000  1
  Rb  Rb23  1  0.95452700  0.43507300  0.23392300  1
  U  U24  1  0.77868700  0.27666500  0.70385000  1
  U  U25  1  0.22131300  0.72333500  0.29615000  1
  U  U26  1  0.74189500  0.73225800  0.79208500  1
  U  U27  1  0.56026400  0.27883400  0.90948900  1
  U  U28  1  0.94190300  0.73382500  0.60245700  1
  U  U29  1  0.43973600  0.72116600  0.09051100  1
  U  U30  1  0.25810500  0.26774200  0.20791500  1
  U  U31  1  0.05809700  0.26617500  0.39754300  1
  W  W32  1  0.22608900  0.13626500  0.99246600  1
  W  W33  1  0.43474500  0.09771900  0.72746400  1
  W  W34  1  0.27649300  0.86837800  0.51122900  1
  W  W35  1  0.56525500  0.90228100  0.27253600  1
  W  W36  1  0.77391100  0.86373500  0.00753400  1
  W  W37  1  0.44934300  0.40348400  0.40569500  1
  W  W38  1  0.72350700  0.13162200  0.48877100  1
  W  W39  1  0.86657800  0.62176300  0.38330500  1
  W  W40  1  0.05375700  0.90398400  0.76983400  1
  W  W41  1  0.94624300  0.09601600  0.23016600  1
  W  W42  1  0.13342200  0.37823700  0.61669500  1
  W  W43  1  0.38929800  0.62102500  0.87428800  1
  W  W44  1  0.10889300  0.62356700  0.11562400  1
  W  W45  1  0.55065700  0.59651600  0.59430500  1
  W  W46  1  0.61070200  0.37897500  0.12571200  1
  W  W47  1  0.89110700  0.37643300  0.88437600  1
  O  O48  1  0.44059900  0.67002700  0.56039300  1
  O  O49  1  0.55071900  0.17919900  0.67916200  1
  O  O50  1  0.52021000  0.54238800  0.42726300  1
  O  O51  1  0.71986800  0.95634100  0.33171400  1
  O  O52  1  0.40336300  0.84238000  0.06719700  1
  O  O53  1  0.29081700  0.02791100  0.01193000  1
  O  O54  1  0.95980200  0.51479800  0.90629800  1
  O  O55  1  0.84935600  0.77332600  0.69950600  1
  O  O56  1  0.33216000  0.21605300  0.93872700  1
  O  O57  1  0.72451000  0.39290500  0.68723400  1
  O  O58  1  0.10025300  0.15407600  0.43302800  1
  O  O59  1  0.09188800  0.36923200  0.52015800  1
  O  O60  1  0.71610900  0.63690900  0.56613300  1
  O  O61  1  0.77097800  0.36413400  0.95507400  1
  O  O62  1  0.04019800  0.48520200  0.09370200  1
  O  O63  1  0.55856500  0.09057700  0.43625200  1
  O  O64  1  0.70283100  0.28592100  0.14790300  1
  O  O65  1  0.59663700  0.15762000  0.93280300  1
  O  O66  1  0.28719300  0.70972900  0.17721400  1
  O  O67  1  0.77169500  0.49271100  0.34104100  1
  O  O68  1  0.89004700  0.17327200  0.30398700  1
  O  O69  1  0.71440800  0.20996100  0.57376100  1
  O  O70  1  0.10995300  0.82672800  0.69601300  1
  O  O71  1  0.44928100  0.82080100  0.32083800  1
  O  O72  1  0.21833700  0.97966900  0.49261600  1
  O  O73  1  0.58713200  0.81122600  0.19625700  1
  O  O74  1  0.41286800  0.18877400  0.80374300  1
  O  O75  1  0.47986300  0.60198000  0.11271300  1
  O  O76  1  0.77288400  0.77765800  0.92389100  1
  O  O77  1  0.44143500  0.90942300  0.56374800  1
  O  O78  1  0.19732000  0.38291400  0.20000800  1
  O  O79  1  0.50578800  0.99718000  0.75537600  1
  O  O80  1  0.33310000  0.15624400  0.21234400  1
  O  O81  1  0.96009800  0.83782600  0.83545100  1
  O  O82  1  0.05622500  0.63865900  0.20984300  1
  O  O83  1  0.98067400  0.61542500  0.62718100  1
  O  O84  1  0.70918300  0.97208900  0.98807000  1
  O  O85  1  0.57849200  0.63525400  0.69120600  1
  O  O86  1  0.00660600  0.31061500  0.92335700  1
  O  O87  1  0.28084600  0.49228000  0.84400900  1
  O  O88  1  0.15064400  0.22667400  0.30049400  1
  O  O89  1  0.42150800  0.36474600  0.30879400  1
  O  O90  1  0.71915400  0.50772000  0.15599100  1
  O  O91  1  0.99339400  0.68938500  0.07664300  1
  O  O92  1  0.47979000  0.45761200  0.57273700  1
  O  O93  1  0.55940100  0.32997300  0.43960700  1
  O  O94  1  0.46276600  0.36314800  0.17095200  1
  O  O95  1  0.44410400  0.64243300  0.97066500  1
  O  O96  1  0.28013200  0.04365900  0.66828600  1
  O  O97  1  0.90811200  0.63076800  0.47984200  1
  O  O98  1  0.05692400  0.09248200  0.94615300  1
  O  O99  1  0.03990200  0.16217400  0.16454900  1
  O  O100  1  0.77436300  0.71435100  0.36081100  1
  O  O101  1  0.29716900  0.71407900  0.85209700  1
  O  O102  1  0.94377500  0.36134100  0.79015700  1
  O  O103  1  0.80268000  0.61708600  0.79999200  1
  O  O104  1  0.49421200  0.00282000  0.24462400  1
  O  O105  1  0.89974700  0.84592400  0.56697200  1
  O  O106  1  0.28389100  0.36309100  0.43386700  1
  O  O107  1  0.94307600  0.90751800  0.05384700  1
  O  O108  1  0.52013700  0.39802000  0.88728700  1
  O  O109  1  0.22563700  0.28564900  0.63918900  1
  O  O110  1  0.28559200  0.79003900  0.42623900  1
  O  O111  1  0.55589600  0.35756700  0.02933500  1
  O  O112  1  0.78166300  0.02033100  0.50738400  1
  O  O113  1  0.17251200  0.84478100  0.28581900  1
  O  O114  1  0.22830500  0.50728900  0.65895900  1
  O  O115  1  0.22711600  0.22234200  0.07610900  1
  O  O116  1  0.21081300  0.97129400  0.82448300  1
  O  O117  1  0.02827400  0.65451500  0.35032500  1
  O  O118  1  0.53723400  0.63685200  0.82904800  1
  O  O119  1  0.66690000  0.84375600  0.78765600  1
  O  O120  1  0.66784000  0.78394700  0.06127300  1
  O  O121  1  0.22902200  0.63586600  0.04492600  1
  O  O122  1  0.84294000  0.21608900  0.44375700  1
  O  O123  1  0.01932600  0.38457500  0.37281900  1
  O  O124  1  0.98373000  0.00582800  0.74286900  1
  O  O125  1  0.82748800  0.15521900  0.71418100  1
  O  O126  1  0.78918700  0.02870600  0.17551700  1
  O  O127  1  0.15706000  0.78391100  0.55624300  1
  O  O128  1  0.97172600  0.34548500  0.64967500  1
  O  O129  1  0.27549000  0.60709500  0.31276600  1
  O  O130  1  0.01627000  0.99417200  0.25713100  1
  O  O131  1  0.71280700  0.29027100  0.82278600  1
