# generated using pymatgen
data_Na3Si2PO8
_symmetry_space_group_name_H-M   'P 1'
_cell_length_a   7.26478600
_cell_length_b   11.21440600
_cell_length_c   11.33534100
_cell_angle_alpha   90.00000000
_cell_angle_beta   90.00000000
_cell_angle_gamma   90.00000000
_symmetry_Int_Tables_number   1
_chemical_formula_structural   Na3Si2PO8
_chemical_formula_sum   'Na12 Si8 P4 O32'
_cell_volume   923.49317514
_cell_formula_units_Z   4
loop_
 _symmetry_equiv_pos_site_id
 _symmetry_equiv_pos_as_xyz
  1  'x, y, z'
loop_
 _atom_site_type_symbol
 _atom_site_label
 _atom_site_symmetry_multiplicity
 _atom_site_fract_x
 _atom_site_fract_y
 _atom_site_fract_z
 _atom_site_occupancy
  Na  Na0  1  0.78358400  0.42744800  0.48722400  1
  Na  Na1  1  0.71641600  0.57255200  0.98722400  1
  Na  Na2  1  0.52829800  0.83539800  0.49439200  1
  Na  Na3  1  0.13452700  0.47589600  0.92804700  1
  Na  Na4  1  0.47170200  0.33539800  0.00560800  1
  Na  Na5  1  0.63452700  0.02410400  0.07195300  1
  Na  Na6  1  0.21641600  0.92744800  0.01277600  1
  Na  Na7  1  0.86547300  0.97589600  0.57195300  1
  Na  Na8  1  0.02829800  0.66460200  0.50560800  1
  Na  Na9  1  0.97170200  0.16460200  0.99439200  1
  Na  Na10  1  0.36547300  0.52410400  0.42804700  1
  Na  Na11  1  0.28358400  0.07255200  0.51277600  1
  Si  Si12  1  0.27972300  0.17783100  0.21898300  1
  Si  Si13  1  0.87723800  0.86851200  0.87290400  1
  Si  Si14  1  0.72027700  0.67783100  0.28101700  1
  Si  Si15  1  0.62276200  0.13148800  0.37290400  1
  Si  Si16  1  0.12276200  0.36851200  0.62709600  1
  Si  Si17  1  0.22027700  0.82216900  0.71898300  1
  Si  Si18  1  0.77972300  0.32216900  0.78101700  1
  Si  Si19  1  0.37723800  0.63148800  0.12709600  1
  P  P20  1  0.38237400  0.27637600  0.73701600  1
  P  P21  1  0.11762600  0.72362400  0.23701600  1
  P  P22  1  0.88237400  0.22362400  0.26298400  1
  P  P23  1  0.61762600  0.77637600  0.76298400  1
  O  O24  1  0.67701400  0.57088300  0.36870700  1
  O  O25  1  0.21929800  0.68450900  0.66449700  1
  O  O26  1  0.28070200  0.31549100  0.16449700  1
  O  O27  1  0.82298600  0.42911700  0.86870700  1
  O  O28  1  0.71929800  0.81549100  0.33550300  1
  O  O29  1  0.92243000  0.66228300  0.20441300  1
  O  O30  1  0.16404900  0.30965500  0.05385900  1
  O  O31  1  0.24693000  0.39799300  0.75238500  1
  O  O32  1  0.40547900  0.54122700  0.02380200  1
  O  O33  1  0.92479000  0.30945200  0.66811200  1
  O  O34  1  0.09452100  0.45877300  0.52380200  1
  O  O35  1  0.17701400  0.92911700  0.63129300  1
  O  O36  1  0.57757000  0.33771700  0.70441300  1
  O  O37  1  0.83595100  0.80965500  0.44614100  1
  O  O38  1  0.78070200  0.18450900  0.83550300  1
  O  O39  1  0.42479000  0.19054800  0.33188800  1
  O  O40  1  0.07757000  0.16228300  0.29558700  1
  O  O41  1  0.28099700  0.25651500  0.60439700  1
  O  O42  1  0.33595100  0.69034500  0.55385900  1
  O  O43  1  0.57521000  0.69054800  0.16811200  1
  O  O44  1  0.66404900  0.19034500  0.94614100  1
  O  O45  1  0.59452100  0.04122700  0.47619800  1
  O  O46  1  0.78099700  0.24348500  0.39560300  1
  O  O47  1  0.42243000  0.83771700  0.79558700  1
  O  O48  1  0.07521000  0.80945200  0.83188800  1
  O  O49  1  0.74693000  0.10200700  0.24761500  1
  O  O50  1  0.90547900  0.95877300  0.97619800  1
  O  O51  1  0.32298600  0.07088300  0.13129300  1
  O  O52  1  0.21900300  0.74348500  0.10439700  1
  O  O53  1  0.25307000  0.60200700  0.25238500  1
  O  O54  1  0.71900300  0.75651500  0.89560300  1
  O  O55  1  0.75307000  0.89799300  0.74761500  1
