# generated using pymatgen
data_Ce10Te19
_symmetry_space_group_name_H-M   'P 1'
_cell_length_a   10.06887700
_cell_length_b   10.06887700
_cell_length_c   18.12674900
_cell_angle_alpha   90.00000000
_cell_angle_beta   90.00000000
_cell_angle_gamma   90.00000000
_symmetry_Int_Tables_number   1
_chemical_formula_structural   Ce10Te19
_chemical_formula_sum   'Ce20 Te38'
_cell_volume   1837.73121586
_cell_formula_units_Z   2
loop_
 _symmetry_equiv_pos_site_id
 _symmetry_equiv_pos_as_xyz
  1  'x, y, z'
loop_
 _atom_site_type_symbol
 _atom_site_label
 _atom_site_symmetry_multiplicity
 _atom_site_fract_x
 _atom_site_fract_y
 _atom_site_fract_z
 _atom_site_occupancy
  Ce  Ce0  1  0.50000000  0.00000000  0.63063400  1
  Ce  Ce1  1  0.60038400  0.70640200  0.36857900  1
  Ce  Ce2  1  0.70640200  0.39961600  0.63142100  1
  Ce  Ce3  1  0.39961600  0.29359800  0.36857900  1
  Ce  Ce4  1  0.79359800  0.10038400  0.86857900  1
  Ce  Ce5  1  0.39721800  0.29926100  0.85983000  1
  Ce  Ce6  1  0.70073900  0.39721800  0.14017000  1
  Ce  Ce7  1  0.10278200  0.20073900  0.64017000  1
  Ce  Ce8  1  0.20073900  0.89721800  0.35983000  1
  Ce  Ce9  1  0.29926100  0.60278200  0.14017000  1
  Ce  Ce10  1  0.10038400  0.20640200  0.13142100  1
  Ce  Ce11  1  0.89961600  0.79359800  0.13142100  1
  Ce  Ce12  1  0.60278200  0.70073900  0.85983000  1
  Ce  Ce13  1  0.29359800  0.60038400  0.63142100  1
  Ce  Ce14  1  0.20640200  0.89961600  0.86857900  1
  Ce  Ce15  1  0.00000000  0.50000000  0.36936600  1
  Ce  Ce16  1  0.89721800  0.79926100  0.64017000  1
  Ce  Ce17  1  0.79926100  0.10278200  0.35983000  1
  Ce  Ce18  1  0.50000000  0.00000000  0.13063400  1
  Ce  Ce19  1  0.00000000  0.50000000  0.86936600  1
  Te  Te20  1  0.09959100  0.19710400  0.31534500  1
  Te  Te21  1  0.90244600  0.79976900  0.82081100  1
  Te  Te22  1  0.80289600  0.09959100  0.68465500  1
  Te  Te23  1  0.19710400  0.90040900  0.68465500  1
  Te  Te24  1  0.58586100  0.22565000  0.99955700  1
  Te  Te25  1  0.77435000  0.58586100  0.00044300  1
  Te  Te26  1  0.91413900  0.27435000  0.50044300  1
  Te  Te27  1  0.09755400  0.20023100  0.82081100  1
  Te  Te28  1  0.59755400  0.70023100  0.67918900  1
  Te  Te29  1  0.00000000  0.00000000  0.00000000  1
  Te  Te30  1  0.08586100  0.72565000  0.50044300  1
  Te  Te31  1  0.19521400  0.39097000  0.50011500  1
  Te  Te32  1  0.69710400  0.40040900  0.81534500  1
  Te  Te33  1  0.40244600  0.29976900  0.67918900  1
  Te  Te34  1  0.00000000  0.50000000  0.18453900  1
  Te  Te35  1  0.50000000  0.00000000  0.81546100  1
  Te  Te36  1  0.20023100  0.90244600  0.17918900  1
  Te  Te37  1  0.10903000  0.69521400  0.00011500  1
  Te  Te38  1  0.30289600  0.59959100  0.81534500  1
  Te  Te39  1  0.79976900  0.09755400  0.17918900  1
  Te  Te40  1  0.30478600  0.10903000  0.99988500  1
  Te  Te41  1  0.89097000  0.30478600  0.00011500  1
  Te  Te42  1  0.29976900  0.59755400  0.32081100  1
  Te  Te43  1  0.00000000  0.50000000  0.68453900  1
  Te  Te44  1  0.22565000  0.41413900  0.00044300  1
  Te  Te45  1  0.70023100  0.40244600  0.32081100  1
  Te  Te46  1  0.60903000  0.19521400  0.49988500  1
  Te  Te47  1  0.72565000  0.91413900  0.49955700  1
  Te  Te48  1  0.27435000  0.08586100  0.49955700  1
  Te  Te49  1  0.40040900  0.30289600  0.18465500  1
  Te  Te50  1  0.41413900  0.77435000  0.99955700  1
  Te  Te51  1  0.59959100  0.69710400  0.18465500  1
  Te  Te52  1  0.39097000  0.80478600  0.49988500  1
  Te  Te53  1  0.90040900  0.80289600  0.31534500  1
  Te  Te54  1  0.69521400  0.89097000  0.99988500  1
  Te  Te55  1  0.80478600  0.60903000  0.50011500  1
  Te  Te56  1  0.50000000  0.00000000  0.31546100  1
  Te  Te57  1  0.50000000  0.50000000  0.50000000  1
