# generated using pymatgen
data_Os10C23S2O23
_symmetry_space_group_name_H-M   'P 1'
_cell_length_a   11.79084511
_cell_length_b   11.79084511
_cell_length_c   21.37379899
_cell_angle_alpha   64.82185408
_cell_angle_beta   64.82185408
_cell_angle_gamma   54.91999381
_symmetry_Int_Tables_number   1
_chemical_formula_structural   Os10C23S2O23
_chemical_formula_sum   'Os20 C46 S4 O46'
_cell_volume   2133.98571475
_cell_formula_units_Z   2
loop_
 _symmetry_equiv_pos_site_id
 _symmetry_equiv_pos_as_xyz
  1  'x, y, z'
loop_
 _atom_site_type_symbol
 _atom_site_label
 _atom_site_symmetry_multiplicity
 _atom_site_fract_x
 _atom_site_fract_y
 _atom_site_fract_z
 _atom_site_occupancy
  Os  Os0  1  0.98033400  0.17842500  0.12372200  1
  Os  Os1  1  0.03321200  0.96678800  0.25000000  1
  Os  Os2  1  0.77090800  0.22909200  0.25000000  1
  Os  Os3  1  0.82512300  0.03261700  0.18784400  1
  Os  Os4  1  0.03261700  0.82512300  0.68784400  1
  Os  Os5  1  0.17487700  0.96738300  0.81215600  1
  Os  Os6  1  0.12220500  0.19764900  0.67788200  1
  Os  Os7  1  0.96738300  0.17487700  0.31215600  1
  Os  Os8  1  0.19764900  0.12220500  0.17788200  1
  Os  Os9  1  0.17842500  0.98033400  0.62372200  1
  Os  Os10  1  0.80235100  0.87779500  0.82211800  1
  Os  Os11  1  0.87779500  0.80235100  0.32211800  1
  Os  Os12  1  0.69246800  0.31828400  0.12055700  1
  Os  Os13  1  0.22909200  0.77090800  0.75000000  1
  Os  Os14  1  0.68171600  0.30753200  0.37944300  1
  Os  Os15  1  0.31828400  0.69246800  0.62055700  1
  Os  Os16  1  0.96678800  0.03321200  0.75000000  1
  Os  Os17  1  0.01966600  0.82157500  0.87627800  1
  Os  Os18  1  0.30753200  0.68171600  0.87944300  1
  Os  Os19  1  0.82157500  0.01966600  0.37627800  1
  C  C20  1  0.90730600  0.73034700  0.24763000  1
  C  C21  1  0.64960200  0.01654200  0.85949700  1
  C  C22  1  0.36546000  0.49628700  0.66019000  1
  C  C23  1  0.67948700  0.04773000  0.46383200  1
  C  C24  1  0.16866600  0.83801100  0.30815000  1
  C  C25  1  0.35465400  0.48282600  0.90878800  1
  C  C26  1  0.66917700  0.31842300  0.46804500  1
  C  C27  1  0.26965300  0.09269400  0.25237000  1
  C  C28  1  0.98345800  0.35039800  0.64050300  1
  C  C29  1  0.32051300  0.95227000  0.53616800  1
  C  C30  1  0.59524500  0.40475500  0.25000000  1
  C  C31  1  0.85974700  0.93419900  0.93906200  1
  C  C32  1  0.93419900  0.85974700  0.43906200  1
  C  C33  1  0.04947200  0.67550400  0.66400800  1
  C  C34  1  0.49628700  0.36546000  0.16019000  1
  C  C35  1  0.64534600  0.51717400  0.09121200  1
  C  C36  1  0.25615900  0.26675500  0.11599400  1
  C  C37  1  0.16198900  0.83133400  0.19185000  1
  C  C38  1  0.93266400  0.94387300  0.61603100  1
  C  C39  1  0.06580100  0.14025300  0.56093800  1
  C  C40  1  0.63454000  0.50371300  0.33981000  1
  C  C41  1  0.09269400  0.26965300  0.75237000  1
  C  C42  1  0.73324500  0.74384100  0.38400600  1
  C  C43  1  0.73034700  0.90730600  0.74763000  1
  C  C44  1  0.40475500  0.59524500  0.75000000  1
  C  C45  1  0.94387300  0.93266400  0.11603100  1
  C  C46  1  0.95227000  0.32051300  0.03616800  1
  C  C47  1  0.83801100  0.16866600  0.80815000  1
  C  C48  1  0.67550400  0.04947200  0.16400800  1
  C  C49  1  0.95052800  0.32449600  0.33599200  1
  C  C50  1  0.01654200  0.64960200  0.35949700  1
  C  C51  1  0.04773000  0.67948700  0.96383200  1
  C  C52  1  0.68157700  0.33082300  0.03195500  1
  C  C53  1  0.48282600  0.35465400  0.40878800  1
  C  C54  1  0.74384100  0.73324500  0.88400600  1
  C  C55  1  0.35039800  0.98345800  0.14050300  1
  C  C56  1  0.06733600  0.05612700  0.38396900  1
  C  C57  1  0.32449600  0.95052800  0.83599200  1
  C  C58  1  0.26675500  0.25615900  0.61599400  1
  C  C59  1  0.51717400  0.64534600  0.59121200  1
  C  C60  1  0.31842300  0.66917700  0.96804500  1
  C  C61  1  0.50371300  0.63454000  0.83981000  1
  C  C62  1  0.83133400  0.16198900  0.69185000  1
  C  C63  1  0.14025300  0.06580100  0.06093800  1
  C  C64  1  0.05612700  0.06733600  0.88396900  1
  C  C65  1  0.33082300  0.68157700  0.53195500  1
  S  S66  1  0.07651600  0.67424700  0.80660300  1
  S  S67  1  0.67424700  0.07651600  0.30660300  1
  S  S68  1  0.32575300  0.92348400  0.69339700  1
  S  S69  1  0.92348400  0.32575300  0.19339700  1
  O  O70  1  0.65674500  0.33005400  0.52216100  1
  O  O71  1  0.86989900  0.01241900  0.57171400  1
  O  O72  1  0.87954500  0.47903300  0.16647700  1
  O  O73  1  0.60278100  0.04791500  0.52079200  1
  O  O74  1  0.39209100  0.37774800  0.68670100  1
  O  O75  1  0.48756900  0.51243100  0.25000000  1
  O  O76  1  0.41074000  0.94522300  0.85106800  1
  O  O77  1  0.98758100  0.13010100  0.92828600  1
  O  O78  1  0.61617200  0.63403800  0.07467700  1
  O  O79  1  0.74442900  0.24369000  0.66068200  1
  O  O80  1  0.23526200  0.00054300  0.02001700  1
  O  O81  1  0.66994600  0.34325500  0.97783900  1
  O  O82  1  0.60790900  0.62225200  0.31329900  1
  O  O83  1  0.58926000  0.05477700  0.14893200  1
  O  O84  1  0.75631000  0.25557100  0.83931800  1
  O  O85  1  0.94522300  0.41074000  0.35106800  1
  O  O86  1  0.25557100  0.75631000  0.33931800  1
  O  O87  1  0.95208500  0.39721900  0.97920800  1
  O  O88  1  0.47903300  0.87954500  0.66647700  1
  O  O89  1  0.24369000  0.74442900  0.16068200  1
  O  O90  1  0.66154100  0.93287700  0.71269900  1
  O  O91  1  0.29597100  0.34977600  0.08279500  1
  O  O92  1  0.51243100  0.48756900  0.75000000  1
  O  O93  1  0.62225200  0.60790900  0.81329900  1
  O  O94  1  0.12045500  0.52096700  0.83352300  1
  O  O95  1  0.13010100  0.98758100  0.42828600  1
  O  O96  1  0.01241900  0.86989900  0.07171400  1
  O  O97  1  0.04791500  0.60278100  0.02079200  1
  O  O98  1  0.65022400  0.70402900  0.41720500  1
  O  O99  1  0.06712300  0.33845900  0.78730100  1
  O  O100  1  0.05477700  0.58926000  0.64893200  1
  O  O101  1  0.34325500  0.66994600  0.47783900  1
  O  O102  1  0.76473800  0.99945700  0.97998300  1
  O  O103  1  0.93287700  0.66154100  0.21269900  1
  O  O104  1  0.33005400  0.65674500  0.02216100  1
  O  O105  1  0.00054300  0.23526200  0.52001700  1
  O  O106  1  0.34977600  0.29597100  0.58279500  1
  O  O107  1  0.52096700  0.12045500  0.33352300  1
  O  O108  1  0.37774800  0.39209100  0.18670100  1
  O  O109  1  0.99945700  0.76473800  0.47998300  1
  O  O110  1  0.70402900  0.65022400  0.91720500  1
  O  O111  1  0.39721900  0.95208500  0.47920800  1
  O  O112  1  0.38382800  0.36596200  0.92532300  1
  O  O113  1  0.36596200  0.38382800  0.42532300  1
  O  O114  1  0.63403800  0.61617200  0.57467700  1
  O  O115  1  0.33845900  0.06712300  0.28730100  1
