# generated using pymatgen
data_Ba3B(PO4)3
_symmetry_space_group_name_H-M   'P 1'
_cell_length_a   13.90258442
_cell_length_b   13.90258442
_cell_length_c   13.90258442
_cell_angle_alpha   150.00648199
_cell_angle_beta   117.23893543
_cell_angle_gamma   71.10806823
_symmetry_Int_Tables_number   1
_chemical_formula_structural   Ba3B(PO4)3
_chemical_formula_sum   'Ba12 B4 P12 O48'
_cell_volume   1178.28042163
_cell_formula_units_Z   4
loop_
 _symmetry_equiv_pos_site_id
 _symmetry_equiv_pos_as_xyz
  1  'x, y, z'
loop_
 _atom_site_type_symbol
 _atom_site_label
 _atom_site_symmetry_multiplicity
 _atom_site_fract_x
 _atom_site_fract_y
 _atom_site_fract_z
 _atom_site_occupancy
  Ba  Ba0  1  0.56931200  0.75000000  0.31931200  1
  Ba  Ba1  1  0.93068800  0.25000000  0.18068800  1
  Ba  Ba2  1  0.43068800  0.25000000  0.68068800  1
  Ba  Ba3  1  0.06931200  0.75000000  0.81931200  1
  Ba  Ba4  1  0.21107800  0.67344700  0.23642600  1
  Ba  Ba5  1  0.28892200  0.52534800  0.46236900  1
  Ba  Ba6  1  0.56297900  0.82655300  0.03763100  1
  Ba  Ba7  1  0.93702100  0.97465200  0.26357400  1
  Ba  Ba8  1  0.78892200  0.32655300  0.76357400  1
  Ba  Ba9  1  0.71107800  0.47465200  0.53763100  1
  Ba  Ba10  1  0.43702100  0.17344700  0.96236900  1
  Ba  Ba11  1  0.06297900  0.02534800  0.73642600  1
  B  B12  1  0.16716100  0.41716100  0.75000000  1
  B  B13  1  0.83283900  0.58283900  0.25000000  1
  B  B14  1  0.66716100  0.91716100  0.75000000  1
  B  B15  1  0.33283900  0.08283900  0.25000000  1
  P  P16  1  0.96471900  0.50521800  0.78850900  1
  P  P17  1  0.53528100  0.32379000  0.54049900  1
  P  P18  1  0.28329100  0.99478200  0.95950100  1
  P  P19  1  0.21670900  0.17621000  0.71149100  1
  P  P20  1  0.03528100  0.49478200  0.21149100  1
  P  P21  1  0.46471900  0.67621000  0.45950100  1
  P  P22  1  0.71670900  0.00521800  0.04049900  1
  P  P23  1  0.78329100  0.82379000  0.28850900  1
  P  P24  1  0.32427000  0.75000000  0.07427000  1
  P  P25  1  0.17573000  0.25000000  0.42573000  1
  P  P26  1  0.67573000  0.25000000  0.92573000  1
  P  P27  1  0.82427000  0.75000000  0.57427000  1
  O  O28  1  0.07057900  0.35115000  0.17763300  1
  O  O29  1  0.57057900  0.39294500  0.71942900  1
  O  O30  1  0.17351600  0.85115000  0.78057100  1
  O  O31  1  0.32648400  0.10705500  0.67763300  1
  O  O32  1  0.95232300  0.61594600  0.33366300  1
  O  O33  1  0.54767700  0.88134000  0.66362300  1
  O  O34  1  0.71771700  0.88405400  0.83637700  1
  O  O35  1  0.78228300  0.61866000  0.16633700  1
  O  O36  1  0.04767700  0.38405400  0.66633700  1
  O  O37  1  0.45232300  0.11866000  0.33637700  1
  O  O38  1  0.28228300  0.11594600  0.16362300  1
  O  O39  1  0.21771700  0.38134000  0.83366300  1
  O  O40  1  0.70560300  0.78361500  0.58094100  1
  O  O41  1  0.79439700  0.37533800  0.07801200  1
  O  O42  1  0.36804100  0.73577700  0.52285400  1
  O  O43  1  0.70267400  0.12466200  0.91905900  1
  O  O44  1  0.29439700  0.21638500  0.41905900  1
  O  O45  1  0.20560300  0.62466200  0.92198800  1
  O  O46  1  0.20267400  0.28361500  0.57801200  1
  O  O47  1  0.29732600  0.87533800  0.08094100  1
  O  O48  1  0.67351600  0.89294500  0.32236700  1
  O  O49  1  0.92942100  0.64885000  0.82236700  1
  O  O50  1  0.82648400  0.14885000  0.21942900  1
  O  O51  1  0.42942100  0.60705500  0.28057100  1
  O  O52  1  0.88084400  0.97571400  0.49633600  1
  O  O53  1  0.61915600  0.11549100  0.09487000  1
  O  O54  1  0.52062100  0.52428600  0.40513000  1
  O  O55  1  0.97937900  0.38450900  0.00366400  1
  O  O56  1  0.11915600  0.02428600  0.50366400  1
  O  O57  1  0.38084400  0.88450900  0.90513000  1
  O  O58  1  0.47937900  0.47571400  0.59487000  1
  O  O59  1  0.02062100  0.61549100  0.99633600  1
  O  O60  1  0.91221500  0.92886500  0.78469200  1
  O  O61  1  0.58778500  0.37247700  0.01665000  1
  O  O62  1  0.85582700  0.57113500  0.48335000  1
  O  O63  1  0.64417300  0.12752300  0.71530800  1
  O  O64  1  0.08778500  0.07113500  0.21530800  1
  O  O65  1  0.41221500  0.62752300  0.98335000  1
  O  O66  1  0.14417300  0.42886500  0.51665000  1
  O  O67  1  0.35582700  0.87247700  0.28469200  1
  O  O68  1  0.28707800  0.15481300  0.02285400  1
  O  O69  1  0.21292200  0.23577700  0.86773600  1
  O  O70  1  0.86804100  0.34518700  0.63226400  1
  O  O71  1  0.63195900  0.26422300  0.47714600  1
  O  O72  1  0.71292200  0.84518700  0.97714600  1
  O  O73  1  0.78707800  0.76422300  0.13226400  1
  O  O74  1  0.13195900  0.65481300  0.36773600  1
  O  O75  1  0.79732600  0.71638500  0.42198800  1
