# generated using pymatgen
data_Nd10Se19
_symmetry_space_group_name_H-M   'P 1'
_cell_length_a   8.34978600
_cell_length_b   9.51315807
_cell_length_c   18.72937473
_cell_angle_alpha   88.77550855
_cell_angle_beta   89.98430967
_cell_angle_gamma   89.99294731
_symmetry_Int_Tables_number   1
_chemical_formula_structural   Nd10Se19
_chemical_formula_sum   'Nd20 Se38'
_cell_volume   1487.38751198
_cell_formula_units_Z   2
loop_
 _symmetry_equiv_pos_site_id
 _symmetry_equiv_pos_as_xyz
  1  'x, y, z'
loop_
 _atom_site_type_symbol
 _atom_site_label
 _atom_site_symmetry_multiplicity
 _atom_site_fract_x
 _atom_site_fract_y
 _atom_site_fract_z
 _atom_site_occupancy
  Nd  Nd0  1  0.86905000  0.32485300  0.89435100  1
  Nd  Nd1  1  0.87831000  0.12806800  0.09331600  1
  Nd  Nd2  1  0.87997200  0.92575300  0.29591100  1
  Nd  Nd3  1  0.86892100  0.72942900  0.49351800  1
  Nd  Nd4  1  0.13107900  0.27057100  0.50648200  1
  Nd  Nd5  1  0.12002800  0.07424700  0.70408900  1
  Nd  Nd6  1  0.12169000  0.87193200  0.90668400  1
  Nd  Nd7  1  0.13095000  0.67514700  0.10564900  1
  Nd  Nd8  1  0.13022500  0.47167700  0.30554300  1
  Nd  Nd9  1  0.38556400  0.14287300  0.09611100  1
  Nd  Nd10  1  0.36872800  0.33645700  0.89102800  1
  Nd  Nd11  1  0.38675800  0.94053200  0.29954500  1
  Nd  Nd12  1  0.36846000  0.72973800  0.50040700  1
  Nd  Nd13  1  0.37875500  0.53724100  0.69660900  1
  Nd  Nd14  1  0.63154000  0.27026200  0.49959300  1
  Nd  Nd15  1  0.61324200  0.05946800  0.70045500  1
  Nd  Nd16  1  0.61443600  0.85712700  0.90388900  1
  Nd  Nd17  1  0.63127200  0.66354300  0.10897200  1
  Nd  Nd18  1  0.62124500  0.46275900  0.30339100  1
  Nd  Nd19  1  0.86977500  0.52832300  0.69445700  1
  Se  Se20  1  0.87510200  0.84961500  0.64914500  1
  Se  Se21  1  0.87611000  0.64690400  0.85102000  1
  Se  Se22  1  0.89815400  0.44642300  0.05543100  1
  Se  Se23  1  0.86897800  0.24408400  0.62191100  1
  Se  Se24  1  0.87479800  0.03726600  0.82162800  1
  Se  Se25  1  0.89862500  0.05591000  0.44552000  1
  Se  Se26  1  0.87978600  0.63870400  0.22600100  1
  Se  Se27  1  0.88015800  0.44515800  0.42076500  1
  Se  Se28  1  0.12389000  0.35309600  0.14898000  1
  Se  Se29  1  0.12780500  0.15887000  0.97576800  1
  Se  Se30  1  0.10184600  0.55357700  0.94456900  1
  Se  Se31  1  0.12520200  0.96273400  0.17837200  1
  Se  Se32  1  0.12489800  0.15038500  0.35085500  1
  Se  Se33  1  0.13102200  0.75591600  0.37808900  1
  Se  Se34  1  0.11984200  0.55484200  0.57923500  1
  Se  Se35  1  0.10137500  0.94409000  0.55448000  1
  Se  Se36  1  0.12021400  0.36129600  0.77399900  1
  Se  Se37  1  0.34028700  0.65868800  0.84237300  1
  Se  Se38  1  0.37456800  0.24729300  0.62337300  1
  Se  Se39  1  0.33800800  0.84257500  0.65796900  1
  Se  Se40  1  0.38750900  0.45999700  0.03978400  1
  Se  Se41  1  0.36909500  0.04270900  0.82228300  1
  Se  Se42  1  0.35925300  0.25235100  0.25029200  1
  Se  Se43  1  0.37488700  0.84896800  0.02601600  1
  Se  Se44  1  0.38830800  0.03982000  0.45960100  1
  Se  Se45  1  0.37657300  0.64930900  0.22449800  1
  Se  Se46  1  0.37567500  0.44411500  0.42450400  1
  Se  Se47  1  0.64074700  0.74764900  0.74970800  1
  Se  Se48  1  0.62511300  0.15103200  0.97398400  1
  Se  Se49  1  0.61249100  0.54000300  0.96021600  1
  Se  Se50  1  0.63090500  0.95729100  0.17771700  1
  Se  Se51  1  0.65971300  0.34131200  0.15762700  1
  Se  Se52  1  0.66199200  0.15742500  0.34203100  1
  Se  Se53  1  0.61169200  0.96018000  0.54039900  1
  Se  Se54  1  0.62543200  0.75270700  0.37662700  1
  Se  Se55  1  0.62432500  0.55588500  0.57549600  1
  Se  Se56  1  0.62342700  0.35069100  0.77550200  1
  Se  Se57  1  0.87219500  0.84113000  0.02423200  1
