# generated using pymatgen
data_BaMnO3
_symmetry_space_group_name_H-M   'P 1'
_cell_length_a   12.56833794
_cell_length_b   12.56833794
_cell_length_c   12.56833797
_cell_angle_alpha   26.51346112
_cell_angle_beta   26.51346112
_cell_angle_gamma   26.51346061
_symmetry_Int_Tables_number   1
_chemical_formula_structural   BaMnO3
_chemical_formula_sum   'Ba5 Mn5 O15'
_cell_volume   348.74100582
_cell_formula_units_Z   5
loop_
 _symmetry_equiv_pos_site_id
 _symmetry_equiv_pos_as_xyz
  1  'x, y, z'
loop_
 _atom_site_type_symbol
 _atom_site_label
 _atom_site_symmetry_multiplicity
 _atom_site_fract_x
 _atom_site_fract_y
 _atom_site_fract_z
 _atom_site_occupancy
  Ba  Ba0  1  0.73462200  0.73462200  0.73462200  1
  Ba  Ba1  1  0.86601900  0.86601900  0.86601900  1
  Ba  Ba2  1  0.00000000  0.00000000  0.00000000  1
  Ba  Ba3  1  0.13398100  0.13398100  0.13398100  1
  Ba  Ba4  1  0.26537800  0.26537800  0.26537800  1
  Mn  Mn5  1  0.56868500  0.56868500  0.56868500  1
  Mn  Mn6  1  0.63851100  0.63851100  0.63851100  1
  Mn  Mn7  1  0.36148900  0.36148900  0.36148900  1
  Mn  Mn8  1  0.43131500  0.43131500  0.43131500  1
  Mn  Mn9  1  0.50000000  0.50000000  0.50000000  1
  O  O10  1  0.83183500  0.38486700  0.38486700  1
  O  O11  1  0.38486700  0.38486700  0.83183500  1
  O  O12  1  0.38486700  0.83183500  0.38486700  1
  O  O13  1  0.00000000  0.50000000  0.50000000  1
  O  O14  1  0.50000000  0.00000000  0.50000000  1
  O  O15  1  0.50000000  0.50000000  0.00000000  1
  O  O16  1  0.61513300  0.16816500  0.61513300  1
  O  O17  1  0.61513300  0.61513300  0.16816500  1
  O  O18  1  0.16816500  0.61513300  0.61513300  1
  O  O19  1  0.25056900  0.25056900  0.69169600  1
  O  O20  1  0.69169600  0.25056900  0.25056900  1
  O  O21  1  0.25056900  0.69169600  0.25056900  1
  O  O22  1  0.74943100  0.30830400  0.74943100  1
  O  O23  1  0.74943100  0.74943100  0.30830400  1
  O  O24  1  0.30830400  0.74943100  0.74943100  1
