# generated using pymatgen
data_Mn2CrO4
_symmetry_space_group_name_H-M   'P 1'
_cell_length_a   6.05823387
_cell_length_b   6.05823353
_cell_length_c   6.02170906
_cell_angle_alpha   119.23848413
_cell_angle_beta   119.23848365
_cell_angle_gamma   91.37557342
_symmetry_Int_Tables_number   1
_chemical_formula_structural   Mn2CrO4
_chemical_formula_sum   'Mn4 Cr2 O8'
_cell_volume   157.95800743
_cell_formula_units_Z   2
loop_
 _symmetry_equiv_pos_site_id
 _symmetry_equiv_pos_as_xyz
  1  'x, y, z'
loop_
 _atom_site_type_symbol
 _atom_site_label
 _atom_site_symmetry_multiplicity
 _atom_site_fract_x
 _atom_site_fract_y
 _atom_site_fract_z
 _atom_site_occupancy
  Mn  Mn0  1  0.12500000  0.37500000  0.75000000  1
  Mn  Mn1  1  0.99927300  0.00072700  0.00000000  1
  Mn  Mn2  1  0.25072700  0.74927300  0.50000000  1
  Mn  Mn3  1  0.62500000  0.87500000  0.25000000  1
  Cr  Cr4  1  0.62500000  0.37500000  0.75000000  1
  Cr  Cr5  1  0.62500000  0.37500000  0.25000000  1
  O  O6  1  0.39837900  0.15787400  0.78164900  1
  O  O7  1  0.38925600  0.60758000  0.77176000  1
  O  O8  1  0.39242000  0.61074400  0.22824000  1
  O  O9  1  0.40787400  0.14837900  0.28164900  1
  O  O10  1  0.86074400  0.14242000  0.72824000  1
  O  O11  1  0.85162100  0.59212600  0.71835100  1
  O  O12  1  0.84212600  0.60162100  0.21835100  1
  O  O13  1  0.85758000  0.13925600  0.27176000  1
