# generated using pymatgen
data_La18Ni12O41
_symmetry_space_group_name_H-M   'P 1'
_cell_length_a   19.51557223
_cell_length_b   10.21726989
_cell_length_c   10.07911852
_cell_angle_alpha   73.35663475
_cell_angle_beta   46.74013064
_cell_angle_gamma   49.14836497
_symmetry_Int_Tables_number   1
_chemical_formula_structural   La18Ni12O41
_chemical_formula_sum   'La18 Ni12 O41'
_cell_volume   1058.20897943
_cell_formula_units_Z   1
loop_
 _symmetry_equiv_pos_site_id
 _symmetry_equiv_pos_as_xyz
  1  'x, y, z'
loop_
 _atom_site_type_symbol
 _atom_site_label
 _atom_site_symmetry_multiplicity
 _atom_site_fract_x
 _atom_site_fract_y
 _atom_site_fract_z
 _atom_site_occupancy
  La  La0  1  0.01996500  0.30070800  0.96993200  1
  La  La1  1  0.72840100  0.40867600  0.56364100  1
  La  La2  1  0.31678400  0.33809900  0.87188400  1
  La  La3  1  0.49178500  0.90263500  0.91756600  1
  La  La4  1  0.80109900  0.22833100  0.17853900  1
  La  La5  1  0.45039000  0.75931500  0.57390800  1
  La  La6  1  0.39018100  0.66943000  0.02444100  1
  La  La7  1  0.20956000  0.25964200  0.41407600  1
  La  La8  1  0.80708200  0.12102800  0.82489200  1
  La  La9  1  0.71606800  0.93061600  0.17808600  1
  La  La10  1  0.84444500  0.66169100  0.51127100  1
  La  La11  1  0.12424800  0.18746400  0.22355300  1
  La  La12  1  0.68144800  0.65911200  0.05252700  1
  La  La13  1  0.45699500  0.43779700  0.43420600  1
  La  La14  1  0.10706800  0.84629700  0.08130500  1
  La  La15  1  0.58833000  0.10447000  0.94339500  1
  La  La16  1  0.15099100  0.69212400  0.48227500  1
  La  La17  1  0.02783300  0.66300300  0.98036100  1
  Ni  Ni18  1  0.92304600  0.35706100  0.75584800  1
  Ni  Ni19  1  0.89913200  0.90285300  0.47421000  1
  Ni  Ni20  1  0.24500500  0.30992400  0.68982700  1
  Ni  Ni21  1  0.46355600  0.13177800  0.39591400  1
  Ni  Ni22  1  0.52466200  0.59569900  0.12533400  1
  Ni  Ni23  1  0.26244300  0.87426400  0.43166700  1
  Ni  Ni24  1  0.64870500  0.07647900  0.53106800  1
  Ni  Ni25  1  0.51288100  0.38264600  0.72621900  1
  Ni  Ni26  1  0.94531200  0.66811500  0.77533500  1
  Ni  Ni27  1  0.76544500  0.63725400  0.30695500  1
  Ni  Ni28  1  0.05158000  0.98393200  0.74172200  1
  Ni  Ni29  1  0.51965000  0.95468300  0.57934800  1
  O  O30  1  0.14538900  0.03439300  0.03806400  1
  O  O31  1  0.74919800  0.99739700  0.57019800  1
  O  O32  1  0.39785400  0.18220400  0.28644200  1
  O  O33  1  0.30882700  0.94378600  0.19531300  1
  O  O34  1  0.99176700  0.73059400  0.25337800  1
  O  O35  1  0.23523600  0.27287700  0.14660700  1
  O  O36  1  0.98922200  0.76501500  0.54712100  1
  O  O37  1  0.22595200  0.68631700  0.18274400  1
  O  O38  1  0.66759100  0.80210700  0.82963200  1
  O  O39  1  0.13978100  0.47182400  0.63714300  1
  O  O40  1  0.10889200  0.97043100  0.50834600  1
  O  O41  1  0.60502900  0.45151700  0.53086700  1
  O  O42  1  0.13926700  0.34651200  0.96960600  1
  O  O43  1  0.55305000  0.20798000  0.20187000  1
  O  O44  1  0.37359900  0.61979000  0.29693200  1
  O  O45  1  0.24743800  0.49946900  0.70994600  1
  O  O46  1  0.01628100  0.92143700  0.95662000  1
  O  O47  1  0.51204800  0.77358500  0.72122200  1
  O  O48  1  0.61479300  0.57091200  0.87443900  1
  O  O49  1  0.26565700  0.88609400  0.61791900  1
  O  O50  1  0.67354000  0.15658100  0.31343400  1
  O  O51  1  0.27931900  0.91843300  0.93039500  1
  O  O52  1  0.37837300  0.52973700  0.73613100  1
  O  O53  1  0.54970600  0.58197600  0.28690000  1
  O  O54  1  0.95523300  0.36728700  0.53234500  1
  O  O55  1  0.48096400  0.21692700  0.84204800  1
  O  O56  1  0.44462600  0.00920700  0.20863100  1
  O  O57  1  0.92444400  0.17670800  0.20537700  1
  O  O58  1  0.64114500  0.74489900  0.30531300  1
  O  O59  1  0.57208700  0.35844500  0.83381600  1
  O  O60  1  0.38889600  0.06460000  0.60346800  1
  O  O61  1  0.90154900  0.61818500  0.02717500  1
  O  O62  1  0.85689800  0.11132600  0.55564900  1
  O  O63  1  0.83415400  0.27325100  0.87740600  1
  O  O64  1  0.88445800  0.47559800  0.32702200  1
  O  O65  1  0.66862300  0.86263100  0.50080000  1
  O  O66  1  0.86025500  0.39957000  0.00133600  1
  O  O67  1  0.99676100  0.45027900  0.67753400  1
  O  O68  1  0.76164900  0.87000100  0.90938300  1
  O  O69  1  0.20667100  0.07964100  0.63445500  1
  O  O70  1  0.93068700  0.85235000  0.85766700  1
