# generated using pymatgen
data_SbSe5F6
_symmetry_space_group_name_H-M   'P 1'
_cell_length_a   14.45490368
_cell_length_b   16.68064341
_cell_length_c   20.34785957
_cell_angle_alpha   90.00000000
_cell_angle_beta   109.84544428
_cell_angle_gamma   90.00000000
_symmetry_Int_Tables_number   1
_chemical_formula_structural   SbSe5F6
_chemical_formula_sum   'Sb16 Se80 F96'
_cell_volume   4614.84539299
_cell_formula_units_Z   16
loop_
 _symmetry_equiv_pos_site_id
 _symmetry_equiv_pos_as_xyz
  1  'x, y, z'
loop_
 _atom_site_type_symbol
 _atom_site_label
 _atom_site_symmetry_multiplicity
 _atom_site_fract_x
 _atom_site_fract_y
 _atom_site_fract_z
 _atom_site_occupancy
  Sb  Sb0  1  0.48429147  0.31387006  0.03328685  1
  Sb  Sb1  1  0.60849622  0.06899613  0.37138506  1
  Sb  Sb2  1  0.51570853  0.68612994  0.96671315  1
  Sb  Sb3  1  0.10849622  0.43100387  0.37138506  1
  Sb  Sb4  1  0.89150378  0.56899613  0.62861494  1
  Sb  Sb5  1  0.39150378  0.93100387  0.62861494  1
  Sb  Sb6  1  0.66364897  0.40642233  0.36647673  1
  Sb  Sb7  1  0.98429147  0.18612994  0.03328685  1
  Sb  Sb8  1  0.53413878  0.59402880  0.14839810  1
  Sb  Sb9  1  0.03413878  0.90597120  0.14839810  1
  Sb  Sb10  1  0.96586122  0.09402880  0.85160190  1
  Sb  Sb11  1  0.33635103  0.59357767  0.63352327  1
  Sb  Sb12  1  0.01570853  0.81387006  0.96671315  1
  Sb  Sb13  1  0.46586122  0.40597120  0.85160190  1
  Sb  Sb14  1  0.83635103  0.90642233  0.63352327  1
  Sb  Sb15  1  0.16364897  0.09357767  0.36647673  1
  Se  Se16  1  0.46407647  0.23388435  0.15612832  1
  Se  Se17  1  0.73802377  0.81512418  0.26782042  1
  Se  Se18  1  0.72481277  0.38551250  0.09544397  1
  Se  Se19  1  0.85998027  0.61795441  0.39872928  1
  Se  Se20  1  0.37229652  0.83381688  0.29274899  1
  Se  Se21  1  0.85937247  0.73490702  0.45967171  1
  Se  Se22  1  0.46305382  0.25650023  0.48205025  1
  Se  Se23  1  0.10266381  0.67356225  0.97554868  1
  Se  Se24  1  0.82854470  0.74234610  0.93549572  1
  Se  Se25  1  0.53592353  0.76611565  0.84387168  1
  Se  Se26  1  0.86790184  0.90226741  0.29171130  1
  Se  Se27  1  0.26469283  0.29662937  0.23676110  1
  Se  Se28  1  0.87229652  0.66618312  0.29274899  1
  Se  Se29  1  0.76664187  0.72102951  0.04768360  1
  Se  Se30  1  0.96407647  0.26611565  0.15612832  1
  Se  Se31  1  0.13209816  0.09773259  0.70828870  1
  Se  Se32  1  0.96305382  0.24349977  0.48205025  1
  Se  Se33  1  0.22481277  0.11448750  0.09544397  1
  Se  Se34  1  0.85444367  0.35001527  0.19378195  1
  Se  Se35  1  0.18800343  0.42963586  0.07574343  1
  Se  Se36  1  0.94253661  0.11237739  0.53759758  1
  Se  Se37  1  0.23530717  0.79662937  0.76323890  1
  Se  Se38  1  0.55746339  0.61237739  0.46240242  1
  Se  Se39  1  0.26664187  0.77897049  0.04768360  1
  Se  Se40  1  0.14555633  0.64998473  0.80621805  1
  Se  Se41  1  0.85572247  0.12028757  0.19997851  1
  Se  Se42  1  0.64001973  0.11795441  0.60127072  1
  Se  Se43  1  0.59888366  0.43459522  0.58579738  1
  Se  Se44  1  0.46157750  0.22481746  0.65880645  1
  Se  Se45  1  0.14062753  0.26509298  0.54032829  1
  Se  Se46  1  0.23802377  0.68487582  0.26782042  1
  Se  Se47  1  0.60266381  0.82643775  0.97554868  1
  Se  Se48  1  0.30444505  0.40274185  0.99215288  1
  Se  Se49  1  0.90111634  0.93459522  0.41420262  1
  Se  Se50  1  0.03694618  0.75650023  0.51794975  1
  Se  Se51  1  0.14427753  0.87971243  0.80002149  1
  Se  Se52  1  0.05746339  0.88762261  0.46240242  1
  Se  Se53  1  0.35444367  0.14998473  0.19378195  1
  Se  Se54  1  0.89733619  0.32643775  0.02445132  1
  Se  Se55  1  0.09888366  0.06540478  0.58579738  1
  Se  Se56  1  0.23335813  0.27897049  0.95231640  1
  Se  Se57  1  0.39733619  0.17356225  0.02445132  1
  Se  Se58  1  0.68800343  0.07036414  0.07574343  1
  Se  Se59  1  0.76469283  0.20337063  0.23676110  1
  Se  Se60  1  0.39979771  0.16510567  0.55103149  1
  Se  Se61  1  0.67145530  0.24234610  0.06450428  1
  Se  Se62  1  0.44253661  0.38762261  0.53759758  1
  Se  Se63  1  0.12770348  0.33381688  0.70725101  1
  Se  Se64  1  0.73335813  0.22102951  0.95231640  1
  Se  Se65  1  0.89979871  0.33489433  0.55103149  1
  Se  Se66  1  0.40111634  0.56540478  0.41420262  1
  Se  Se67  1  0.76197623  0.31512418  0.73217958  1
  Se  Se68  1  0.36790184  0.59773259  0.29171130  1
  Se  Se69  1  0.14001973  0.38204559  0.60127072  1
  Se  Se70  1  0.35998027  0.88204559  0.39872928  1
  Se  Se71  1  0.73530717  0.70337063  0.76323890  1
  Se  Se72  1  0.26197623  0.18487582  0.73217958  1
  Se  Se73  1  0.03592353  0.73388435  0.84387168  1
  Se  Se74  1  0.62770348  0.16618312  0.70725101  1
  Se  Se75  1  0.03842250  0.72481746  0.34119355  1
  Se  Se76  1  0.19555495  0.90274185  0.00784712  1
  Se  Se77  1  0.64427753  0.62028757  0.80002149  1
  Se  Se78  1  0.81199657  0.57036414  0.92425557  1
  Se  Se79  1  0.69555495  0.59725815  0.00784712  1
  Se  Se80  1  0.77518723  0.88551250  0.90455603  1
  Se  Se81  1  0.64062753  0.23490702  0.54032829  1
  Se  Se82  1  0.17145530  0.25765390  0.06450428  1
  Se  Se83  1  0.60020129  0.83489433  0.44896851  1
  Se  Se84  1  0.80444505  0.09725815  0.99215288  1
  Se  Se85  1  0.53694618  0.74349977  0.51794975  1
  Se  Se86  1  0.53842250  0.77518254  0.34119355  1
  Se  Se87  1  0.64555633  0.85001527  0.80621805  1
  Se  Se88  1  0.96157750  0.27518254  0.65880645  1
  Se  Se89  1  0.63209816  0.40226741  0.70828870  1
  Se  Se90  1  0.32854470  0.75765390  0.93549572  1
  Se  Se91  1  0.35937247  0.76509298  0.45967171  1
  Se  Se92  1  0.27518723  0.61448750  0.90455603  1
  Se  Se93  1  0.10020229  0.66510567  0.44896851  1
  Se  Se94  1  0.31199657  0.92963586  0.92425557  1
  Se  Se95  1  0.35572247  0.37971243  0.19997851  1
  F  F96  1  0.90786559  0.84802308  0.58390844  1
  F  F97  1  0.09276548  0.13753728  0.86210785  1
  F  F98  1  0.22570945  0.66400750  0.59385960  1
  F  F99  1  0.26335230  0.53567774  0.68128410  1
  F  F100  1  0.93884380  0.18973485  0.89970989  1
  F  F101  1  0.35339434  0.13923168  0.93144295  1
  F  F102  1  0.99983946  0.99535107  0.81809154  1
  F  F103  1  0.88586335  0.83647833  0.71276645  1
  F  F104  1  0.65650648  0.72326329  0.67531133  1
  F  F105  1  0.49983946  0.50464893  0.81809154  1
  F  F106  1  0.44761124  0.52332183  0.66909312  1
  F  F107  1  0.96893661  0.66510936  0.64381687  1
  F  F108  1  0.50016054  0.49535107  0.18190846  1
  F  F109  1  0.18371352  0.52970015  0.38556971  1
  F  F110  1  0.63829922  0.09011444  0.28810271  1
  F  F111  1  0.72616465  0.12579781  0.42474219  1
  F  F112  1  0.58024942  0.04917480  0.45609330  1
  F  F113  1  0.39805681  0.93675363  0.87699031  1
  F  F114  1  0.50721066  0.99004464  0.68053305  1
  F  F115  1  0.86170078  0.59011444  0.71189729  1
  F  F116  1  0.13483384  0.61923730  0.22407598  1
  F  F117  1  0.36170078  0.90988556  0.71189729  1
  F  F118  1  0.21516266  0.02420534  0.44608881  1
  F  F119  1  0.38776917  0.81837808  0.09936750  1
  F  F120  1  0.40786559  0.65197692  0.58390844  1
  F  F121  1  0.60194319  0.06324637  0.12300969  1
  F  F122  1  0.83792839  0.05474637  0.84291871  1
  F  F123  1  0.10194319  0.43675363  0.12300969  1
  F  F124  1  0.08756779  0.85477477  0.23705647  1
  F  F125  1  0.05238876  0.02332183  0.33090688  1
  F  F126  1  0.08024942  0.45082520  0.45609330  1
  F  F127  1  0.40723452  0.63753728  0.13789215  1
  F  F128  1  0.06115620  0.81026515  0.10029011  1
  F  F129  1  0.09737555  0.46728410  0.99701159  1
  F  F130  1  0.64660566  0.86076832  0.06855705  1
  F  F131  1  0.43884380  0.31026515  0.89970989  1
  F  F132  1  0.88776917  0.68162192  0.09936750  1
  F  F133  1  0.73664770  0.46432326  0.31871590  1
  F  F134  1  0.81628648  0.47029985  0.61443029  1
  F  F135  1  0.59737555  0.03271590  0.99701159  1
  F  F136  1  0.84349352  0.22326329  0.32468867  1
  F  F137  1  0.86516616  0.38076270  0.77592402  1
  F  F138  1  0.71516266  0.47579466  0.44608881  1
  F  F139  1  0.85339434  0.36076832  0.93144295  1
  F  F140  1  0.90723452  0.86246272  0.13789215  1
  F  F141  1  0.51962391  0.44881506  0.94609267  1
  F  F142  1  0.41243221  0.35477477  0.76294353  1
  F  F143  1  0.09213441  0.15197692  0.41609156  1
  F  F144  1  0.63483384  0.88076270  0.22407598  1
  F  F145  1  0.98037609  0.94881506  0.05390733  1
  F  F146  1  0.77383535  0.62579781  0.57525781  1
  F  F147  1  0.55238876  0.47667817  0.33090688  1
  F  F148  1  0.99278934  0.49004464  0.31946695  1
  F  F149  1  0.56115620  0.68973485  0.10029011  1
  F  F150  1  0.72570945  0.83599250  0.59385960  1
  F  F151  1  0.34349352  0.27673671  0.32468867  1
  F  F152  1  0.36516616  0.11923730  0.77592402  1
  F  F153  1  0.41975058  0.95082520  0.54390670  1
  F  F154  1  0.53106339  0.16510936  0.35618313  1
  F  F155  1  0.59276548  0.36246272  0.86210785  1
  F  F156  1  0.77429055  0.33599250  0.40614040  1
  F  F157  1  0.28483734  0.52420534  0.55391119  1
  F  F158  1  0.13829922  0.40988556  0.28810271  1
  F  F159  1  0.03106339  0.33489064  0.35618313  1
  F  F160  1  0.61413665  0.33647833  0.28723355  1
  F  F161  1  0.22616465  0.37420219  0.42474219  1
  F  F162  1  0.66207161  0.55474637  0.15708129  1
  F  F163  1  0.33792839  0.44525363  0.84291871  1
  F  F164  1  0.23664770  0.03567674  0.31871590  1
  F  F165  1  0.01962391  0.05118494  0.94609267  1
  F  F166  1  0.91243221  0.14522523  0.76294353  1
  F  F167  1  0.31628648  0.02970015  0.61443029  1
  F  F168  1  0.15650648  0.77673671  0.67531133  1
  F  F169  1  0.58756779  0.64522523  0.23705647  1
  F  F170  1  0.94761124  0.97667817  0.66909312  1
  F  F171  1  0.46893661  0.83489064  0.64381687  1
  F  F172  1  0.27383535  0.87420219  0.57525781  1
  F  F173  1  0.11413665  0.16352167  0.28723355  1
  F  F174  1  0.38586335  0.66352167  0.71276645  1
  F  F175  1  0.89805681  0.56324637  0.87699031  1
  F  F176  1  0.76335230  0.96432226  0.68128410  1
  F  F177  1  0.27429055  0.16400750  0.40614040  1
  F  F178  1  0.90262445  0.53271590  0.00298841  1
  F  F179  1  0.68371352  0.97029985  0.38556971  1
  F  F180  1  0.14660566  0.63923168  0.06855705  1
  F  F181  1  0.00721066  0.50995536  0.68053305  1
  F  F182  1  0.91975058  0.54917480  0.54390670  1
  F  F183  1  0.16207161  0.94525363  0.15708129  1
  F  F184  1  0.48037609  0.55118494  0.05390733  1
  F  F185  1  0.11223083  0.31837808  0.90063250  1
  F  F186  1  0.61223083  0.18162192  0.90063250  1
  F  F187  1  0.59213441  0.34802308  0.41609156  1
  F  F188  1  0.40262445  0.96728410  0.00298841  1
  F  F189  1  0.00016054  0.00464893  0.18190846  1
  F  F190  1  0.78483734  0.97579466  0.55391119  1
  F  F191  1  0.49278934  0.00995536  0.31946695  1
