# generated using pymatgen
data_Tl2S
_symmetry_space_group_name_H-M   'P 1'
_cell_length_a   9.69436355
_cell_length_b   9.69436355
_cell_length_c   9.69436351
_cell_angle_alpha   81.51809326
_cell_angle_beta   81.51809326
_cell_angle_gamma   81.51809541
_symmetry_Int_Tables_number   1
_chemical_formula_structural   Tl2S
_chemical_formula_sum   'Tl18 S9'
_cell_volume   883.86856140
_cell_formula_units_Z   9
loop_
 _symmetry_equiv_pos_site_id
 _symmetry_equiv_pos_as_xyz
  1  'x, y, z'
loop_
 _atom_site_type_symbol
 _atom_site_label
 _atom_site_symmetry_multiplicity
 _atom_site_fract_x
 _atom_site_fract_y
 _atom_site_fract_z
 _atom_site_occupancy
  Tl  Tl0  1  0.96717100  0.33083000  0.98849900  1
  Tl  Tl1  1  0.33083000  0.98849900  0.96717100  1
  Tl  Tl2  1  0.98849900  0.96717100  0.33083000  1
  Tl  Tl3  1  0.29810800  0.62601600  0.32306500  1
  Tl  Tl4  1  0.62601600  0.32306500  0.29810800  1
  Tl  Tl5  1  0.32306500  0.29810800  0.62601600  1
  Tl  Tl6  1  0.62861800  0.95921400  0.65853000  1
  Tl  Tl7  1  0.95921400  0.65853000  0.62861800  1
  Tl  Tl8  1  0.65853000  0.62861800  0.95921400  1
  Tl  Tl9  1  0.34098000  0.67945500  0.70643200  1
  Tl  Tl10  1  0.70643200  0.34098000  0.67945500  1
  Tl  Tl11  1  0.67945500  0.70643200  0.34098000  1
  Tl  Tl12  1  0.00899500  0.34873900  0.37038800  1
  Tl  Tl13  1  0.37038800  0.00899500  0.34873900  1
  Tl  Tl14  1  0.34873900  0.37038800  0.00899500  1
  Tl  Tl15  1  0.71331600  0.01255600  0.04246700  1
  Tl  Tl16  1  0.04246700  0.71331600  0.01255600  1
  Tl  Tl17  1  0.01255600  0.04246700  0.71331600  1
  S  S18  1  0.65686700  0.31723400  0.98849100  1
  S  S19  1  0.98849100  0.65686700  0.31723400  1
  S  S20  1  0.31723400  0.98849100  0.65686700  1
  S  S21  1  0.35346300  0.67985800  0.01795300  1
  S  S22  1  0.01795300  0.35346300  0.67985800  1
  S  S23  1  0.67985800  0.01795300  0.35346300  1
  S  S24  1  0.64875300  0.64875300  0.64875300  1
  S  S25  1  0.31591700  0.31591700  0.31591700  1
  S  S26  1  0.02368300  0.02368300  0.02368300  1
