# generated using pymatgen
data_Sc3Re2Si3
_symmetry_space_group_name_H-M   'P 1'
_cell_length_a   10.10995498
_cell_length_b   10.10995498
_cell_length_c   13.79794172
_cell_angle_alpha   52.98792092
_cell_angle_beta   52.98792092
_cell_angle_gamma   30.39024210
_symmetry_Int_Tables_number   1
_chemical_formula_structural   Sc3Re2Si3
_chemical_formula_sum   'Sc12 Re8 Si12'
_cell_volume   557.62908503
_cell_formula_units_Z   4
loop_
 _symmetry_equiv_pos_site_id
 _symmetry_equiv_pos_as_xyz
  1  'x, y, z'
loop_
 _atom_site_type_symbol
 _atom_site_label
 _atom_site_symmetry_multiplicity
 _atom_site_fract_x
 _atom_site_fract_y
 _atom_site_fract_z
 _atom_site_occupancy
  Sc  Sc0  1  0.35628900  0.88756300  0.78983100  1
  Sc  Sc1  1  0.65086800  0.67893500  0.38732000  1
  Sc  Sc2  1  0.11243700  0.64371100  0.21016900  1
  Sc  Sc3  1  0.90446900  0.96151800  0.38679000  1
  Sc  Sc4  1  0.12524900  0.68995100  0.91956800  1
  Sc  Sc5  1  0.32106500  0.34913200  0.61268000  1
  Sc  Sc6  1  0.16202300  0.11862800  0.25929800  1
  Sc  Sc7  1  0.88354200  0.43694200  0.88932800  1
  Sc  Sc8  1  0.88137200  0.83797700  0.74070200  1
  Sc  Sc9  1  0.31004900  0.87475100  0.08043200  1
  Sc  Sc10  1  0.56305800  0.11645800  0.11067200  1
  Sc  Sc11  1  0.03848200  0.09553100  0.61321000  1
  Re  Re12  1  0.52336700  0.55530600  0.31828200  1
  Re  Re13  1  0.44469400  0.47663300  0.68171800  1
  Re  Re14  1  0.68566100  0.27495400  0.16390200  1
  Re  Re15  1  0.67020400  0.80853600  0.04523900  1
  Re  Re16  1  0.42218500  0.04974000  0.53384900  1
  Re  Re17  1  0.72504600  0.31433900  0.83609800  1
  Re  Re18  1  0.95026000  0.57781500  0.46615100  1
  Re  Re19  1  0.19146400  0.32979600  0.95476100  1
  Si  Si20  1  0.46677200  0.53322800  0.00000000  1
  Si  Si21  1  0.98485000  0.35993800  0.68088500  1
  Si  Si22  1  0.97070300  0.02929700  0.00000000  1
  Si  Si23  1  0.20889700  0.23154400  0.37053000  1
  Si  Si24  1  0.60904400  0.15181400  0.87864000  1
  Si  Si25  1  0.84818600  0.39095600  0.12136000  1
  Si  Si26  1  0.76845600  0.79110300  0.62947000  1
  Si  Si27  1  0.57678600  0.63307200  0.63284400  1
  Si  Si28  1  0.73425600  0.26574400  0.50000000  1
  Si  Si29  1  0.23707400  0.76292600  0.50000000  1
  Si  Si30  1  0.36692800  0.42321400  0.36715600  1
  Si  Si31  1  0.64006200  0.01515000  0.31911500  1
