# generated using pymatgen
data_SiO2
_symmetry_space_group_name_H-M   'P 1'
_cell_length_a   13.37837913
_cell_length_b   13.37837913
_cell_length_c   16.94002090
_cell_angle_alpha   61.58270856
_cell_angle_beta   61.58270856
_cell_angle_gamma   37.66306567
_symmetry_Int_Tables_number   1
_chemical_formula_structural   SiO2
_chemical_formula_sum   'Si28 O56'
_cell_volume   1601.36069447
_cell_formula_units_Z   28
loop_
 _symmetry_equiv_pos_site_id
 _symmetry_equiv_pos_as_xyz
  1  'x, y, z'
loop_
 _atom_site_type_symbol
 _atom_site_label
 _atom_site_symmetry_multiplicity
 _atom_site_fract_x
 _atom_site_fract_y
 _atom_site_fract_z
 _atom_site_occupancy
  Si  Si0  1  0.75838400  0.12755600  0.21327000  1
  Si  Si1  1  0.44098400  0.80963400  0.88750200  1
  Si  Si2  1  0.75909600  0.39086200  0.09814000  1
  Si  Si3  1  0.55599900  0.92106500  0.22052400  1
  Si  Si4  1  0.84255800  0.47059700  0.59809300  1
  Si  Si5  1  0.55901600  0.19036600  0.11249800  1
  Si  Si6  1  0.47059700  0.84255800  0.59809300  1
  Si  Si7  1  0.07893500  0.44400100  0.77947600  1
  Si  Si8  1  0.59570500  0.96526100  0.59787700  1
  Si  Si9  1  0.24161600  0.87244400  0.78673000  1
  Si  Si10  1  0.44400100  0.07893500  0.77947600  1
  Si  Si11  1  0.96526100  0.59570500  0.59787700  1
  Si  Si12  1  0.19036600  0.55901600  0.11249800  1
  Si  Si13  1  0.12755600  0.75838400  0.21327000  1
  Si  Si14  1  0.52940300  0.15744200  0.40190700  1
  Si  Si15  1  0.40429500  0.03473900  0.40212300  1
  Si  Si16  1  0.80963400  0.44098400  0.88750200  1
  Si  Si17  1  0.62265000  0.99117600  0.90605000  1
  Si  Si18  1  0.60913800  0.24090400  0.90186000  1
  Si  Si19  1  0.24090400  0.60913800  0.90186000  1
  Si  Si20  1  0.03473900  0.40429500  0.40212300  1
  Si  Si21  1  0.00882400  0.37735000  0.09395000  1
  Si  Si22  1  0.87244400  0.24161600  0.78673000  1
  Si  Si23  1  0.99117600  0.62265000  0.90605000  1
  Si  Si24  1  0.39086200  0.75909600  0.09814000  1
  Si  Si25  1  0.37735000  0.00882400  0.09395000  1
  Si  Si26  1  0.15744200  0.52940300  0.40190700  1
  Si  Si27  1  0.92106500  0.55599900  0.22052400  1
  O  O28  1  0.48453100  0.93154800  0.32851000  1
  O  O29  1  0.06803800  0.59829000  0.49570500  1
  O  O30  1  0.51817900  0.05583700  0.38539700  1
  O  O31  1  0.34732500  0.34732500  0.40992900  1
  O  O32  1  0.63908900  0.17855500  0.00497000  1
  O  O33  1  0.78400400  0.78400400  0.61120100  1
  O  O34  1  0.15563400  0.65775800  0.31762000  1
  O  O35  1  0.51546900  0.06845200  0.67149000  1
  O  O36  1  0.84436600  0.34224200  0.68238000  1
  O  O37  1  0.14161200  0.59583300  0.88621000  1
  O  O38  1  0.40416700  0.85838800  0.11379000  1
  O  O39  1  0.93170800  0.93170800  0.21311800  1
  O  O40  1  0.41956300  0.98975100  0.17864400  1
  O  O41  1  0.35305500  0.80870700  0.84787300  1
  O  O42  1  0.20423800  0.76535500  0.82916700  1
  O  O43  1  0.40900200  0.96846500  0.83269800  1
  O  O44  1  0.21599600  0.21599600  0.38879900  1
  O  O45  1  0.06845200  0.51546900  0.67149000  1
  O  O46  1  0.59829000  0.06803800  0.49570500  1
  O  O47  1  0.59583300  0.14161200  0.88621000  1
  O  O48  1  0.35959400  0.35959400  0.12558000  1
  O  O49  1  0.05583700  0.51817900  0.38539700  1
  O  O50  1  0.85838800  0.40416700  0.11379000  1
  O  O51  1  0.23464500  0.79576200  0.17083300  1
  O  O52  1  0.98975100  0.41956300  0.17864400  1
  O  O53  1  0.19129300  0.64694500  0.15212700  1
  O  O54  1  0.64694500  0.19129300  0.15212700  1
  O  O55  1  0.65267500  0.65267500  0.59007100  1
  O  O56  1  0.43903000  0.43903000  0.88491600  1
  O  O57  1  0.76535500  0.20423800  0.82916700  1
  O  O58  1  0.56097000  0.56097000  0.11508400  1
  O  O59  1  0.40171000  0.93196200  0.50429500  1
  O  O60  1  0.72891500  0.72891500  0.20850000  1
  O  O61  1  0.59099800  0.03153500  0.16730200  1
  O  O62  1  0.82144500  0.36091100  0.99503000  1
  O  O63  1  0.96846500  0.40900200  0.83269800  1
  O  O64  1  0.81429400  0.81429400  0.91592800  1
  O  O65  1  0.06829200  0.06829200  0.78688200  1
  O  O66  1  0.18570600  0.18570600  0.08407200  1
  O  O67  1  0.00000000  0.50000000  0.00000000  1
  O  O68  1  0.93154800  0.48453100  0.32851000  1
  O  O69  1  0.34224200  0.84436600  0.68238000  1
  O  O70  1  0.58043700  0.01024900  0.82135600  1
  O  O71  1  0.01024900  0.58043700  0.82135600  1
  O  O72  1  0.64040600  0.64040600  0.87442000  1
  O  O73  1  0.27108500  0.27108500  0.79150000  1
  O  O74  1  0.48182100  0.94416300  0.61460300  1
  O  O75  1  0.36091100  0.82144500  0.99503000  1
  O  O76  1  0.50000000  0.00000000  0.00000000  1
  O  O77  1  0.17855500  0.63908900  0.00497000  1
  O  O78  1  0.93196200  0.40171000  0.50429500  1
  O  O79  1  0.80870700  0.35305500  0.84787300  1
  O  O80  1  0.79576200  0.23464500  0.17083300  1
  O  O81  1  0.65775800  0.15563400  0.31762000  1
  O  O82  1  0.03153500  0.59099800  0.16730200  1
  O  O83  1  0.94416300  0.48182100  0.61460300  1
