# generated using pymatgen
data_Pb(C2N3)2
_symmetry_space_group_name_H-M   'P 1'
_cell_length_a   4.05065800
_cell_length_b   12.17051800
_cell_length_c   13.68576100
_cell_angle_alpha   90.00000000
_cell_angle_beta   90.00000000
_cell_angle_gamma   90.00000000
_symmetry_Int_Tables_number   1
_chemical_formula_structural   Pb(C2N3)2
_chemical_formula_sum   'Pb4 C16 N24'
_cell_volume   674.68894073
_cell_formula_units_Z   4
loop_
 _symmetry_equiv_pos_site_id
 _symmetry_equiv_pos_as_xyz
  1  'x, y, z'
loop_
 _atom_site_type_symbol
 _atom_site_label
 _atom_site_symmetry_multiplicity
 _atom_site_fract_x
 _atom_site_fract_y
 _atom_site_fract_z
 _atom_site_occupancy
  Pb  Pb0  1  0.75000000  0.88012800  0.28439500  1
  Pb  Pb1  1  0.25000000  0.11987200  0.71560500  1
  Pb  Pb2  1  0.25000000  0.38012800  0.21560500  1
  Pb  Pb3  1  0.75000000  0.61987200  0.78439500  1
  C  C4  1  0.25000000  0.67678200  0.17439800  1
  C  C5  1  0.75000000  0.64570400  0.50099600  1
  C  C6  1  0.75000000  0.32321800  0.82560200  1
  C  C7  1  0.75000000  0.10860500  0.48198800  1
  C  C8  1  0.25000000  0.42351300  0.65481300  1
  C  C9  1  0.75000000  0.57648700  0.34518700  1
  C  C10  1  0.25000000  0.14570400  0.99900400  1
  C  C11  1  0.25000000  0.60860400  0.01801200  1
  C  C12  1  0.25000000  0.35429600  0.49900400  1
  C  C13  1  0.75000000  0.92351300  0.84518700  1
  C  C14  1  0.75000000  0.17678200  0.32560200  1
  C  C15  1  0.75000000  0.39139600  0.98198800  1
  C  C16  1  0.25000000  0.82321800  0.67439800  1
  C  C17  1  0.25000000  0.89139600  0.51801200  1
  C  C18  1  0.75000000  0.85429600  0.00099600  1
  C  C19  1  0.25000000  0.07648700  0.15481300  1
  N  N20  1  0.25000000  0.34339300  0.59373400  1
  N  N21  1  0.25000000  0.49177900  0.71700200  1
  N  N22  1  0.75000000  0.24428700  0.26299300  1
  N  N23  1  0.75000000  0.85738300  0.08708300  1
  N  N24  1  0.25000000  0.00822100  0.21700200  1
  N  N25  1  0.75000000  0.38848700  0.06843400  1
  N  N26  1  0.75000000  0.65660700  0.40626600  1
  N  N27  1  0.75000000  0.50822100  0.28299800  1
  N  N28  1  0.25000000  0.61151300  0.93156600  1
  N  N29  1  0.25000000  0.59729500  0.11228500  1
  N  N30  1  0.75000000  0.11151300  0.56843400  1
  N  N31  1  0.75000000  0.09729500  0.38771500  1
  N  N32  1  0.25000000  0.90270500  0.61228500  1
  N  N33  1  0.25000000  0.88848700  0.43156600  1
  N  N34  1  0.25000000  0.35738300  0.41291700  1
  N  N35  1  0.75000000  0.25571300  0.76299300  1
  N  N36  1  0.75000000  0.84339300  0.90626600  1
  N  N37  1  0.75000000  0.99177900  0.78299800  1
  N  N38  1  0.25000000  0.14261700  0.91291700  1
  N  N39  1  0.25000000  0.75571300  0.73700700  1
  N  N40  1  0.75000000  0.40270500  0.88771500  1
  N  N41  1  0.75000000  0.64261700  0.58708300  1
  N  N42  1  0.25000000  0.15660700  0.09373400  1
  N  N43  1  0.25000000  0.74428700  0.23700700  1
