# generated using pymatgen
data_Ti7Fe13O30
_symmetry_space_group_name_H-M   'P 1'
_cell_length_a   5.54231800
_cell_length_b   8.96734800
_cell_length_c   11.73603127
_cell_angle_alpha   75.42727582
_cell_angle_beta   82.29864553
_cell_angle_gamma   74.07676385
_symmetry_Int_Tables_number   1
_chemical_formula_structural   Ti7Fe13O30
_chemical_formula_sum   'Ti7 Fe13 O30'
_cell_volume   541.52972209
_cell_formula_units_Z   1
loop_
 _symmetry_equiv_pos_site_id
 _symmetry_equiv_pos_as_xyz
  1  'x, y, z'
loop_
 _atom_site_type_symbol
 _atom_site_label
 _atom_site_symmetry_multiplicity
 _atom_site_fract_x
 _atom_site_fract_y
 _atom_site_fract_z
 _atom_site_occupancy
  Ti  Ti0  1  0.35677400  0.95977000  0.91315600  1
  Ti  Ti1  1  0.25798200  0.23140300  0.68737100  1
  Ti  Ti2  1  0.75826300  0.76058600  0.31545700  1
  Ti  Ti3  1  0.15411600  0.57413900  0.71083400  1
  Ti  Ti4  1  0.14761200  0.07088200  0.21153900  1
  Ti  Ti5  1  0.54661000  0.37600600  0.10495700  1
  Ti  Ti6  1  0.94917900  0.17581700  0.51382800  1
  Fe  Fe7  1  0.04579900  0.82943400  0.49007600  1
  Fe  Fe8  1  0.54417600  0.86887400  0.61151100  1
  Fe  Fe9  1  0.44641700  0.62901200  0.88765300  1
  Fe  Fe10  1  0.94374900  0.67442200  0.01269000  1
  Fe  Fe11  1  0.85551900  0.93231800  0.78474900  1
  Fe  Fe12  1  0.84626100  0.43093000  0.28622700  1
  Fe  Fe13  1  0.34406500  0.47405000  0.41123900  1
  Fe  Fe14  1  0.25952100  0.72325300  0.18916500  1
  Fe  Fe15  1  0.75372500  0.27073200  0.81636200  1
  Fe  Fe16  1  0.64961500  0.53017000  0.58936900  1
  Fe  Fe17  1  0.64741700  0.02911300  0.08699900  1
  Fe  Fe18  1  0.04991100  0.32705800  0.98223100  1
  Fe  Fe19  1  0.45117000  0.12907600  0.38698600  1
  O  O20  1  0.94554800  0.94544900  0.18941100  1
  O  O21  1  0.67771400  0.91051900  0.41944600  1
  O  O22  1  0.52519400  0.83039700  0.79801500  1
  O  O23  1  0.32837900  0.72946500  0.59018300  1
  O  O24  1  0.08725300  0.69505200  0.82450400  1
  O  O25  1  0.92626900  0.63038300  0.19732200  1
  O  O26  1  0.87183300  0.98387300  0.60025300  1
  O  O27  1  0.71170600  0.90083100  0.96878800  1
  O  O28  1  0.72812200  0.52051600  0.99341000  1
  O  O29  1  0.47740400  0.87540200  0.21632500  1
  O  O30  1  0.49206800  0.49548100  0.22181000  1
  O  O31  1  0.33127000  0.41511200  0.59719900  1
  O  O32  1  0.26096200  0.78539800  0.00319200  1
  O  O33  1  0.10421500  0.69722900  0.37434800  1
  O  O34  1  0.13198100  0.32253700  0.38961300  1
  O  O35  1  0.87868400  0.66713100  0.61783500  1
  O  O36  1  0.88311200  0.29569800  0.62665100  1
  O  O37  1  0.72428600  0.22634400  0.99032400  1
  O  O38  1  0.65972800  0.58254500  0.40396500  1
  O  O39  1  0.52005300  0.48383100  0.77686300  1
  O  O40  1  0.52867500  0.14523200  0.78414000  1
  O  O41  1  0.26975600  0.46512800  0.02078100  1
  O  O42  1  0.27958800  0.09847200  0.03257300  1
  O  O43  1  0.14543900  0.02675500  0.38176300  1
  O  O44  1  0.05534800  0.38032200  0.79578200  1
  O  O45  1  0.93022500  0.27439600  0.18085100  1
  O  O46  1  0.67062900  0.25947800  0.41649400  1
  O  O47  1  0.45828000  0.17979600  0.20814700  1
  O  O48  1  0.31156300  0.10261300  0.57107200  1
  O  O49  1  0.07683600  0.07757100  0.81654100  1
