# generated using pymatgen
data_ReTe3Br5
_symmetry_space_group_name_H-M   'P 1'
_cell_length_a   8.89390700
_cell_length_b   11.63370900
_cell_length_c   12.74504537
_cell_angle_alpha   73.98844170
_cell_angle_beta   90.00000000
_cell_angle_gamma   90.00000000
_symmetry_Int_Tables_number   1
_chemical_formula_structural   ReTe3Br5
_chemical_formula_sum   'Re4 Te12 Br20'
_cell_volume   1267.56042592
_cell_formula_units_Z   4
loop_
 _symmetry_equiv_pos_site_id
 _symmetry_equiv_pos_as_xyz
  1  'x, y, z'
loop_
 _atom_site_type_symbol
 _atom_site_label
 _atom_site_symmetry_multiplicity
 _atom_site_fract_x
 _atom_site_fract_y
 _atom_site_fract_z
 _atom_site_occupancy
  Re  Re0  1  0.86099500  0.22270700  0.21248100  1
  Re  Re1  1  0.07974000  0.36504100  0.28159600  1
  Re  Re2  1  0.57974000  0.63495900  0.71840400  1
  Re  Re3  1  0.36099500  0.77729300  0.78751900  1
  Te  Te4  1  0.81577600  0.07129700  0.08163400  1
  Te  Te5  1  0.28351100  0.63844600  0.65445000  1
  Te  Te6  1  0.45539700  0.56679800  0.91484100  1
  Te  Te7  1  0.26032000  0.38758300  0.45006300  1
  Te  Te8  1  0.96568600  0.16679900  0.42141700  1
  Te  Te9  1  0.78351100  0.36155400  0.34555000  1
  Te  Te10  1  0.15116400  0.19167000  0.19049000  1
  Te  Te11  1  0.46568600  0.83320100  0.57858300  1
  Te  Te12  1  0.65116400  0.80833000  0.80951000  1
  Te  Te13  1  0.31577600  0.92870300  0.91836600  1
  Te  Te14  1  0.76032000  0.61241700  0.54993700  1
  Te  Te15  1  0.95539700  0.43320200  0.08515900  1
  Br  Br16  1  0.98840300  0.88740100  0.14306800  1
  Br  Br17  1  0.56957100  0.42007200  0.68136700  1
  Br  Br18  1  0.62249200  0.27558700  0.08327900  1
  Br  Br19  1  0.93802900  0.79477800  0.49287200  1
  Br  Br20  1  0.59385900  0.66657700  0.37398000  1
  Br  Br21  1  0.09385900  0.33342300  0.62602000  1
  Br  Br22  1  0.43802900  0.20522200  0.50712800  1
  Br  Br23  1  0.68257400  0.03733700  0.29843000  1
  Br  Br24  1  0.95510800  0.16322400  0.89817200  1
  Br  Br25  1  0.23414300  0.99457800  0.35116700  1
  Br  Br26  1  0.45510800  0.83677600  0.10182800  1
  Br  Br27  1  0.12249200  0.72441300  0.91672100  1
  Br  Br28  1  0.48840300  0.11259900  0.85693200  1
  Br  Br29  1  0.35497800  0.44623600  0.22173800  1
  Br  Br30  1  0.18257400  0.96266300  0.70157000  1
  Br  Br31  1  0.74844300  0.59340700  0.10502600  1
  Br  Br32  1  0.73414300  0.00542200  0.64883300  1
  Br  Br33  1  0.24844300  0.40659300  0.89497400  1
  Br  Br34  1  0.85497800  0.55376400  0.77826200  1
  Br  Br35  1  0.06957100  0.57992800  0.31863300  1
