# generated using pymatgen
data_U11S20
_symmetry_space_group_name_H-M   'P 1'
_cell_length_a   6.65184500
_cell_length_b   6.65184500
_cell_length_c   20.37444900
_cell_angle_alpha   90.00000000
_cell_angle_beta   90.00000000
_cell_angle_gamma   90.00000000
_symmetry_Int_Tables_number   1
_chemical_formula_structural   U11S20
_chemical_formula_sum   'U22 S40'
_cell_volume   901.50909867
_cell_formula_units_Z   2
loop_
 _symmetry_equiv_pos_site_id
 _symmetry_equiv_pos_as_xyz
  1  'x, y, z'
loop_
 _atom_site_type_symbol
 _atom_site_label
 _atom_site_symmetry_multiplicity
 _atom_site_fract_x
 _atom_site_fract_y
 _atom_site_fract_z
 _atom_site_occupancy
  U  U0  1  0.50000000  0.50000000  0.95839200  1
  U  U1  1  0.55687200  0.24399400  0.64814500  1
  U  U2  1  0.80812600  0.19705200  0.79505800  1
  U  U3  1  0.19187400  0.80294800  0.79505800  1
  U  U4  1  0.44312800  0.75600600  0.64814500  1
  U  U5  1  0.24399400  0.44312800  0.64814500  1
  U  U6  1  0.19705200  0.19187400  0.79505800  1
  U  U7  1  0.80294800  0.80812600  0.79505800  1
  U  U8  1  0.75600600  0.55687200  0.64814500  1
  U  U9  1  0.00000000  0.50000000  0.74886300  1
  U  U10  1  0.50000000  0.00000000  0.74886300  1
  U  U11  1  0.00000000  0.00000000  0.45839200  1
  U  U12  1  0.74399400  0.05687200  0.14814500  1
  U  U13  1  0.69705200  0.30812600  0.29505800  1
  U  U14  1  0.30812600  0.30294800  0.29505800  1
  U  U15  1  0.05687200  0.25600600  0.14814500  1
  U  U16  1  0.30294800  0.69187400  0.29505800  1
  U  U17  1  0.25600600  0.94312800  0.14814500  1
  U  U18  1  0.69187400  0.69705200  0.29505800  1
  U  U19  1  0.94312800  0.74399400  0.14814500  1
  U  U20  1  0.50000000  0.00000000  0.24886300  1
  U  U21  1  0.00000000  0.50000000  0.24886300  1
  S  S22  1  0.22586000  0.49786700  0.86809300  1
  S  S23  1  0.00749300  0.25573500  0.91254500  1
  S  S24  1  0.50213300  0.22586000  0.86809300  1
  S  S25  1  0.74426500  0.00749300  0.91254500  1
  S  S26  1  0.25573500  0.99250700  0.91254500  1
  S  S27  1  0.49786700  0.77414000  0.86809300  1
  S  S28  1  0.99250700  0.74426500  0.91254500  1
  S  S29  1  0.77414000  0.50213300  0.86809300  1
  S  S30  1  0.23826600  0.06435600  0.64764200  1
  S  S31  1  0.70841000  0.38458200  0.53108100  1
  S  S32  1  0.38458200  0.29159000  0.53108100  1
  S  S33  1  0.06435600  0.76173400  0.64764200  1
  S  S34  1  0.93564400  0.23826600  0.64764200  1
  S  S35  1  0.61541800  0.70841000  0.53108100  1
  S  S36  1  0.29159000  0.61541800  0.53108100  1
  S  S37  1  0.76173400  0.93564400  0.64764200  1
  S  S38  1  0.04876500  0.31040500  0.51735700  1
  S  S39  1  0.68959500  0.04876500  0.51735700  1
  S  S40  1  0.95123500  0.68959500  0.51735700  1
  S  S41  1  0.31040500  0.95123500  0.51735700  1
  S  S42  1  0.72586000  0.00213300  0.36809300  1
  S  S43  1  0.24426500  0.49250700  0.41254500  1
  S  S44  1  0.00213300  0.27414000  0.36809300  1
  S  S45  1  0.49250700  0.75573500  0.41254500  1
  S  S46  1  0.50749300  0.24426500  0.41254500  1
  S  S47  1  0.99786700  0.72586000  0.36809300  1
  S  S48  1  0.75573500  0.50749300  0.41254500  1
  S  S49  1  0.27414000  0.99786700  0.36809300  1
  S  S50  1  0.73826600  0.43564400  0.14764200  1
  S  S51  1  0.20841000  0.11541800  0.03108100  1
  S  S52  1  0.43564400  0.26173400  0.14764200  1
  S  S53  1  0.88458200  0.20841000  0.03108100  1
  S  S54  1  0.79159000  0.88458200  0.03108100  1
  S  S55  1  0.11541800  0.79159000  0.03108100  1
  S  S56  1  0.56435600  0.73826600  0.14764200  1
  S  S57  1  0.26173400  0.56435600  0.14764200  1
  S  S58  1  0.54876500  0.18959500  0.01735700  1
  S  S59  1  0.18959500  0.45123500  0.01735700  1
  S  S60  1  0.45123500  0.81040500  0.01735700  1
  S  S61  1  0.81040500  0.54876500  0.01735700  1
