# generated using pymatgen
data_Ag2SnO3
_symmetry_space_group_name_H-M   'P 1'
_cell_length_a   5.74815900
_cell_length_b   12.90303200
_cell_length_c   29.86567900
_cell_angle_alpha   90.00000000
_cell_angle_beta   90.00000000
_cell_angle_gamma   90.00000000
_symmetry_Int_Tables_number   1
_chemical_formula_structural   Ag2SnO3
_chemical_formula_sum   'Ag48 Sn24 O72'
_cell_volume   2215.09797434
_cell_formula_units_Z   24
loop_
 _symmetry_equiv_pos_site_id
 _symmetry_equiv_pos_as_xyz
  1  'x, y, z'
loop_
 _atom_site_type_symbol
 _atom_site_label
 _atom_site_symmetry_multiplicity
 _atom_site_fract_x
 _atom_site_fract_y
 _atom_site_fract_z
 _atom_site_occupancy
  Ag  Ag0  1  0.50000600  0.02530200  0.36109100  1
  Ag  Ag1  1  0.67621400  0.24503000  0.74925500  1
  Ag  Ag2  1  0.50033700  0.44641500  0.80564300  1
  Ag  Ag3  1  0.15899700  0.24559100  0.80421600  1
  Ag  Ag4  1  0.66199900  0.24916000  0.52944100  1
  Ag  Ag5  1  0.99999400  0.97469800  0.86109100  1
  Ag  Ag6  1  0.16497100  0.24553700  0.69643800  1
  Ag  Ag7  1  0.17707000  0.24735300  0.91628300  1
  Ag  Ag8  1  0.65896700  0.24615800  0.63752100  1
  Ag  Ag9  1  0.67684800  0.25260800  0.41716300  1
  Ag  Ag10  1  0.83542000  0.75389800  0.36302000  1
  Ag  Ag11  1  0.83502900  0.74553700  0.80356200  1
  Ag  Ag12  1  0.49966300  0.94641500  0.69435700  1
  Ag  Ag13  1  0.66497100  0.25446300  0.30356200  1
  Ag  Ag14  1  0.99966300  0.55358500  0.30564300  1
  Ag  Ag15  1  0.65899700  0.25440900  0.19578400  1
  Ag  Ag16  1  0.82378600  0.75497000  0.24925500  1
  Ag  Ag17  1  0.49988400  0.52446900  0.47215000  1
  Ag  Ag18  1  0.16084100  0.25080300  0.02948900  1
  Ag  Ag19  1  0.00033700  0.05358500  0.19435700  1
  Ag  Ag20  1  0.33502900  0.75446300  0.19643800  1
  Ag  Ag21  1  0.67707000  0.25264700  0.08371700  1
  Ag  Ag22  1  0.82293000  0.74735300  0.58371700  1
  Ag  Ag23  1  0.33915900  0.74919700  0.52948900  1
  Ag  Ag24  1  0.84100300  0.74559100  0.69578400  1
  Ag  Ag25  1  0.49999400  0.52530200  0.13890900  1
  Ag  Ag26  1  0.33800100  0.74916000  0.97055900  1
  Ag  Ag27  1  0.82315200  0.74739200  0.91716300  1
  Ag  Ag28  1  0.16199900  0.25084000  0.47055900  1
  Ag  Ag29  1  0.17684800  0.24739200  0.58283700  1
  Ag  Ag30  1  0.84103300  0.75384200  0.13752100  1
  Ag  Ag31  1  0.83800100  0.75084000  0.02944100  1
  Ag  Ag32  1  0.15896700  0.25384200  0.36247900  1
  Ag  Ag33  1  0.00011600  0.47553100  0.97215000  1
  Ag  Ag34  1  0.17621400  0.25497000  0.25074500  1
  Ag  Ag35  1  0.32293000  0.75264700  0.41628300  1
  Ag  Ag36  1  0.66084100  0.24919700  0.97051100  1
  Ag  Ag37  1  0.32378600  0.74503000  0.75074500  1
  Ag  Ag38  1  0.16458000  0.25389800  0.13698000  1
  Ag  Ag39  1  0.66458000  0.24610200  0.86302000  1
  Ag  Ag40  1  0.00000600  0.47469800  0.63890900  1
  Ag  Ag41  1  0.32315200  0.75260800  0.08283700  1
  Ag  Ag42  1  0.34103300  0.74615800  0.86247900  1
  Ag  Ag43  1  0.33542000  0.74610200  0.63698000  1
  Ag  Ag44  1  0.50011600  0.02446900  0.02785000  1
  Ag  Ag45  1  0.83915900  0.75080300  0.47051100  1
  Ag  Ag46  1  0.99988400  0.97553100  0.52785000  1
  Ag  Ag47  1  0.34100300  0.75440900  0.30421600  1
  Sn  Sn48  1  0.00116900  0.00180800  0.41668600  1
  Sn  Sn49  1  0.99979000  0.00008900  0.63895800  1
  Sn  Sn50  1  0.49913300  0.50039300  0.91660000  1
  Sn  Sn51  1  0.00074200  0.50156900  0.19447600  1
  Sn  Sn52  1  0.50086700  0.00039300  0.58340000  1
  Sn  Sn53  1  0.49899400  0.00166400  0.47224700  1
  Sn  Sn54  1  0.49979000  0.49991100  0.36104200  1
  Sn  Sn55  1  0.00086700  0.49960700  0.41660000  1
  Sn  Sn56  1  0.50074200  0.99843100  0.80552400  1
  Sn  Sn57  1  0.00100600  0.99833600  0.97224700  1
  Sn  Sn58  1  0.50100600  0.50166400  0.02775300  1
  Sn  Sn59  1  0.49946300  0.50106500  0.25002800  1
  Sn  Sn60  1  0.49883100  0.99819200  0.91668600  1
  Sn  Sn61  1  0.50116900  0.49819200  0.58331400  1
  Sn  Sn62  1  0.99925800  0.00156900  0.30552400  1
  Sn  Sn63  1  0.50021000  0.99991100  0.13895800  1
  Sn  Sn64  1  0.50053700  0.00106500  0.24997200  1
  Sn  Sn65  1  0.00021000  0.50008900  0.86104200  1
  Sn  Sn66  1  0.49925800  0.49843100  0.69447600  1
  Sn  Sn67  1  0.99883100  0.50180800  0.08331400  1
  Sn  Sn68  1  0.99946300  0.99893500  0.74997200  1
  Sn  Sn69  1  0.99899400  0.49833600  0.52775300  1
  Sn  Sn70  1  0.99913300  0.99960700  0.08340000  1
  Sn  Sn71  1  0.00053700  0.49893500  0.75002800  1
  O  O72  1  0.38048100  0.58647600  0.97207900  1
  O  O73  1  0.19077100  0.08508700  0.92471600  1
  O  O74  1  0.11970200  0.41626100  0.13899300  1
  O  O75  1  0.18910700  0.41699700  0.24224600  1
  O  O76  1  0.81089300  0.91699700  0.25775400  1
  O  O77  1  0.80988700  0.91580700  0.13141600  1
  O  O78  1  0.61951900  0.08647600  0.52792100  1
  O  O79  1  0.80936900  0.58359300  0.70209200  1
  O  O80  1  0.19011300  0.41580700  0.36858400  1
  O  O81  1  0.69476600  0.09026900  0.42635100  1
  O  O82  1  0.80086400  0.59118000  0.37198800  1
  O  O83  1  0.69627000  0.09192300  0.29582100  1
  O  O84  1  0.80414900  0.91282800  0.46248900  1
  O  O85  1  0.80175200  0.59217400  0.23932400  1
  O  O86  1  0.31008500  0.91473300  0.09125900  1
  O  O87  1  0.19913600  0.09118000  0.12801200  1
  O  O88  1  0.19627000  0.40807700  0.70417900  1
  O  O89  1  0.30373000  0.59192300  0.20417900  1
  O  O90  1  0.87898900  0.58345900  0.80548200  1
  O  O91  1  0.60238000  0.09207800  0.19421600  1
  O  O92  1  0.38029800  0.58373900  0.63899300  1
  O  O93  1  0.30086400  0.90882000  0.62801200  1
  O  O94  1  0.19572500  0.40970700  0.90691400  1
  O  O95  1  0.19476600  0.40973100  0.57364900  1
  O  O96  1  0.69585100  0.08717200  0.96248900  1
  O  O97  1  0.60806300  0.41120900  0.97256700  1
  O  O98  1  0.80895000  0.58814300  0.03554600  1
  O  O99  1  0.37898900  0.91654100  0.19451800  1
  O  O100  1  0.30936900  0.91640700  0.29790800  1
  O  O101  1  0.11951900  0.41352400  0.47207900  1
  O  O102  1  0.30988700  0.58419300  0.86858400  1
  O  O103  1  0.30523400  0.59026900  0.07364900  1
  O  O104  1  0.31089300  0.58300300  0.74224600  1
  O  O105  1  0.89762000  0.90792200  0.69421600  1
  O  O106  1  0.39193700  0.91120900  0.52743300  1
  O  O107  1  0.80523400  0.90973100  0.92635100  1
  O  O108  1  0.30175200  0.90782600  0.76067600  1
  O  O109  1  0.69063100  0.41640700  0.20209200  1
  O  O110  1  0.89075500  0.59133000  0.13885800  1
  O  O111  1  0.81008500  0.58526700  0.90874100  1
  O  O112  1  0.69105000  0.41185700  0.53554600  1
  O  O113  1  0.69011300  0.08419300  0.63141600  1
  O  O114  1  0.80427500  0.90970700  0.59308600  1
  O  O115  1  0.80373000  0.90807700  0.79582100  1
  O  O116  1  0.68910700  0.08300300  0.75775400  1
  O  O117  1  0.69913600  0.40882000  0.87198800  1
  O  O118  1  0.39075500  0.90867000  0.86114200  1
  O  O119  1  0.10238000  0.40792200  0.80578400  1
  O  O120  1  0.69572500  0.09029300  0.09308600  1
  O  O121  1  0.89193700  0.58879100  0.47256700  1
  O  O122  1  0.30922900  0.91491300  0.42471600  1
  O  O123  1  0.60924500  0.40867000  0.63885800  1
  O  O124  1  0.10924500  0.09133000  0.36114200  1
  O  O125  1  0.68991500  0.41473300  0.40874100  1
  O  O126  1  0.12101100  0.08345900  0.69451800  1
  O  O127  1  0.10806300  0.08879100  0.02743300  1
  O  O128  1  0.80922900  0.58508700  0.57528400  1
  O  O129  1  0.18991500  0.08526700  0.59125900  1
  O  O130  1  0.62101100  0.41654100  0.30548200  1
  O  O131  1  0.30895000  0.91185700  0.96445400  1
  O  O132  1  0.30414900  0.58717200  0.53751100  1
  O  O133  1  0.19585100  0.41282800  0.03751100  1
  O  O134  1  0.30427500  0.59029300  0.40691400  1
  O  O135  1  0.88029800  0.91626100  0.36100700  1
  O  O136  1  0.69824800  0.40782600  0.73932400  1
  O  O137  1  0.88048100  0.91352400  0.02792100  1
  O  O138  1  0.19824800  0.09217400  0.26067600  1
  O  O139  1  0.19105000  0.08814300  0.46445400  1
  O  O140  1  0.61970200  0.08373900  0.86100700  1
  O  O141  1  0.19063100  0.08359300  0.79790800  1
  O  O142  1  0.69077100  0.41491300  0.07528400  1
  O  O143  1  0.39762000  0.59207800  0.30578400  1
