# generated using pymatgen
data_SiO2
_symmetry_space_group_name_H-M   'P 1'
_cell_length_a   16.38069546
_cell_length_b   16.38069546
_cell_length_c   7.46180307
_cell_angle_alpha   89.50855047
_cell_angle_beta   89.50855047
_cell_angle_gamma   145.70358075
_symmetry_Int_Tables_number   1
_chemical_formula_structural   SiO2
_chemical_formula_sum   'Si22 O44'
_cell_volume   1127.71359177
_cell_formula_units_Z   22
loop_
 _symmetry_equiv_pos_site_id
 _symmetry_equiv_pos_as_xyz
  1  'x, y, z'
loop_
 _atom_site_type_symbol
 _atom_site_label
 _atom_site_symmetry_multiplicity
 _atom_site_fract_x
 _atom_site_fract_y
 _atom_site_fract_z
 _atom_site_occupancy
  Si  Si0  1  0.07324700  0.17175200  0.63430100  1
  Si  Si1  1  0.91776100  0.08223900  0.00000000  1
  Si  Si2  1  0.04117900  0.34739700  0.16336400  1
  Si  Si3  1  0.53852600  0.78186600  0.47808500  1
  Si  Si4  1  0.76316200  0.22194400  0.28549100  1
  Si  Si5  1  0.77805600  0.23683800  0.71450900  1
  Si  Si6  1  0.22194400  0.76316200  0.28549100  1
  Si  Si7  1  0.21813400  0.46147400  0.52191500  1
  Si  Si8  1  0.50191900  0.10715600  0.81676100  1
  Si  Si9  1  0.49808100  0.89284400  0.18323900  1
  Si  Si10  1  0.89284400  0.49808100  0.18323900  1
  Si  Si11  1  0.17175200  0.07324700  0.63430100  1
  Si  Si12  1  0.34739700  0.04117900  0.16336400  1
  Si  Si13  1  0.92675300  0.82824800  0.36569900  1
  Si  Si14  1  0.78186600  0.53852600  0.47808500  1
  Si  Si15  1  0.82824800  0.92675300  0.36569900  1
  Si  Si16  1  0.65260300  0.95882100  0.83663600  1
  Si  Si17  1  0.10715600  0.50191900  0.81676100  1
  Si  Si18  1  0.95882100  0.65260300  0.83663600  1
  Si  Si19  1  0.46147400  0.21813400  0.52191500  1
  Si  Si20  1  0.08223900  0.91776100  0.00000000  1
  Si  Si21  1  0.23683800  0.77805600  0.71450900  1
  O  O22  1  0.60745000  0.39255000  0.50000000  1
  O  O23  1  0.06230500  0.93769500  0.50000000  1
  O  O24  1  0.23463700  0.01219900  0.07651000  1
  O  O25  1  0.60724500  0.05892400  0.22367900  1
  O  O26  1  0.01260200  0.11769100  0.84097100  1
  O  O27  1  0.16412800  0.48597200  0.66484200  1
  O  O28  1  0.76536300  0.98780100  0.92349000  1
  O  O29  1  0.39255000  0.60745000  0.50000000  1
  O  O30  1  0.42326300  0.14592600  0.33180500  1
  O  O31  1  0.20484600  0.66510400  0.81102900  1
  O  O32  1  0.66510400  0.20484600  0.81102900  1
  O  O33  1  0.88230900  0.98739800  0.15902900  1
  O  O34  1  0.66703400  0.82864600  0.40467500  1
  O  O35  1  0.11835300  0.47050700  0.01348400  1
  O  O36  1  0.11769100  0.01260200  0.84097100  1
  O  O37  1  0.98780100  0.76536300  0.92349000  1
  O  O38  1  0.52949300  0.88164700  0.98651600  1
  O  O39  1  0.85407400  0.57673700  0.66819500  1
  O  O40  1  0.47050700  0.11835300  0.01348400  1
  O  O41  1  0.93769500  0.06230500  0.50000000  1
  O  O42  1  0.25652100  0.88563200  0.22642500  1
  O  O43  1  0.01219900  0.23463700  0.07651000  1
  O  O44  1  0.39275500  0.94107600  0.77632100  1
  O  O45  1  0.74347900  0.11436800  0.77357500  1
  O  O46  1  0.76391000  0.23609000  0.50000000  1
  O  O47  1  0.51402800  0.83587200  0.33515800  1
  O  O48  1  0.82864600  0.66703400  0.40467500  1
  O  O49  1  0.79515400  0.33489600  0.18897100  1
  O  O50  1  0.05892400  0.60724500  0.22367900  1
  O  O51  1  0.23609000  0.76391000  0.50000000  1
  O  O52  1  0.82839900  0.82839900  0.40216100  1
  O  O53  1  0.94107600  0.39275500  0.77632100  1
  O  O54  1  0.57673700  0.85407400  0.66819500  1
  O  O55  1  0.14592600  0.42326300  0.33180500  1
  O  O56  1  0.88563200  0.25652100  0.22642500  1
  O  O57  1  0.33489600  0.79515400  0.18897100  1
  O  O58  1  0.88164700  0.52949300  0.98651600  1
  O  O59  1  0.83587200  0.51402800  0.33515800  1
  O  O60  1  0.48597200  0.16412800  0.66484200  1
  O  O61  1  0.33296600  0.17135400  0.59532500  1
  O  O62  1  0.17160100  0.17160100  0.59783900  1
  O  O63  1  0.17135400  0.33296600  0.59532500  1
  O  O64  1  0.11436800  0.74347900  0.77357500  1
  O  O65  1  0.98739800  0.88230900  0.15902900  1
