# generated using pymatgen
data_V2CN
_symmetry_space_group_name_H-M   'P 1'
_cell_length_a   5.09214335
_cell_length_b   5.09214335
_cell_length_c   5.09214335
_cell_angle_alpha   132.04786519
_cell_angle_beta   132.04786519
_cell_angle_gamma   70.15343953
_symmetry_Int_Tables_number   1
_chemical_formula_structural   V2CN
_chemical_formula_sum   'V4 C2 N2'
_cell_volume   71.37232724
_cell_formula_units_Z   2
loop_
 _symmetry_equiv_pos_site_id
 _symmetry_equiv_pos_as_xyz
  1  'x, y, z'
loop_
 _atom_site_type_symbol
 _atom_site_label
 _atom_site_symmetry_multiplicity
 _atom_site_fract_x
 _atom_site_fract_y
 _atom_site_fract_z
 _atom_site_occupancy
  V  V0  1  0.75763600  0.75763600  0.00000000  1
  V  V1  1  0.24236400  0.24236400  0.00000000  1
  V  V2  1  0.99236400  0.49236400  0.50000000  1
  V  V3  1  0.50763600  0.00763600  0.50000000  1
  C  C4  1  0.00000000  0.00000000  0.00000000  1
  C  C5  1  0.75000000  0.25000000  0.50000000  1
  N  N6  1  0.50000000  0.50000000  0.00000000  1
  N  N7  1  0.25000000  0.75000000  0.50000000  1
