# generated using pymatgen
data_Na6MgAl4Si13O36
_symmetry_space_group_name_H-M   'P 1'
_cell_length_a   14.33091954
_cell_length_b   14.33091954
_cell_length_c   5.29615283
_cell_angle_alpha   86.55106051
_cell_angle_beta   86.55106051
_cell_angle_gamma   35.17009881
_symmetry_Int_Tables_number   1
_chemical_formula_structural   Na6MgAl4Si13O36
_chemical_formula_sum   'Na6 Mg1 Al4 Si13 O36'
_cell_volume   625.27192607
_cell_formula_units_Z   1
loop_
 _symmetry_equiv_pos_site_id
 _symmetry_equiv_pos_as_xyz
  1  'x, y, z'
loop_
 _atom_site_type_symbol
 _atom_site_label
 _atom_site_symmetry_multiplicity
 _atom_site_fract_x
 _atom_site_fract_y
 _atom_site_fract_z
 _atom_site_occupancy
  Na  Na0  1  0.03589200  0.96410800  0.50000000  1
  Na  Na1  1  0.36478900  0.30097300  0.83475600  1
  Na  Na2  1  0.69902700  0.63521100  0.16524400  1
  Na  Na3  1  0.29665400  0.03456600  0.66897600  1
  Na  Na4  1  0.63586800  0.36413200  0.00000000  1
  Na  Na5  1  0.96543400  0.70334600  0.33102400  1
  Mg  Mg6  1  0.23812700  0.76187300  0.00000000  1
  Al  Al7  1  0.09371900  0.23886200  0.16620100  1
  Al  Al8  1  0.56969600  0.09623300  0.33271700  1
  Al  Al9  1  0.76113800  0.90628100  0.83379900  1
  Al  Al10  1  0.90376700  0.43030400  0.66728300  1
  Si  Si11  1  0.14704700  0.66078400  0.70777400  1
  Si  Si12  1  0.00266000  0.52478700  0.95284300  1
  Si  Si13  1  0.47521300  0.99734000  0.04715700  1
  Si  Si14  1  0.33921600  0.85295300  0.29222600  1
  Si  Si15  1  0.80633300  0.33140400  0.38058200  1
  Si  Si16  1  0.33224100  0.47415500  0.22083200  1
  Si  Si17  1  0.42907800  0.57092200  0.50000000  1
  Si  Si18  1  0.66859600  0.19366700  0.61941800  1
  Si  Si19  1  0.18881100  0.33789000  0.45169900  1
  Si  Si20  1  0.66211000  0.81118900  0.54830100  1
  Si  Si21  1  0.52584500  0.66775900  0.77916800  1
  Si  Si22  1  0.99429700  0.14739300  0.87747000  1
  Si  Si23  1  0.85260700  0.00570300  0.12253000  1
  O  O24  1  0.10946000  0.45850000  0.69014800  1
  O  O25  1  0.23468100  0.69290000  0.66508900  1
  O  O26  1  0.44385100  0.78446500  0.02486000  1
  O  O27  1  0.28207900  0.14140700  0.02900800  1
  O  O28  1  0.14309700  0.95701800  0.85140600  1
  O  O29  1  0.55210000  0.04106000  0.02653300  1
  O  O30  1  0.21553500  0.55614900  0.97514000  1
  O  O31  1  0.03419600  0.22832400  0.86149200  1
  O  O32  1  0.77020300  0.13262000  0.35425100  1
  O  O33  1  0.30710000  0.76531900  0.33491100  1
  O  O34  1  0.12514100  0.44449200  0.18909700  1
  O  O35  1  0.19245000  0.04747100  0.30248500  1
  O  O36  1  0.61158900  0.47291400  0.35765000  1
  O  O37  1  0.04298200  0.85690300  0.14859400  1
  O  O38  1  0.47482000  0.28190200  0.19435600  1
  O  O39  1  0.88318300  0.37585000  0.36193000  1
  O  O40  1  0.54150000  0.89054000  0.30985200  1
  O  O41  1  0.38699400  0.54069800  0.22360000  1
  O  O42  1  0.62415000  0.11681700  0.63807000  1
  O  O43  1  0.46375300  0.77619500  0.52177400  1
  O  O44  1  0.10971600  0.29575800  0.46918800  1
  O  O45  1  0.52708600  0.38841100  0.64235000  1
  O  O46  1  0.95252900  0.80755000  0.69751500  1
  O  O47  1  0.38228300  0.19198400  0.47103100  1
  O  O48  1  0.80801600  0.61771700  0.52896900  1
  O  O49  1  0.86738000  0.22979700  0.64574900  1
  O  O50  1  0.70424200  0.89028400  0.53081200  1
  O  O51  1  0.22380500  0.53624700  0.47822600  1
  O  O52  1  0.95894000  0.44790000  0.97346700  1
  O  O53  1  0.78863000  0.11282200  0.85817500  1
  O  O54  1  0.45930200  0.61300600  0.77640000  1
  O  O55  1  0.85859300  0.71792100  0.97099200  1
  O  O56  1  0.71809800  0.52518000  0.80564400  1
  O  O57  1  0.55550800  0.87485900  0.81090300  1
  O  O58  1  0.77167600  0.96580400  0.13850800  1
  O  O59  1  0.88717800  0.21137000  0.14182500  1
