# generated using pymatgen
data_Re2C9S3O8
_symmetry_space_group_name_H-M   'P 1'
_cell_length_a   7.23962000
_cell_length_b   8.68698246
_cell_length_c   14.13599359
_cell_angle_alpha   83.67750522
_cell_angle_beta   79.46530231
_cell_angle_gamma   75.30002600
_symmetry_Int_Tables_number   1
_chemical_formula_structural   Re2C9S3O8
_chemical_formula_sum   'Re4 C18 S6 O16'
_cell_volume   843.52444910
_cell_formula_units_Z   2
loop_
 _symmetry_equiv_pos_site_id
 _symmetry_equiv_pos_as_xyz
  1  'x, y, z'
loop_
 _atom_site_type_symbol
 _atom_site_label
 _atom_site_symmetry_multiplicity
 _atom_site_fract_x
 _atom_site_fract_y
 _atom_site_fract_z
 _atom_site_occupancy
  Re  Re0  1  0.81623200  0.18445200  0.94814400  1
  Re  Re1  1  0.10687400  0.67505500  0.64313400  1
  Re  Re2  1  0.89312600  0.32494500  0.35686600  1
  Re  Re3  1  0.18376800  0.81554800  0.05185600  1
  C  C4  1  0.71826700  0.52184500  0.40495500  1
  C  C5  1  0.88015400  0.57679100  0.66843800  1
  C  C6  1  0.61498400  0.22267200  0.86833500  1
  C  C7  1  0.63184800  0.15442900  0.06909800  1
  C  C8  1  0.01362900  0.20636900  0.83076100  1
  C  C9  1  0.31702700  0.79619000  0.62178700  1
  C  C10  1  0.98637100  0.79363100  0.16923900  1
  C  C11  1  0.11984600  0.42320900  0.33156200  1
  C  C12  1  0.38501600  0.77732800  0.13166500  1
  C  C13  1  0.01310600  0.19149600  0.16400800  1
  C  C14  1  0.75381900  0.41232000  0.95920500  1
  C  C15  1  0.68297300  0.20381000  0.37821300  1
  C  C16  1  0.36815200  0.84557100  0.93090200  1
  C  C17  1  0.98689400  0.80850400  0.83599200  1
  C  C18  1  0.96232800  0.24019900  0.48159400  1
  C  C19  1  0.28173300  0.47815500  0.59504500  1
  C  C20  1  0.03767200  0.75980100  0.51840600  1
  C  C21  1  0.24618100  0.58768000  0.04079500  1
  S  S22  1  0.86071600  0.37300300  0.18032100  1
  S  S23  1  0.90841200  0.88080100  0.95148100  1
  S  S24  1  0.09158800  0.11919900  0.04851900  1
  S  S25  1  0.13928400  0.62699700  0.81967900  1
  S  S26  1  0.09603700  0.09176500  0.26304200  1
  S  S27  1  0.90396300  0.90823500  0.73695800  1
  O  O28  1  0.25486100  0.47661300  0.31575000  1
  O  O29  1  0.74513900  0.52338700  0.68425000  1
  O  O30  1  0.12512200  0.22353700  0.76312900  1
  O  O31  1  0.49115400  0.25716600  0.82214200  1
  O  O32  1  0.01494400  0.18350300  0.55351300  1
  O  O33  1  0.57454300  0.12364300  0.39372700  1
  O  O34  1  0.38432900  0.36017400  0.56615500  1
  O  O35  1  0.53092500  0.13556700  0.14068400  1
  O  O36  1  0.61567100  0.63982600  0.43384500  1
  O  O37  1  0.98505600  0.81649700  0.44648700  1
  O  O38  1  0.42545700  0.87635700  0.60627300  1
  O  O39  1  0.87487800  0.77646300  0.23687100  1
  O  O40  1  0.50884600  0.74283400  0.17785800  1
  O  O41  1  0.70930700  0.55059600  0.96244600  1
  O  O42  1  0.29069300  0.44940400  0.03755400  1
  O  O43  1  0.46907500  0.86443300  0.85931600  1
