# generated using pymatgen
data_Ca16Zr9Ta7N7O41
_symmetry_space_group_name_H-M   'P 1'
_cell_length_a   5.61687700
_cell_length_b   5.78648364
_cell_length_c   32.18943796
_cell_angle_alpha   89.96719090
_cell_angle_beta   89.87008803
_cell_angle_gamma   89.91321194
_symmetry_Int_Tables_number   1
_chemical_formula_structural   Ca16Zr9Ta7N7O41
_chemical_formula_sum   'Ca16 Zr9 Ta7 N7 O41'
_cell_volume   1046.21598668
_cell_formula_units_Z   1
loop_
 _symmetry_equiv_pos_site_id
 _symmetry_equiv_pos_as_xyz
  1  'x, y, z'
loop_
 _atom_site_type_symbol
 _atom_site_label
 _atom_site_symmetry_multiplicity
 _atom_site_fract_x
 _atom_site_fract_y
 _atom_site_fract_z
 _atom_site_occupancy
  Ca  Ca0  1  0.01726600  0.04391700  0.06177900  1
  Ca  Ca1  1  0.00985900  0.04229400  0.31285800  1
  Ca  Ca2  1  0.01726900  0.04377100  0.56475500  1
  Ca  Ca3  1  0.01562800  0.04075100  0.81461100  1
  Ca  Ca4  1  0.48045200  0.54810600  0.06227800  1
  Ca  Ca5  1  0.48659500  0.55301500  0.31295100  1
  Ca  Ca6  1  0.48178800  0.54949200  0.81412400  1
  Ca  Ca7  1  0.48746700  0.54210300  0.56577700  1
  Ca  Ca8  1  0.50363200  0.46649600  0.43871800  1
  Ca  Ca9  1  0.50812500  0.45378500  0.18685200  1
  Ca  Ca10  1  0.50500200  0.44995400  0.68532400  1
  Ca  Ca11  1  0.50639400  0.45496300  0.93551500  1
  Ca  Ca12  1  0.98706300  0.94283300  0.18714600  1
  Ca  Ca13  1  0.97699500  0.94218400  0.43819700  1
  Ca  Ca14  1  0.98554900  0.94347100  0.68636300  1
  Ca  Ca15  1  0.99200300  0.94409000  0.93485600  1
  Zr  Zr16  1  0.50176300  0.00247200  0.12534100  1
  Zr  Zr17  1  0.99419100  0.49852200  0.12291400  1
  Zr  Zr18  1  0.99341000  0.49895100  0.00091300  1
  Zr  Zr19  1  0.99668800  0.49868700  0.25111800  1
  Zr  Zr20  1  0.99473200  0.49703500  0.37324800  1
  Zr  Zr21  1  0.99561200  0.50017700  0.62448500  1
  Zr  Zr22  1  0.99414100  0.49779100  0.87325800  1
  Zr  Zr23  1  0.99326400  0.49678600  0.75153900  1
  Zr  Zr24  1  0.99474500  0.49793900  0.50284000  1
  Ta  Ta25  1  0.49011300  0.00380200  0.37974000  1
  Ta  Ta26  1  0.51332300  0.98712400  0.62504900  1
  Ta  Ta27  1  0.51639800  0.01032400  0.87495100  1
  Ta  Ta28  1  0.50332200  0.99993200  0.99885000  1
  Ta  Ta29  1  0.50142900  0.00273200  0.25073800  1
  Ta  Ta30  1  0.49830800  0.00062600  0.74905900  1
  Ta  Ta31  1  0.49532300  0.00420500  0.49844900  1
  N  N32  1  0.40487200  0.02561900  0.43768700  1
  N  N33  1  0.69497600  0.71634100  0.63820200  1
  N  N34  1  0.78600200  0.19535000  0.88828500  1
  N  N35  1  0.89342400  0.45911300  0.06174800  1
  N  N36  1  0.89853900  0.46413100  0.31231900  1
  N  N37  1  0.89749600  0.46868200  0.81166700  1
  N  N38  1  0.90047800  0.45866900  0.56227100  1
  O  O39  1  0.10970600  0.54404600  0.18823900  1
  O  O40  1  0.10289400  0.54153800  0.43715900  1
  O  O41  1  0.10841600  0.54324700  0.68783900  1
  O  O42  1  0.10643900  0.54161000  0.93774600  1
  O  O43  1  0.21936100  0.80052700  0.01241400  1
  O  O44  1  0.21724200  0.80445700  0.26320500  1
  O  O45  1  0.21870200  0.80490100  0.51324000  1
  O  O46  1  0.20201300  0.80482100  0.11115200  1
  O  O47  1  0.21911100  0.80162900  0.36149300  1
  O  O48  1  0.21775700  0.80427200  0.76232700  1
  O  O49  1  0.21424300  0.80770400  0.61241500  1
  O  O50  1  0.21210300  0.80079800  0.86235900  1
  O  O51  1  0.30621300  0.27915000  0.01195800  1
  O  O52  1  0.30961000  0.28569500  0.26324100  1
  O  O53  1  0.31187100  0.28892300  0.51215400  1
  O  O54  1  0.30858200  0.28282900  0.76271100  1
  O  O55  1  0.30931300  0.28446500  0.36188900  1
  O  O56  1  0.30943000  0.30097500  0.11200500  1
  O  O57  1  0.30631700  0.28820100  0.61407700  1
  O  O58  1  0.30255900  0.28120700  0.86242500  1
  O  O59  1  0.39875400  0.03623600  0.19020600  1
  O  O60  1  0.40258400  0.03076600  0.68884800  1
  O  O61  1  0.40349800  0.02929800  0.93796100  1
  O  O62  1  0.60085600  0.96539100  0.05927200  1
  O  O63  1  0.59259100  0.96978700  0.81167400  1
  O  O64  1  0.59716300  0.96930300  0.31044400  1
  O  O65  1  0.59391100  0.97680300  0.56267300  1
  O  O66  1  0.69805900  0.70625800  0.14036700  1
  O  O67  1  0.69479100  0.71789900  0.23640000  1
  O  O68  1  0.69471300  0.72008000  0.73619900  1
  O  O69  1  0.70082500  0.72268900  0.48663200  1
  O  O70  1  0.69582700  0.71663600  0.38751400  1
  O  O71  1  0.69416900  0.71610900  0.98490300  1
  O  O72  1  0.68925200  0.71305500  0.88820200  1
  O  O73  1  0.78793900  0.19463100  0.23631600  1
  O  O74  1  0.78424700  0.19521000  0.73520800  1
  O  O75  1  0.78535400  0.19935100  0.48560600  1
  O  O76  1  0.78551500  0.19348200  0.98502800  1
  O  O77  1  0.80072000  0.19905800  0.14169200  1
  O  O78  1  0.78883300  0.19235000  0.38807100  1
  O  O79  1  0.78488200  0.19837700  0.63996300  1
