# generated using pymatgen
data_Sb3Pd8
_symmetry_space_group_name_H-M   'P 1'
_cell_length_a   15.22748128
_cell_length_b   15.22748128
_cell_length_c   15.22748115
_cell_angle_alpha   29.38379255
_cell_angle_beta   29.38379255
_cell_angle_gamma   29.38379189
_symmetry_Int_Tables_number   1
_chemical_formula_structural   Sb3Pd8
_chemical_formula_sum   'Sb12 Pd32'
_cell_volume   752.27159450
_cell_formula_units_Z   4
loop_
 _symmetry_equiv_pos_site_id
 _symmetry_equiv_pos_as_xyz
  1  'x, y, z'
loop_
 _atom_site_type_symbol
 _atom_site_label
 _atom_site_symmetry_multiplicity
 _atom_site_fract_x
 _atom_site_fract_y
 _atom_site_fract_z
 _atom_site_occupancy
  Sb  Sb0  1  0.76646200  0.76646200  0.76646200  1
  Sb  Sb1  1  0.42701400  0.42701400  0.42701400  1
  Sb  Sb2  1  0.92469800  0.92469800  0.92469800  1
  Sb  Sb3  1  0.16708300  0.85707400  0.49426700  1
  Sb  Sb4  1  0.66780400  0.99286900  0.36051100  1
  Sb  Sb5  1  0.36051100  0.66780400  0.99286900  1
  Sb  Sb6  1  0.57928000  0.57928000  0.57928000  1
  Sb  Sb7  1  0.07931100  0.07931100  0.07931100  1
  Sb  Sb8  1  0.49426700  0.16708300  0.85707400  1
  Sb  Sb9  1  0.26499700  0.26499700  0.26499700  1
  Sb  Sb10  1  0.99286900  0.36051100  0.66780400  1
  Sb  Sb11  1  0.85707400  0.49426700  0.16708300  1
  Pd  Pd12  1  0.20754300  0.93799100  0.56925400  1
  Pd  Pd13  1  0.78470100  0.41349300  0.12124100  1
  Pd  Pd14  1  0.08175500  0.53785900  0.80277800  1
  Pd  Pd15  1  0.90799700  0.28505200  0.62579700  1
  Pd  Pd16  1  0.14068300  0.14068300  0.14068300  1
  Pd  Pd17  1  0.12124100  0.78470100  0.41349300  1
  Pd  Pd18  1  0.07343100  0.43286500  0.71006000  1
  Pd  Pd19  1  0.64167000  0.64167000  0.64167000  1
  Pd  Pd20  1  0.27387200  0.53681100  0.80284900  1
  Pd  Pd21  1  0.05814300  0.56466700  0.30270000  1
  Pd  Pd22  1  0.43286500  0.71006000  0.07343100  1
  Pd  Pd23  1  0.29808700  0.03696200  0.77682500  1
  Pd  Pd24  1  0.28505200  0.62579700  0.90799700  1
  Pd  Pd25  1  0.80284900  0.27387200  0.53681100  1
  Pd  Pd26  1  0.80277800  0.08175500  0.53785900  1
  Pd  Pd27  1  0.20405600  0.20405600  0.20405600  1
  Pd  Pd28  1  0.48826400  0.48826400  0.48826400  1
  Pd  Pd29  1  0.98570700  0.98570700  0.98570700  1
  Pd  Pd30  1  0.03696200  0.77682500  0.29808700  1
  Pd  Pd31  1  0.77682500  0.29808700  0.03696200  1
  Pd  Pd32  1  0.36437400  0.36437400  0.36437400  1
  Pd  Pd33  1  0.41349300  0.12124100  0.78470100  1
  Pd  Pd34  1  0.93799100  0.56925400  0.20754300  1
  Pd  Pd35  1  0.56466700  0.30270000  0.05814300  1
  Pd  Pd36  1  0.71006000  0.07343100  0.43286500  1
  Pd  Pd37  1  0.62579700  0.90799700  0.28505200  1
  Pd  Pd38  1  0.53785900  0.80277800  0.08175500  1
  Pd  Pd39  1  0.70589600  0.70589600  0.70589600  1
  Pd  Pd40  1  0.56925400  0.20754300  0.93799100  1
  Pd  Pd41  1  0.86124200  0.86124200  0.86124200  1
  Pd  Pd42  1  0.30270000  0.05814300  0.56466700  1
  Pd  Pd43  1  0.53681100  0.80284900  0.27387200  1
