# generated using pymatgen
data_KBiO3
_symmetry_space_group_name_H-M   'P 1'
_cell_length_a   8.75448200
_cell_length_b   8.99007957
_cell_length_c   22.17956562
_cell_angle_alpha   97.23607675
_cell_angle_beta   96.20583412
_cell_angle_gamma   109.95299724
_symmetry_Int_Tables_number   1
_chemical_formula_structural   KBiO3
_chemical_formula_sum   'K18 Bi18 O54'
_cell_volume   1606.24971964
_cell_formula_units_Z   18
loop_
 _symmetry_equiv_pos_site_id
 _symmetry_equiv_pos_as_xyz
  1  'x, y, z'
loop_
 _atom_site_type_symbol
 _atom_site_label
 _atom_site_symmetry_multiplicity
 _atom_site_fract_x
 _atom_site_fract_y
 _atom_site_fract_z
 _atom_site_occupancy
  K  K0  1  0.42022400  0.42810400  0.21678100  1
  K  K1  1  0.20052900  0.17207500  0.09606000  1
  K  K2  1  0.64135400  0.32982500  0.34146500  1
  K  K3  1  0.16481100  0.19611500  0.57124500  1
  K  K4  1  0.84085900  0.84516100  0.15714900  1
  K  K5  1  0.50131900  0.00152000  0.00093700  1
  K  K6  1  0.92095100  0.91573800  0.46131900  1
  K  K7  1  0.34029800  0.01342200  0.67121300  1
  K  K8  1  0.66763200  0.98639300  0.33468600  1
  K  K9  1  0.77763700  0.79375700  0.89158500  1
  K  K10  1  0.25166000  0.66968900  0.33665200  1
  K  K11  1  0.55517700  0.52773500  0.76926800  1
  K  K12  1  0.00108900  0.68111800  0.00307800  1
  K  K13  1  0.88748200  0.69116700  0.31205200  1
  K  K14  1  0.34406300  0.64886100  0.65987100  1
  K  K15  1  0.16764900  0.16401700  0.83480200  1
  K  K16  1  0.85675100  0.33091600  0.66563900  1
  K  K17  1  0.99177600  0.31409200  0.99235600  1
  Bi  Bi18  1  0.17121600  0.67131500  0.16748700  1
  Bi  Bi19  1  0.44681500  0.60502400  0.05295300  1
  Bi  Bi20  1  0.83360700  0.34591900  0.50145300  1
  Bi  Bi21  1  0.93711200  0.28012000  0.22183700  1
  Bi  Bi22  1  0.11452500  0.27468000  0.38869200  1
  Bi  Bi23  1  0.72539500  0.38769700  0.11517800  1
  Bi  Bi24  1  0.51014700  0.00901500  0.83473000  1
  Bi  Bi25  1  0.21316200  0.05738300  0.28075400  1
  Bi  Bi26  1  0.60617700  0.94186100  0.55193800  1
  Bi  Bi27  1  0.78665500  0.94056700  0.71941400  1
  Bi  Bi28  1  0.39188700  0.05252800  0.44888000  1
  Bi  Bi29  1  0.49237000  0.98938400  0.16706100  1
  Bi  Bi30  1  0.88536500  0.72513200  0.61179700  1
  Bi  Bi31  1  0.27479500  0.61454900  0.88567200  1
  Bi  Bi32  1  0.06483500  0.72001500  0.77921800  1
  Bi  Bi33  1  0.16314200  0.65512700  0.49814900  1
  Bi  Bi34  1  0.55351800  0.39316600  0.94692800  1
  Bi  Bi35  1  0.83059200  0.32512800  0.83187800  1
  O  O36  1  0.23714300  0.87743600  0.12062100  1
  O  O37  1  0.56654400  0.85421500  0.09476000  1
  O  O38  1  0.93583100  0.60214300  0.11298700  1
  O  O39  1  0.23769500  0.52066000  0.09829300  1
  O  O40  1  0.15037300  0.49475300  0.22396400  1
  O  O41  1  0.58609100  0.54004900  0.12696200  1
  O  O42  1  0.24207800  0.51754600  0.42863500  1
  O  O43  1  0.96387600  0.34661400  0.31832400  1
  O  O44  1  0.59593100  0.26764700  0.44767900  1
  O  O45  1  0.09042500  0.45367400  0.54689500  1
  O  O46  1  0.88519800  0.24962900  0.12205400  1
  O  O47  1  0.77579300  0.42141000  0.21582900  1
  O  O48  1  0.30206300  0.30109900  0.33024900  1
  O  O49  1  0.89670200  0.19865900  0.42770100  1
  O  O50  1  0.70367600  0.32815500  0.01762500  1
  O  O51  1  0.82657700  0.15428200  0.55200500  1
  O  O52  1  0.08922100  0.13826700  0.20676800  1
  O  O53  1  0.22235400  0.17359300  0.45782100  1
  O  O54  1  0.90887700  0.18650800  0.76219100  1
  O  O55  1  0.50792300  0.17546900  0.11366300  1
  O  O56  1  0.42535900  0.13464100  0.23695100  1
  O  O57  1  0.27313200  0.94005900  0.78125500  1
  O  O58  1  0.63620500  0.00735700  0.65059800  1
  O  O59  1  0.01334000  0.02575100  0.33286300  1
  O  O60  1  0.76334200  0.12290900  0.88124200  1
  O  O61  1  0.55547600  0.91757800  0.45179500  1
  O  O62  1  0.44286800  0.07916800  0.54776500  1
  O  O63  1  0.98138400  0.97131700  0.66465600  1
  O  O64  1  0.72943200  0.06020400  0.22170600  1
  O  O65  1  0.37051100  0.00062200  0.34940100  1
  O  O66  1  0.57571300  0.86103400  0.76459600  1
  O  O67  1  0.74946100  0.79674600  0.54182200  1
  O  O68  1  0.48962900  0.83046300  0.89133000  1
  O  O69  1  0.09048600  0.80727200  0.23976700  1
  O  O70  1  0.91702900  0.86378900  0.79243700  1
  O  O71  1  0.18092900  0.82765000  0.43807000  1
  O  O72  1  0.09250100  0.80972400  0.56564900  1
  O  O73  1  0.29557000  0.67009700  0.98428900  1
  O  O74  1  0.42282800  0.78462900  0.21473300  1
  O  O75  1  0.23010900  0.58642900  0.78623600  1
  O  O76  1  0.69609100  0.69595800  0.67048500  1
  O  O77  1  0.10917400  0.74594400  0.87940300  1
  O  O78  1  0.64466900  0.63751500  0.99889100  1
  O  O79  1  0.90859100  0.54443700  0.45194500  1
  O  O80  1  0.39588300  0.73422100  0.55511000  1
  O  O81  1  0.04868900  0.66812500  0.68175700  1
  O  O82  1  0.76737300  0.47613800  0.57620900  1
  O  O83  1  0.42461700  0.47090100  0.87456200  1
  O  O84  1  0.84988600  0.50351000  0.77539100  1
  O  O85  1  0.76713500  0.47357500  0.90393400  1
  O  O86  1  0.35841600  0.36099400  0.00275500  1
  O  O87  1  0.57580600  0.21487500  0.78747300  1
  O  O88  1  0.06747300  0.39663800  0.88653300  1
  O  O89  1  0.43221000  0.14627400  0.90652000  1
