# generated using pymatgen
data_YTh9O20
_symmetry_space_group_name_H-M   'P 1'
_cell_length_a   6.85660800
_cell_length_b   7.91884980
_cell_length_c   8.85976506
_cell_angle_alpha   102.87800570
_cell_angle_beta   97.47362666
_cell_angle_gamma   106.70157279
_symmetry_Int_Tables_number   1
_chemical_formula_structural   YTh9O20
_chemical_formula_sum   'Y1 Th9 O20'
_cell_volume   439.35635695
_cell_formula_units_Z   1
loop_
 _symmetry_equiv_pos_site_id
 _symmetry_equiv_pos_as_xyz
  1  'x, y, z'
loop_
 _atom_site_type_symbol
 _atom_site_label
 _atom_site_symmetry_multiplicity
 _atom_site_fract_x
 _atom_site_fract_y
 _atom_site_fract_z
 _atom_site_occupancy
  Y  Y0  1  0.00000000  0.00000000  0.00000000  1
  Th  Th1  1  0.80066100  0.60172700  0.60182100  1
  Th  Th2  1  0.00000000  0.50000000  0.00000000  1
  Th  Th3  1  0.59906800  0.19826200  0.19806200  1
  Th  Th4  1  0.80070300  0.09960800  0.60194600  1
  Th  Th5  1  0.40093200  0.80173800  0.80193800  1
  Th  Th6  1  0.60177500  0.70116300  0.19892900  1
  Th  Th7  1  0.19933900  0.39827300  0.39817900  1
  Th  Th8  1  0.39822500  0.29883700  0.80107100  1
  Th  Th9  1  0.19929700  0.90039200  0.39805400  1
  O  O10  1  0.85005300  0.32495300  0.45024700  1
  O  O11  1  0.64971900  0.92482300  0.05024900  1
  O  O12  1  0.85016400  0.82522600  0.45007300  1
  O  O13  1  0.94995500  0.77470700  0.15020700  1
  O  O14  1  0.44985900  0.52470300  0.64996000  1
  O  O15  1  0.64973200  0.42510500  0.04982100  1
  O  O16  1  0.74969100  0.37481800  0.74991700  1
  O  O17  1  0.25019300  0.12513700  0.25038300  1
  O  O18  1  0.95000100  0.27545200  0.15024700  1
  O  O19  1  0.04999900  0.72454800  0.84975300  1
  O  O20  1  0.44980500  0.02510000  0.64973800  1
  O  O21  1  0.55019500  0.97490000  0.35026200  1
  O  O22  1  0.74980700  0.87486300  0.74961700  1
  O  O23  1  0.35026800  0.57489500  0.95017900  1
  O  O24  1  0.25030900  0.62518200  0.25008300  1
  O  O25  1  0.05004500  0.22529300  0.84979300  1
  O  O26  1  0.55014100  0.47529700  0.35004000  1
  O  O27  1  0.14983600  0.17477400  0.54992700  1
  O  O28  1  0.35028100  0.07517700  0.94975100  1
  O  O29  1  0.14994700  0.67504700  0.54975300  1
