# generated using pymatgen
data_Zr7Ni10
_symmetry_space_group_name_H-M   'P 1'
_cell_length_a   9.13403500
_cell_length_b   9.14649500
_cell_length_c   12.36723200
_cell_angle_alpha   90.00000000
_cell_angle_beta   90.00000000
_cell_angle_gamma   90.00000000
_symmetry_Int_Tables_number   1
_chemical_formula_structural   Zr7Ni10
_chemical_formula_sum   'Zr28 Ni40'
_cell_volume   1033.21304459
_cell_formula_units_Z   4
loop_
 _symmetry_equiv_pos_site_id
 _symmetry_equiv_pos_as_xyz
  1  'x, y, z'
loop_
 _atom_site_type_symbol
 _atom_site_label
 _atom_site_symmetry_multiplicity
 _atom_site_fract_x
 _atom_site_fract_y
 _atom_site_fract_z
 _atom_site_occupancy
  Zr  Zr0  1  0.18556600  0.81392700  0.49695900  1
  Zr  Zr1  1  0.49980800  0.50109600  0.69129900  1
  Zr  Zr2  1  0.00000000  0.50000000  0.50000000  1
  Zr  Zr3  1  0.31443400  0.31392700  0.49695900  1
  Zr  Zr4  1  0.50019200  0.00109600  0.80870100  1
  Zr  Zr5  1  0.18556600  0.68607300  0.99695900  1
  Zr  Zr6  1  0.25259300  0.24886800  0.74628600  1
  Zr  Zr7  1  0.49980800  0.99890400  0.19129900  1
  Zr  Zr8  1  0.75259300  0.25113200  0.25371400  1
  Zr  Zr9  1  0.81443400  0.31392700  0.00304100  1
  Zr  Zr10  1  0.68556600  0.68607300  0.50304100  1
  Zr  Zr11  1  0.50019200  0.49890400  0.30870100  1
  Zr  Zr12  1  0.68556600  0.81392700  0.00304100  1
  Zr  Zr13  1  0.81443400  0.18607300  0.50304100  1
  Zr  Zr14  1  0.99980800  0.50109600  0.80870100  1
  Zr  Zr15  1  0.31443400  0.18607300  0.99695900  1
  Zr  Zr16  1  0.00000000  0.00000000  0.00000000  1
  Zr  Zr17  1  0.24740700  0.74886800  0.74628600  1
  Zr  Zr18  1  0.24740700  0.75113200  0.24628600  1
  Zr  Zr19  1  0.75259300  0.24886800  0.75371400  1
  Zr  Zr20  1  0.99980800  0.99890400  0.30870100  1
  Zr  Zr21  1  0.50000000  0.00000000  0.50000000  1
  Zr  Zr22  1  0.74740700  0.74886800  0.75371400  1
  Zr  Zr23  1  0.74740700  0.75113200  0.25371400  1
  Zr  Zr24  1  0.25259300  0.25113200  0.24628600  1
  Zr  Zr25  1  0.00019200  0.00109600  0.69129900  1
  Zr  Zr26  1  0.50000000  0.50000000  0.00000000  1
  Zr  Zr27  1  0.00019200  0.49890400  0.19129900  1
  Ni  Ni28  1  0.49447800  0.79359500  0.64742900  1
  Ni  Ni29  1  0.60641800  0.10513300  0.99823200  1
  Ni  Ni30  1  0.60641800  0.39486700  0.49823200  1
  Ni  Ni31  1  0.98659600  0.70822200  0.64355900  1
  Ni  Ni32  1  0.01340400  0.20822200  0.85644100  1
  Ni  Ni33  1  0.79037900  0.49243800  0.64666200  1
  Ni  Ni34  1  0.10641800  0.10513300  0.50176800  1
  Ni  Ni35  1  0.99447800  0.79359500  0.85257100  1
  Ni  Ni36  1  0.89358200  0.60513300  0.99823200  1
  Ni  Ni37  1  0.79310100  0.00675800  0.85634000  1
  Ni  Ni38  1  0.20689900  0.50675800  0.64366000  1
  Ni  Ni39  1  0.51340400  0.20822200  0.64355900  1
  Ni  Ni40  1  0.10641800  0.39486700  0.00176800  1
  Ni  Ni41  1  0.98659600  0.79177800  0.14355900  1
  Ni  Ni42  1  0.00552200  0.29359500  0.64742900  1
  Ni  Ni43  1  0.29037900  0.00756200  0.35333800  1
  Ni  Ni44  1  0.29037900  0.49243800  0.85333800  1
  Ni  Ni45  1  0.70689900  0.99324200  0.35634000  1
  Ni  Ni46  1  0.48659600  0.79177800  0.35644100  1
  Ni  Ni47  1  0.00552200  0.20640500  0.14742900  1
  Ni  Ni48  1  0.48659600  0.70822200  0.85644100  1
  Ni  Ni49  1  0.70962100  0.99243800  0.64666200  1
  Ni  Ni50  1  0.50552200  0.29359500  0.85257100  1
  Ni  Ni51  1  0.39358200  0.89486700  0.00176800  1
  Ni  Ni52  1  0.29310100  0.49324200  0.14366000  1
  Ni  Ni53  1  0.70689900  0.50675800  0.85634000  1
  Ni  Ni54  1  0.50552200  0.20640500  0.35257100  1
  Ni  Ni55  1  0.29310100  0.00675800  0.64366000  1
  Ni  Ni56  1  0.79310100  0.49324200  0.35634000  1
  Ni  Ni57  1  0.20689900  0.99324200  0.14366000  1
  Ni  Ni58  1  0.70962100  0.50756200  0.14666200  1
  Ni  Ni59  1  0.49447800  0.70640500  0.14742900  1
  Ni  Ni60  1  0.20962100  0.50756200  0.35333800  1
  Ni  Ni61  1  0.99447800  0.70640500  0.35257100  1
  Ni  Ni62  1  0.01340400  0.29177800  0.35644100  1
  Ni  Ni63  1  0.39358200  0.60513300  0.50176800  1
  Ni  Ni64  1  0.89358200  0.89486700  0.49823200  1
  Ni  Ni65  1  0.20962100  0.99243800  0.85333800  1
  Ni  Ni66  1  0.79037900  0.00756200  0.14666200  1
  Ni  Ni67  1  0.51340400  0.29177800  0.14355900  1
