# generated using pymatgen
data_Tm10Ti6O27
_symmetry_space_group_name_H-M   'P 1'
_cell_length_a   7.36293081
_cell_length_b   7.36293081
_cell_length_c   12.08390792
_cell_angle_alpha   71.31834318
_cell_angle_beta   71.31834318
_cell_angle_gamma   61.42224291
_symmetry_Int_Tables_number   1
_chemical_formula_structural   Tm10Ti6O27
_chemical_formula_sum   'Tm10 Ti6 O27'
_cell_volume   533.87375459
_cell_formula_units_Z   1
loop_
 _symmetry_equiv_pos_site_id
 _symmetry_equiv_pos_as_xyz
  1  'x, y, z'
loop_
 _atom_site_type_symbol
 _atom_site_label
 _atom_site_symmetry_multiplicity
 _atom_site_fract_x
 _atom_site_fract_y
 _atom_site_fract_z
 _atom_site_occupancy
  Tm  Tm0  1  0.98267300  0.51049200  0.98221000  1
  Tm  Tm1  1  0.51049200  0.98267300  0.98221000  1
  Tm  Tm2  1  0.75303400  0.75303400  0.24574400  1
  Tm  Tm3  1  0.24141100  0.24141100  0.24917100  1
  Tm  Tm4  1  0.23407300  0.75029000  0.24895200  1
  Tm  Tm5  1  0.23176500  0.23176500  0.75892700  1
  Tm  Tm6  1  0.49381200  0.49381200  0.51883900  1
  Tm  Tm7  1  0.75029000  0.23407300  0.24895200  1
  Tm  Tm8  1  0.77768200  0.21991900  0.75288800  1
  Tm  Tm9  1  0.21991900  0.77768200  0.75288800  1
  Ti  Ti10  1  0.50324700  0.50324700  0.99693400  1
  Ti  Ti11  1  0.51631600  0.00439700  0.50002100  1
  Ti  Ti12  1  0.00439700  0.51631600  0.50002100  1
  Ti  Ti13  1  0.00341800  0.00341800  0.50887100  1
  Ti  Ti14  1  0.76069600  0.76069600  0.72097100  1
  Ti  Ti15  1  0.00710400  0.00710400  0.01619400  1
  O  O16  1  0.84781300  0.84781300  0.02943000  1
  O  O17  1  0.51093900  0.06968600  0.33978700  1
  O  O18  1  0.06968600  0.51093900  0.33978700  1
  O  O19  1  0.81764000  0.28478100  0.04715500  1
  O  O20  1  0.93205500  0.93205500  0.20088100  1
  O  O21  1  0.83276600  0.83276600  0.53342300  1
  O  O22  1  0.43828800  0.43828800  0.16952500  1
  O  O23  1  0.26115800  0.26115800  0.56452800  1
  O  O24  1  0.22314100  0.63700600  0.44512400  1
  O  O25  1  0.11249900  0.54580000  0.77185500  1
  O  O26  1  0.28478100  0.81764000  0.04715500  1
  O  O27  1  0.05880800  0.05880800  0.34109100  1
  O  O28  1  0.27400600  0.88846300  0.54409100  1
  O  O29  1  0.54580000  0.11249900  0.77185500  1
  O  O30  1  0.44744900  0.91693100  0.18367700  1
  O  O31  1  0.63700600  0.22314100  0.44512400  1
  O  O32  1  0.59375900  0.26539200  0.93393000  1
  O  O33  1  0.92152800  0.92152800  0.69057100  1
  O  O34  1  0.88846300  0.27400600  0.54409100  1
  O  O35  1  0.67420600  0.67420600  0.44754700  1
  O  O36  1  0.91693100  0.44744900  0.18367700  1
  O  O37  1  0.67571400  0.67571400  0.90322400  1
  O  O38  1  0.85707000  0.49217900  0.68725500  1
  O  O39  1  0.04751100  0.04751100  0.83685300  1
  O  O40  1  0.26539200  0.59375900  0.93393000  1
  O  O41  1  0.19558500  0.19558500  0.95588500  1
  O  O42  1  0.49217900  0.85707000  0.68725500  1
