# generated using pymatgen
data_Fe4Te2MoC14(SO7)2
_symmetry_space_group_name_H-M   'P 1'
_cell_length_a   11.73725900
_cell_length_b   14.57456800
_cell_length_c   15.60331500
_cell_angle_alpha   90.00000000
_cell_angle_beta   90.00000000
_cell_angle_gamma   90.00000000
_symmetry_Int_Tables_number   1
_chemical_formula_structural   Fe4Te2MoC14(SO7)2
_chemical_formula_sum   'Fe16 Te8 Mo4 C56 S8 O56'
_cell_volume   2669.18856116
_cell_formula_units_Z   4
loop_
 _symmetry_equiv_pos_site_id
 _symmetry_equiv_pos_as_xyz
  1  'x, y, z'
loop_
 _atom_site_type_symbol
 _atom_site_label
 _atom_site_symmetry_multiplicity
 _atom_site_fract_x
 _atom_site_fract_y
 _atom_site_fract_z
 _atom_site_occupancy
  Fe  Fe0  1  0.43554600  0.00922300  0.40452200  1
  Fe  Fe1  1  0.83844000  0.90390300  0.53042500  1
  Fe  Fe2  1  0.56445400  0.99077700  0.90452200  1
  Fe  Fe3  1  0.33844000  0.59609700  0.03042500  1
  Fe  Fe4  1  0.75187500  0.87051300  0.30987200  1
  Fe  Fe5  1  0.92985200  0.73686300  0.92739800  1
  Fe  Fe6  1  0.42985200  0.76313700  0.42739800  1
  Fe  Fe7  1  0.24812500  0.12948700  0.80987200  1
  Fe  Fe8  1  0.25187500  0.62948700  0.80987200  1
  Fe  Fe9  1  0.93554600  0.49077700  0.90452200  1
  Fe  Fe10  1  0.66156000  0.40390300  0.53042500  1
  Fe  Fe11  1  0.07014800  0.26313700  0.42739800  1
  Fe  Fe12  1  0.74812500  0.37051300  0.30987200  1
  Fe  Fe13  1  0.57014800  0.23686300  0.92739800  1
  Fe  Fe14  1  0.06445400  0.50922300  0.40452200  1
  Fe  Fe15  1  0.16156000  0.09609700  0.03042500  1
  Te  Te16  1  0.77628600  0.76233200  0.44154400  1
  Te  Te17  1  0.72371400  0.26233200  0.44154400  1
  Te  Te18  1  0.22371400  0.23766800  0.94154400  1
  Te  Te19  1  0.99778900  0.37361500  0.31066600  1
  Te  Te20  1  0.50221100  0.87361500  0.31066600  1
  Te  Te21  1  0.49778900  0.12638500  0.81066600  1
  Te  Te22  1  0.00221100  0.62638500  0.81066600  1
  Te  Te23  1  0.27628600  0.73766800  0.94154400  1
  Mo  Mo24  1  0.10683100  0.60877200  0.97455200  1
  Mo  Mo25  1  0.39316900  0.10877200  0.97455200  1
  Mo  Mo26  1  0.89316900  0.39122800  0.47455200  1
  Mo  Mo27  1  0.60683100  0.89122800  0.47455200  1
  C  C28  1  0.09797300  0.13177800  0.79814000  1
  C  C29  1  0.15677900  0.99122300  0.09042600  1
  C  C30  1  0.19771400  0.51335900  0.35112700  1
  C  C31  1  0.80228600  0.48664100  0.85112700  1
  C  C32  1  0.01486400  0.09731500  0.00210900  1
  C  C33  1  0.22449000  0.72485700  0.73833700  1
  C  C34  1  0.09274500  0.19395100  0.52062600  1
  C  C35  1  0.76554400  0.45578100  0.22744800  1
  C  C36  1  0.90478100  0.40381400  0.98200800  1
  C  C37  1  0.20708500  0.25437800  0.38038800  1
  C  C38  1  0.72449000  0.77514300  0.23833700  1
  C  C39  1  0.98591800  0.58668200  0.33758100  1
  C  C40  1  0.51408200  0.08668200  0.33758100  1
  C  C41  1  0.40241100  0.99849700  0.05168000  1
  C  C42  1  0.14734300  0.16625100  0.12384500  1
  C  C43  1  0.64734300  0.33374900  0.62384500  1
  C  C44  1  0.90202700  0.86822200  0.29814000  1
  C  C45  1  0.90725500  0.80604900  0.02062600  1
  C  C46  1  0.89898000  0.31759400  0.58431200  1
  C  C47  1  0.49726300  0.67026900  0.37143200  1
  C  C48  1  0.84322100  0.00877700  0.59042600  1
  C  C49  1  0.00273700  0.17026900  0.37143200  1
  C  C50  1  0.27551000  0.22485700  0.73833700  1
  C  C51  1  0.77551000  0.27514300  0.23833700  1
  C  C52  1  0.59274500  0.30604900  0.02062600  1
  C  C53  1  0.40725500  0.69395100  0.52062600  1
  C  C54  1  0.48513600  0.59731500  0.00210900  1
  C  C55  1  0.40202700  0.63177800  0.79814000  1
  C  C56  1  0.29291500  0.75437800  0.38038800  1
  C  C57  1  0.34322100  0.49122300  0.09042600  1
  C  C58  1  0.39898000  0.18240600  0.08431200  1
  C  C59  1  0.98513600  0.90268500  0.50210900  1
  C  C60  1  0.59797300  0.36822200  0.29814000  1
  C  C61  1  0.79291500  0.74562200  0.88038800  1
  C  C62  1  0.26554400  0.04421900  0.72744800  1
  C  C63  1  0.23445600  0.54421900  0.72744800  1
  C  C64  1  0.51486400  0.40268500  0.50210900  1
  C  C65  1  0.59521900  0.90381400  0.98200800  1
  C  C66  1  0.69771400  0.98664100  0.85112700  1
  C  C67  1  0.73445600  0.95578100  0.22744800  1
  C  C68  1  0.48591800  0.91331800  0.83758100  1
  C  C69  1  0.35265700  0.66625100  0.12384500  1
  C  C70  1  0.50273700  0.32973100  0.87143200  1
  C  C71  1  0.99726300  0.82973100  0.87143200  1
  C  C72  1  0.10102000  0.68240600  0.08431200  1
  C  C73  1  0.30228600  0.01335900  0.35112700  1
  C  C74  1  0.65677900  0.50877700  0.59042600  1
  C  C75  1  0.90241100  0.50150300  0.55168000  1
  C  C76  1  0.59758900  0.00150300  0.55168000  1
  C  C77  1  0.85265700  0.83374900  0.62384500  1
  C  C78  1  0.70708500  0.24562200  0.88038800  1
  C  C79  1  0.09758900  0.49849700  0.05168000  1
  C  C80  1  0.40478100  0.09618600  0.48200800  1
  C  C81  1  0.09521900  0.59618600  0.48200800  1
  C  C82  1  0.01408200  0.41331800  0.83758100  1
  C  C83  1  0.60102000  0.81759400  0.58431200  1
  S  S84  1  0.59872300  0.10500200  0.99933500  1
  S  S85  1  0.90127700  0.60500200  0.99933500  1
  S  S86  1  0.76551800  0.97952800  0.41522200  1
  S  S87  1  0.26551800  0.52047200  0.91522200  1
  S  S88  1  0.73448200  0.47952800  0.41522200  1
  S  S89  1  0.23448200  0.02047200  0.91522200  1
  S  S90  1  0.40127700  0.89499800  0.49933500  1
  S  S91  1  0.09872300  0.39499800  0.49933500  1
  O  O92  1  0.59306400  0.77864800  0.64907000  1
  O  O93  1  0.88237300  0.34622900  0.03051100  1
  O  O94  1  0.78538300  0.98092500  0.81700500  1
  O  O95  1  0.09306400  0.72135200  0.14907000  1
  O  O96  1  0.90693600  0.27864800  0.64907000  1
  O  O97  1  0.61762700  0.84622900  0.03051100  1
  O  O98  1  0.99956300  0.87006000  0.28813900  1
  O  O99  1  0.41838800  0.40291300  0.48602200  1
  O  O100  1  0.28538300  0.51907500  0.31700500  1
  O  O101  1  0.29762900  0.24749600  0.35114500  1
  O  O102  1  0.90374900  0.56205200  0.60054800  1
  O  O103  1  0.20237100  0.74749600  0.35114500  1
  O  O104  1  0.71128800  0.71430600  0.19184000  1
  O  O105  1  0.84995500  0.07709600  0.62785700  1
  O  O106  1  0.86425100  0.78896200  0.68463500  1
  O  O107  1  0.28871200  0.28569400  0.69184000  1
  O  O108  1  0.21461700  0.01907500  0.31700500  1
  O  O109  1  0.13574900  0.21103800  0.18463500  1
  O  O110  1  0.56321300  0.13570000  0.29206000  1
  O  O111  1  0.49956300  0.62994000  0.78813900  1
  O  O112  1  0.11762700  0.65377100  0.53051100  1
  O  O113  1  0.46201100  0.38909400  0.83237300  1
  O  O114  1  0.59625100  0.06205200  0.60054800  1
  O  O115  1  0.34995500  0.42290400  0.12785700  1
  O  O116  1  0.65004500  0.57709600  0.62785700  1
  O  O117  1  0.53798900  0.61090600  0.33237300  1
  O  O118  1  0.15004500  0.92290400  0.12785700  1
  O  O119  1  0.76770200  0.50934800  0.17290400  1
  O  O120  1  0.63574900  0.28896200  0.68463500  1
  O  O121  1  0.08161200  0.90291300  0.48602200  1
  O  O122  1  0.26770200  0.99065200  0.67290400  1
  O  O123  1  0.03798900  0.88909400  0.83237300  1
  O  O124  1  0.40374900  0.93794800  0.10054800  1
  O  O125  1  0.50043700  0.37006000  0.28813900  1
  O  O126  1  0.70237100  0.75250400  0.85114500  1
  O  O127  1  0.58161200  0.59708700  0.98602200  1
  O  O128  1  0.60947200  0.35355700  0.07901700  1
  O  O129  1  0.91838800  0.09708700  0.98602200  1
  O  O130  1  0.00043700  0.12994000  0.78813900  1
  O  O131  1  0.40693600  0.22135200  0.14907000  1
  O  O132  1  0.21128800  0.78569400  0.69184000  1
  O  O133  1  0.06321300  0.36430000  0.79206000  1
  O  O134  1  0.78871200  0.21430600  0.19184000  1
  O  O135  1  0.79762900  0.25250400  0.85114500  1
  O  O136  1  0.93678700  0.63570000  0.29206000  1
  O  O137  1  0.38237300  0.15377100  0.53051100  1
  O  O138  1  0.09625100  0.43794800  0.10054800  1
  O  O139  1  0.73229800  0.00934800  0.17290400  1
  O  O140  1  0.96201100  0.11090600  0.33237300  1
  O  O141  1  0.89052800  0.85355700  0.07901700  1
  O  O142  1  0.39052800  0.64644300  0.57901700  1
  O  O143  1  0.71461700  0.48092500  0.81700500  1
  O  O144  1  0.10947200  0.14644300  0.57901700  1
  O  O145  1  0.36425100  0.71103800  0.18463500  1
  O  O146  1  0.23229800  0.49065200  0.67290400  1
  O  O147  1  0.43678700  0.86430000  0.79206000  1
