# generated using pymatgen
data_K5CeFe2(NO2)12
_symmetry_space_group_name_H-M   'P 1'
_cell_length_a   10.50445600
_cell_length_b   10.50445600
_cell_length_c   10.50445600
_cell_angle_alpha   90.00000000
_cell_angle_beta   90.00000000
_cell_angle_gamma   90.00000000
_symmetry_Int_Tables_number   1
_chemical_formula_structural   K5CeFe2(NO2)12
_chemical_formula_sum   'K10 Ce2 Fe4 N24 O48'
_cell_volume   1159.09944755
_cell_formula_units_Z   2
loop_
 _symmetry_equiv_pos_site_id
 _symmetry_equiv_pos_as_xyz
  1  'x, y, z'
loop_
 _atom_site_type_symbol
 _atom_site_label
 _atom_site_symmetry_multiplicity
 _atom_site_fract_x
 _atom_site_fract_y
 _atom_site_fract_z
 _atom_site_occupancy
  K  K0  1  0.25000000  0.25000000  0.75000000  1
  K  K1  1  0.25000000  0.75000000  0.25000000  1
  K  K2  1  0.00000000  0.50000000  0.50000000  1
  K  K3  1  0.50000000  0.00000000  0.00000000  1
  K  K4  1  0.50000000  0.00000000  0.50000000  1
  K  K5  1  0.75000000  0.75000000  0.75000000  1
  K  K6  1  0.50000000  0.50000000  0.00000000  1
  K  K7  1  0.00000000  0.50000000  0.00000000  1
  K  K8  1  0.75000000  0.25000000  0.25000000  1
  K  K9  1  0.00000000  0.00000000  0.50000000  1
  Ce  Ce10  1  0.00000000  0.00000000  0.00000000  1
  Ce  Ce11  1  0.50000000  0.50000000  0.50000000  1
  Fe  Fe12  1  0.75000000  0.75000000  0.25000000  1
  Fe  Fe13  1  0.25000000  0.75000000  0.75000000  1
  Fe  Fe14  1  0.75000000  0.25000000  0.75000000  1
  Fe  Fe15  1  0.25000000  0.25000000  0.25000000  1
  N  N16  1  0.25264200  0.25527900  0.43790500  1
  N  N17  1  0.56209500  0.74735800  0.25527900  1
  N  N18  1  0.43790500  0.74735800  0.74472100  1
  N  N19  1  0.25527900  0.56209500  0.74735800  1
  N  N20  1  0.74735800  0.74472100  0.43790500  1
  N  N21  1  0.75527900  0.06209500  0.75264200  1
  N  N22  1  0.06209500  0.75264200  0.75527900  1
  N  N23  1  0.56209500  0.25264200  0.74472100  1
  N  N24  1  0.25527900  0.43790500  0.25264200  1
  N  N25  1  0.75264200  0.24472100  0.93790500  1
  N  N26  1  0.74472100  0.56209500  0.25264200  1
  N  N27  1  0.24735800  0.24472100  0.06209500  1
  N  N28  1  0.25264200  0.74472100  0.56209500  1
  N  N29  1  0.75527900  0.93790500  0.24735800  1
  N  N30  1  0.43790500  0.25264200  0.25527900  1
  N  N31  1  0.24472100  0.93790500  0.75264200  1
  N  N32  1  0.24472100  0.06209500  0.24735800  1
  N  N33  1  0.93790500  0.75264200  0.24472100  1
  N  N34  1  0.74472100  0.43790500  0.74735800  1
  N  N35  1  0.74735800  0.25527900  0.56209500  1
  N  N36  1  0.24735800  0.75527900  0.93790500  1
  N  N37  1  0.75264200  0.75527900  0.06209500  1
  N  N38  1  0.93790500  0.24735800  0.75527900  1
  N  N39  1  0.06209500  0.24735800  0.24472100  1
  O  O40  1  0.25576600  0.00073100  0.65233700  1
  O  O41  1  0.75576600  0.50073100  0.84766300  1
  O  O42  1  0.15233700  0.75576600  0.49926900  1
  O  O43  1  0.99926900  0.34766300  0.25576600  1
  O  O44  1  0.65233700  0.25576600  0.00073100  1
  O  O45  1  0.99980500  0.85591700  0.22714900  1
  O  O46  1  0.14408300  0.22714900  0.00019500  1
  O  O47  1  0.72714900  0.50019500  0.35591700  1
  O  O48  1  0.34766300  0.74423400  0.00073100  1
  O  O49  1  0.77285100  0.99980500  0.14408300  1
  O  O50  1  0.84766300  0.75576600  0.50073100  1
  O  O51  1  0.14408300  0.77285100  0.99980500  1
  O  O52  1  0.49926900  0.15233700  0.75576600  1
  O  O53  1  0.64408300  0.72714900  0.49980500  1
  O  O54  1  0.77285100  0.00019500  0.85591700  1
  O  O55  1  0.65233700  0.74423400  0.99926900  1
  O  O56  1  0.64408300  0.27285100  0.50019500  1
  O  O57  1  0.00073100  0.65233700  0.25576600  1
  O  O58  1  0.84766300  0.24423400  0.49926900  1
  O  O59  1  0.85591700  0.77285100  0.00019500  1
  O  O60  1  0.27285100  0.50019500  0.64408300  1
  O  O61  1  0.00073100  0.34766300  0.74423400  1
  O  O62  1  0.99980500  0.14408300  0.77285100  1
  O  O63  1  0.49926900  0.84766300  0.24423400  1
  O  O64  1  0.75576600  0.49926900  0.15233700  1
  O  O65  1  0.00019500  0.14408300  0.22714900  1
  O  O66  1  0.15233700  0.24423400  0.50073100  1
  O  O67  1  0.74423400  0.00073100  0.34766300  1
  O  O68  1  0.34766300  0.25576600  0.99926900  1
  O  O69  1  0.27285100  0.49980500  0.35591700  1
  O  O70  1  0.50019500  0.35591700  0.72714900  1
  O  O71  1  0.35591700  0.72714900  0.50019500  1
  O  O72  1  0.99926900  0.65233700  0.74423400  1
  O  O73  1  0.49980500  0.64408300  0.72714900  1
  O  O74  1  0.50073100  0.84766300  0.75576600  1
  O  O75  1  0.25576600  0.99926900  0.34766300  1
  O  O76  1  0.50019500  0.64408300  0.27285100  1
  O  O77  1  0.50073100  0.15233700  0.24423400  1
  O  O78  1  0.74423400  0.99926900  0.65233700  1
  O  O79  1  0.24423400  0.49926900  0.84766300  1
  O  O80  1  0.85591700  0.22714900  0.99980500  1
  O  O81  1  0.00019500  0.85591700  0.77285100  1
  O  O82  1  0.22714900  0.00019500  0.14408300  1
  O  O83  1  0.35591700  0.27285100  0.49980500  1
  O  O84  1  0.24423400  0.50073100  0.15233700  1
  O  O85  1  0.72714900  0.49980500  0.64408300  1
  O  O86  1  0.49980500  0.35591700  0.27285100  1
  O  O87  1  0.22714900  0.99980500  0.85591700  1
