# generated using pymatgen
data_Yb11(U2S11)2
_symmetry_space_group_name_H-M   'P 1'
_cell_length_a   19.58873242
_cell_length_b   19.58873242
_cell_length_c   11.42960627
_cell_angle_alpha   88.65913936
_cell_angle_beta   88.65913936
_cell_angle_gamma   11.64852396
_symmetry_Int_Tables_number   1
_chemical_formula_structural   Yb11(U2S11)2
_chemical_formula_sum   'Yb11 U4 S22'
_cell_volume   885.27075155
_cell_formula_units_Z   1
loop_
 _symmetry_equiv_pos_site_id
 _symmetry_equiv_pos_as_xyz
  1  'x, y, z'
loop_
 _atom_site_type_symbol
 _atom_site_label
 _atom_site_symmetry_multiplicity
 _atom_site_fract_x
 _atom_site_fract_y
 _atom_site_fract_z
 _atom_site_occupancy
  Yb  Yb0  1  0.53703200  0.53703200  0.77196400  1
  Yb  Yb1  1  0.73599700  0.73599700  0.86361200  1
  Yb  Yb2  1  0.36906600  0.36906600  0.14519700  1
  Yb  Yb3  1  0.93175900  0.93175900  0.85446500  1
  Yb  Yb4  1  0.34232000  0.34232000  0.81620000  1
  Yb  Yb5  1  0.63093400  0.63093400  0.85480300  1
  Yb  Yb6  1  0.65768000  0.65768000  0.18380000  1
  Yb  Yb7  1  0.00000000  0.00000000  0.50000000  1
  Yb  Yb8  1  0.06824100  0.06824100  0.14553500  1
  Yb  Yb9  1  0.26400300  0.26400300  0.13638800  1
  Yb  Yb10  1  0.46296800  0.46296800  0.22803600  1
  U  U11  1  0.89861100  0.89861100  0.50537300  1
  U  U12  1  0.19868100  0.19868100  0.56366200  1
  U  U13  1  0.80131900  0.80131900  0.43633800  1
  U  U14  1  0.10138900  0.10138900  0.49462700  1
  S  S15  1  0.74293800  0.74293800  0.60820600  1
  S  S16  1  0.55690300  0.55690300  0.99444400  1
  S  S17  1  0.35140500  0.35140500  0.41857600  1
  S  S18  1  0.81287400  0.81287400  0.21276100  1
  S  S19  1  0.99144700  0.99144700  0.73199300  1
  S  S20  1  0.44807700  0.44807700  0.46953500  1
  S  S21  1  0.00855300  0.00855300  0.26800700  1
  S  S22  1  0.16853100  0.16853100  0.36630300  1
  S  S23  1  0.64859500  0.64859500  0.58142400  1
  S  S24  1  0.40185700  0.40185700  0.67843800  1
  S  S25  1  0.86630000  0.86630000  0.96497000  1
  S  S26  1  0.28014400  0.28014400  0.90416700  1
  S  S27  1  0.71985600  0.71985600  0.09583300  1
  S  S28  1  0.59814300  0.59814300  0.32156200  1
  S  S29  1  0.83146900  0.83146900  0.63369700  1
  S  S30  1  0.18712600  0.18712600  0.78723900  1
  S  S31  1  0.09245500  0.09245500  0.72652900  1
  S  S32  1  0.44309700  0.44309700  0.00555600  1
  S  S33  1  0.13370000  0.13370000  0.03503000  1
  S  S34  1  0.90754500  0.90754500  0.27347100  1
  S  S35  1  0.25706200  0.25706200  0.39179400  1
  S  S36  1  0.55192300  0.55192300  0.53046500  1
