# generated using pymatgen
data_Fe2CoO4
_symmetry_space_group_name_H-M   'P 1'
_cell_length_a   5.97724804
_cell_length_b   5.97724804
_cell_length_c   14.64471201
_cell_angle_alpha   89.99865329
_cell_angle_beta   89.99865329
_cell_angle_gamma   60.26482554
_symmetry_Int_Tables_number   1
_chemical_formula_structural   Fe2CoO4
_chemical_formula_sum   'Fe12 Co6 O24'
_cell_volume   454.32516025
_cell_formula_units_Z   6
loop_
 _symmetry_equiv_pos_site_id
 _symmetry_equiv_pos_as_xyz
  1  'x, y, z'
loop_
 _atom_site_type_symbol
 _atom_site_label
 _atom_site_symmetry_multiplicity
 _atom_site_fract_x
 _atom_site_fract_y
 _atom_site_fract_z
 _atom_site_occupancy
  Fe  Fe0  1  0.82914900  0.50480100  0.78966800  1
  Fe  Fe1  1  0.33333000  0.50143300  0.66823200  1
  Fe  Fe2  1  0.49976600  0.16310400  0.45622200  1
  Fe  Fe3  1  0.33237100  0.00120600  0.66689500  1
  Fe  Fe4  1  0.49856700  0.66667000  0.33176800  1
  Fe  Fe5  1  0.17029600  0.83173800  0.12287800  1
  Fe  Fe6  1  0.99879400  0.66762900  0.33310500  1
  Fe  Fe7  1  0.83689600  0.50023400  0.54377800  1
  Fe  Fe8  1  0.66813800  0.83351600  0.99941600  1
  Fe  Fe9  1  0.49519900  0.17085100  0.21033200  1
  Fe  Fe10  1  0.16648400  0.33186200  0.00058400  1
  Fe  Fe11  1  0.16826200  0.82970400  0.87712200  1
  Co  Co12  1  0.50275600  0.16717900  0.83483700  1
  Co  Co13  1  0.16420900  0.83579100  0.50000000  1
  Co  Co14  1  0.99833600  0.16792200  0.33310000  1
  Co  Co15  1  0.83207800  0.00166400  0.66690000  1
  Co  Co16  1  0.83282100  0.49724400  0.16516300  1
  Co  Co17  1  0.66792100  0.33207900  0.00000000  1
  O  O18  1  0.65744100  0.33166400  0.74700600  1
  O  O19  1  0.64457500  0.85302100  0.74489900  1
  O  O20  1  0.48826200  0.16947800  0.59043600  1
  O  O21  1  0.18405300  0.31918100  0.74386800  1
  O  O22  1  0.48084100  0.68246700  0.59027800  1
  O  O23  1  0.32952000  0.98749500  0.41358000  1
  O  O24  1  0.17997100  0.82928600  0.74439800  1
  O  O25  1  0.01995600  0.15093300  0.58877800  1
  O  O26  1  0.31753300  0.51915900  0.40972200  1
  O  O27  1  0.17071400  0.82002900  0.25560200  1
  O  O28  1  0.01250500  0.67048000  0.58642000  1
  O  O29  1  0.84906700  0.98004400  0.41122200  1
  O  O30  1  0.14697900  0.35542500  0.25510100  1
  O  O31  1  0.99497800  0.65991200  0.07727900  1
  O  O32  1  0.68081900  0.81594700  0.25613200  1
  O  O33  1  0.83052200  0.51173800  0.40956400  1
  O  O34  1  0.00228200  0.17739900  0.08015500  1
  O  O35  1  0.83312000  0.49859700  0.92404400  1
  O  O36  1  0.66833600  0.34255900  0.25299400  1
  O  O37  1  0.51592700  0.66687200  0.07960800  1
  O  O38  1  0.82260100  0.99771800  0.91984500  1
  O  O39  1  0.50140300  0.16688000  0.07595600  1
  O  O40  1  0.33312800  0.48407300  0.92039200  1
  O  O41  1  0.34008800  0.00502200  0.92272100  1
