# generated using pymatgen
data_Na6Al4Fe(Si4O13)2
_symmetry_space_group_name_H-M   'P 1'
_cell_length_a   8.59724582
_cell_length_b   8.59724582
_cell_length_c   10.63388653
_cell_angle_alpha   69.21827919
_cell_angle_beta   69.21827919
_cell_angle_gamma   56.08223645
_symmetry_Int_Tables_number   1
_chemical_formula_structural   Na6Al4Fe(Si4O13)2
_chemical_formula_sum   'Na6 Al4 Fe1 Si8 O26'
_cell_volume   597.21332066
_cell_formula_units_Z   1
loop_
 _symmetry_equiv_pos_site_id
 _symmetry_equiv_pos_as_xyz
  1  'x, y, z'
loop_
 _atom_site_type_symbol
 _atom_site_label
 _atom_site_symmetry_multiplicity
 _atom_site_fract_x
 _atom_site_fract_y
 _atom_site_fract_z
 _atom_site_occupancy
  Na  Na0  1  0.15532500  0.16011300  0.10991600  1
  Na  Na1  1  0.27726400  0.26304500  0.44261600  1
  Na  Na2  1  0.47795400  0.45501900  0.83379000  1
  Na  Na3  1  0.54498100  0.52204600  0.16621000  1
  Na  Na4  1  0.73695500  0.72273600  0.55738400  1
  Na  Na5  1  0.83988700  0.84467500  0.89008400  1
  Al  Al6  1  0.15946800  0.55152300  0.65203900  1
  Al  Al7  1  0.44847700  0.84053200  0.34796100  1
  Al  Al8  1  0.74889000  0.13250500  0.34396300  1
  Al  Al9  1  0.86749500  0.25111000  0.65603700  1
  Fe  Fe10  1  0.98855400  0.01144600  0.00000000  1
  Si  Si11  1  0.13838300  0.74155100  0.34280700  1
  Si  Si12  1  0.15083000  0.54844900  0.13211900  1
  Si  Si13  1  0.25844900  0.86161700  0.65719300  1
  Si  Si14  1  0.53441700  0.16263100  0.13123700  1
  Si  Si15  1  0.55298600  0.15295000  0.65131400  1
  Si  Si16  1  0.45155100  0.84917000  0.86788100  1
  Si  Si17  1  0.83736900  0.46558300  0.86876300  1
  Si  Si18  1  0.84705000  0.44701400  0.34868600  1
  O  O19  1  0.06549900  0.73217900  0.01611900  1
  O  O20  1  0.06170400  0.66129600  0.50206100  1
  O  O21  1  0.01831200  0.44364200  0.20965900  1
  O  O22  1  0.26266700  0.66310200  0.67684900  1
  O  O23  1  0.19835600  0.58265100  0.25532300  1
  O  O24  1  0.04869000  0.02490700  0.71760600  1
  O  O25  1  0.33294800  0.31336600  0.63584700  1
  O  O26  1  0.35973400  0.37745400  0.06558800  1
  O  O27  1  0.26782100  0.93450100  0.98388100  1
  O  O28  1  0.33870400  0.93829600  0.49793900  1
  O  O29  1  0.57618500  0.20477000  0.25226200  1
  O  O30  1  0.43307200  0.02915500  0.20482100  1
  O  O31  1  0.66128000  0.24127000  0.67702400  1
  O  O32  1  0.33689800  0.73733300  0.32315100  1
  O  O33  1  0.55635800  0.98168800  0.79034100  1
  O  O34  1  0.41734900  0.80164400  0.74467700  1
  O  O35  1  0.66208100  0.05285700  0.51719000  1
  O  O36  1  0.71025100  0.09272100  0.00497800  1
  O  O37  1  0.62254600  0.64026600  0.93441200  1
  O  O38  1  0.68663400  0.66705200  0.36415300  1
  O  O39  1  0.97509300  0.95131000  0.28239400  1
  O  O40  1  0.79523000  0.42381500  0.74773800  1
  O  O41  1  0.75873000  0.33872000  0.32297600  1
  O  O42  1  0.97084500  0.56692800  0.79517900  1
  O  O43  1  0.94714300  0.33791900  0.48281000  1
  O  O44  1  0.90727900  0.28974900  0.99502200  1
