# generated using pymatgen
data_Al2Se3
_symmetry_space_group_name_H-M   'P 1'
_cell_length_a   16.81001256
_cell_length_b   16.81001256
_cell_length_c   16.81001256
_cell_angle_alpha   154.13841439
_cell_angle_beta   154.13841439
_cell_angle_gamma   36.89845319
_symmetry_Int_Tables_number   1
_chemical_formula_structural   Al2Se3
_chemical_formula_sum   'Al16 Se24'
_cell_volume   902.54392466
_cell_formula_units_Z   8
loop_
 _symmetry_equiv_pos_site_id
 _symmetry_equiv_pos_as_xyz
  1  'x, y, z'
loop_
 _atom_site_type_symbol
 _atom_site_label
 _atom_site_symmetry_multiplicity
 _atom_site_fract_x
 _atom_site_fract_y
 _atom_site_fract_z
 _atom_site_occupancy
  Al  Al0  1  0.67123600  0.67123600  0.00000000  1
  Al  Al1  1  0.32876400  0.32876400  0.00000000  1
  Al  Al2  1  0.42123600  0.92123600  0.50000000  1
  Al  Al3  1  0.02088500  0.79369100  0.22719500  1
  Al  Al4  1  0.54369100  0.27088500  0.72719500  1
  Al  Al5  1  0.07876400  0.57876400  0.50000000  1
  Al  Al6  1  0.72911500  0.45630900  0.27280500  1
  Al  Al7  1  0.20630900  0.97911500  0.77280500  1
  Al  Al8  1  0.54369100  0.81649600  0.27280500  1
  Al  Al9  1  0.87500000  0.12500000  0.75000000  1
  Al  Al10  1  0.37500000  0.12500000  0.25000000  1
  Al  Al11  1  0.20630900  0.43350400  0.22719500  1
  Al  Al12  1  0.87500000  0.62500000  0.75000000  1
  Al  Al13  1  0.56649600  0.79369100  0.77280500  1
  Al  Al14  1  0.87500000  0.12500000  0.25000000  1
  Al  Al15  1  0.18350400  0.45630900  0.72719500  1
  Se  Se16  1  0.11578900  0.87507600  0.24071300  1
  Se  Se17  1  0.46289500  0.23204800  0.76915300  1
  Se  Se18  1  0.76795200  0.53710500  0.23084700  1
  Se  Se19  1  0.11563700  0.37492400  0.74071300  1
  Se  Se20  1  0.46289500  0.69374200  0.23084700  1
  Se  Se21  1  0.62507600  0.88436300  0.25928700  1
  Se  Se22  1  0.12492400  0.88421100  0.75928700  1
  Se  Se23  1  0.44812900  0.20440600  0.24372300  1
  Se  Se24  1  0.78931700  0.04559400  0.74372300  1
  Se  Se25  1  0.96068300  0.20440600  0.75627700  1
  Se  Se26  1  0.62507600  0.36578900  0.74071300  1
  Se  Se27  1  0.12492400  0.36563700  0.24071300  1
  Se  Se28  1  0.28710500  0.55625800  0.26915300  1
  Se  Se29  1  0.79559400  0.55187100  0.75627700  1
  Se  Se30  1  0.44374200  0.71289500  0.73084700  1
  Se  Se31  1  0.63436300  0.87507600  0.75928700  1
  Se  Se32  1  0.98204800  0.71289500  0.26915300  1
  Se  Se33  1  0.28710500  0.01795200  0.73084700  1
  Se  Se34  1  0.79559400  0.03931700  0.24372300  1
  Se  Se35  1  0.95440600  0.21068300  0.25627700  1
  Se  Se36  1  0.30625800  0.53710500  0.76915300  1
  Se  Se37  1  0.63421100  0.37492400  0.25928700  1
  Se  Se38  1  0.95440600  0.69812900  0.74372300  1
  Se  Se39  1  0.30187100  0.04559400  0.25627700  1
