# generated using pymatgen
data_Sc2Se3
_symmetry_space_group_name_H-M   'P 1'
_cell_length_a   6.69216731
_cell_length_b   6.69216731
_cell_length_c   6.65871513
_cell_angle_alpha   80.07740351
_cell_angle_beta   80.07740351
_cell_angle_gamma   119.21120879
_symmetry_Int_Tables_number   1
_chemical_formula_structural   Sc2Se3
_chemical_formula_sum   'Sc4 Se6'
_cell_volume   244.72536066
_cell_formula_units_Z   2
loop_
 _symmetry_equiv_pos_site_id
 _symmetry_equiv_pos_as_xyz
  1  'x, y, z'
loop_
 _atom_site_type_symbol
 _atom_site_label
 _atom_site_symmetry_multiplicity
 _atom_site_fract_x
 _atom_site_fract_y
 _atom_site_fract_z
 _atom_site_occupancy
  Sc  Sc0  1  0.91187300  0.08812700  0.75000000  1
  Sc  Sc1  1  0.08812700  0.91187300  0.25000000  1
  Sc  Sc2  1  0.74702000  0.25298000  0.25000000  1
  Sc  Sc3  1  0.25298000  0.74702000  0.75000000  1
  Se  Se4  1  0.67282400  0.84744400  0.50223500  1
  Se  Se5  1  0.32717600  0.15255600  0.49776500  1
  Se  Se6  1  0.00000000  0.50000000  0.50000000  1
  Se  Se7  1  0.15255600  0.32717600  0.99776500  1
  Se  Se8  1  0.84744400  0.67282400  0.00223500  1
  Se  Se9  1  0.50000000  0.00000000  0.00000000  1
