# generated using pymatgen
data_Y(PO3)3
_symmetry_space_group_name_H-M   'P 1'
_cell_length_a   6.85808300
_cell_length_b   7.73193961
_cell_length_c   8.27153906
_cell_angle_alpha   72.90429093
_cell_angle_beta   72.44157976
_cell_angle_gamma   71.85166086
_symmetry_Int_Tables_number   1
_chemical_formula_structural   Y(PO3)3
_chemical_formula_sum   'Y2 P6 O18'
_cell_volume   387.56761964
_cell_formula_units_Z   2
loop_
 _symmetry_equiv_pos_site_id
 _symmetry_equiv_pos_as_xyz
  1  'x, y, z'
loop_
 _atom_site_type_symbol
 _atom_site_label
 _atom_site_symmetry_multiplicity
 _atom_site_fract_x
 _atom_site_fract_y
 _atom_site_fract_z
 _atom_site_occupancy
  Y  Y0  1  0.13844700  0.95161800  0.23556600  1
  Y  Y1  1  0.48217000  0.34438600  0.92651500  1
  P  P2  1  0.93150200  0.66337600  0.06353600  1
  P  P3  1  0.55518000  0.09101900  0.34741300  1
  P  P4  1  0.20003800  0.17983500  0.59922200  1
  P  P5  1  0.49460100  0.83400300  0.69145700  1
  P  P6  1  0.67369600  0.87335600  0.94986100  1
  P  P7  1  0.00832800  0.36903400  0.89712400  1
  O  O8  1  0.15144200  0.21405800  0.99967800  1
  O  O9  1  0.42916300  0.11482400  0.21789800  1
  O  O10  1  0.77557800  0.39838400  0.94209900  1
  O  O11  1  0.77702600  0.10560800  0.28808100  1
  O  O12  1  0.46528100  0.83849700  0.06363900  1
  O  O13  1  0.40887100  0.23479100  0.47080100  1
  O  O14  1  0.07007400  0.13028400  0.51524600  1
  O  O15  1  0.84086000  0.52767800  0.21141600  1
  O  O16  1  0.09827900  0.34569200  0.69537400  1
  O  O17  1  0.55079400  0.88712400  0.48512100  1
  O  O18  1  0.08217800  0.74126400  0.46541700  1
  O  O19  1  0.07194600  0.55435700  0.89395100  1
  O  O20  1  0.44689600  0.64917800  0.76365400  1
  O  O21  1  0.56910600  0.27228800  0.69287700  1
  O  O22  1  0.29531600  0.00212100  0.74139800  1
  O  O23  1  0.07454200  0.76821300  0.08091900  1
  O  O24  1  0.68381500  0.85081900  0.75188100  1
  O  O25  1  0.72487300  0.05819300  0.91985700  1
