# generated using pymatgen
data_Al2Hg5Se8
_symmetry_space_group_name_H-M   'P 1'
_cell_length_a   8.62081149
_cell_length_b   8.40451700
_cell_length_c   34.13754332
_cell_angle_alpha   60.25969830
_cell_angle_beta   58.42902351
_cell_angle_gamma   59.44583823
_symmetry_Int_Tables_number   1
_chemical_formula_structural   Al2Hg5Se8
_chemical_formula_sum   'Al8 Hg20 Se32'
_cell_volume   1723.30287898
_cell_formula_units_Z   4
loop_
 _symmetry_equiv_pos_site_id
 _symmetry_equiv_pos_as_xyz
  1  'x, y, z'
loop_
 _atom_site_type_symbol
 _atom_site_label
 _atom_site_symmetry_multiplicity
 _atom_site_fract_x
 _atom_site_fract_y
 _atom_site_fract_z
 _atom_site_occupancy
  Al  Al0  1  0.11776922  0.63122322  0.15952629  1
  Al  Al1  1  0.63567312  0.12856150  0.02619580  1
  Al  Al2  1  0.12466081  0.63147926  0.40576145  1
  Al  Al3  1  0.62920153  0.12072943  0.28033050  1
  Al  Al4  1  0.11062035  0.12628556  0.65553164  1
  Al  Al5  1  0.60978612  0.12185119  0.53328574  1
  Al  Al6  1  0.12172258  0.13211572  0.90139326  1
  Al  Al7  1  0.61571934  0.13050374  0.77892617  1
  Hg  Hg8  1  0.10703014  0.10979853  0.15977439  1
  Hg  Hg9  1  0.10265699  0.64109700  0.02745393  1
  Hg  Hg10  1  0.64711640  0.10550630  0.16066870  1
  Hg  Hg11  1  0.09738143  0.10383981  0.41447119  1
  Hg  Hg12  1  0.10335688  0.64423157  0.27638844  1
  Hg  Hg13  1  0.65070000  0.64357942  0.02892884  1
  Hg  Hg14  1  0.62608264  0.62485425  0.15610665  1
  Hg  Hg15  1  0.64747522  0.10450920  0.41092060  1
  Hg  Hg16  1  0.10243625  0.63213298  0.52608426  1
  Hg  Hg17  1  0.64730069  0.64432389  0.27613458  1
  Hg  Hg18  1  0.10665638  0.64711331  0.66491070  1
  Hg  Hg19  1  0.62554005  0.62283999  0.40670969  1
  Hg  Hg20  1  0.64988089  0.12490612  0.66213219  1
  Hg  Hg21  1  0.10449132  0.62844941  0.77622181  1
  Hg  Hg22  1  0.66473908  0.64507324  0.52309295  1
  Hg  Hg23  1  0.09913920  0.64387447  0.91949916  1
  Hg  Hg24  1  0.62686770  0.60176251  0.65665195  1
  Hg  Hg25  1  0.65107467  0.12495606  0.91234562  1
  Hg  Hg26  1  0.66687450  0.64476864  0.77598767  1
  Hg  Hg27  1  0.62726095  0.60167328  0.90678763  1
  Se  Se28  1  0.99290993  0.03479003  0.99115777  1
  Se  Se29  1  0.01507685  0.43033852  0.00991188  1
  Se  Se30  1  0.03019452  0.97764883  0.11777906  1
  Se  Se31  1  0.97555681  0.02875674  0.25546914  1
  Se  Se32  1  0.01725887  0.51088110  0.12646654  1
  Se  Se33  1  0.47289968  0.02397948  0.00757346  1
  Se  Se34  1  0.51765605  0.01819753  0.11564369  1
  Se  Se35  1  0.50449417  0.48486091  0.00417458  1
  Se  Se36  1  0.02987157  0.98069163  0.36798649  1
  Se  Se37  1  0.02578228  0.46743031  0.24556794  1
  Se  Se38  1  0.47158191  0.50473898  0.12842076  1
  Se  Se39  1  0.95730595  0.01624635  0.51099778  1
  Se  Se40  1  0.01731836  0.50435697  0.37582622  1
  Se  Se41  1  0.47478370  0.02702367  0.25661194  1
  Se  Se42  1  0.50180205  0.01655567  0.37004382  1
  Se  Se43  1  0.50325947  0.48041087  0.25385145  1
  Se  Se44  1  0.03734928  0.45986446  0.49109660  1
  Se  Se45  1  0.03043548  0.01954409  0.61622931  1
  Se  Se46  1  0.48039998  0.50506493  0.37544557  1
  Se  Se47  1  0.97569472  0.02509092  0.74592792  1
  Se  Se48  1  0.01493531  0.47944463  0.62588262  1
  Se  Se49  1  0.46953574  0.02325495  0.50681834  1
  Se  Se50  1  0.50001850  0.48033769  0.50448620  1
  Se  Se51  1  0.47339534  0.01562555  0.62493058  1
  Se  Se52  1  0.02649360  0.42374416  0.75414491  1
  Se  Se53  1  0.03205549  0.01450174  0.86647297  1
  Se  Se54  1  0.49889796  0.50120481  0.62020704  1
  Se  Se55  1  0.01583050  0.48692440  0.87569822  1
  Se  Se56  1  0.46884027  0.02022303  0.75716129  1
  Se  Se57  1  0.48728747  0.01854827  0.87052253  1
  Se  Se58  1  0.50184327  0.48541448  0.75419789  1
  Se  Se59  1  0.48870042  0.50094471  0.87324870  1
