# generated using pymatgen
data_Mn2InC10BrO10
_symmetry_space_group_name_H-M   'P 1'
_cell_length_a   8.91181900
_cell_length_b   9.92806775
_cell_length_c   10.51104514
_cell_angle_alpha   116.62544947
_cell_angle_beta   92.16437912
_cell_angle_gamma   93.42062955
_symmetry_Int_Tables_number   1
_chemical_formula_structural   Mn2InC10BrO10
_chemical_formula_sum   'Mn4 In2 C20 Br2 O20'
_cell_volume   827.71475291
_cell_formula_units_Z   2
loop_
 _symmetry_equiv_pos_site_id
 _symmetry_equiv_pos_as_xyz
  1  'x, y, z'
loop_
 _atom_site_type_symbol
 _atom_site_label
 _atom_site_symmetry_multiplicity
 _atom_site_fract_x
 _atom_site_fract_y
 _atom_site_fract_z
 _atom_site_occupancy
  Mn  Mn0  1  0.75886900  0.75884400  0.59368400  1
  Mn  Mn1  1  0.24700300  0.71818800  0.07008800  1
  Mn  Mn2  1  0.24113100  0.24115600  0.40631600  1
  Mn  Mn3  1  0.75299700  0.28181200  0.92991200  1
  In  In4  1  0.84361800  0.99989800  0.84686600  1
  In  In5  1  0.15638200  0.00010200  0.15313400  1
  C  C6  1  0.30717000  0.39744900  0.57686600  1
  C  C7  1  0.60617400  0.21388400  0.01320000  1
  C  C8  1  0.03873000  0.28077400  0.42586800  1
  C  C9  1  0.73235400  0.64456000  0.69221800  1
  C  C10  1  0.39382600  0.78611600  0.98680000  1
  C  C11  1  0.96127000  0.71922600  0.57413200  1
  C  C12  1  0.91124100  0.29492800  0.82585200  1
  C  C13  1  0.70059100  0.47550800  0.00059000  1
  C  C14  1  0.08875900  0.70507200  0.17414800  1
  C  C15  1  0.20593800  0.10234000  0.47784600  1
  C  C16  1  0.37534000  0.78492400  0.23403900  1
  C  C17  1  0.56562200  0.82045000  0.63521800  1
  C  C18  1  0.26764600  0.35544000  0.30778200  1
  C  C19  1  0.11663300  0.67208200  0.91274200  1
  C  C20  1  0.79406200  0.89766000  0.52215400  1
  C  C21  1  0.69283000  0.60255100  0.42313400  1
  C  C22  1  0.43437800  0.17955000  0.36478200  1
  C  C23  1  0.62466000  0.21507600  0.76596100  1
  C  C24  1  0.88336700  0.32791800  0.08725800  1
  C  C25  1  0.29940900  0.52449200  0.99941000  1
  Br  Br26  1  0.15467300  0.04600300  0.91061400  1
  Br  Br27  1  0.84532700  0.95399700  0.08938600  1
  O  O28  1  0.18521000  0.01664300  0.52386700  1
  O  O29  1  0.54344900  0.17697700  0.66474800  1
  O  O30  1  0.51368700  0.17445700  0.06714800  1
  O  O31  1  0.99162500  0.69740600  0.24225100  1
  O  O32  1  0.91481200  0.30927100  0.44544500  1
  O  O33  1  0.64599800  0.50114400  0.31626100  1
  O  O34  1  0.28821600  0.43370900  0.25376000  1
  O  O35  1  0.45655100  0.82302300  0.33525200  1
  O  O36  1  0.55559000  0.14281800  0.34262000  1
  O  O37  1  0.33407900  0.40133100  0.95036300  1
  O  O38  1  0.00837500  0.30259400  0.75774900  1
  O  O39  1  0.08518800  0.69072900  0.55455500  1
  O  O40  1  0.35400200  0.49885600  0.68373900  1
  O  O41  1  0.44441000  0.85718200  0.65738000  1
  O  O42  1  0.71178400  0.56629100  0.74624000  1
  O  O43  1  0.96241600  0.36278700  0.18924400  1
  O  O44  1  0.81479000  0.98335700  0.47613300  1
  O  O45  1  0.03758400  0.63721300  0.81075600  1
  O  O46  1  0.66592100  0.59866900  0.04963700  1
  O  O47  1  0.48631300  0.82554300  0.93285200  1
