# generated using pymatgen
data_Na17Zr7Sc5Si6(PO6)12
_symmetry_space_group_name_H-M   'P 1'
_cell_length_a   9.16817500
_cell_length_b   9.16919004
_cell_length_c   22.46082599
_cell_angle_alpha   90.28058994
_cell_angle_beta   90.25526635
_cell_angle_gamma   119.65825830
_symmetry_Int_Tables_number   1
_chemical_formula_structural   Na17Zr7Sc5Si6(PO6)12
_chemical_formula_sum   'Na17 Zr7 Sc5 Si6 P12 O72'
_cell_volume   1640.72832840
_cell_formula_units_Z   1
loop_
 _symmetry_equiv_pos_site_id
 _symmetry_equiv_pos_as_xyz
  1  'x, y, z'
loop_
 _atom_site_type_symbol
 _atom_site_label
 _atom_site_symmetry_multiplicity
 _atom_site_fract_x
 _atom_site_fract_y
 _atom_site_fract_z
 _atom_site_occupancy
  Na  Na0  1  0.32517900  0.69057800  0.32140200  1
  Na  Na1  1  0.82740800  0.21957900  0.02941100  1
  Na  Na2  1  0.88695200  0.76610700  0.12630400  1
  Na  Na3  1  0.67588300  0.30541400  0.17356900  1
  Na  Na4  1  0.66008300  0.34291500  0.66333600  1
  Na  Na5  1  0.56164000  0.47150400  0.29481600  1
  Na  Na6  1  0.30630000  0.27719200  0.08050500  1
  Na  Na7  1  0.22028200  0.43298600  0.46338600  1
  Na  Na8  1  0.00488400  0.98560900  0.50264100  1
  Na  Na9  1  0.78974000  0.57944700  0.54036600  1
  Na  Na10  1  0.88425600  0.12972200  0.62610600  1
  Na  Na11  1  0.65766100  0.95496800  0.41929800  1
  Na  Na12  1  0.54101600  0.09089900  0.79803300  1
  Na  Na13  1  0.33795400  0.64725300  0.83673100  1
  Na  Na14  1  0.09524400  0.22525400  0.88216600  1
  Na  Na15  1  0.18933400  0.79713800  0.96113700  1
  Na  Na16  1  0.99634500  0.62748300  0.75079900  1
  Zr  Zr17  1  0.62178800  0.81222700  0.04703900  1
  Zr  Zr18  1  0.05977600  0.52842400  0.12180500  1
  Zr  Zr19  1  0.95135300  0.48126400  0.37934400  1
  Zr  Zr20  1  0.38151500  0.18421600  0.45390900  1
  Zr  Zr21  1  0.26907000  0.12932000  0.21709500  1
  Zr  Zr22  1  0.28390700  0.14643300  0.71139900  1
  Zr  Zr23  1  0.71532600  0.85005400  0.78516600  1
  Sc  Sc24  1  0.72824100  0.87002900  0.28191500  1
  Sc  Sc25  1  0.59551700  0.79386300  0.55115200  1
  Sc  Sc26  1  0.07152300  0.53832100  0.61518700  1
  Sc  Sc27  1  0.92882200  0.46416400  0.88260700  1
  Sc  Sc28  1  0.39595500  0.20025300  0.94654800  1
  Si  Si29  1  0.90703000  0.10336700  0.15375600  1
  Si  Si30  1  0.98454600  0.70083800  0.25094500  1
  Si  Si31  1  0.23393500  0.76340300  0.48599800  1
  Si  Si32  1  0.33503900  0.37498400  0.58308700  1
  Si  Si33  1  0.56620200  0.42986400  0.81887800  1
  Si  Si34  1  0.66300400  0.04122000  0.91559000  1
  P  P35  1  0.76410600  0.52408300  0.01380600  1
  P  P36  1  0.56901900  0.13757800  0.31967100  1
  P  P37  1  0.34030900  0.96383800  0.08459600  1
  P  P38  1  0.44238400  0.57241300  0.18238900  1
  P  P39  1  0.09208100  0.19228100  0.34865100  1
  P  P40  1  0.90245000  0.80405400  0.65095700  1
  P  P41  1  0.65935000  0.62558100  0.41800200  1
  P  P42  1  0.77248800  0.23725200  0.51403100  1
  P  P43  1  0.43216800  0.86373000  0.68102600  1
  P  P44  1  0.23387000  0.47486800  0.98591400  1
  P  P45  1  0.99239300  0.29076700  0.75059200  1
  P  P46  1  0.10712100  0.90313700  0.84472900  1
  O  O47  1  0.26341500  0.53784900  0.16368600  1
  O  O48  1  0.10868900  0.44642000  0.03740300  1
  O  O49  1  0.82991000  0.98369200  0.09423400  1
  O  O50  1  0.18381500  0.78967900  0.09801500  1
  O  O51  1  0.80165400  0.01424900  0.21265600  1
  O  O52  1  0.90477500  0.27780500  0.13937100  1
  O  O53  1  0.04311700  0.62175500  0.30469600  1
  O  O54  1  0.94798900  0.58618000  0.18978900  1
  O  O55  1  0.84044500  0.49487600  0.07217700  1
  O  O56  1  0.74777000  0.28497600  0.33178000  1
  O  O57  1  0.56571000  0.96806000  0.31620000  1
  O  O58  1  0.49391800  0.94038400  0.07524200  1
  O  O59  1  0.81581600  0.70951300  0.26464900  1
  O  O60  1  0.59618300  0.21135300  0.49684400  1
  O  O61  1  0.75122500  0.68360300  0.02598300  1
  O  O62  1  0.59158400  0.36768100  0.00387200  1
  O  O63  1  0.50636800  0.18199500  0.26131200  1
  O  O64  1  0.45652400  0.12993800  0.37191000  1
  O  O65  1  0.38238900  0.08893800  0.13807900  1
  O  O66  1  0.16420200  0.64715000  0.42456300  1
  O  O67  1  0.50202800  0.45550400  0.43257900  1
  O  O68  1  0.29903900  0.03666700  0.02951800  1
  O  O69  1  0.10609300  0.66616600  0.54062500  1
  O  O70  1  0.23588300  0.94102500  0.47510200  1
  O  O71  1  0.43743100  0.40045200  0.19115000  1
  O  O72  1  0.56260500  0.66427600  0.13077400  1
  O  O73  1  0.37975700  0.28723600  0.63815500  1
  O  O74  1  0.14091600  0.88945800  0.23636500  1
  O  O75  1  0.49105200  0.66881900  0.24223200  1
  O  O76  1  0.28223600  0.25056000  0.52376500  1
  O  O77  1  0.20787400  0.21325700  0.29493900  1
  O  O78  1  0.16817100  0.16755600  0.40712100  1
  O  O79  1  0.08178600  0.94809800  0.66463300  1
  O  O80  1  0.89608000  0.63169700  0.64642400  1
  O  O81  1  0.10127000  0.13841300  0.16008100  1
  O  O82  1  0.80276600  0.58665000  0.40277200  1
  O  O83  1  0.16950200  0.39360800  0.59595900  1
  O  O84  1  0.93216900  0.88008700  0.82722600  1
  O  O85  1  0.09515900  0.36250600  0.35637700  1
  O  O86  1  0.91413400  0.04360000  0.34062500  1
  O  O87  1  0.84348600  0.84668700  0.59185200  1
  O  O88  1  0.79001600  0.79545800  0.70338900  1
  O  O89  1  0.72172900  0.74936700  0.47197600  1
  O  O90  1  0.49530500  0.31136600  0.75824600  1
  O  O91  1  0.83282700  0.12175000  0.76401800  1
  O  O92  1  0.61568200  0.70427200  0.36486500  1
  O  O93  1  0.44167700  0.33825900  0.87444900  1
  O  O94  1  0.57029900  0.60815500  0.80709700  1
  O  O95  1  0.76881100  0.06739300  0.52201400  1
  O  O96  1  0.89196800  0.33180900  0.46184100  1
  O  O97  1  0.69638800  0.95991300  0.97541400  1
  O  O98  1  0.50306200  0.55306300  0.56872900  1
  O  O99  1  0.82566800  0.33931500  0.57340600  1
  O  O100  1  0.62567000  0.91879000  0.85737100  1
  O  O101  1  0.55102100  0.88473400  0.62937400  1
  O  O102  1  0.49850400  0.83313700  0.74115000  1
  O  O103  1  0.40376800  0.62650200  0.00484300  1
  O  O104  1  0.24429100  0.31280600  0.97963800  1
  O  O105  1  0.42222300  0.78949600  0.49627200  1
  O  O106  1  0.13507600  0.25175800  0.73515900  1
  O  O107  1  0.49686100  0.06060100  0.92242100  1
  O  O108  1  0.43526300  0.03409700  0.68952900  1
  O  O109  1  0.25197100  0.71771500  0.67118100  1
  O  O110  1  0.17498700  0.51791800  0.92706700  1
  O  O111  1  0.05170000  0.41176400  0.80543100  1
  O  O112  1  0.95218900  0.37267500  0.69713900  1
  O  O113  1  0.09804900  0.73085400  0.85433000  1
  O  O114  1  0.22571900  0.98889400  0.79152600  1
  O  O115  1  0.83419400  0.22417400  0.90810500  1
  O  O116  1  0.16463700  0.00899000  0.90255200  1
  O  O117  1  0.88511400  0.55715300  0.96163500  1
  O  O118  1  0.75508800  0.45560400  0.82843900  1
