# generated using pymatgen
data_Fe5SnO8
_symmetry_space_group_name_H-M   'P 1'
_cell_length_a   6.22444855
_cell_length_b   6.22444855
_cell_length_c   6.22444849
_cell_angle_alpha   58.82611268
_cell_angle_beta   58.82611268
_cell_angle_gamma   58.82611665
_symmetry_Int_Tables_number   1
_chemical_formula_structural   Fe5SnO8
_chemical_formula_sum   'Fe5 Sn1 O8'
_cell_volume   165.95410545
_cell_formula_units_Z   1
loop_
 _symmetry_equiv_pos_site_id
 _symmetry_equiv_pos_as_xyz
  1  'x, y, z'
loop_
 _atom_site_type_symbol
 _atom_site_label
 _atom_site_symmetry_multiplicity
 _atom_site_fract_x
 _atom_site_fract_y
 _atom_site_fract_z
 _atom_site_occupancy
  Fe  Fe0  1  0.87055700  0.87055700  0.87055700  1
  Fe  Fe1  1  0.12944300  0.12944300  0.12944300  1
  Fe  Fe2  1  0.00000000  0.50000000  0.50000000  1
  Fe  Fe3  1  0.50000000  0.00000000  0.50000000  1
  Fe  Fe4  1  0.50000000  0.50000000  0.00000000  1
  Sn  Sn5  1  0.50000000  0.50000000  0.50000000  1
  O  O6  1  0.25870300  0.25870300  0.73908000  1
  O  O7  1  0.25870300  0.73908000  0.25870300  1
  O  O8  1  0.73908000  0.25870300  0.25870300  1
  O  O9  1  0.25342800  0.25342800  0.25342800  1
  O  O10  1  0.74657200  0.74657200  0.74657200  1
  O  O11  1  0.26092000  0.74129700  0.74129700  1
  O  O12  1  0.74129700  0.26092000  0.74129700  1
  O  O13  1  0.74129700  0.74129700  0.26092000  1
