# generated using pymatgen
data_KMg3AlSi3(O5F)2
_symmetry_space_group_name_H-M   'P 1'
_cell_length_a   12.40806000
_cell_length_b   5.94789800
_cell_length_c   7.09311259
_cell_angle_alpha   87.24376709
_cell_angle_beta   90.00000000
_cell_angle_gamma   90.00000000
_symmetry_Int_Tables_number   1
_chemical_formula_structural   KMg3AlSi3(O5F)2
_chemical_formula_sum   'K2 Mg6 Al2 Si6 O20 F4'
_cell_volume   522.87942263
_cell_formula_units_Z   2
loop_
 _symmetry_equiv_pos_site_id
 _symmetry_equiv_pos_as_xyz
  1  'x, y, z'
loop_
 _atom_site_type_symbol
 _atom_site_label
 _atom_site_symmetry_multiplicity
 _atom_site_fract_x
 _atom_site_fract_y
 _atom_site_fract_z
 _atom_site_occupancy
  K  K0  1  0.49902700  0.27323300  0.05668600  1
  K  K1  1  0.99902700  0.72676700  0.94331400  1
  Mg  Mg2  1  0.53964800  0.63834700  0.53870400  1
  Mg  Mg3  1  0.61068800  0.10294800  0.61292900  1
  Mg  Mg4  1  0.83108400  0.95803100  0.60347800  1
  Mg  Mg5  1  0.03964800  0.36165300  0.46129600  1
  Mg  Mg6  1  0.11068800  0.89705200  0.38707100  1
  Mg  Mg7  1  0.33108400  0.04196900  0.39652200  1
  Al  Al8  1  0.76658600  0.02841100  0.20815100  1
  Al  Al9  1  0.26658600  0.97158900  0.79184900  1
  Si  Si10  1  0.76850200  0.53459400  0.23490900  1
  Si  Si11  1  0.66587100  0.76346700  0.91784800  1
  Si  Si12  1  0.80139600  0.46562100  0.64776100  1
  Si  Si13  1  0.16587100  0.23653300  0.08215200  1
  Si  Si14  1  0.30139600  0.53437900  0.35223900  1
  Si  Si15  1  0.26850200  0.46540600  0.76509100  1
  O  O16  1  0.42559500  0.48467100  0.40222800  1
  O  O17  1  0.82919800  0.29950600  0.19663500  1
  O  O18  1  0.66063000  0.55981200  0.08865100  1
  O  O19  1  0.83958800  0.76455000  0.19755500  1
  O  O20  1  0.77290700  0.21954000  0.73095400  1
  O  O21  1  0.70938500  0.99108100  0.42878800  1
  O  O22  1  0.67502800  0.99645800  0.02394600  1
  O  O23  1  0.77556600  0.69182300  0.78505700  1
  O  O24  1  0.71890900  0.52025500  0.45622700  1
  O  O25  1  0.07349300  0.18843400  0.23786300  1
  O  O26  1  0.92559500  0.51532900  0.59777200  1
  O  O27  1  0.27290700  0.78046000  0.26904600  1
  O  O28  1  0.17502800  0.00354200  0.97605400  1
  O  O29  1  0.27556600  0.30817700  0.21494300  1
  O  O30  1  0.32919800  0.70049400  0.80336500  1
  O  O31  1  0.21890900  0.47974500  0.54377300  1
  O  O32  1  0.16063000  0.44018800  0.91134900  1
  O  O33  1  0.33958800  0.23545000  0.80244500  1
  O  O34  1  0.20938500  0.00891900  0.57121200  1
  O  O35  1  0.57349300  0.81156600  0.76213700  1
  F  F36  1  0.55601300  0.36913500  0.70498400  1
  F  F37  1  0.48088500  0.97412100  0.44572900  1
  F  F38  1  0.98088500  0.02587900  0.55427100  1
  F  F39  1  0.05601300  0.63086500  0.29501600  1
