# generated using pymatgen
data_TaO2
_symmetry_space_group_name_H-M   'P 1'
_cell_length_a   11.47249880
_cell_length_b   11.47249880
_cell_length_c   11.47249880
_cell_angle_alpha   93.88838720
_cell_angle_beta   93.88838720
_cell_angle_gamma   149.81128337
_symmetry_Int_Tables_number   1
_chemical_formula_structural   TaO2
_chemical_formula_sum   'Ta16 O32'
_cell_volume   733.10096259
_cell_formula_units_Z   16
loop_
 _symmetry_equiv_pos_site_id
 _symmetry_equiv_pos_as_xyz
  1  'x, y, z'
loop_
 _atom_site_type_symbol
 _atom_site_label
 _atom_site_symmetry_multiplicity
 _atom_site_fract_x
 _atom_site_fract_y
 _atom_site_fract_z
 _atom_site_occupancy
  Ta  Ta0  1  0.63231400  0.58947100  0.71044000  1
  Ta  Ta1  1  0.17187400  0.38231400  0.54284300  1
  Ta  Ta2  1  0.07812600  0.36768600  0.95715700  1
  Ta  Ta3  1  0.10472800  0.04050500  0.67309200  1
  Ta  Ta4  1  0.95949500  0.63258600  0.06422300  1
  Ta  Ta5  1  0.14527200  0.70949500  0.82690800  1
  Ta  Ta6  1  0.29050500  0.11741400  0.43577700  1
  Ta  Ta7  1  0.41052900  0.12096900  0.04284300  1
  Ta  Ta8  1  0.68163600  0.85472800  0.56422300  1
  Ta  Ta9  1  0.88258600  0.31836400  0.17309200  1
  Ta  Ta10  1  0.83947100  0.62903100  0.45715700  1
  Ta  Ta11  1  0.37096900  0.82812600  0.21044000  1
  Ta  Ta12  1  0.56836400  0.89527200  0.93577700  1
  Ta  Ta13  1  0.61768600  0.16052900  0.78956000  1
  Ta  Ta14  1  0.36741400  0.43163600  0.32690800  1
  Ta  Ta15  1  0.87903100  0.92187400  0.28956000  1
  O  O16  1  0.85872300  0.15868500  0.54878900  1
  O  O17  1  0.75208100  0.11905400  0.81711000  1
  O  O18  1  0.94048300  0.89207500  0.80878700  1
  O  O19  1  0.55993400  0.60872300  0.20003800  1
  O  O20  1  0.40868500  0.35989600  0.79996200  1
  O  O21  1  0.88094600  0.69805600  0.63302700  1
  O  O22  1  0.84396500  0.48707200  0.89421700  1
  O  O23  1  0.64010400  0.44006600  0.04878900  1
  O  O24  1  0.84131500  0.39010400  0.70003800  1
  O  O25  1  0.73707200  0.34285500  0.14310700  1
  O  O26  1  0.36905400  0.05194400  0.86697300  1
  O  O27  1  0.40603500  0.26292800  0.60578300  1
  O  O28  1  0.14207500  0.83328900  0.45159300  1
  O  O29  1  0.16671100  0.61830400  0.30878700  1
  O  O30  1  0.51292800  0.40714500  0.35689300  1
  O  O31  1  0.30951700  0.85792500  0.69121300  1
  O  O32  1  0.38169600  0.69048300  0.54840700  1
  O  O33  1  0.10792500  0.91671100  0.04840700  1
  O  O34  1  0.69006600  0.14127700  0.29996200  1
  O  O35  1  0.60989600  0.30993400  0.45121100  1
  O  O36  1  0.59285500  0.94974800  0.10578300  1
  O  O37  1  0.08328900  0.13169600  0.19121300  1
  O  O38  1  0.05025200  0.15603500  0.64310700  1
  O  O39  1  0.86830400  0.05951700  0.95159300  1
  O  O40  1  0.65714500  0.80025200  0.39421700  1
  O  O41  1  0.39127700  0.59131500  0.95121100  1
  O  O42  1  0.94805600  0.81502900  0.31711000  1
  O  O43  1  0.06502900  0.24791900  0.36697300  1
  O  O44  1  0.18497100  0.50208100  0.13302700  1
  O  O45  1  0.49791900  0.63094600  0.68289000  1
  O  O46  1  0.19974800  0.59396500  0.85689300  1
  O  O47  1  0.30194400  0.93497100  0.18289000  1
