# generated using pymatgen
data_SrH6C4O7
_symmetry_space_group_name_H-M   'P 1'
_cell_length_a   7.43697060
_cell_length_b   7.43697060
_cell_length_c   8.56916287
_cell_angle_alpha   83.08090690
_cell_angle_beta   83.08090690
_cell_angle_gamma   53.91873656
_symmetry_Int_Tables_number   1
_chemical_formula_structural   SrH6C4O7
_chemical_formula_sum   'Sr2 H12 C8 O14'
_cell_volume   379.52176629
_cell_formula_units_Z   2
loop_
 _symmetry_equiv_pos_site_id
 _symmetry_equiv_pos_as_xyz
  1  'x, y, z'
loop_
 _atom_site_type_symbol
 _atom_site_label
 _atom_site_symmetry_multiplicity
 _atom_site_fract_x
 _atom_site_fract_y
 _atom_site_fract_z
 _atom_site_occupancy
  Sr  Sr0  1  0.01375400  0.98624600  0.25000000  1
  Sr  Sr1  1  0.98624600  0.01375400  0.75000000  1
  H  H2  1  0.48737600  0.88436300  0.64592700  1
  H  H3  1  0.11563700  0.51262400  0.85407300  1
  H  H4  1  0.51262400  0.11563700  0.35407300  1
  H  H5  1  0.88436300  0.48737600  0.14592700  1
  H  H6  1  0.40741000  0.85455600  0.49264300  1
  H  H7  1  0.14544400  0.59259000  0.00735700  1
  H  H8  1  0.59259000  0.14544400  0.50735700  1
  H  H9  1  0.85455600  0.40741000  0.99264300  1
  H  H10  1  0.55301100  0.53490400  0.68100300  1
  H  H11  1  0.46509600  0.44698900  0.81899700  1
  H  H12  1  0.44698900  0.46509600  0.31899700  1
  H  H13  1  0.53490400  0.55301100  0.18100300  1
  C  C14  1  0.02846300  0.61702400  0.51788700  1
  C  C15  1  0.38297600  0.97153700  0.98211300  1
  C  C16  1  0.97153700  0.38297600  0.48211300  1
  C  C17  1  0.61702400  0.02846300  0.01788700  1
  C  C18  1  0.98347900  0.55082500  0.38052900  1
  C  C19  1  0.44917500  0.01652100  0.11947100  1
  C  C20  1  0.01652100  0.44917500  0.61947100  1
  C  C21  1  0.55082500  0.98347900  0.88052900  1
  O  O22  1  0.16755600  0.59662900  0.89228400  1
  O  O23  1  0.40337100  0.83244400  0.60771600  1
  O  O24  1  0.83244400  0.40337100  0.10771600  1
  O  O25  1  0.59662900  0.16755600  0.39228400  1
  O  O26  1  0.39943400  0.60056600  0.25000000  1
  O  O27  1  0.60056600  0.39943400  0.75000000  1
  O  O28  1  0.06136300  0.76249200  0.53273300  1
  O  O29  1  0.23750800  0.93863700  0.96726700  1
  O  O30  1  0.93863700  0.23750800  0.46726700  1
  O  O31  1  0.76249200  0.06136300  0.03273300  1
  O  O32  1  0.61968500  0.96273400  0.73700100  1
  O  O33  1  0.03726600  0.38031500  0.76299900  1
  O  O34  1  0.38031500  0.03726600  0.26299900  1
  O  O35  1  0.96273400  0.61968500  0.23700100  1
