# generated using pymatgen
data_Fe2Os(CO)12
_symmetry_space_group_name_H-M   'P 1'
_cell_length_a   22.36156600
_cell_length_b   8.25202600
_cell_length_c   11.46889022
_cell_angle_alpha   50.47409963
_cell_angle_beta   90.00000000
_cell_angle_gamma   90.00000000
_symmetry_Int_Tables_number   1
_chemical_formula_structural   Fe2Os(CO)12
_chemical_formula_sum   'Fe8 Os4 C48 O48'
_cell_volume   1632.40660599
_cell_formula_units_Z   4
loop_
 _symmetry_equiv_pos_site_id
 _symmetry_equiv_pos_as_xyz
  1  'x, y, z'
loop_
 _atom_site_type_symbol
 _atom_site_label
 _atom_site_symmetry_multiplicity
 _atom_site_fract_x
 _atom_site_fract_y
 _atom_site_fract_z
 _atom_site_occupancy
  Fe  Fe0  1  0.13516000  0.98033600  0.74979500  1
  Fe  Fe1  1  0.64160300  0.07174800  0.55826900  1
  Fe  Fe2  1  0.90267600  0.65415600  0.28630500  1
  Fe  Fe3  1  0.86484000  0.98033600  0.24979500  1
  Fe  Fe4  1  0.62549500  0.71556300  0.61811700  1
  Fe  Fe5  1  0.09732400  0.65415600  0.78630500  1
  Fe  Fe6  1  0.37450500  0.71556300  0.11811700  1
  Fe  Fe7  1  0.35839700  0.07174800  0.05826900  1
  Os  Os8  1  0.61195100  0.72779900  0.85461600  1
  Os  Os9  1  0.86534700  0.00008400  0.99843300  1
  Os  Os10  1  0.38804900  0.72779900  0.35461600  1
  Os  Os11  1  0.13465300  0.00008400  0.49843300  1
  C  C12  1  0.90287500  0.22833600  0.12266400  1
  C  C13  1  0.33379700  0.47877200  0.25610600  1
  C  C14  1  0.58605300  0.21585500  0.57035100  1
  C  C15  1  0.59423100  0.44077500  0.01790900  1
  C  C16  1  0.66620300  0.47877200  0.75610600  1
  C  C17  1  0.87000700  0.90391100  0.88473800  1
  C  C18  1  0.41394700  0.21585500  0.07035100  1
  C  C19  1  0.47178300  0.80122100  0.29344000  1
  C  C20  1  0.30221300  0.67233200  0.39224800  1
  C  C21  1  0.85167400  0.51742000  0.25483900  1
  C  C22  1  0.40576900  0.44077500  0.51790900  1
  C  C23  1  0.69778700  0.67233200  0.89224800  1
  C  C24  1  0.82636200  0.71060300  0.35815700  1
  C  C25  1  0.05044100  0.08246800  0.46396600  1
  C  C26  1  0.39269600  0.83692400  0.45973100  1
  C  C27  1  0.15829100  0.28266400  0.34008800  1
  C  C28  1  0.52821700  0.80122100  0.79344000  1
  C  C29  1  0.63862900  0.72243400  0.46117100  1
  C  C30  1  0.94955900  0.08246800  0.96396600  1
  C  C31  1  0.17363800  0.71060300  0.85815700  1
  C  C32  1  0.09712500  0.22833600  0.62266400  1
  C  C33  1  0.70134400  0.11379100  0.64157800  1
  C  C34  1  0.55308900  0.59285600  0.67087600  1
  C  C35  1  0.92028500  0.44079600  0.47789100  1
  C  C36  1  0.79081100  0.08760600  0.20351400  1
  C  C37  1  0.78262900  0.90446400  0.05485400  1
  C  C38  1  0.96728700  0.63016800  0.20542700  1
  C  C39  1  0.07971500  0.44079600  0.97789100  1
  C  C40  1  0.66198500  0.28259900  0.36838300  1
  C  C41  1  0.20918900  0.08760600  0.70351400  1
  C  C42  1  0.69944000  0.87285100  0.57113400  1
  C  C43  1  0.21737100  0.90446400  0.55485400  1
  C  C44  1  0.14832600  0.51742000  0.75483900  1
  C  C45  1  0.57618900  0.98240200  0.49537100  1
  C  C46  1  0.33801500  0.28259900  0.86838300  1
  C  C47  1  0.87391200  0.95620800  0.41531000  1
  C  C48  1  0.42381100  0.98240200  0.99537100  1
  C  C49  1  0.84170900  0.28266400  0.84008800  1
  C  C50  1  0.12608800  0.95620800  0.91531000  1
  C  C51  1  0.03271300  0.63016800  0.70542700  1
  C  C52  1  0.94869800  0.84906400  0.28989800  1
  C  C53  1  0.36137100  0.72243400  0.96117100  1
  C  C54  1  0.60730400  0.83692400  0.95973100  1
  C  C55  1  0.12999300  0.90391100  0.38473800  1
  C  C56  1  0.05130200  0.84906400  0.78989800  1
  C  C57  1  0.44691100  0.59285600  0.17087600  1
  C  C58  1  0.30056000  0.87285100  0.07113400  1
  C  C59  1  0.29865600  0.11379100  0.14157800  1
  O  O60  1  0.50594100  0.51707000  0.69986000  1
  O  O61  1  0.49405900  0.51707000  0.19986000  1
  O  O62  1  0.06859100  0.30133300  0.10281500  1
  O  O63  1  0.78395300  0.60975400  0.42981800  1
  O  O64  1  0.26684600  0.85042000  0.58253700  1
  O  O65  1  0.12994100  0.84410300  0.31669600  1
  O  O66  1  0.87005900  0.84410300  0.81669600  1
  O  O67  1  0.92628800  0.39153600  0.04617900  1
  O  O68  1  0.30879600  0.32075600  0.34272800  1
  O  O69  1  0.74819200  0.63400000  0.91985700  1
  O  O70  1  0.25749000  0.15328500  0.67936700  1
  O  O71  1  0.32465300  0.42596700  0.74626800  1
  O  O72  1  0.64821600  0.72031400  0.36306600  1
  O  O73  1  0.24872100  0.86808700  0.05372400  1
  O  O74  1  0.69120400  0.32075600  0.84272800  1
  O  O75  1  0.25180800  0.63400000  0.41985700  1
  O  O76  1  0.44899400  0.32148500  0.06847400  1
  O  O77  1  0.17088600  0.45716200  0.24315700  1
  O  O78  1  0.81990400  0.41825700  0.24168700  1
  O  O79  1  0.07371200  0.39153600  0.54617900  1
  O  O80  1  0.35178400  0.72031400  0.86306600  1
  O  O81  1  0.01041700  0.60738300  0.16103200  1
  O  O82  1  0.67534700  0.42596700  0.24626800  1
  O  O83  1  0.41515900  0.26432000  0.61684000  1
  O  O84  1  0.18009600  0.41825700  0.74168700  1
  O  O85  1  0.74043000  0.14985500  0.68875100  1
  O  O86  1  0.00300500  0.88776100  0.80798900  1
  O  O87  1  0.11908600  0.94661400  0.01929800  1
  O  O88  1  0.00110700  0.13866900  0.43675700  1
  O  O89  1  0.93140900  0.30133300  0.60281500  1
  O  O90  1  0.25957000  0.14985500  0.18875100  1
  O  O91  1  0.58484100  0.26432000  0.11684000  1
  O  O92  1  0.73315400  0.85042000  0.08253700  1
  O  O93  1  0.47811100  0.84134800  0.76230400  1
  O  O94  1  0.74251000  0.15328500  0.17936700  1
  O  O95  1  0.99699500  0.88776100  0.30798900  1
  O  O96  1  0.52188900  0.84134800  0.26230400  1
  O  O97  1  0.75127900  0.86808700  0.55372400  1
  O  O98  1  0.55100600  0.32148500  0.56847400  1
  O  O99  1  0.60352100  0.90307400  0.02342600  1
  O  O100  1  0.82911400  0.45716200  0.74315700  1
  O  O101  1  0.46870800  0.04373300  0.92469400  1
  O  O102  1  0.99889300  0.13866900  0.93675700  1
  O  O103  1  0.21604700  0.60975400  0.92981800  1
  O  O104  1  0.53129200  0.04373300  0.42469400  1
  O  O105  1  0.98958300  0.60738300  0.66103200  1
  O  O106  1  0.88091400  0.94661400  0.51929800  1
  O  O107  1  0.39647900  0.90307400  0.52342600  1
