# generated using pymatgen
data_IF7
_symmetry_space_group_name_H-M   'P 1'
_cell_length_a   7.53771400
_cell_length_b   7.59647100
_cell_length_c   7.80272100
_cell_angle_alpha   90.00000000
_cell_angle_beta   90.00000000
_cell_angle_gamma   90.00000000
_symmetry_Int_Tables_number   1
_chemical_formula_structural   IF7
_chemical_formula_sum   'I4 F28'
_cell_volume   446.78400583
_cell_formula_units_Z   4
loop_
 _symmetry_equiv_pos_site_id
 _symmetry_equiv_pos_as_xyz
  1  'x, y, z'
loop_
 _atom_site_type_symbol
 _atom_site_label
 _atom_site_symmetry_multiplicity
 _atom_site_fract_x
 _atom_site_fract_y
 _atom_site_fract_z
 _atom_site_occupancy
  I  I0  1  0.73312900  0.50000000  0.50000000  1
  I  I1  1  0.73426000  0.00000000  0.00000000  1
  I  I2  1  0.26574000  0.50000000  0.00000000  1
  I  I3  1  0.26687100  0.00000000  0.50000000  1
  F  F4  1  0.01642800  0.50000000  0.00000000  1
  F  F5  1  0.01772800  0.00000000  0.50000000  1
  F  F6  1  0.75290300  0.23950300  0.04412600  1
  F  F7  1  0.75290300  0.76049700  0.95587400  1
  F  F8  1  0.75676000  0.25873300  0.52763600  1
  F  F9  1  0.75676000  0.74126700  0.47236400  1
  F  F10  1  0.79434600  0.49908400  0.73349500  1
  F  F11  1  0.79662800  0.01338800  0.76645100  1
  F  F12  1  0.79434600  0.50091600  0.26650500  1
  F  F13  1  0.79662800  0.98661200  0.23354900  1
  F  F14  1  0.46896600  0.08490400  0.38149300  1
  F  F15  1  0.46896600  0.91509600  0.61850700  1
  F  F16  1  0.46786100  0.41282200  0.88432100  1
  F  F17  1  0.46786100  0.58717800  0.11567900  1
  F  F18  1  0.53103400  0.41509600  0.38149300  1
  F  F19  1  0.53103400  0.58490400  0.61850700  1
  F  F20  1  0.53213900  0.08717800  0.88432100  1
  F  F21  1  0.53213900  0.91282200  0.11567900  1
  F  F22  1  0.20565400  0.99908400  0.26650500  1
  F  F23  1  0.20565400  0.00091600  0.73349500  1
  F  F24  1  0.20337200  0.48661200  0.76645100  1
  F  F25  1  0.20337200  0.51338800  0.23354900  1
  F  F26  1  0.24324000  0.24126700  0.52763600  1
  F  F27  1  0.24709700  0.26049700  0.04412600  1
  F  F28  1  0.24709700  0.73950300  0.95587400  1
  F  F29  1  0.24324000  0.75873300  0.47236400  1
  F  F30  1  0.98227200  0.50000000  0.50000000  1
  F  F31  1  0.98357200  0.00000000  0.00000000  1
