# generated using pymatgen
data_H4N2O3
_symmetry_space_group_name_H-M   'P 1'
_cell_length_a   5.94321500
_cell_length_b   7.29504600
_cell_length_c   7.75653600
_cell_angle_alpha   90.00000000
_cell_angle_beta   90.00000000
_cell_angle_gamma   90.00000000
_symmetry_Int_Tables_number   1
_chemical_formula_structural   H4N2O3
_chemical_formula_sum   'H16 N8 O12'
_cell_volume   336.29258279
_cell_formula_units_Z   4
loop_
 _symmetry_equiv_pos_site_id
 _symmetry_equiv_pos_as_xyz
  1  'x, y, z'
loop_
 _atom_site_type_symbol
 _atom_site_label
 _atom_site_symmetry_multiplicity
 _atom_site_fract_x
 _atom_site_fract_y
 _atom_site_fract_z
 _atom_site_occupancy
  H  H0  1  0.25000000  0.79554200  0.08660000  1
  H  H1  1  0.25000000  0.70445800  0.58660000  1
  H  H2  1  0.75000000  0.20445800  0.91340000  1
  H  H3  1  0.75000000  0.29554200  0.41340000  1
  H  H4  1  0.25000000  0.56507600  0.08485400  1
  H  H5  1  0.25000000  0.93492400  0.58485400  1
  H  H6  1  0.75000000  0.43492400  0.91514600  1
  H  H7  1  0.75000000  0.06507600  0.41514600  1
  H  H8  1  0.39401300  0.68310600  0.93448700  1
  H  H9  1  0.10598700  0.81689400  0.43448700  1
  H  H10  1  0.89401300  0.31689400  0.06551300  1
  H  H11  1  0.60598700  0.18310600  0.56551300  1
  H  H12  1  0.60598700  0.31689400  0.06551300  1
  H  H13  1  0.89401300  0.18310600  0.56551300  1
  H  H14  1  0.10598700  0.68310600  0.93448700  1
  H  H15  1  0.39401300  0.81689400  0.43448700  1
  N  N16  1  0.25000000  0.68069900  0.00909700  1
  N  N17  1  0.25000000  0.81930100  0.50909700  1
  N  N18  1  0.75000000  0.31930100  0.99090300  1
  N  N19  1  0.75000000  0.18069900  0.49090300  1
  N  N20  1  0.25000000  0.12619100  0.15774500  1
  N  N21  1  0.25000000  0.37380900  0.65774500  1
  N  N22  1  0.75000000  0.87380900  0.84225500  1
  N  N23  1  0.75000000  0.62619100  0.34225500  1
  O  O24  1  0.25000000  0.27174900  0.06658200  1
  O  O25  1  0.25000000  0.22825100  0.56658200  1
  O  O26  1  0.75000000  0.72825100  0.93341800  1
  O  O27  1  0.75000000  0.77174900  0.43341800  1
  O  O28  1  0.43455800  0.05288800  0.20098700  1
  O  O29  1  0.06544200  0.44711200  0.70098700  1
  O  O30  1  0.93455800  0.94711200  0.79901300  1
  O  O31  1  0.56544200  0.55288800  0.29901300  1
  O  O32  1  0.56544200  0.94711200  0.79901300  1
  O  O33  1  0.93455800  0.55288800  0.29901300  1
  O  O34  1  0.06544200  0.05288800  0.20098700  1
  O  O35  1  0.43455800  0.44711200  0.70098700  1
