# generated using pymatgen
data_TlAgAs2PbS5
_symmetry_space_group_name_H-M   'P 1'
_cell_length_a   8.13174192
_cell_length_b   8.36080673
_cell_length_c   46.52635524
_cell_angle_alpha   63.81993149
_cell_angle_beta   73.85568454
_cell_angle_gamma   65.29279929
_symmetry_Int_Tables_number   1
_chemical_formula_structural   TlAgAs2PbS5
_chemical_formula_sum   'Tl10 Ag10 As20 Pb10 S50'
_cell_volume   2561.78168994
_cell_formula_units_Z   10
loop_
 _symmetry_equiv_pos_site_id
 _symmetry_equiv_pos_as_xyz
  1  'x, y, z'
loop_
 _atom_site_type_symbol
 _atom_site_label
 _atom_site_symmetry_multiplicity
 _atom_site_fract_x
 _atom_site_fract_y
 _atom_site_fract_z
 _atom_site_occupancy
  Tl  Tl0  1  0.30427144  0.14300603  0.02804427  1
  Tl  Tl1  1  0.25521624  0.45640541  0.11977005  1
  Tl  Tl2  1  0.30602002  0.14546768  0.22629115  1
  Tl  Tl3  1  0.25543923  0.45571914  0.31981350  1
  Tl  Tl4  1  0.30606186  0.14553420  0.42620105  1
  Tl  Tl5  1  0.25548194  0.45579845  0.51977622  1
  Tl  Tl6  1  0.30615047  0.14555782  0.62617170  1
  Tl  Tl7  1  0.25588070  0.45554221  0.71982479  1
  Tl  Tl8  1  0.30583086  0.14618698  0.82641804  1
  Tl  Tl9  1  0.68880364  0.84679270  0.97577048  1
  Ag  Ag10  1  0.11194379  0.75294292  0.01869167  1
  Ag  Ag11  1  0.11026208  0.76331816  0.21777451  1
  Ag  Ag12  1  0.11020395  0.76347034  0.41770792  1
  Ag  Ag13  1  0.11031416  0.76320878  0.61772932  1
  Ag  Ag14  1  0.89472886  0.24237618  0.18133058  1
  Ag  Ag15  1  0.11273969  0.76091720  0.81796319  1
  Ag  Ag16  1  0.89513231  0.24233694  0.38122752  1
  Ag  Ag17  1  0.89532812  0.24193223  0.58123436  1
  Ag  Ag18  1  0.89406560  0.24277237  0.78141202  1
  Ag  Ag19  1  0.88774524  0.23943156  0.98231164  1
  As  As20  1  0.10930001  0.03543283  0.12781066  1
  As  As21  1  0.10936736  0.03631861  0.32763739  1
  As  As22  1  0.54813729  0.39370134  0.03693551  1
  As  As23  1  0.10952686  0.03623277  0.52764245  1
  As  As24  1  0.44956995  0.61818493  0.16133729  1
  As  As25  1  0.54577162  0.40184525  0.23630291  1
  As  As26  1  0.10975542  0.03633702  0.72785669  1
  As  As27  1  0.44921825  0.61807008  0.36146364  1
  As  As28  1  0.54587635  0.40146267  0.43631138  1
  As  As29  1  0.11027500  0.04011446  0.92663856  1
  As  As30  1  0.88215481  0.96441049  0.07515220  1
  As  As31  1  0.44921107  0.61794705  0.56145588  1
  As  As32  1  0.54595615  0.40174048  0.63621133  1
  As  As33  1  0.88415301  0.96097812  0.27472286  1
  As  As34  1  0.44879144  0.61825100  0.76146437  1
  As  As35  1  0.54559151  0.39357351  0.83745740  1
  As  As36  1  0.88412639  0.96075765  0.47467867  1
  As  As37  1  0.44976567  0.61566390  0.96156797  1
  As  As38  1  0.88435654  0.96197536  0.67450819  1
  As  As39  1  0.89230088  0.95706315  0.87208573  1
  Pb  Pb40  1  0.75109815  0.52483122  0.08183697  1
  Pb  Pb41  1  0.68962994  0.81633661  0.17196811  1
  Pb  Pb42  1  0.75047285  0.52882681  0.28228471  1
  Pb  Pb43  1  0.69007759  0.81514909  0.37245092  1
  Pb  Pb44  1  0.75108152  0.52834881  0.48228585  1
  Pb  Pb45  1  0.24385747  0.46149435  0.91988977  1
  Pb  Pb46  1  0.69021533  0.81510648  0.57240111  1
  Pb  Pb47  1  0.75071808  0.52895884  0.68210260  1
  Pb  Pb48  1  0.69585709  0.81787278  0.77144230  1
  Pb  Pb49  1  0.75628765  0.53677951  0.88275741  1
  S  S50  1  0.12075144  0.29562847  0.08269354  1
  S  S51  1  0.21685218  0.05834167  0.16582625  1
  S  S52  1  0.12066112  0.29533248  0.28242983  1
  S  S53  1  0.18489862  0.56363550  0.18443798  1
  S  S54  1  0.39031711  0.66712399  0.04478521  1
  S  S55  1  0.21746677  0.05836172  0.36578544  1
  S  S56  1  0.62561077  0.19086334  0.08998093  1
  S  S57  1  0.37151890  0.82685038  0.11006307  1
  S  S58  1  0.12077247  0.29528095  0.48242603  1
  S  S59  1  0.18443113  0.56349657  0.38448098  1
  S  S60  1  0.62755415  0.35031834  0.15124915  1
  S  S61  1  0.39211021  0.67066486  0.24529266  1
  S  S62  1  0.21772959  0.05845790  0.56573945  1
  S  S63  1  0.82326110  0.43052053  0.01651988  1
  S  S64  1  0.63163740  0.19779962  0.28824361  1
  S  S65  1  0.37176464  0.82675698  0.31018697  1
  S  S66  1  0.12029659  0.29488629  0.68252601  1
  S  S67  1  0.18429021  0.56368582  0.58446847  1
  S  S68  1  0.79061530  0.91782153  0.03813366  1
  S  S69  1  0.62737121  0.35009171  0.35130375  1
  S  S70  1  0.39281751  0.67082135  0.44517119  1
  S  S71  1  0.21831898  0.05867327  0.76594193  1
  S  S72  1  0.82341705  0.44597559  0.21436057  1
  S  S73  1  0.84902609  0.70652071  0.11994487  1
  S  S74  1  0.63164580  0.19761904  0.48827536  1
  S  S75  1  0.37185424  0.82667731  0.51017491  1
  S  S76  1  0.13075237  0.30324927  0.88242793  1
  S  S77  1  0.18355500  0.56369374  0.78437271  1
  S  S78  1  0.78675248  0.91867855  0.23830986  1
  S  S79  1  0.62743163  0.34982789  0.55135433  1
  S  S80  1  0.39302459  0.67085098  0.64513219  1
  S  S81  1  0.21250492  0.07889484  0.96313096  1
  S  S82  1  0.82369469  0.44512469  0.41445243  1
  S  S83  1  0.84736040  0.70727243  0.32012709  1
  S  S84  1  0.63158319  0.19782414  0.68821602  1
  S  S85  1  0.37124715  0.82743671  0.71018862  1
  S  S86  1  0.18247903  0.56400378  0.98259562  1
  S  S87  1  0.78663431  0.91844725  0.43829768  1
  S  S88  1  0.62661917  0.35146356  0.75096251  1
  S  S89  1  0.38011425  0.65312015  0.84994150  1
  S  S90  1  0.82407379  0.44477941  0.61444204  1
  S  S91  1  0.84734874  0.70715264  0.52009891  1
  S  S92  1  0.63807910  0.18759725  0.88798801  1
  S  S93  1  0.36942953  0.82203978  0.90952463  1
  S  S94  1  0.78675399  0.91895646  0.63823357  1
  S  S95  1  0.62229198  0.35040648  0.94971940  1
  S  S96  1  0.81780443  0.45033633  0.81430107  1
  S  S97  1  0.84799485  0.70754478  0.71990598  1
  S  S98  1  0.78454473  0.92887165  0.83518286  1
  S  S99  1  0.86681362  0.69773883  0.91652758  1
