# generated using pymatgen
data_Ca5Nd5Mn9CrO30
_symmetry_space_group_name_H-M   'P 1'
_cell_length_a   5.43436629
_cell_length_b   5.48357224
_cell_length_c   38.59869742
_cell_angle_alpha   90.03756439
_cell_angle_beta   90.03917387
_cell_angle_gamma   90.06521668
_symmetry_Int_Tables_number   1
_chemical_formula_structural   Ca5Nd5Mn9CrO30
_chemical_formula_sum   'Ca10 Nd10 Mn18 Cr2 O60'
_cell_volume   1150.22988980
_cell_formula_units_Z   2
loop_
 _symmetry_equiv_pos_site_id
 _symmetry_equiv_pos_as_xyz
  1  'x, y, z'
loop_
 _atom_site_type_symbol
 _atom_site_label
 _atom_site_symmetry_multiplicity
 _atom_site_fract_x
 _atom_site_fract_y
 _atom_site_fract_z
 _atom_site_occupancy
  Ca  Ca0  1  0.48953800  0.46051800  0.24856000  1
  Ca  Ca1  1  0.48875400  0.45980300  0.44915200  1
  Ca  Ca2  1  0.51270700  0.53826300  0.15134400  1
  Ca  Ca3  1  0.51431600  0.53918900  0.75076400  1
  Ca  Ca4  1  0.51156600  0.53916100  0.95025900  1
  Ca  Ca5  1  0.98842800  0.03897100  0.15071800  1
  Ca  Ca6  1  0.99007000  0.03985600  0.34940700  1
  Ca  Ca7  1  0.98887600  0.03869700  0.54885200  1
  Ca  Ca8  1  0.98758800  0.03956900  0.75049200  1
  Ca  Ca9  1  0.98630100  0.03977700  0.95021200  1
  Nd  Nd10  1  0.00810800  0.96211400  0.05024400  1
  Nd  Nd11  1  0.01018900  0.96209900  0.24922800  1
  Nd  Nd12  1  0.01079900  0.96202600  0.44939900  1
  Nd  Nd13  1  0.00882600  0.96201600  0.65080100  1
  Nd  Nd14  1  0.00815800  0.96100800  0.85024800  1
  Nd  Nd15  1  0.49209000  0.46287300  0.05037800  1
  Nd  Nd16  1  0.49087600  0.46138400  0.65116900  1
  Nd  Nd17  1  0.49169100  0.46054900  0.85035700  1
  Nd  Nd18  1  0.51135100  0.53756100  0.34927900  1
  Nd  Nd19  1  0.51197900  0.53863800  0.54864500  1
  Mn  Mn20  1  0.99928900  0.49924200  0.99882400  1
  Mn  Mn21  1  0.99930400  0.49891800  0.10169900  1
  Mn  Mn22  1  0.99985800  0.49852800  0.19925000  1
  Mn  Mn23  1  0.99956500  0.49868800  0.39961200  1
  Mn  Mn24  1  0.00148400  0.49815800  0.49929900  1
  Mn  Mn25  1  0.99991300  0.49865800  0.59933400  1
  Mn  Mn26  1  0.00084000  0.49832600  0.79905300  1
  Mn  Mn27  1  0.99862400  0.49914400  0.90164300  1
  Mn  Mn28  1  0.50086000  0.99966300  0.99878300  1
  Mn  Mn29  1  0.50077500  0.99883800  0.10171500  1
  Mn  Mn30  1  0.50098600  0.00015000  0.19920200  1
  Mn  Mn31  1  0.49957800  0.00106000  0.39948600  1
  Mn  Mn32  1  0.50060800  0.00155500  0.29954900  1
  Mn  Mn33  1  0.50003700  0.99874700  0.90150500  1
  Mn  Mn34  1  0.50059000  0.00157300  0.49960300  1
  Mn  Mn35  1  0.50047900  0.99892500  0.70199800  1
  Mn  Mn36  1  0.00102800  0.49838600  0.29944000  1
  Mn  Mn37  1  0.99880400  0.49939800  0.70195900  1
  Cr  Cr38  1  0.49997900  0.99969600  0.59921300  1
  Cr  Cr39  1  0.50201500  0.99790700  0.79884200  1
  O  O40  1  0.08124600  0.47958700  0.15006200  1
  O  O41  1  0.07808600  0.48070100  0.54983600  1
  O  O42  1  0.07684900  0.48316800  0.34972100  1
  O  O43  1  0.08437500  0.47638800  0.75091800  1
  O  O44  1  0.08141800  0.47761100  0.95024200  1
  O  O45  1  0.21768000  0.21762500  0.20816300  1
  O  O46  1  0.22087700  0.22124100  0.00906500  1
  O  O47  1  0.22223000  0.22141200  0.09104200  1
  O  O48  1  0.21709200  0.22405300  0.60987000  1
  O  O49  1  0.21857300  0.21791000  0.29155500  1
  O  O50  1  0.21784000  0.21749700  0.40812400  1
  O  O51  1  0.21729200  0.22294000  0.80973900  1
  O  O52  1  0.21795600  0.21667700  0.49132300  1
  O  O53  1  0.22091700  0.22017200  0.69129800  1
  O  O54  1  0.22094500  0.22076100  0.89125800  1
  O  O55  1  0.27812700  0.72068300  0.00916600  1
  O  O56  1  0.27725700  0.72201400  0.09085400  1
  O  O57  1  0.27936400  0.72067800  0.20901700  1
  O  O58  1  0.28361700  0.71691400  0.29118300  1
  O  O59  1  0.28252800  0.71827600  0.40842300  1
  O  O60  1  0.27884000  0.71425200  0.60933900  1
  O  O61  1  0.28392500  0.71703500  0.49096800  1
  O  O62  1  0.27763400  0.72171900  0.69099800  1
  O  O63  1  0.27762500  0.71625600  0.80986300  1
  O  O64  1  0.27825800  0.72048200  0.89116900  1
  O  O65  1  0.41985300  0.97708600  0.15016900  1
  O  O66  1  0.41598000  0.98055100  0.54941100  1
  O  O67  1  0.41358100  0.97369900  0.74957300  1
  O  O68  1  0.42216400  0.98338100  0.34961400  1
  O  O69  1  0.41802700  0.97704600  0.94978400  1
  O  O70  1  0.57149100  0.01137000  0.04997400  1
  O  O71  1  0.57482800  0.01683500  0.24968900  1
  O  O72  1  0.57672600  0.01306400  0.65065000  1
  O  O73  1  0.57687300  0.01710400  0.45010400  1
  O  O74  1  0.57511100  0.01234500  0.85059400  1
  O  O75  1  0.71300600  0.28579900  0.10768400  1
  O  O76  1  0.71997500  0.28080400  0.30828200  1
  O  O77  1  0.71816300  0.28079800  0.50816900  1
  O  O78  1  0.71744200  0.28203600  0.19152700  1
  O  O79  1  0.71640000  0.28272900  0.39141200  1
  O  O80  1  0.71117900  0.28584800  0.70817700  1
  O  O81  1  0.71479900  0.29154100  0.59167300  1
  O  O82  1  0.71269100  0.28627300  0.90799200  1
  O  O83  1  0.71457600  0.29273700  0.79220600  1
  O  O84  1  0.71353800  0.28603500  0.99231200  1
  O  O85  1  0.78760700  0.78609400  0.19215900  1
  O  O86  1  0.78595900  0.78534000  0.10745200  1
  O  O87  1  0.78208600  0.78219900  0.50840200  1
  O  O88  1  0.78870700  0.78063400  0.59072700  1
  O  O89  1  0.78556300  0.78649200  0.70796300  1
  O  O90  1  0.79595500  0.78565800  0.79215400  1
  O  O91  1  0.78277400  0.78135900  0.30840900  1
  O  O92  1  0.78244800  0.78311000  0.39115300  1
  O  O93  1  0.78639500  0.78587900  0.90784700  1
  O  O94  1  0.78638600  0.78544500  0.99248400  1
  O  O95  1  0.92205200  0.51464000  0.24987000  1
  O  O96  1  0.92756300  0.51045600  0.05015000  1
  O  O97  1  0.92550300  0.51214400  0.65007300  1
  O  O98  1  0.92114500  0.51673400  0.44932700  1
  O  O99  1  0.92608100  0.51105400  0.85012400  1
