# generated using pymatgen
data_Al5HO8
_symmetry_space_group_name_H-M   'P 1'
_cell_length_a   5.75024590
_cell_length_b   5.75024590
_cell_length_c   8.72165200
_cell_angle_alpha   90.00000000
_cell_angle_beta   90.00000000
_cell_angle_gamma   119.99999886
_symmetry_Int_Tables_number   1
_chemical_formula_structural   Al5HO8
_chemical_formula_sum   'Al10 H2 O16'
_cell_volume   249.74811836
_cell_formula_units_Z   2
loop_
 _symmetry_equiv_pos_site_id
 _symmetry_equiv_pos_as_xyz
  1  'x, y, z'
loop_
 _atom_site_type_symbol
 _atom_site_label
 _atom_site_symmetry_multiplicity
 _atom_site_fract_x
 _atom_site_fract_y
 _atom_site_fract_z
 _atom_site_occupancy
  Al  Al0  1  0.82606900  0.17393100  0.87750900  1
  Al  Al1  1  0.82606900  0.65213700  0.87750900  1
  Al  Al2  1  0.34786300  0.17393100  0.87750900  1
  Al  Al3  1  0.17393100  0.82606900  0.37750900  1
  Al  Al4  1  0.17393100  0.34786300  0.37750900  1
  Al  Al5  1  0.65213700  0.82606900  0.37750900  1
  Al  Al6  1  0.33333300  0.66666700  0.67303700  1
  Al  Al7  1  0.66666700  0.33333300  0.17303700  1
  Al  Al8  1  0.66666700  0.33333300  0.54184200  1
  Al  Al9  1  0.33333300  0.66666700  0.04184200  1
  H  H10  1  0.00000000  0.00000000  0.86295900  1
  H  H11  1  0.00000000  0.00000000  0.36295900  1
  O  O12  1  0.00000000  0.00000000  0.48022600  1
  O  O13  1  0.00000000  0.00000000  0.98022600  1
  O  O14  1  0.48269500  0.51730500  0.51337800  1
  O  O15  1  0.48269500  0.96539100  0.51337800  1
  O  O16  1  0.03460900  0.51730500  0.51337800  1
  O  O17  1  0.51730500  0.48269500  0.01337800  1
  O  O18  1  0.51730500  0.03460900  0.01337800  1
  O  O19  1  0.96539100  0.48269500  0.01337800  1
  O  O20  1  0.17115600  0.82884400  0.78128600  1
  O  O21  1  0.17115600  0.34231100  0.78128600  1
  O  O22  1  0.65768900  0.82884400  0.78128600  1
  O  O23  1  0.82884400  0.17115600  0.28128600  1
  O  O24  1  0.82884400  0.65768900  0.28128600  1
  O  O25  1  0.34231100  0.17115600  0.28128600  1
  O  O26  1  0.66666700  0.33333300  0.75871700  1
  O  O27  1  0.33333300  0.66666700  0.25871700  1
