# generated using pymatgen
data_Ag3H13SeN4O5
_symmetry_space_group_name_H-M   'P 1'
_cell_length_a   6.53821900
_cell_length_b   11.89814600
_cell_length_c   14.74610100
_cell_angle_alpha   90.00000000
_cell_angle_beta   90.00000000
_cell_angle_gamma   90.00000000
_symmetry_Int_Tables_number   1
_chemical_formula_structural   Ag3H13SeN4O5
_chemical_formula_sum   'Ag12 H52 Se4 N16 O20'
_cell_volume   1147.13877889
_cell_formula_units_Z   4
loop_
 _symmetry_equiv_pos_site_id
 _symmetry_equiv_pos_as_xyz
  1  'x, y, z'
loop_
 _atom_site_type_symbol
 _atom_site_label
 _atom_site_symmetry_multiplicity
 _atom_site_fract_x
 _atom_site_fract_y
 _atom_site_fract_z
 _atom_site_occupancy
  Ag  Ag0  1  0.71955700  0.55304600  0.61286300  1
  Ag  Ag1  1  0.21955700  0.94695400  0.38713700  1
  Ag  Ag2  1  0.28044300  0.05304600  0.88713700  1
  Ag  Ag3  1  0.78044300  0.44695400  0.11286300  1
  Ag  Ag4  1  0.93775900  0.75121400  0.49880300  1
  Ag  Ag5  1  0.43775900  0.74878600  0.50119700  1
  Ag  Ag6  1  0.06224100  0.25121400  0.00119700  1
  Ag  Ag7  1  0.56224100  0.24878600  0.99880300  1
  Ag  Ag8  1  0.22746600  0.54269000  0.60000500  1
  Ag  Ag9  1  0.72746600  0.95731000  0.39999500  1
  Ag  Ag10  1  0.77253400  0.04269000  0.89999500  1
  Ag  Ag11  1  0.27253400  0.45731000  0.10000500  1
  H  H12  1  0.71648300  0.71666000  0.87410400  1
  H  H13  1  0.21648300  0.78334000  0.12589600  1
  H  H14  1  0.28351700  0.21666000  0.62589600  1
  H  H15  1  0.78351700  0.28334000  0.37410400  1
  H  H16  1  0.80587100  0.60974300  0.91865400  1
  H  H17  1  0.30587100  0.89025700  0.08134600  1
  H  H18  1  0.19412900  0.10974300  0.58134600  1
  H  H19  1  0.69412900  0.39025700  0.41865400  1
  H  H20  1  0.09083300  0.92160900  0.64387800  1
  H  H21  1  0.59083300  0.57839100  0.35612200  1
  H  H22  1  0.90916700  0.42160900  0.85612200  1
  H  H23  1  0.40916700  0.07839100  0.14387800  1
  H  H24  1  0.32334600  0.95128500  0.62789700  1
  H  H25  1  0.82334600  0.54871500  0.37210300  1
  H  H26  1  0.67665400  0.45128500  0.87210300  1
  H  H27  1  0.17665400  0.04871500  0.12789700  1
  H  H28  1  0.34101500  0.66415800  0.74373500  1
  H  H29  1  0.84101500  0.83584200  0.25626500  1
  H  H30  1  0.65898500  0.16415800  0.75626500  1
  H  H31  1  0.15898500  0.33584200  0.24373500  1
  H  H32  1  0.16890800  0.56994500  0.77600400  1
  H  H33  1  0.66890800  0.93005500  0.22399600  1
  H  H34  1  0.83109200  0.06994500  0.72399600  1
  H  H35  1  0.33109200  0.43005500  0.27600400  1
  H  H36  1  0.09278400  0.69058000  0.72757100  1
  H  H37  1  0.59278400  0.80942000  0.27242900  1
  H  H38  1  0.90721600  0.19058000  0.77242900  1
  H  H39  1  0.40721600  0.30942000  0.22757100  1
  H  H40  1  0.21366600  0.34546700  0.50594400  1
  H  H41  1  0.71366600  0.15453300  0.49405600  1
  H  H42  1  0.78633400  0.84546700  0.99405600  1
  H  H43  1  0.28633400  0.65453300  0.00594400  1
  H  H44  1  0.38774900  0.42784800  0.45941200  1
  H  H45  1  0.88774900  0.07215200  0.54058800  1
  H  H46  1  0.61225100  0.92784800  0.04058800  1
  H  H47  1  0.11225100  0.57215200  0.95941200  1
  H  H48  1  0.14643500  0.45255500  0.43725800  1
  H  H49  1  0.64643500  0.04744500  0.56274200  1
  H  H50  1  0.85356500  0.95255500  0.06274200  1
  H  H51  1  0.35356500  0.54744500  0.93725800  1
  H  H52  1  0.89020400  0.36707200  0.67750000  1
  H  H53  1  0.39020400  0.13292800  0.32250000  1
  H  H54  1  0.10979600  0.86707200  0.82250000  1
  H  H55  1  0.60979600  0.63292800  0.17750000  1
  H  H56  1  0.80624200  0.34062400  0.57255100  1
  H  H57  1  0.30624200  0.15937600  0.42744900  1
  H  H58  1  0.19375800  0.84062400  0.92744900  1
  H  H59  1  0.69375800  0.65937600  0.07255100  1
  H  H60  1  0.64312400  0.33878300  0.65924500  1
  H  H61  1  0.14312400  0.16121700  0.34075500  1
  H  H62  1  0.35687600  0.83878300  0.84075500  1
  H  H63  1  0.85687600  0.66121700  0.15924500  1
  Se  Se64  1  0.69232800  0.81722200  0.68732200  1
  Se  Se65  1  0.19232800  0.68277800  0.31267800  1
  Se  Se66  1  0.30767200  0.31722200  0.81267800  1
  Se  Se67  1  0.80767200  0.18277800  0.18732200  1
  N  N68  1  0.68909400  0.72752300  0.59014000  1
  N  N69  1  0.18909400  0.77247700  0.40986000  1
  N  N70  1  0.31090600  0.22752300  0.90986000  1
  N  N71  1  0.81090600  0.27247700  0.09014000  1
  N  N72  1  0.20193500  0.62832400  0.72730400  1
  N  N73  1  0.70193500  0.87167600  0.27269600  1
  N  N74  1  0.79806500  0.12832400  0.77269600  1
  N  N75  1  0.29806500  0.37167600  0.22730400  1
  N  N76  1  0.24480300  0.42700000  0.48762700  1
  N  N77  1  0.74480300  0.07300000  0.51237300  1
  N  N78  1  0.75519700  0.92700000  0.01237300  1
  N  N79  1  0.25519700  0.57300000  0.98762700  1
  N  N80  1  0.77108800  0.37841400  0.63274800  1
  N  N81  1  0.27108800  0.12158600  0.36725200  1
  N  N82  1  0.22891200  0.87841400  0.86725200  1
  N  N83  1  0.72891200  0.62158600  0.13274800  1
  O  O84  1  0.57372000  0.75542500  0.77580700  1
  O  O85  1  0.07372000  0.74457500  0.22419300  1
  O  O86  1  0.42628000  0.25542500  0.72419300  1
  O  O87  1  0.92628000  0.24457500  0.27580700  1
  O  O88  1  0.93767900  0.84102600  0.71850000  1
  O  O89  1  0.43767900  0.65897400  0.28150000  1
  O  O90  1  0.06232100  0.34102600  0.78150000  1
  O  O91  1  0.56232100  0.15897400  0.21850000  1
  O  O92  1  0.58085200  0.94176600  0.66611500  1
  O  O93  1  0.08085200  0.55823400  0.33388500  1
  O  O94  1  0.41914800  0.44176600  0.83388500  1
  O  O95  1  0.91914800  0.05823400  0.16611500  1
  O  O96  1  0.78329500  0.69089700  0.93070200  1
  O  O97  1  0.28329500  0.80910300  0.06929800  1
  O  O98  1  0.21670500  0.19089700  0.56929800  1
  O  O99  1  0.71670500  0.30910300  0.43070200  1
  O  O100  1  0.18327700  0.96586400  0.60411600  1
  O  O101  1  0.68327700  0.53413600  0.39588400  1
  O  O102  1  0.81672300  0.46586400  0.89588400  1
  O  O103  1  0.31672300  0.03413600  0.10411600  1
