# generated using pymatgen
data_YbCu(MoO4)2
_symmetry_space_group_name_H-M   'P 1'
_cell_length_a   9.89753000
_cell_length_b   10.42189600
_cell_length_c   14.67865000
_cell_angle_alpha   90.00000000
_cell_angle_beta   90.00000000
_cell_angle_gamma   90.00000000
_symmetry_Int_Tables_number   1
_chemical_formula_structural   YbCu(MoO4)2
_chemical_formula_sum   'Yb8 Cu8 Mo16 O64'
_cell_volume   1514.11784180
_cell_formula_units_Z   8
loop_
 _symmetry_equiv_pos_site_id
 _symmetry_equiv_pos_as_xyz
  1  'x, y, z'
loop_
 _atom_site_type_symbol
 _atom_site_label
 _atom_site_symmetry_multiplicity
 _atom_site_fract_x
 _atom_site_fract_y
 _atom_site_fract_z
 _atom_site_occupancy
  Yb  Yb0  1  0.27596000  0.46849400  0.89640800  1
  Yb  Yb1  1  0.22404000  0.46849400  0.39640800  1
  Yb  Yb2  1  0.72404000  0.53150600  0.10359200  1
  Yb  Yb3  1  0.72404000  0.03150600  0.39640800  1
  Yb  Yb4  1  0.77596000  0.03150600  0.89640800  1
  Yb  Yb5  1  0.27596000  0.96849400  0.60359200  1
  Yb  Yb6  1  0.77596000  0.53150600  0.60359200  1
  Yb  Yb7  1  0.22404000  0.96849400  0.10359200  1
  Cu  Cu8  1  0.30923700  0.31663700  0.70227400  1
  Cu  Cu9  1  0.69076300  0.68336300  0.29772600  1
  Cu  Cu10  1  0.80923700  0.18336300  0.70227400  1
  Cu  Cu11  1  0.19076300  0.31663700  0.20227400  1
  Cu  Cu12  1  0.80923700  0.68336300  0.79772600  1
  Cu  Cu13  1  0.19076300  0.81663700  0.29772600  1
  Cu  Cu14  1  0.30923700  0.81663700  0.79772600  1
  Cu  Cu15  1  0.69076300  0.18336300  0.20227400  1
  Mo  Mo16  1  0.33256700  0.10512900  0.34445400  1
  Mo  Mo17  1  0.50388900  0.27861800  0.55434200  1
  Mo  Mo18  1  0.49611100  0.72138200  0.44565800  1
  Mo  Mo19  1  0.66743300  0.89487100  0.65554600  1
  Mo  Mo20  1  0.00388900  0.22138200  0.55434200  1
  Mo  Mo21  1  0.50388900  0.77861800  0.94565800  1
  Mo  Mo22  1  0.16743300  0.60512900  0.65554600  1
  Mo  Mo23  1  0.00388900  0.72138200  0.94565800  1
  Mo  Mo24  1  0.83256700  0.89487100  0.15554600  1
  Mo  Mo25  1  0.99611100  0.77861800  0.44565800  1
  Mo  Mo26  1  0.99611100  0.27861800  0.05434200  1
  Mo  Mo27  1  0.49611100  0.22138200  0.05434200  1
  Mo  Mo28  1  0.16743300  0.10512900  0.84445400  1
  Mo  Mo29  1  0.33256700  0.60512900  0.15554600  1
  Mo  Mo30  1  0.66743300  0.39487100  0.84445400  1
  Mo  Mo31  1  0.83256700  0.39487100  0.34445400  1
  O  O32  1  0.38717800  0.18722400  0.63292400  1
  O  O33  1  0.11279700  0.32812300  0.49681800  1
  O  O34  1  0.88720300  0.67187700  0.50318200  1
  O  O35  1  0.90821200  0.62867700  0.02359200  1
  O  O36  1  0.79602400  0.42220000  0.45979800  1
  O  O37  1  0.77150400  0.23295100  0.31428600  1
  O  O38  1  0.09998500  0.11790000  0.62653400  1
  O  O39  1  0.27150400  0.76704900  0.18571400  1
  O  O40  1  0.75604600  0.01500200  0.72517400  1
  O  O41  1  0.59998500  0.38210000  0.62653400  1
  O  O42  1  0.50844000  0.09044800  0.32975300  1
  O  O43  1  0.61282200  0.31277600  0.13292400  1
  O  O44  1  0.09178800  0.87132300  0.52359200  1
  O  O45  1  0.74395400  0.51500200  0.27482600  1
  O  O46  1  0.49156000  0.90955200  0.67024700  1
  O  O47  1  0.50844000  0.59044800  0.17024700  1
  O  O48  1  0.79602400  0.92220000  0.04020200  1
  O  O49  1  0.29602400  0.07780000  0.45979800  1
  O  O50  1  0.61279700  0.67187700  0.00318200  1
  O  O51  1  0.00844000  0.40955200  0.32975300  1
  O  O52  1  0.22849600  0.26704900  0.81428600  1
  O  O53  1  0.77150400  0.73295100  0.18571400  1
  O  O54  1  0.90821200  0.12867700  0.47640800  1
  O  O55  1  0.88717800  0.31277600  0.63292400  1
  O  O56  1  0.38720300  0.32812300  0.99681800  1
  O  O57  1  0.25604600  0.48499800  0.72517400  1
  O  O58  1  0.72849600  0.73295100  0.68571400  1
  O  O59  1  0.75604600  0.51500200  0.77482600  1
  O  O60  1  0.40821200  0.87132300  0.02359200  1
  O  O61  1  0.25604600  0.98499800  0.77482600  1
  O  O62  1  0.40821200  0.37132300  0.47640800  1
  O  O63  1  0.29602400  0.57780000  0.04020200  1
  O  O64  1  0.20397600  0.07780000  0.95979800  1
  O  O65  1  0.38717800  0.68722400  0.86707600  1
  O  O66  1  0.24395400  0.48499800  0.22517400  1
  O  O67  1  0.38720300  0.82812300  0.50318200  1
  O  O68  1  0.49156000  0.40955200  0.82975300  1
  O  O69  1  0.88720300  0.17187700  0.99681800  1
  O  O70  1  0.72849600  0.23295100  0.81428600  1
  O  O71  1  0.27150400  0.26704900  0.31428600  1
  O  O72  1  0.99156000  0.59044800  0.67024700  1
  O  O73  1  0.90001500  0.38210000  0.12653400  1
  O  O74  1  0.11282200  0.18722400  0.13292400  1
  O  O75  1  0.59178800  0.62867700  0.52359200  1
  O  O76  1  0.90001500  0.88210000  0.37346600  1
  O  O77  1  0.09998500  0.61790000  0.87346600  1
  O  O78  1  0.11279700  0.82812300  0.00318200  1
  O  O79  1  0.70397600  0.92220000  0.54020200  1
  O  O80  1  0.20397600  0.57780000  0.54020200  1
  O  O81  1  0.40001500  0.11790000  0.12653400  1
  O  O82  1  0.40001500  0.61790000  0.37346600  1
  O  O83  1  0.59178800  0.12867700  0.97640800  1
  O  O84  1  0.88717800  0.81277600  0.86707600  1
  O  O85  1  0.59998500  0.88210000  0.87346600  1
  O  O86  1  0.09178800  0.37132300  0.97640800  1
  O  O87  1  0.70397600  0.42220000  0.95979800  1
  O  O88  1  0.74395400  0.01500200  0.22517400  1
  O  O89  1  0.24395400  0.98499800  0.27482600  1
  O  O90  1  0.99156000  0.09044800  0.82975300  1
  O  O91  1  0.00844000  0.90955200  0.17024700  1
  O  O92  1  0.61282200  0.81277600  0.36707600  1
  O  O93  1  0.61279700  0.17187700  0.49681800  1
  O  O94  1  0.22849600  0.76704900  0.68571400  1
  O  O95  1  0.11282200  0.68722400  0.36707600  1
