# generated using pymatgen
data_Na3Sr14Nd3Ti20O60
_symmetry_space_group_name_H-M   'P 1'
_cell_length_a   5.53353707
_cell_length_b   5.53353707
_cell_length_c   39.48486100
_cell_angle_alpha   90.00000000
_cell_angle_beta   90.00000000
_cell_angle_gamma   90.02449801
_symmetry_Int_Tables_number   1
_chemical_formula_structural   Na3Sr14Nd3Ti20O60
_chemical_formula_sum   'Na3 Sr14 Nd3 Ti20 O60'
_cell_volume   1209.02761878
_cell_formula_units_Z   1
loop_
 _symmetry_equiv_pos_site_id
 _symmetry_equiv_pos_as_xyz
  1  'x, y, z'
loop_
 _atom_site_type_symbol
 _atom_site_label
 _atom_site_symmetry_multiplicity
 _atom_site_fract_x
 _atom_site_fract_y
 _atom_site_fract_z
 _atom_site_occupancy
  Na  Na0  1  0.50000000  0.50000000  0.05168900  1
  Na  Na1  1  0.00000000  0.00000000  0.14971300  1
  Na  Na2  1  0.50000000  0.50000000  0.24700700  1
  Sr  Sr3  1  0.00000000  0.00000000  0.24820100  1
  Sr  Sr4  1  0.50000000  0.50000000  0.34836100  1
  Sr  Sr5  1  0.00000000  0.00000000  0.45007800  1
  Sr  Sr6  1  0.50000000  0.50000000  0.55021600  1
  Sr  Sr7  1  0.50000000  0.50000000  0.45056900  1
  Sr  Sr8  1  0.00000000  0.00000000  0.65034200  1
  Sr  Sr9  1  0.00000000  0.00000000  0.55014100  1
  Sr  Sr10  1  0.50000000  0.50000000  0.75053600  1
  Sr  Sr11  1  0.50000000  0.50000000  0.65034300  1
  Sr  Sr12  1  0.00000000  0.00000000  0.85086600  1
  Sr  Sr13  1  0.00000000  0.00000000  0.75052200  1
  Sr  Sr14  1  0.50000000  0.50000000  0.95146400  1
  Sr  Sr15  1  0.50000000  0.50000000  0.85093200  1
  Sr  Sr16  1  0.00000000  0.00000000  0.95124500  1
  Nd  Nd17  1  0.00000000  0.00000000  0.05074800  1
  Nd  Nd18  1  0.50000000  0.50000000  0.15139000  1
  Nd  Nd19  1  0.00000000  0.00000000  0.34791600  1
  Ti  Ti20  1  0.00000000  0.50000000  0.19929900  1
  Ti  Ti21  1  0.00000000  0.50000000  0.10105700  1
  Ti  Ti22  1  0.50000000  0.00000000  0.29749400  1
  Ti  Ti23  1  0.50000000  0.00000000  0.19929900  1
  Ti  Ti24  1  0.50000000  0.00000000  0.10105700  1
  Ti  Ti25  1  0.00000000  0.50000000  0.39949600  1
  Ti  Ti26  1  0.00000000  0.50000000  0.29749400  1
  Ti  Ti27  1  0.50000000  0.00000000  0.50037600  1
  Ti  Ti28  1  0.50000000  0.00000000  0.39949600  1
  Ti  Ti29  1  0.00000000  0.50000000  0.60075200  1
  Ti  Ti30  1  0.00000000  0.50000000  0.50037600  1
  Ti  Ti31  1  0.50000000  0.00000000  0.70092300  1
  Ti  Ti32  1  0.50000000  0.00000000  0.60075200  1
  Ti  Ti33  1  0.00000000  0.50000000  0.80122300  1
  Ti  Ti34  1  0.00000000  0.50000000  0.70092300  1
  Ti  Ti35  1  0.50000000  0.00000000  0.90175500  1
  Ti  Ti36  1  0.50000000  0.00000000  0.80122300  1
  Ti  Ti37  1  0.00000000  0.50000000  0.00253800  1
  Ti  Ti38  1  0.00000000  0.50000000  0.90175500  1
  Ti  Ti39  1  0.50000000  0.00000000  0.00253800  1
  O  O40  1  0.50000000  0.00000000  0.05064200  1
  O  O41  1  0.80270600  0.19729400  0.09798700  1
  O  O42  1  0.30307600  0.30307600  0.10203800  1
  O  O43  1  0.00000000  0.50000000  0.14931400  1
  O  O44  1  0.00000000  0.50000000  0.05064200  1
  O  O45  1  0.28645100  0.71354900  0.19757300  1
  O  O46  1  0.69692400  0.69692400  0.10203800  1
  O  O47  1  0.77820300  0.77820300  0.19854800  1
  O  O48  1  0.19729400  0.80270600  0.09798700  1
  O  O49  1  0.50000000  0.00000000  0.24967900  1
  O  O50  1  0.50000000  0.00000000  0.14931400  1
  O  O51  1  0.78337600  0.21662400  0.30194600  1
  O  O52  1  0.22179700  0.22179700  0.19854800  1
  O  O53  1  0.26921800  0.26921800  0.30103800  1
  O  O54  1  0.71354900  0.28645100  0.19757300  1
  O  O55  1  0.00000000  0.50000000  0.34982300  1
  O  O56  1  0.00000000  0.50000000  0.24967900  1
  O  O57  1  0.28417800  0.71582200  0.39927000  1
  O  O58  1  0.73078200  0.73078200  0.30103800  1
  O  O59  1  0.79198200  0.79198200  0.39740400  1
  O  O60  1  0.21662400  0.78337600  0.30194600  1
  O  O61  1  0.50000000  0.00000000  0.44883300  1
  O  O62  1  0.50000000  0.00000000  0.34982300  1
  O  O63  1  0.77081500  0.22918500  0.49931800  1
  O  O64  1  0.20801800  0.20801800  0.39740400  1
  O  O65  1  0.27092600  0.27092600  0.49920200  1
  O  O66  1  0.71582200  0.28417800  0.39927000  1
  O  O67  1  0.00000000  0.50000000  0.54922100  1
  O  O68  1  0.00000000  0.50000000  0.44883300  1
  O  O69  1  0.27075900  0.72924100  0.59950200  1
  O  O70  1  0.72907400  0.72907400  0.49920200  1
  O  O71  1  0.77072200  0.77072200  0.59948100  1
  O  O72  1  0.22918500  0.77081500  0.49931800  1
  O  O73  1  0.50000000  0.00000000  0.64949800  1
  O  O74  1  0.50000000  0.00000000  0.54922100  1
  O  O75  1  0.77084700  0.22915300  0.69967500  1
  O  O76  1  0.22927800  0.22927800  0.59948100  1
  O  O77  1  0.27082500  0.27082500  0.69968000  1
  O  O78  1  0.72924100  0.27075900  0.59950200  1
  O  O79  1  0.00000000  0.50000000  0.74973200  1
  O  O80  1  0.00000000  0.50000000  0.64949800  1
  O  O81  1  0.27088400  0.72911600  0.79987800  1
  O  O82  1  0.72917500  0.72917500  0.69968000  1
  O  O83  1  0.77086300  0.77086300  0.79990600  1
  O  O84  1  0.22915300  0.77084700  0.69967500  1
  O  O85  1  0.50000000  0.00000000  0.85008900  1
  O  O86  1  0.50000000  0.00000000  0.74973200  1
  O  O87  1  0.77119300  0.22880700  0.90026300  1
  O  O88  1  0.22913700  0.22913700  0.79990600  1
  O  O89  1  0.27134100  0.27134100  0.90059700  1
  O  O90  1  0.72911600  0.27088400  0.79987800  1
  O  O91  1  0.00000000  0.50000000  0.95073200  1
  O  O92  1  0.00000000  0.50000000  0.85008900  1
  O  O93  1  0.27895800  0.72104200  0.00052900  1
  O  O94  1  0.72865900  0.72865900  0.90059700  1
  O  O95  1  0.79123500  0.79123500  0.00253800  1
  O  O96  1  0.22880700  0.77119300  0.90026300  1
  O  O97  1  0.50000000  0.00000000  0.95073200  1
  O  O98  1  0.20876500  0.20876500  0.00253800  1
  O  O99  1  0.72104200  0.27895800  0.00052900  1
