# generated using pymatgen
data_Na3AlH10C6O17
_symmetry_space_group_name_H-M   'P 1'
_cell_length_a   10.72412878
_cell_length_b   10.72412878
_cell_length_c   15.36576845
_cell_angle_alpha   82.19199820
_cell_angle_beta   82.19199820
_cell_angle_gamma   71.73402274
_symmetry_Int_Tables_number   1
_chemical_formula_structural   Na3AlH10C6O17
_chemical_formula_sum   'Na12 Al4 H40 C24 O68'
_cell_volume   1654.37633892
_cell_formula_units_Z   4
loop_
 _symmetry_equiv_pos_site_id
 _symmetry_equiv_pos_as_xyz
  1  'x, y, z'
loop_
 _atom_site_type_symbol
 _atom_site_label
 _atom_site_symmetry_multiplicity
 _atom_site_fract_x
 _atom_site_fract_y
 _atom_site_fract_z
 _atom_site_occupancy
  Na  Na0  1  0.49267500  0.50732500  0.75000000  1
  Na  Na1  1  0.50732500  0.49267500  0.25000000  1
  Na  Na2  1  0.76909000  0.23091000  0.75000000  1
  Na  Na3  1  0.23091000  0.76909000  0.25000000  1
  Na  Na4  1  0.16036700  0.92812900  0.99923200  1
  Na  Na5  1  0.07187100  0.83963300  0.50076800  1
  Na  Na6  1  0.83963300  0.07187100  0.00076800  1
  Na  Na7  1  0.92812900  0.16036700  0.49923200  1
  Na  Na8  1  0.49251500  0.74190500  0.98729400  1
  Na  Na9  1  0.25809500  0.50748500  0.51270600  1
  Na  Na10  1  0.50748500  0.25809500  0.01270600  1
  Na  Na11  1  0.74190500  0.49251500  0.48729400  1
  Al  Al12  1  0.32187500  0.06273700  0.76923200  1
  Al  Al13  1  0.93726300  0.67812500  0.73076800  1
  Al  Al14  1  0.67812500  0.93726300  0.23076800  1
  Al  Al15  1  0.06273700  0.32187500  0.26923200  1
  H  H16  1  0.72815200  0.35779200  0.94415700  1
  H  H17  1  0.64220800  0.27184800  0.55584300  1
  H  H18  1  0.27184800  0.64220800  0.05584300  1
  H  H19  1  0.35779200  0.72815200  0.44415700  1
  H  H20  1  0.72103700  0.35036400  0.04920700  1
  H  H21  1  0.64963600  0.27896300  0.45079300  1
  H  H22  1  0.27896300  0.64963600  0.95079300  1
  H  H23  1  0.35036400  0.72103700  0.54920700  1
  H  H24  1  0.99256200  0.18866900  0.09359700  1
  H  H25  1  0.81133100  0.00743800  0.40640300  1
  H  H26  1  0.00743800  0.81133100  0.90640300  1
  H  H27  1  0.18866900  0.99256200  0.59359700  1
  H  H28  1  0.02408900  0.22850600  0.99477400  1
  H  H29  1  0.77149400  0.97591100  0.50522600  1
  H  H30  1  0.97591100  0.77149400  0.00522600  1
  H  H31  1  0.22850600  0.02408900  0.49477400  1
  H  H32  1  0.34479900  0.98379600  0.08379400  1
  H  H33  1  0.01620400  0.65520100  0.41620600  1
  H  H34  1  0.65520100  0.01620400  0.91620600  1
  H  H35  1  0.98379600  0.34479900  0.58379400  1
  H  H36  1  0.38164900  0.04259700  0.98824800  1
  H  H37  1  0.95740300  0.61835100  0.51175200  1
  H  H38  1  0.61835100  0.95740300  0.01175200  1
  H  H39  1  0.04259700  0.38164900  0.48824800  1
  H  H40  1  0.21294800  0.32532200  0.99915800  1
  H  H41  1  0.67467800  0.78705200  0.50084200  1
  H  H42  1  0.78705200  0.67467800  0.00084200  1
  H  H43  1  0.32532200  0.21294800  0.49915800  1
  H  H44  1  0.25302800  0.26406900  0.09380000  1
  H  H45  1  0.73593100  0.74697200  0.40620000  1
  H  H46  1  0.74697200  0.73593100  0.90620000  1
  H  H47  1  0.26406900  0.25302800  0.59380000  1
  H  H48  1  0.00272300  0.43681100  0.89492200  1
  H  H49  1  0.56318900  0.99727700  0.60507800  1
  H  H50  1  0.99727700  0.56318900  0.10507800  1
  H  H51  1  0.43681100  0.00272300  0.39492200  1
  H  H52  1  0.12896600  0.31591900  0.87898700  1
  H  H53  1  0.68408100  0.87103400  0.62101300  1
  H  H54  1  0.87103400  0.68408100  0.12101300  1
  H  H55  1  0.31591900  0.12896600  0.37898700  1
  C  C56  1  0.44497500  0.23043600  0.81216700  1
  C  C57  1  0.76956400  0.55502500  0.68783300  1
  C  C58  1  0.55502500  0.76956400  0.18783300  1
  C  C59  1  0.23043600  0.44497500  0.31216700  1
  C  C60  1  0.50047200  0.19961200  0.71613800  1
  C  C61  1  0.80038800  0.49952800  0.78386200  1
  C  C62  1  0.49952800  0.80038800  0.28386200  1
  C  C63  1  0.19961200  0.50047200  0.21613800  1
  C  C64  1  0.38563800  0.82233400  0.70480900  1
  C  C65  1  0.17766600  0.61436200  0.79519100  1
  C  C66  1  0.61436200  0.17766600  0.29519100  1
  C  C67  1  0.82233400  0.38563800  0.20480900  1
  C  C68  1  0.45307900  0.80129500  0.79105100  1
  C  C69  1  0.19870500  0.54692100  0.70894900  1
  C  C70  1  0.54692100  0.19870500  0.20894900  1
  C  C71  1  0.80129500  0.45307900  0.29105100  1
  C  C72  1  0.07301400  0.20904400  0.73149200  1
  C  C73  1  0.79095600  0.92698600  0.76850800  1
  C  C74  1  0.92698600  0.79095600  0.26850800  1
  C  C75  1  0.20904400  0.07301400  0.23149200  1
  C  C76  1  0.05496800  0.11782700  0.81636200  1
  C  C77  1  0.88217300  0.94503200  0.68363800  1
  C  C78  1  0.94503200  0.88217300  0.18363800  1
  C  C79  1  0.11782700  0.05496800  0.31636200  1
  O  O80  1  0.35422300  0.17493800  0.84393200  1
  O  O81  1  0.82506200  0.64577700  0.65606800  1
  O  O82  1  0.64577700  0.82506200  0.15606800  1
  O  O83  1  0.17493800  0.35422300  0.34393200  1
  O  O84  1  0.45896600  0.11088600  0.68982500  1
  O  O85  1  0.88911400  0.54103400  0.81017500  1
  O  O86  1  0.54103400  0.88911400  0.31017500  1
  O  O87  1  0.11088600  0.45896600  0.18982500  1
  O  O88  1  0.48921000  0.29914900  0.85083800  1
  O  O89  1  0.70085100  0.51079000  0.64916200  1
  O  O90  1  0.51079000  0.70085100  0.14916200  1
  O  O91  1  0.29914900  0.48921000  0.35083800  1
  O  O92  1  0.57807100  0.25580200  0.67331300  1
  O  O93  1  0.74419800  0.42192900  0.82668700  1
  O  O94  1  0.42192900  0.74419800  0.32668700  1
  O  O95  1  0.25580200  0.57807100  0.17331300  1
  O  O96  1  0.31249700  0.94343100  0.68847200  1
  O  O97  1  0.05656900  0.68750300  0.81152800  1
  O  O98  1  0.68750300  0.05656900  0.31152800  1
  O  O99  1  0.94343100  0.31249700  0.18847200  1
  O  O100  1  0.43114400  0.90993200  0.82730000  1
  O  O101  1  0.09006800  0.56885600  0.67270000  1
  O  O102  1  0.56885600  0.09006800  0.17270000  1
  O  O103  1  0.90993200  0.43114400  0.32730000  1
  O  O104  1  0.40224800  0.72899700  0.66029600  1
  O  O105  1  0.27100300  0.59775200  0.83970400  1
  O  O106  1  0.59775200  0.27100300  0.33970400  1
  O  O107  1  0.72899700  0.40224800  0.16029600  1
  O  O108  1  0.51769100  0.69024600  0.82121000  1
  O  O109  1  0.30975400  0.48230900  0.67879000  1
  O  O110  1  0.48230900  0.30975400  0.17879000  1
  O  O111  1  0.69024600  0.51769100  0.32121000  1
  O  O112  1  0.19541500  0.20152800  0.70740600  1
  O  O113  1  0.79847200  0.80458500  0.79259400  1
  O  O114  1  0.80458500  0.79847200  0.29259400  1
  O  O115  1  0.20152800  0.19541500  0.20740600  1
  O  O116  1  0.16684300  0.04655800  0.84501600  1
  O  O117  1  0.95344200  0.83315700  0.65498400  1
  O  O118  1  0.83315700  0.95344200  0.15498400  1
  O  O119  1  0.04655800  0.16684300  0.34501600  1
  O  O120  1  0.97604200  0.28023700  0.69430000  1
  O  O121  1  0.71976300  0.02395800  0.80570000  1
  O  O122  1  0.02395800  0.71976300  0.30570000  1
  O  O123  1  0.28023700  0.97604300  0.19430000  1
  O  O124  1  0.94299300  0.11932200  0.85025600  1
  O  O125  1  0.88067800  0.05700700  0.64974400  1
  O  O126  1  0.05700700  0.88067800  0.14974400  1
  O  O127  1  0.11932200  0.94299300  0.35025600  1
  O  O128  1  0.70410300  0.30929600  0.00007400  1
  O  O129  1  0.69070400  0.29589700  0.49992600  1
  O  O130  1  0.29589700  0.69070400  0.99992600  1
  O  O131  1  0.30929600  0.70410300  0.50007400  1
  O  O132  1  0.01923000  0.15109900  0.03662900  1
  O  O133  1  0.84890100  0.98077000  0.46337100  1
  O  O134  1  0.98077000  0.84890100  0.96337100  1
  O  O135  1  0.15109900  0.01923000  0.53662900  1
  O  O136  1  0.37071300  0.96189000  0.02188200  1
  O  O137  1  0.03811000  0.62928700  0.47811800  1
  O  O138  1  0.62928700  0.03811000  0.97811800  1
  O  O139  1  0.96189000  0.37071300  0.52188200  1
  O  O140  1  0.28889900  0.28299900  0.03296700  1
  O  O141  1  0.71700100  0.71110100  0.46703300  1
  O  O142  1  0.71110100  0.71700100  0.96703300  1
  O  O143  1  0.28299900  0.28889900  0.53296700  1
  O  O144  1  0.07149300  0.36602200  0.92514300  1
  O  O145  1  0.63397800  0.92850700  0.57485700  1
  O  O146  1  0.92850700  0.63397800  0.07485700  1
  O  O147  1  0.36602200  0.07149300  0.42514300  1
