data_image0
_chemical_formula_structural       Ag2KPS4
_chemical_formula_sum              "Ag2 K1 P1 S4"
_cell_length_a       6.28082
_cell_length_b       6.28082
_cell_length_c       6.28082
_cell_angle_alpha    115.955
_cell_angle_beta     97.1623
_cell_angle_gamma    115.955

_space_group_name_H-M_alt    "P 1"
_space_group_IT_number       1

loop_
  _space_group_symop_operation_xyz
  'x, y, z'

loop_
  _atom_site_type_symbol
  _atom_site_label
  _atom_site_symmetry_multiplicity
  _atom_site_fract_x
  _atom_site_fract_y
  _atom_site_fract_z
  _atom_site_occupancy
  Ag  Ag1       1.0  0.75000  0.50000  0.25000  1.0000
  Ag  Ag2       1.0  0.25000  0.50000  0.75000  1.0000
  K   K1        1.0  0.50000  0.00000  0.50000  1.0000
  P   P1        1.0  0.00000  0.00000  0.00000  1.0000
  S   S1        1.0  0.67900  0.00000  0.04100  1.0000
  S   S2        1.0  0.32100  0.36200  0.32100  1.0000
  S   S3        1.0  0.04100  0.00000  0.67900  1.0000
  S   S4        1.0  0.95900  0.63800  0.95900  1.0000
