# generated using pymatgen
data_K3VH6C4O13
_symmetry_space_group_name_H-M   'P 1'
_cell_length_a   7.89324700
_cell_length_b   7.93837591
_cell_length_c   11.71266895
_cell_angle_alpha   91.11404033
_cell_angle_beta   94.40202344
_cell_angle_gamma   110.19034933
_symmetry_Int_Tables_number   1
_chemical_formula_structural   K3VH6C4O13
_chemical_formula_sum   'K6 V2 H12 C8 O26'
_cell_volume   685.95292051
_cell_formula_units_Z   2
loop_
 _symmetry_equiv_pos_site_id
 _symmetry_equiv_pos_as_xyz
  1  'x, y, z'
loop_
 _atom_site_type_symbol
 _atom_site_label
 _atom_site_symmetry_multiplicity
 _atom_site_fract_x
 _atom_site_fract_y
 _atom_site_fract_z
 _atom_site_occupancy
  K  K0  1  0.43122600  0.72524100  0.51995900  1
  K  K1  1  0.56877400  0.27475900  0.48004100  1
  K  K2  1  0.84227400  0.73114600  0.77087700  1
  K  K3  1  0.15772600  0.26885400  0.22912300  1
  K  K4  1  0.41183800  0.96776500  0.82673300  1
  K  K5  1  0.58816200  0.03223500  0.17326700  1
  V  V6  1  0.84434400  0.18599700  0.70652500  1
  V  V7  1  0.15565600  0.81400300  0.29347500  1
  H  H8  1  0.09538500  0.66667600  0.60673100  1
  H  H9  1  0.90461500  0.33332400  0.39326900  1
  H  H10  1  0.12572300  0.57112000  0.71747800  1
  H  H11  1  0.87427700  0.42888000  0.28252200  1
  H  H12  1  0.37837700  0.49947200  0.78802500  1
  H  H13  1  0.62162300  0.50052800  0.21197500  1
  H  H14  1  0.52227600  0.42612200  0.74244500  1
  H  H15  1  0.47772400  0.57387800  0.25755500  1
  H  H16  1  0.59391800  0.71669700  0.98628100  1
  H  H17  1  0.40608200  0.28330300  0.01371900  1
  H  H18  1  0.39085900  0.63367400  0.00882400  1
  H  H19  1  0.60914100  0.36632600  0.99117600  1
  C  C20  1  0.91604900  0.16960800  0.95252700  1
  C  C21  1  0.08395100  0.83039200  0.04747300  1
  C  C22  1  0.08720300  0.32829000  0.92466400  1
  C  C23  1  0.91279700  0.67171000  0.07533600  1
  C  C24  1  0.12942700  0.26688700  0.55085100  1
  C  C25  1  0.87057300  0.73311300  0.44914900  1
  C  C26  1  0.17334300  0.13071600  0.63035600  1
  C  C27  1  0.82665700  0.86928400  0.36964400  1
  O  O28  1  0.68116900  0.00392600  0.64724500  1
  O  O29  1  0.31883100  0.99607400  0.35275500  1
  O  O30  1  0.74803700  0.34382300  0.71529300  1
  O  O31  1  0.25196300  0.65617700  0.28470700  1
  O  O32  1  0.80820800  0.08712200  0.86346200  1
  O  O33  1  0.19179200  0.91287800  0.13653800  1
  O  O34  1  0.08731200  0.36912700  0.81952200  1
  O  O35  1  0.91268800  0.63087300  0.18047800  1
  O  O36  1  0.88928700  0.12822400  0.05291200  1
  O  O37  1  0.11071300  0.87177600  0.94708800  1
  O  O38  1  0.20973200  0.40125400  0.00382300  1
  O  O39  1  0.79026800  0.59874600  0.99617700  1
  O  O40  1  0.98020200  0.29532100  0.57009400  1
  O  O41  1  0.01979800  0.70467900  0.42990600  1
  O  O42  1  0.05041200  0.06170800  0.69887000  1
  O  O43  1  0.94958800  0.93829200  0.30113000  1
  O  O44  1  0.22901400  0.34094900  0.47579600  1
  O  O45  1  0.77098600  0.65905100  0.52420400  1
  O  O46  1  0.31665400  0.09947300  0.62390700  1
  O  O47  1  0.68334600  0.90052700  0.37609300  1
  O  O48  1  0.16182800  0.68846900  0.68289700  1
  O  O49  1  0.83817200  0.31153100  0.31710300  1
  O  O50  1  0.47491200  0.52502500  0.73620400  1
  O  O51  1  0.52508800  0.47497500  0.26379600  1
  O  O52  1  0.48898400  0.74976300  0.00218100  1
  O  O53  1  0.51101600  0.25023700  0.99781900  1
