# generated using pymatgen
data_Nd4Mo31O56
_symmetry_space_group_name_H-M   'P 1'
_cell_length_a   16.52592353
_cell_length_b   10.77278470
_cell_length_c   12.46970275
_cell_angle_alpha   64.69482278
_cell_angle_beta   49.01588714
_cell_angle_gamma   49.47044585
_symmetry_Int_Tables_number   1
_chemical_formula_structural   Nd4Mo31O56
_chemical_formula_sum   'Nd4 Mo31 O56'
_cell_volume   1273.75940898
_cell_formula_units_Z   1
loop_
 _symmetry_equiv_pos_site_id
 _symmetry_equiv_pos_as_xyz
  1  'x, y, z'
loop_
 _atom_site_type_symbol
 _atom_site_label
 _atom_site_symmetry_multiplicity
 _atom_site_fract_x
 _atom_site_fract_y
 _atom_site_fract_z
 _atom_site_occupancy
  Nd  Nd0  1  0.30089479  0.98047375  0.49502879  1
  Nd  Nd1  1  0.55377480  0.47352489  0.98892274  1
  Nd  Nd2  1  0.79876113  0.98070567  0.50774778  1
  Nd  Nd3  1  0.03291781  0.44340380  0.01445428  1
  Mo  Mo4  1  0.00719999  0.01074522  0.14116191  1
  Mo  Mo5  1  0.02478756  0.11735664  0.37243083  1
  Mo  Mo6  1  0.25068177  0.24674484  0.14755481  1
  Mo  Mo7  1  0.14131785  0.62176279  0.13220597  1
  Mo  Mo8  1  0.01520739  0.22966679  0.87142820  1
  Mo  Mo9  1  0.50235257  0.00828395  0.14377905  1
  Mo  Mo10  1  0.00197961  0.59978380  0.65178324  1
  Mo  Mo11  1  0.25566094  0.37359732  0.37527244  1
  Mo  Mo12  1  0.15549857  0.73913865  0.35376728  1
  Mo  Mo13  1  0.25607358  0.33351004  0.64480000  1
  Mo  Mo14  1  0.52646917  0.11976851  0.37124614  1
  Mo  Mo15  1  0.13022005  0.73590155  0.62807528  1
  Mo  Mo16  1  0.41009959  0.50576694  0.34876868  1
  Mo  Mo17  1  0.38599318  0.86544165  0.13361078  1
  Mo  Mo18  1  0.40050341  0.09905883  0.85662619  1
  Mo  Mo19  1  0.39045290  0.45916680  0.63556942  1
  Mo  Mo20  1  0.75625090  0.25824694  0.14037199  1
  Mo  Mo21  1  0.15155161  0.83410008  0.85557827  1
  Mo  Mo22  1  0.51046197  0.23813562  0.87518920  1
  Mo  Mo23  1  0.50635983  0.59928073  0.64214361  1
  Mo  Mo24  1  0.27789637  0.95833198  0.86935282  1
  Mo  Mo25  1  0.76536651  0.36889512  0.36892472  1
  Mo  Mo26  1  0.65692827  0.74237382  0.33718866  1
  Mo  Mo27  1  0.75473082  0.33316657  0.64468928  1
  Mo  Mo28  1  0.63511477  0.74068362  0.62147766  1
  Mo  Mo29  1  0.89840623  0.51002553  0.35774097  1
  Mo  Mo30  1  0.88332325  0.87482421  0.12999407  1
  Mo  Mo31  1  0.90534767  0.09466031  0.85182173  1
  Mo  Mo32  1  0.89364126  0.45717725  0.63233937  1
  Mo  Mo33  1  0.64972343  0.81706795  0.86957556  1
  Mo  Mo34  1  0.76979675  0.96347923  0.87446795  1
  O  O35  1  0.08234358  0.16611829  0.99099121  1
  O  O36  1  0.22144399  0.27662466  -0.00006364  1
  O  O37  1  0.20741191  0.07555609  0.24236890  1
  O  O38  1  0.07992205  0.45796224  0.24890954  1
  O  O39  1  0.31657388  0.39290363  0.03415182  1
  O  O40  1  0.07549574  0.42610299  0.53239781  1
  O  O41  1  0.30370898  0.18884160  0.28974212  1
  O  O42  1  0.18818166  0.81306864  0.00079567  1
  O  O43  1  0.20120525  0.01554894  0.74720414  1
  O  O44  1  0.20812937  0.56168888  0.25547882  1
  O  O45  1  0.05912842  0.40962634  0.78679513  1
  O  O46  1  0.07291759  0.95455798  0.26093320  1
  O  O47  1  0.32818554  0.17992710  0.49404874  1
  O  O48  1  0.57819120  0.16168481  0.00180601  1
  O  O49  1  0.43567694  0.34328900  0.26781903  1
  O  O50  1  0.09889445  0.89299038  0.48290954  1
  O  O51  1  0.33682550  0.12521533  0.74758420  1
  O  O52  1  0.35362378  0.67738618  0.20658701  1
  O  O53  1  0.19492881  0.51877755  0.74833713  1
  O  O54  1  0.73344722  0.27676338  0.99137109  1
  O  O55  1  0.43839747  0.31283506  0.49883191  1
  O  O56  1  0.09102249  0.90881697  0.71826600  1
  O  O57  1  0.06749800  0.69390472  0.00641167  1
  O  O58  1  0.71115834  0.08112877  0.24292162  1
  O  O59  1  0.32094095  0.65025814  0.50270901  1
  O  O60  1  0.57666783  0.46135895  0.21809059  1
  O  O61  1  0.45355674  0.25727329  0.75468634  1
  O  O62  1  0.41617479  0.86830639  0.26211899  1
  O  O63  1  0.33318636  0.63227105  0.74577069  1
  O  O64  1  0.84495498  0.37627625  0.02137049  1
  O  O65  1  0.57118921  0.43261724  0.53218796  1
  O  O66  1  0.80857533  0.18871643  0.28214553  1
  O  O67  1  0.47693218  0.77644854  0.49663525  1
  O  O68  1  0.68077242  0.82706064  0.99266222  1
  O  O69  1  0.69734783  0.00367069  0.75534615  1
  O  O70  1  0.74496916  0.56402836  0.23223148  1
  O  O71  1  0.55622511  0.41879901  0.78742142  1
  O  O72  1  0.57252584  0.96041163  0.25763952  1
  O  O73  1  0.82784015  0.17183292  0.50223276  1
  O  O74  1  0.46610121  0.75578143  0.74597169  1
  O  O75  1  0.95514642  0.32999039  0.24994266  1
  O  O76  1  0.60969528  0.88737680  0.46926306  1
  O  O77  1  0.34571376  0.93857314  0.97908990  1
  O  O78  1  0.82634707  0.13334073  0.75803885  1
  O  O79  1  0.85184408  0.68722762  0.20767360  1
  O  O80  1  0.69850014  0.51775638  0.74640002  1
  O  O81  1  0.93586055  0.31129247  0.50193751  1
  O  O82  1  0.59160429  0.90629663  0.72863414  1
  O  O83  1  0.56281560  0.69386445  0.98607861  1
  O  O84  1  0.82030711  0.66128217  0.51065597  1
  O  O85  1  0.96431539  0.25154358  0.75017532  1
  O  O86  1  0.94509508  0.84411809  0.24865774  1
  O  O87  1  0.83199243  0.62317073  0.75444043  1
  O  O88  1  0.97263274  0.77054787  0.50940682  1
  O  O89  1  0.95977906  0.75450917  0.75454022  1
  O  O90  1  0.84873644  0.93695390  0.97787474  1
