# generated using pymatgen
data_H20RuC6NO14
_symmetry_space_group_name_H-M   'P 1'
_cell_length_a   6.09784085
_cell_length_b   6.09784085
_cell_length_c   23.40699600
_cell_angle_alpha   90.00000000
_cell_angle_beta   90.00000000
_cell_angle_gamma   102.96393347
_symmetry_Int_Tables_number   1
_chemical_formula_structural   H20RuC6NO14
_chemical_formula_sum   'H40 Ru2 C12 N2 O28'
_cell_volume   848.17371262
_cell_formula_units_Z   2
loop_
 _symmetry_equiv_pos_site_id
 _symmetry_equiv_pos_as_xyz
  1  'x, y, z'
loop_
 _atom_site_type_symbol
 _atom_site_label
 _atom_site_symmetry_multiplicity
 _atom_site_fract_x
 _atom_site_fract_y
 _atom_site_fract_z
 _atom_site_occupancy
  H  H0  1  0.71869600  0.28130400  0.01046200  1
  H  H1  1  0.28130400  0.71869600  0.98953800  1
  H  H2  1  0.71869600  0.28130400  0.48953800  1
  H  H3  1  0.28130400  0.71869600  0.51046200  1
  H  H4  1  0.76306000  0.23694000  0.93812100  1
  H  H5  1  0.23694000  0.76306000  0.06187900  1
  H  H6  1  0.76306000  0.23694000  0.56187900  1
  H  H7  1  0.23694000  0.76306000  0.43812100  1
  H  H8  1  0.19740300  0.59220100  0.14336800  1
  H  H9  1  0.59220100  0.19740300  0.85663200  1
  H  H10  1  0.19740300  0.59220100  0.35663200  1
  H  H11  1  0.59220100  0.19740300  0.64336800  1
  H  H12  1  0.80259700  0.40779900  0.85663200  1
  H  H13  1  0.40779900  0.80259700  0.14336800  1
  H  H14  1  0.80259700  0.40779900  0.64336800  1
  H  H15  1  0.40779900  0.80259700  0.35663200  1
  H  H16  1  0.65812500  0.55169400  0.06383400  1
  H  H17  1  0.55169400  0.65812500  0.93616600  1
  H  H18  1  0.65812500  0.55169400  0.43616600  1
  H  H19  1  0.55169400  0.65812500  0.56383400  1
  H  H20  1  0.34187500  0.44830600  0.93616600  1
  H  H21  1  0.44830600  0.34187500  0.06383400  1
  H  H22  1  0.34187500  0.44830600  0.56383400  1
  H  H23  1  0.44830600  0.34187500  0.43616600  1
  H  H24  1  0.80308200  0.19691800  0.21423800  1
  H  H25  1  0.19691800  0.80308200  0.78576200  1
  H  H26  1  0.80308200  0.19691800  0.28576200  1
  H  H27  1  0.19691800  0.80308200  0.71423800  1
  H  H28  1  0.44380700  0.00359700  0.25000000  1
  H  H29  1  0.00359700  0.44380700  0.75000000  1
  H  H30  1  0.55619300  0.99640300  0.75000000  1
  H  H31  1  0.99640300  0.55619300  0.25000000  1
  H  H32  1  0.42142200  0.25188600  0.21176200  1
  H  H33  1  0.25188600  0.42142200  0.78823800  1
  H  H34  1  0.42142200  0.25188600  0.28823800  1
  H  H35  1  0.25188600  0.42142200  0.71176200  1
  H  H36  1  0.57857800  0.74811400  0.78823800  1
  H  H37  1  0.74811400  0.57857800  0.21176200  1
  H  H38  1  0.57857800  0.74811400  0.71176200  1
  H  H39  1  0.74811400  0.57857800  0.28823800  1
  Ru  Ru40  1  0.00000000  0.00000000  0.00000000  1
  Ru  Ru41  1  0.00000000  0.00000000  0.50000000  1
  C  C42  1  0.48901700  0.18722100  0.25000000  1
  C  C43  1  0.18722100  0.48901700  0.75000000  1
  C  C44  1  0.51098300  0.81277900  0.75000000  1
  C  C45  1  0.81277900  0.51098300  0.25000000  1
  C  C46  1  0.82115900  0.97561000  0.11345700  1
  C  C47  1  0.97561000  0.82115900  0.88654300  1
  C  C48  1  0.82115900  0.97561000  0.38654300  1
  C  C49  1  0.97561000  0.82115900  0.61345700  1
  C  C50  1  0.17884100  0.02439000  0.88654300  1
  C  C51  1  0.02439000  0.17884100  0.11345700  1
  C  C52  1  0.17884100  0.02439000  0.61345700  1
  C  C53  1  0.02439000  0.17884100  0.38654300  1
  N  N54  1  0.73733400  0.26266600  0.25000000  1
  N  N55  1  0.26266600  0.73733400  0.75000000  1
  O  O56  1  0.78585200  0.86483100  0.06566800  1
  O  O57  1  0.86483100  0.78585200  0.93433200  1
  O  O58  1  0.78585200  0.86483100  0.43433200  1
  O  O59  1  0.86483100  0.78585200  0.56566800  1
  O  O60  1  0.21414800  0.13516900  0.93433200  1
  O  O61  1  0.13516900  0.21414800  0.06566800  1
  O  O62  1  0.21414800  0.13516900  0.56566800  1
  O  O63  1  0.13516900  0.21414800  0.43433200  1
  O  O64  1  0.79460800  0.20539200  0.97981800  1
  O  O65  1  0.20539200  0.79460800  0.02018200  1
  O  O66  1  0.79460800  0.20539200  0.52018200  1
  O  O67  1  0.20539200  0.79460800  0.47981800  1
  O  O68  1  0.70373900  0.92917100  0.15725200  1
  O  O69  1  0.92917100  0.70373900  0.84274800  1
  O  O70  1  0.70373900  0.92917100  0.34274800  1
  O  O71  1  0.92917100  0.70373900  0.65725200  1
  O  O72  1  0.29626100  0.07082900  0.84274800  1
  O  O73  1  0.07082900  0.29626100  0.15725200  1
  O  O74  1  0.29626100  0.07082900  0.65725200  1
  O  O75  1  0.07082900  0.29626100  0.34274800  1
  O  O76  1  0.25099900  0.74900100  0.12988800  1
  O  O77  1  0.74900100  0.25099900  0.87011200  1
  O  O78  1  0.25099900  0.74900100  0.37011200  1
  O  O79  1  0.74900100  0.25099900  0.62988800  1
  O  O80  1  0.61415200  0.38584800  0.06273500  1
  O  O81  1  0.38584800  0.61415200  0.93726500  1
  O  O82  1  0.61415200  0.38584800  0.43726500  1
  O  O83  1  0.38584800  0.61415200  0.56273500  1
