# generated using pymatgen
data_V6O13
_symmetry_space_group_name_H-M   'P 1'
_cell_length_a   11.73510832
_cell_length_b   11.73510832
_cell_length_c   3.75843100
_cell_angle_alpha   90.00000000
_cell_angle_beta   90.00000000
_cell_angle_gamma   117.92840604
_symmetry_Int_Tables_number   1
_chemical_formula_structural   V6O13
_chemical_formula_sum   'V12 O26'
_cell_volume   457.30276078
_cell_formula_units_Z   2
loop_
 _symmetry_equiv_pos_site_id
 _symmetry_equiv_pos_as_xyz
  1  'x, y, z'
loop_
 _atom_site_type_symbol
 _atom_site_label
 _atom_site_symmetry_multiplicity
 _atom_site_fract_x
 _atom_site_fract_y
 _atom_site_fract_z
 _atom_site_occupancy
  V  V0  1  0.58504500  0.21998800  0.75000000  1
  V  V1  1  0.71078900  0.07774900  0.25000000  1
  V  V2  1  0.07774900  0.71078900  0.25000000  1
  V  V3  1  0.92225100  0.28921100  0.75000000  1
  V  V4  1  0.41495500  0.78001200  0.25000000  1
  V  V5  1  0.78001200  0.41495500  0.25000000  1
  V  V6  1  0.21998800  0.58504500  0.75000000  1
  V  V7  1  0.28921100  0.92225100  0.75000000  1
  V  V8  1  0.90066000  0.90066000  0.25000000  1
  V  V9  1  0.09934000  0.09934000  0.75000000  1
  V  V10  1  0.39778700  0.39778700  0.75000000  1
  V  V11  1  0.60221300  0.60221300  0.25000000  1
  O  O12  1  0.80252100  0.00298800  0.25000000  1
  O  O13  1  0.00298800  0.80252100  0.25000000  1
  O  O14  1  0.30446200  0.50172400  0.75000000  1
  O  O15  1  0.50172400  0.30446200  0.75000000  1
  O  O16  1  0.19747900  0.99701200  0.75000000  1
  O  O17  1  0.99701200  0.19747900  0.75000000  1
  O  O18  1  0.69553800  0.49827600  0.25000000  1
  O  O19  1  0.49827600  0.69553800  0.25000000  1
  O  O20  1  0.56833400  0.56833400  0.75000000  1
  O  O21  1  0.92713300  0.92713300  0.75000000  1
  O  O22  1  0.07286700  0.07286700  0.25000000  1
  O  O23  1  0.43166600  0.43166600  0.25000000  1
  O  O24  1  0.36828700  0.77513200  0.75000000  1
  O  O25  1  0.87180500  0.27524400  0.25000000  1
  O  O26  1  0.22486800  0.63171300  0.25000000  1
  O  O27  1  0.72475600  0.12819500  0.75000000  1
  O  O28  1  0.12819500  0.72475600  0.75000000  1
  O  O29  1  0.77513200  0.36828700  0.75000000  1
  O  O30  1  0.63171300  0.22486800  0.25000000  1
  O  O31  1  0.27524400  0.87180500  0.25000000  1
  O  O32  1  0.55731300  0.95279400  0.25000000  1
  O  O33  1  0.95279400  0.55731300  0.25000000  1
  O  O34  1  0.44268700  0.04720600  0.75000000  1
  O  O35  1  0.04720600  0.44268700  0.75000000  1
  O  O36  1  0.74535100  0.74535100  0.25000000  1
  O  O37  1  0.25464900  0.25464900  0.75000000  1
