# generated using pymatgen
data_Fe2O3
_symmetry_space_group_name_H-M   'P 1'
_cell_length_a   5.99034628
_cell_length_b   5.99034628
_cell_length_c   14.60922379
_cell_angle_alpha   89.55343778
_cell_angle_beta   89.55343778
_cell_angle_gamma   60.19349990
_symmetry_Int_Tables_number   1
_chemical_formula_structural   Fe2O3
_chemical_formula_sum   'Fe16 O24'
_cell_volume   454.87022709
_cell_formula_units_Z   8
loop_
 _symmetry_equiv_pos_site_id
 _symmetry_equiv_pos_as_xyz
  1  'x, y, z'
loop_
 _atom_site_type_symbol
 _atom_site_label
 _atom_site_symmetry_multiplicity
 _atom_site_fract_x
 _atom_site_fract_y
 _atom_site_fract_z
 _atom_site_occupancy
  Fe  Fe0  1  0.33976500  0.33976500  0.05046800  1
  Fe  Fe1  1  0.99219500  0.99219500  0.01001100  1
  Fe  Fe2  1  0.83323800  0.33513700  0.16444300  1
  Fe  Fe3  1  0.00690600  0.00690600  0.36396700  1
  Fe  Fe4  1  0.33513700  0.83323800  0.16444300  1
  Fe  Fe5  1  0.67394500  0.67394500  0.32116300  1
  Fe  Fe6  1  0.50288700  0.99643800  0.49857200  1
  Fe  Fe7  1  0.99643800  0.50288700  0.49857200  1
  Fe  Fe8  1  0.33362100  0.33362100  0.67623000  1
  Fe  Fe9  1  0.16884000  0.65975500  0.83415200  1
  Fe  Fe10  1  0.32944500  0.32944500  0.28425400  1
  Fe  Fe11  1  0.65975500  0.16884000  0.83415200  1
  Fe  Fe12  1  0.50256400  0.50256400  0.49858300  1
  Fe  Fe13  1  0.99896300  0.99896300  0.62773000  1
  Fe  Fe14  1  0.16925300  0.16925300  0.83460100  1
  Fe  Fe15  1  0.66001500  0.66001500  0.96079000  1
  O  O16  1  0.68634200  0.18356500  0.08608200  1
  O  O17  1  0.18356500  0.68634200  0.08608200  1
  O  O18  1  0.01447400  0.01447400  0.23729500  1
  O  O19  1  0.15738600  0.15738600  0.08894200  1
  O  O20  1  0.35440700  0.82253500  0.41533500  1
  O  O21  1  0.51017000  0.51017000  0.24336200  1
  O  O22  1  0.48056800  0.98322400  0.24751300  1
  O  O23  1  0.65133800  0.65133800  0.09172400  1
  O  O24  1  0.66737700  0.66737700  0.56242100  1
  O  O25  1  0.82253500  0.35440700  0.41533500  1
  O  O26  1  0.82731600  0.82731600  0.41201300  1
  O  O27  1  0.98322400  0.48056800  0.24751300  1
  O  O28  1  0.17556300  0.17556300  0.57914700  1
  O  O29  1  0.03625700  0.48208900  0.75878100  1
  O  O30  1  0.17529000  0.64786400  0.57914800  1
  O  O31  1  0.33346500  0.33346500  0.42180400  1
  O  O32  1  0.33332100  0.33332100  0.91695000  1
  O  O33  1  0.48208900  0.03625700  0.75878100  1
  O  O34  1  0.48191500  0.48191500  0.75842100  1
  O  O35  1  0.64786400  0.17529000  0.57914800  1
  O  O36  1  0.84132300  0.84132300  0.92147400  1
  O  O37  1  0.99904100  0.99904100  0.75908500  1
  O  O38  1  0.84641700  0.30580300  0.91825600  1
  O  O39  1  0.30580300  0.84641700  0.91825600  1
