# generated using pymatgen
data_Na2Co2(B4O7)3
_symmetry_space_group_name_H-M   'P 1'
_cell_length_a   11.74046481
_cell_length_b   11.74046481
_cell_length_c   17.27614494
_cell_angle_alpha   56.85758051
_cell_angle_beta   56.85758051
_cell_angle_gamma   22.59750361
_symmetry_Int_Tables_number   1
_chemical_formula_structural   Na2Co2(B4O7)3
_chemical_formula_sum   'Na4 Co4 B24 O42'
_cell_volume   759.62292054
_cell_formula_units_Z   2
loop_
 _symmetry_equiv_pos_site_id
 _symmetry_equiv_pos_as_xyz
  1  'x, y, z'
loop_
 _atom_site_type_symbol
 _atom_site_label
 _atom_site_symmetry_multiplicity
 _atom_site_fract_x
 _atom_site_fract_y
 _atom_site_fract_z
 _atom_site_occupancy
  Na  Na0  1  0.69535000  0.59111400  0.50924100  1
  Na  Na1  1  0.40888600  0.30465000  0.99075900  1
  Na  Na2  1  0.30465000  0.40888600  0.49075900  1
  Na  Na3  1  0.59111400  0.69535000  0.00924100  1
  Co  Co4  1  0.54274200  0.55284100  0.39505800  1
  Co  Co5  1  0.55284100  0.54274200  0.89505800  1
  Co  Co6  1  0.44715900  0.45725800  0.10494200  1
  Co  Co7  1  0.45725800  0.44715900  0.60494200  1
  B  B8  1  0.12974300  0.19274300  0.84450400  1
  B  B9  1  0.19274300  0.12974300  0.34450400  1
  B  B10  1  0.11660000  0.37390800  0.18244600  1
  B  B11  1  0.91440500  0.41546700  0.70636100  1
  B  B12  1  0.73143800  0.44441800  0.20281000  1
  B  B13  1  0.88340000  0.62609200  0.81755400  1
  B  B14  1  0.26856200  0.55558200  0.79719000  1
  B  B15  1  0.03749300  0.93297000  0.82726900  1
  B  B16  1  0.44441800  0.73143800  0.70281000  1
  B  B17  1  0.92715600  0.95927900  0.49244200  1
  B  B18  1  0.08559500  0.58453300  0.29363900  1
  B  B19  1  0.96250700  0.06703000  0.17273100  1
  B  B20  1  0.87025700  0.80725700  0.15549600  1
  B  B21  1  0.06703000  0.96250700  0.67273100  1
  B  B22  1  0.93297000  0.03749300  0.32726900  1
  B  B23  1  0.80725700  0.87025700  0.65549600  1
  B  B24  1  0.04072100  0.07284400  0.00755800  1
  B  B25  1  0.55558200  0.26856200  0.29719000  1
  B  B26  1  0.07284400  0.04072100  0.50755800  1
  B  B27  1  0.37390800  0.11660000  0.68244600  1
  B  B28  1  0.95927900  0.92715600  0.99244200  1
  B  B29  1  0.62609200  0.88340000  0.31755400  1
  B  B30  1  0.58453300  0.08559500  0.79363900  1
  B  B31  1  0.41546700  0.91440500  0.20636100  1
  O  O32  1  0.96962400  0.23983300  0.42561500  1
  O  O33  1  0.58645600  0.02309700  0.62116300  1
  O  O34  1  0.68026400  0.16565200  0.36109100  1
  O  O35  1  0.09881100  0.84471200  0.40684700  1
  O  O36  1  0.74513400  0.33549100  0.00392900  1
  O  O37  1  0.96952600  0.61399900  0.72395700  1
  O  O38  1  0.03037600  0.76016700  0.57438500  1
  O  O39  1  0.29127100  0.14996300  0.14515400  1
  O  O40  1  0.84471200  0.09881100  0.90684700  1
  O  O41  1  0.30216800  0.41146000  0.33287500  1
  O  O42  1  0.41354400  0.97690300  0.37883700  1
  O  O43  1  0.58854000  0.69783200  0.16712500  1
  O  O44  1  0.78050900  0.31632300  0.29500900  1
  O  O45  1  0.31973600  0.83434800  0.63890900  1
  O  O46  1  0.12101500  0.87898500  0.25000000  1
  O  O47  1  0.16565200  0.68026400  0.86109100  1
  O  O48  1  0.33549100  0.74513400  0.50392900  1
  O  O49  1  0.15528800  0.90118900  0.09315300  1
  O  O50  1  0.02309700  0.58645600  0.12116300  1
  O  O51  1  0.38600100  0.03047400  0.77604300  1
  O  O52  1  0.21949100  0.68367700  0.70499100  1
  O  O53  1  0.23983300  0.96962400  0.92561500  1
  O  O54  1  0.63616900  0.09818200  0.69826200  1
  O  O55  1  0.36383100  0.90181800  0.30173800  1
  O  O56  1  0.14996300  0.29127100  0.64515400  1
  O  O57  1  0.76016700  0.03037600  0.07438500  1
  O  O58  1  0.90181800  0.36383100  0.80173800  1
  O  O59  1  0.41146000  0.30216800  0.83287500  1
  O  O60  1  0.61399900  0.96952600  0.22395700  1
  O  O61  1  0.90118900  0.15528800  0.59315300  1
  O  O62  1  0.97690300  0.41354400  0.87883700  1
  O  O63  1  0.66450900  0.25486600  0.49607100  1
  O  O64  1  0.69783200  0.58854000  0.66712500  1
  O  O65  1  0.03047400  0.38600100  0.27604300  1
  O  O66  1  0.31632300  0.78050900  0.79500900  1
  O  O67  1  0.68367700  0.21949100  0.20499100  1
  O  O68  1  0.70872900  0.85003700  0.85484600  1
  O  O69  1  0.85003700  0.70872900  0.35484600  1
  O  O70  1  0.83434800  0.31973600  0.13890900  1
  O  O71  1  0.87898500  0.12101500  0.75000000  1
  O  O72  1  0.09818200  0.63616900  0.19826200  1
  O  O73  1  0.25486600  0.66450900  0.99607100  1
