# generated using pymatgen
data_H16AuC6S2N4ClO4
_symmetry_space_group_name_H-M   'P 1'
_cell_length_a   6.55121900
_cell_length_b   14.17913200
_cell_length_c   16.85131500
_cell_angle_alpha   90.00000000
_cell_angle_beta   90.00000000
_cell_angle_gamma   90.00000000
_symmetry_Int_Tables_number   1
_chemical_formula_structural   H16AuC6S2N4ClO4
_chemical_formula_sum   'H64 Au4 C24 S8 N16 Cl4 O16'
_cell_volume   1565.32874365
_cell_formula_units_Z   4
loop_
 _symmetry_equiv_pos_site_id
 _symmetry_equiv_pos_as_xyz
  1  'x, y, z'
loop_
 _atom_site_type_symbol
 _atom_site_label
 _atom_site_symmetry_multiplicity
 _atom_site_fract_x
 _atom_site_fract_y
 _atom_site_fract_z
 _atom_site_occupancy
  H  H0  1  0.06569900  0.67712500  0.85879300  1
  H  H1  1  0.56569900  0.82287500  0.64120700  1
  H  H2  1  0.93430100  0.17712500  0.64120700  1
  H  H3  1  0.43430100  0.32287500  0.85879300  1
  H  H4  1  0.93430100  0.32287500  0.14120700  1
  H  H5  1  0.43430100  0.17712500  0.35879300  1
  H  H6  1  0.06569900  0.82287500  0.35879300  1
  H  H7  1  0.56569900  0.67712500  0.14120700  1
  H  H8  1  0.98500000  0.91941600  0.84282000  1
  H  H9  1  0.48500000  0.58058400  0.65718000  1
  H  H10  1  0.01500000  0.41941600  0.65718000  1
  H  H11  1  0.51500000  0.08058400  0.84282000  1
  H  H12  1  0.01500000  0.08058400  0.15718000  1
  H  H13  1  0.51500000  0.41941600  0.34282000  1
  H  H14  1  0.98500000  0.58058400  0.34282000  1
  H  H15  1  0.48500000  0.91941600  0.15718000  1
  H  H16  1  0.90602500  0.56270700  0.92859800  1
  H  H17  1  0.40602500  0.93729300  0.57140200  1
  H  H18  1  0.09397500  0.06270700  0.57140200  1
  H  H19  1  0.59397500  0.43729300  0.92859800  1
  H  H20  1  0.09397500  0.43729300  0.07140200  1
  H  H21  1  0.59397500  0.06270700  0.42859800  1
  H  H22  1  0.90602500  0.93729300  0.42859800  1
  H  H23  1  0.40602500  0.56270700  0.07140200  1
  H  H24  1  0.84893300  0.64799700  0.00313200  1
  H  H25  1  0.34893300  0.85200300  0.49686800  1
  H  H26  1  0.15106700  0.14799700  0.49686800  1
  H  H27  1  0.65106700  0.35200300  0.00313200  1
  H  H28  1  0.15106700  0.35200300  0.99686800  1
  H  H29  1  0.65106700  0.14799700  0.50313200  1
  H  H30  1  0.84893300  0.85200300  0.50313200  1
  H  H31  1  0.34893300  0.64799700  0.99686800  1
  H  H32  1  0.67579400  0.62899200  0.92216800  1
  H  H33  1  0.17579400  0.87100800  0.57783200  1
  H  H34  1  0.32420600  0.12899200  0.57783200  1
  H  H35  1  0.82420600  0.37100800  0.92216800  1
  H  H36  1  0.32420600  0.37100800  0.07783200  1
  H  H37  1  0.82420600  0.12899200  0.42216800  1
  H  H38  1  0.67579400  0.87100800  0.42216800  1
  H  H39  1  0.17579400  0.62899200  0.07783200  1
  H  H40  1  0.25654100  0.87831000  0.76433200  1
  H  H41  1  0.75654100  0.62169000  0.73566800  1
  H  H42  1  0.74345900  0.37831000  0.73566800  1
  H  H43  1  0.24345900  0.12169000  0.76433200  1
  H  H44  1  0.74345900  0.12169000  0.23566800  1
  H  H45  1  0.24345900  0.37831000  0.26433200  1
  H  H46  1  0.25654100  0.62169000  0.26433200  1
  H  H47  1  0.75654100  0.87831000  0.23566800  1
  H  H48  1  0.31356000  0.78638400  0.83222200  1
  H  H49  1  0.81356000  0.71361600  0.66777800  1
  H  H50  1  0.68644000  0.28638400  0.66777800  1
  H  H51  1  0.18644000  0.21361600  0.83222200  1
  H  H52  1  0.68644000  0.21361600  0.16777800  1
  H  H53  1  0.18644000  0.28638400  0.33222200  1
  H  H54  1  0.31356000  0.71361600  0.33222200  1
  H  H55  1  0.81356000  0.78638400  0.16777800  1
  H  H56  1  0.14189000  0.76592500  0.75080700  1
  H  H57  1  0.64189000  0.73407500  0.74919300  1
  H  H58  1  0.85811000  0.26592500  0.74919300  1
  H  H59  1  0.35811000  0.23407500  0.75080700  1
  H  H60  1  0.85811000  0.23407500  0.24919300  1
  H  H61  1  0.35811000  0.26592500  0.25080700  1
  H  H62  1  0.14189000  0.73407500  0.25080700  1
  H  H63  1  0.64189000  0.76592500  0.24919300  1
  Au  Au64  1  0.75000000  0.00000000  0.94914600  1
  Au  Au65  1  0.25000000  0.50000000  0.55085400  1
  Au  Au66  1  0.25000000  0.00000000  0.05085400  1
  Au  Au67  1  0.75000000  0.50000000  0.44914600  1
  C  C68  1  0.90744300  0.79409100  0.89068300  1
  C  C69  1  0.40744300  0.70590900  0.60931700  1
  C  C70  1  0.09255700  0.29409100  0.60931700  1
  C  C71  1  0.59255700  0.20590900  0.89068300  1
  C  C72  1  0.09255700  0.20590900  0.10931700  1
  C  C73  1  0.59255700  0.29409100  0.39068300  1
  C  C74  1  0.90744300  0.70590900  0.39068300  1
  C  C75  1  0.40744300  0.79409100  0.10931700  1
  C  C76  1  0.83735900  0.63196600  0.93948400  1
  C  C77  1  0.33735900  0.86803400  0.56051600  1
  C  C78  1  0.16264100  0.13196600  0.56051600  1
  C  C79  1  0.66264100  0.36803400  0.93948400  1
  C  C80  1  0.16264100  0.36803400  0.06051600  1
  C  C81  1  0.66264100  0.13196600  0.43948400  1
  C  C82  1  0.83735900  0.86803400  0.43948400  1
  C  C83  1  0.33735900  0.63196600  0.06051600  1
  C  C84  1  0.19204100  0.81760100  0.79555800  1
  C  C85  1  0.69204100  0.68239900  0.70444200  1
  C  C86  1  0.80795900  0.31760100  0.70444200  1
  C  C87  1  0.30795900  0.18239900  0.79555800  1
  C  C88  1  0.80795900  0.18239900  0.20444200  1
  C  C89  1  0.30795900  0.31760100  0.29555800  1
  C  C90  1  0.19204100  0.68239900  0.29555800  1
  C  C91  1  0.69204100  0.81760100  0.20444200  1
  S  S92  1  0.70721600  0.83759300  0.94759800  1
  S  S93  1  0.20721600  0.66240700  0.55240200  1
  S  S94  1  0.29278400  0.33759300  0.55240200  1
  S  S95  1  0.79278400  0.16240700  0.94759800  1
  S  S96  1  0.29278400  0.16240700  0.05240200  1
  S  S97  1  0.79278400  0.33759300  0.44759800  1
  S  S98  1  0.70721600  0.66240700  0.44759800  1
  S  S99  1  0.20721600  0.83759300  0.05240200  1
  N  N100  1  0.94615700  0.70147100  0.89193800  1
  N  N101  1  0.44615700  0.79852900  0.60806200  1
  N  N102  1  0.05384300  0.20147100  0.60806200  1
  N  N103  1  0.55384300  0.29852900  0.89193800  1
  N  N104  1  0.05384300  0.29852900  0.10806200  1
  N  N105  1  0.55384300  0.20147100  0.39193800  1
  N  N106  1  0.94615700  0.79852900  0.39193800  1
  N  N107  1  0.44615700  0.70147100  0.10806200  1
  N  N108  1  0.02257100  0.84972500  0.84440100  1
  N  N109  1  0.52257100  0.65027500  0.65559900  1
  N  N110  1  0.97742900  0.34972500  0.65559900  1
  N  N111  1  0.47742900  0.15027500  0.84440100  1
  N  N112  1  0.97742900  0.15027500  0.15559900  1
  N  N113  1  0.47742900  0.34972500  0.34440100  1
  N  N114  1  0.02257100  0.65027500  0.34440100  1
  N  N115  1  0.52257100  0.84972500  0.15559900  1
  Cl  Cl116  1  0.25000000  0.50000000  0.80514700  1
  Cl  Cl117  1  0.75000000  0.00000000  0.69485300  1
  Cl  Cl118  1  0.75000000  0.50000000  0.19485300  1
  Cl  Cl119  1  0.25000000  0.00000000  0.30514700  1
  O  O120  1  0.18261900  0.42150500  0.85537400  1
  O  O121  1  0.68261900  0.07849500  0.64462600  1
  O  O122  1  0.81738100  0.92150500  0.64462600  1
  O  O123  1  0.31738100  0.57849500  0.85537400  1
  O  O124  1  0.81738100  0.57849500  0.14462600  1
  O  O125  1  0.31738100  0.92150500  0.35537400  1
  O  O126  1  0.18261900  0.07849500  0.35537400  1
  O  O127  1  0.68261900  0.42150500  0.14462600  1
  O  O128  1  0.08048800  0.53193200  0.75558000  1
  O  O129  1  0.58048800  0.96806800  0.74442000  1
  O  O130  1  0.91951200  0.03193200  0.74442000  1
  O  O131  1  0.41951200  0.46806800  0.75558000  1
  O  O132  1  0.91951200  0.46806800  0.24442000  1
  O  O133  1  0.41951200  0.03193200  0.25558000  1
  O  O134  1  0.08048800  0.96806800  0.25558000  1
  O  O135  1  0.58048800  0.53193200  0.24442000  1
