# generated using pymatgen
data_Sr3La7Mn7(FeO10)3
_symmetry_space_group_name_H-M   'P 1'
_cell_length_a   5.54072800
_cell_length_b   7.87596930
_cell_length_c   14.76734911
_cell_angle_alpha   105.22794236
_cell_angle_beta   100.67677264
_cell_angle_gamma   90.77544025
_symmetry_Int_Tables_number   1
_chemical_formula_structural   Sr3La7Mn7(FeO10)3
_chemical_formula_sum   'Sr3 La7 Mn7 Fe3 O30'
_cell_volume   609.71914996
_cell_formula_units_Z   1
loop_
 _symmetry_equiv_pos_site_id
 _symmetry_equiv_pos_as_xyz
  1  'x, y, z'
loop_
 _atom_site_type_symbol
 _atom_site_label
 _atom_site_symmetry_multiplicity
 _atom_site_fract_x
 _atom_site_fract_y
 _atom_site_fract_z
 _atom_site_occupancy
  Sr  Sr0  1  0.49705900  0.74819600  0.99696100  1
  Sr  Sr1  1  0.89839900  0.14904000  0.79895400  1
  Sr  Sr2  1  0.30013800  0.55182600  0.60290900  1
  La  La3  1  0.49646100  0.24802900  0.99615000  1
  La  La4  1  0.70309900  0.94894900  0.40229100  1
  La  La5  1  0.89808900  0.64940800  0.80003000  1
  La  La6  1  0.09661200  0.34955500  0.19898400  1
  La  La7  1  0.30149400  0.05107200  0.60396400  1
  La  La8  1  0.69775200  0.45001900  0.40184700  1
  La  La9  1  0.09788800  0.84714400  0.19593000  1
  Mn  Mn10  1  0.99898200  0.99870000  0.99907300  1
  Mn  Mn11  1  0.39768600  0.40061400  0.79942600  1
  Mn  Mn12  1  0.80017700  0.80020600  0.60130700  1
  Mn  Mn13  1  0.99712900  0.49963300  0.99872400  1
  Mn  Mn14  1  0.19889700  0.19948800  0.40013100  1
  Mn  Mn15  1  0.39895300  0.89962100  0.80007100  1
  Mn  Mn16  1  0.79892500  0.30065800  0.60057800  1
  Fe  Fe17  1  0.59959100  0.59857300  0.19832800  1
  Fe  Fe18  1  0.20087700  0.69773300  0.40101600  1
  Fe  Fe19  1  0.59712400  0.09777400  0.19831400  1
  O  O20  1  0.23104800  0.42631400  0.91349300  1
  O  O21  1  0.98699500  0.73790500  0.97644000  1
  O  O22  1  0.63708500  0.82454900  0.70896900  1
  O  O23  1  0.72036300  0.42125400  0.89267200  1
  O  O24  1  0.68086900  0.98750900  0.91453500  1
  O  O25  1  0.40892700  0.65894700  0.81695100  1
  O  O26  1  0.38783600  0.13809300  0.77784600  1
  O  O27  1  0.03254000  0.21493900  0.50609200  1
  O  O28  1  0.11386400  0.82279800  0.68816000  1
  O  O29  1  0.07736900  0.38487000  0.71082300  1
  O  O30  1  0.16950000  0.97084000  0.89369300  1
  O  O31  1  0.80936000  0.05708600  0.61544300  1
  O  O32  1  0.78505700  0.53754700  0.57459800  1
  O  O33  1  0.43572900  0.62388400  0.31206600  1
  O  O34  1  0.51731400  0.20966600  0.48416300  1
  O  O35  1  0.48135900  0.79035500  0.50937700  1
  O  O36  1  0.56860500  0.36462000  0.69041300  1
  O  O37  1  0.21273700  0.45316600  0.41982300  1
  O  O38  1  0.18148800  0.94043900  0.37328800  1
  O  O39  1  0.84168800  0.03000900  0.11375900  1
  O  O40  1  0.92287100  0.61287300  0.28980800  1
  O  O41  1  0.87847500  0.18735400  0.31346100  1
  O  O42  1  0.96534300  0.77198900  0.48881900  1
  O  O43  1  0.61041800  0.86252900  0.22520300  1
  O  O44  1  0.58872500  0.33536500  0.17498000  1
  O  O45  1  0.31151800  0.02050800  0.09195800  1
  O  O46  1  0.27066800  0.58064100  0.11226700  1
  O  O47  1  0.36389300  0.17627400  0.29071300  1
  O  O48  1  0.01260100  0.26172800  0.02459200  1
  O  O49  1  0.77874500  0.56867800  0.09102800  1
