# generated using pymatgen
data_V2Re2O11
_symmetry_space_group_name_H-M   'P 1'
_cell_length_a   6.36407200
_cell_length_b   7.80535242
_cell_length_c   9.99922959
_cell_angle_alpha   89.30535715
_cell_angle_beta   91.90293401
_cell_angle_gamma   112.25119837
_symmetry_Int_Tables_number   1
_chemical_formula_structural   V2Re2O11
_chemical_formula_sum   'V4 Re4 O22'
_cell_volume   459.45843724
_cell_formula_units_Z   2
loop_
 _symmetry_equiv_pos_site_id
 _symmetry_equiv_pos_as_xyz
  1  'x, y, z'
loop_
 _atom_site_type_symbol
 _atom_site_label
 _atom_site_symmetry_multiplicity
 _atom_site_fract_x
 _atom_site_fract_y
 _atom_site_fract_z
 _atom_site_occupancy
  V  V0  1  0.22635100  0.37596000  0.22541700  1
  V  V1  1  0.63313300  0.26356200  0.55887500  1
  V  V2  1  0.42891000  0.79145200  0.07862100  1
  V  V3  1  0.81323100  0.63370400  0.71107400  1
  Re  Re4  1  0.01399900  0.01932600  0.51288400  1
  Re  Re5  1  0.73096700  0.47243200  0.14457200  1
  Re  Re6  1  0.01252500  0.98061200  0.02310700  1
  Re  Re7  1  0.25211300  0.50832100  0.64683900  1
  O  O8  1  0.47448700  0.89232000  0.22195000  1
  O  O9  1  0.13293700  0.25583700  0.63903900  1
  O  O10  1  0.30679700  0.11598200  0.46688600  1
  O  O11  1  0.08838700  0.10441300  0.17821300  1
  O  O12  1  0.21022300  0.44135400  0.37796000  1
  O  O13  1  0.81488200  0.12243100  0.46256600  1
  O  O14  1  0.87152100  0.72303600  0.13265100  1
  O  O15  1  0.28959300  0.56814800  0.81375800  1
  O  O16  1  0.79024100  0.57264600  0.86891100  1
  O  O17  1  0.55020500  0.29070300  0.04537600  1
  O  O18  1  0.20430500  0.86635100  0.98090200  1
  O  O19  1  0.58608000  0.14379000  0.69383400  1
  O  O20  1  0.93091500  0.48028500  0.61339100  1
  O  O21  1  0.98813300  0.42729400  0.13211100  1
  O  O22  1  0.71138400  0.91172400  0.98190100  1
  O  O23  1  0.44129500  0.55369800  0.12090500  1
  O  O24  1  0.54275700  0.48022300  0.61264500  1
  O  O25  1  0.34553700  0.71996800  0.56179200  1
  O  O26  1  0.65187000  0.40818200  0.30968600  1
  O  O27  1  0.95295700  0.89398000  0.67202900  1
  O  O28  1  0.10594800  0.15802400  0.91064200  1
  O  O29  1  0.91851000  0.82717100  0.41016200  1
