# generated using pymatgen
data_MnPO4
_symmetry_space_group_name_H-M   'P 1'
_cell_length_a   10.20695253
_cell_length_b   10.20695253
_cell_length_c   17.15289078
_cell_angle_alpha   80.44064569
_cell_angle_beta   80.44064569
_cell_angle_gamma   61.20524908
_symmetry_Int_Tables_number   1
_chemical_formula_structural   MnPO4
_chemical_formula_sum   'Mn16 P16 O64'
_cell_volume   1536.63067294
_cell_formula_units_Z   16
loop_
 _symmetry_equiv_pos_site_id
 _symmetry_equiv_pos_as_xyz
  1  'x, y, z'
loop_
 _atom_site_type_symbol
 _atom_site_label
 _atom_site_symmetry_multiplicity
 _atom_site_fract_x
 _atom_site_fract_y
 _atom_site_fract_z
 _atom_site_occupancy
  Mn  Mn0  1  0.26507600  0.37513600  0.62829300  1
  Mn  Mn1  1  0.88623600  0.50616900  0.87802000  1
  Mn  Mn2  1  0.38567600  0.50372700  0.87899700  1
  Mn  Mn3  1  0.77175900  0.94650300  0.62717700  1
  Mn  Mn4  1  0.82064700  0.00913000  0.87798200  1
  Mn  Mn5  1  0.76667500  0.44947300  0.62791700  1
  Mn  Mn6  1  0.44947300  0.76667500  0.12791700  1
  Mn  Mn7  1  0.50616900  0.88623600  0.37802000  1
  Mn  Mn8  1  0.26679200  0.87633900  0.62742100  1
  Mn  Mn9  1  0.37513600  0.26507600  0.12829300  1
  Mn  Mn10  1  0.00913000  0.82064700  0.37798200  1
  Mn  Mn11  1  0.94650300  0.77175900  0.12717700  1
  Mn  Mn12  1  0.50372700  0.38567600  0.37899700  1
  Mn  Mn13  1  0.32331400  0.00317100  0.87877100  1
  Mn  Mn14  1  0.00317100  0.32331400  0.37877100  1
  Mn  Mn15  1  0.87633900  0.26679200  0.12742100  1
  P  P16  1  0.98089000  0.16761200  0.93888200  1
  P  P17  1  0.42654300  0.03010900  0.68987600  1
  P  P18  1  0.66915800  0.03764700  0.44013400  1
  P  P19  1  0.60260100  0.92249600  0.19156400  1
  P  P20  1  0.92697400  0.10237800  0.68942200  1
  P  P21  1  0.03010900  0.42654300  0.18987600  1
  P  P22  1  0.16811500  0.48075600  0.43940800  1
  P  P23  1  0.10237800  0.92697400  0.18942200  1
  P  P24  1  0.03764700  0.66915800  0.94013400  1
  P  P25  1  0.16761200  0.98089000  0.43888200  1
  P  P26  1  0.42042900  0.52969700  0.69136600  1
  P  P27  1  0.48075600  0.16811500  0.93940800  1
  P  P28  1  0.92249600  0.60260100  0.69156400  1
  P  P29  1  0.66746300  0.53641500  0.43949300  1
  P  P30  1  0.53641500  0.66746300  0.93949300  1
  P  P31  1  0.52969700  0.42042900  0.19136600  1
  O  O32  1  0.66043300  0.34980200  0.12601000  1
  O  O33  1  0.72619000  0.45641800  0.52034700  1
  O  O34  1  0.79465600  0.96203500  0.37393200  1
  O  O35  1  0.72230900  0.95843100  0.52250900  1
  O  O36  1  0.57789000  0.86056300  0.12129500  1
  O  O37  1  0.46008500  0.22811200  0.01958400  1
  O  O38  1  0.02154700  0.13095000  0.42704200  1
  O  O39  1  0.58669900  0.48557600  0.69627100  1
  O  O40  1  0.35221000  0.12812200  0.93904300  1
  O  O41  1  0.78987800  0.45938900  0.37138300  1
  O  O42  1  0.86705500  0.07365500  0.61945800  1
  O  O43  1  0.12812200  0.35221000  0.43904300  1
  O  O44  1  0.13095000  0.02154700  0.92704200  1
  O  O45  1  0.98153800  0.59411500  0.19464000  1
  O  O46  1  0.22811200  0.46008500  0.51958400  1
  O  O47  1  0.07365500  0.86705500  0.11945800  1
  O  O48  1  0.91400700  0.76103600  0.67663400  1
  O  O49  1  0.35628800  0.15943100  0.62395000  1
  O  O50  1  0.48739400  0.09047800  0.19697600  1
  O  O51  1  0.45938900  0.78987800  0.87138300  1
  O  O52  1  0.38763900  0.41839200  0.17194600  1
  O  O53  1  0.58708900  0.83102700  0.27045900  1
  O  O54  1  0.96203500  0.79465600  0.87393200  1
  O  O55  1  0.86056300  0.57789000  0.62129500  1
  O  O56  1  0.53261100  0.52090900  0.92847200  1
  O  O57  1  0.34980200  0.66043300  0.62601000  1
  O  O58  1  0.26158200  0.91445400  0.17399400  1
  O  O59  1  0.29158000  0.97253600  0.37089700  1
  O  O60  1  0.96241700  0.22508000  0.01986200  1
  O  O61  1  0.62945600  0.70344300  0.43879900  1
  O  O62  1  0.76103600  0.91400700  0.17663400  1
  O  O63  1  0.08556700  0.34319900  0.27120700  1
  O  O64  1  0.41876900  0.88990200  0.67222700  1
  O  O65  1  0.70344300  0.62945600  0.93879900  1
  O  O66  1  0.58075900  0.33002300  0.27265800  1
  O  O67  1  0.15943100  0.35628800  0.12395000  1
  O  O68  1  0.41839200  0.38763900  0.67194600  1
  O  O69  1  0.09471700  0.98856400  0.69627300  1
  O  O70  1  0.08366700  0.83768700  0.26800600  1
  O  O71  1  0.62965100  0.20493400  0.43998500  1
  O  O72  1  0.52417400  0.03274300  0.42715600  1
  O  O73  1  0.63289600  0.02276300  0.92838800  1
  O  O74  1  0.22508000  0.96241700  0.51986200  1
  O  O75  1  0.48557600  0.58669900  0.19627100  1
  O  O76  1  0.88990200  0.41876900  0.17222700  1
  O  O77  1  0.47514400  0.29002800  0.87036100  1
  O  O78  1  0.98856400  0.09471700  0.19627300  1
  O  O79  1  0.91445400  0.26158200  0.67399400  1
  O  O80  1  0.97253600  0.29158000  0.87089700  1
  O  O81  1  0.59411500  0.98153800  0.69464000  1
  O  O82  1  0.13160800  0.84886200  0.43915400  1
  O  O83  1  0.95843100  0.72230900  0.02250900  1
  O  O84  1  0.29002800  0.47514400  0.37036100  1
  O  O85  1  0.34319900  0.08556700  0.77120700  1
  O  O86  1  0.03274300  0.52417400  0.92715600  1
  O  O87  1  0.83102700  0.58708900  0.77045900  1
  O  O88  1  0.45641800  0.72619000  0.02034700  1
  O  O89  1  0.83768700  0.08366700  0.76800600  1
  O  O90  1  0.09047800  0.48739400  0.69697600  1
  O  O91  1  0.02276300  0.63289600  0.42838800  1
  O  O92  1  0.52090900  0.53261100  0.42847200  1
  O  O93  1  0.33002300  0.58075900  0.77265800  1
  O  O94  1  0.20493400  0.62965100  0.93998500  1
  O  O95  1  0.84886200  0.13160800  0.93915400  1
