# generated using pymatgen
data_MgVFeMo3O14
_symmetry_space_group_name_H-M   'P 1'
_cell_length_a   9.11228800
_cell_length_b   8.42557800
_cell_length_c   8.73589652
_cell_angle_alpha   67.46675733
_cell_angle_beta   90.00000000
_cell_angle_gamma   90.00000000
_symmetry_Int_Tables_number   1
_chemical_formula_structural   MgVFeMo3O14
_chemical_formula_sum   'Mg2 V2 Fe2 Mo6 O28'
_cell_volume   619.50599125
_cell_formula_units_Z   2
loop_
 _symmetry_equiv_pos_site_id
 _symmetry_equiv_pos_as_xyz
  1  'x, y, z'
loop_
 _atom_site_type_symbol
 _atom_site_label
 _atom_site_symmetry_multiplicity
 _atom_site_fract_x
 _atom_site_fract_y
 _atom_site_fract_z
 _atom_site_occupancy
  Mg  Mg0  1  0.99594700  0.75392000  0.42911700  1
  Mg  Mg1  1  0.49594700  0.24608000  0.57088300  1
  V  V2  1  0.14298000  0.11555700  0.09122900  1
  V  V3  1  0.64298000  0.88444300  0.90877100  1
  Fe  Fe4  1  0.50074300  0.23887300  0.93866300  1
  Fe  Fe5  1  0.00074300  0.76112700  0.06133700  1
  Mo  Mo6  1  0.11814800  0.04508900  0.64287100  1
  Mo  Mo7  1  0.61814800  0.95491100  0.35712900  1
  Mo  Mo8  1  0.35920400  0.61719400  0.59771300  1
  Mo  Mo9  1  0.38275200  0.55014600  0.14000500  1
  Mo  Mo10  1  0.85920400  0.38280600  0.40228700  1
  Mo  Mo11  1  0.88275200  0.44985400  0.85999500  1
  O  O12  1  0.99089200  0.23703800  0.56481800  1
  O  O13  1  0.30124300  0.11310600  0.60730900  1
  O  O14  1  0.16796100  0.19066600  0.23660800  1
  O  O15  1  0.57236700  0.09932900  0.44952600  1
  O  O16  1  0.30887500  0.12678200  0.99051500  1
  O  O17  1  0.07236700  0.90067100  0.55047400  1
  O  O18  1  0.58911800  0.05895700  0.13969200  1
  O  O19  1  0.80124300  0.88689400  0.39269100  1
  O  O20  1  0.57316700  0.09975800  0.81024900  1
  O  O21  1  0.32931000  0.70473200  0.74403700  1
  O  O22  1  0.07316700  0.90024200  0.18975100  1
  O  O23  1  0.49089200  0.76296200  0.43518200  1
  O  O24  1  0.08911800  0.94104300  0.86030800  1
  O  O25  1  0.80887500  0.87321800  0.00948500  1
  O  O26  1  0.18938700  0.61304600  0.50434600  1
  O  O27  1  0.90794700  0.55294900  0.64227800  1
  O  O28  1  0.51142300  0.73478500  0.06364300  1
  O  O29  1  0.92979900  0.60071300  0.29446400  1
  O  O30  1  0.66796100  0.80933400  0.76339200  1
  O  O31  1  0.42979900  0.39928700  0.70553600  1
  O  O32  1  0.19804100  0.62559000  0.10057900  1
  O  O33  1  0.40794700  0.44705100  0.35772200  1
  O  O34  1  0.93069700  0.59718800  0.95375900  1
  O  O35  1  0.68938700  0.38695400  0.49565400  1
  O  O36  1  0.43069700  0.40281200  0.04624100  1
  O  O37  1  0.82931000  0.29526800  0.25596300  1
  O  O38  1  0.69804100  0.37441000  0.89942100  1
  O  O39  1  0.01142300  0.26521500  0.93635700  1
