# generated using pymatgen
data_V2CuH6(NO3)2
_symmetry_space_group_name_H-M   'P 1'
_cell_length_a   5.71378900
_cell_length_b   5.64553900
_cell_length_c   11.60449129
_cell_angle_alpha   88.64660256
_cell_angle_beta   90.00000000
_cell_angle_gamma   90.00000000
_symmetry_Int_Tables_number   1
_chemical_formula_structural   V2CuH6(NO3)2
_chemical_formula_sum   'V4 Cu2 H12 N4 O12'
_cell_volume   374.22650700
_cell_formula_units_Z   2
loop_
 _symmetry_equiv_pos_site_id
 _symmetry_equiv_pos_as_xyz
  1  'x, y, z'
loop_
 _atom_site_type_symbol
 _atom_site_label
 _atom_site_symmetry_multiplicity
 _atom_site_fract_x
 _atom_site_fract_y
 _atom_site_fract_z
 _atom_site_occupancy
  V  V0  1  0.05035000  0.99698900  0.50061500  1
  V  V1  1  0.94965000  0.99698900  0.00061500  1
  V  V2  1  0.04828300  0.53102500  0.32250200  1
  V  V3  1  0.95171700  0.53102500  0.82250100  1
  Cu  Cu4  1  0.50105900  0.76133900  0.16052000  1
  Cu  Cu5  1  0.49894100  0.76133900  0.66052000  1
  H  H6  1  0.66473400  0.15240500  0.23987400  1
  H  H7  1  0.33526600  0.15240500  0.73987400  1
  H  H8  1  0.63867300  0.94513000  0.34255000  1
  H  H9  1  0.36132700  0.94513000  0.84255000  1
  H  H10  1  0.40378000  0.09361100  0.29629700  1
  H  H11  1  0.59622000  0.09361100  0.79629700  1
  H  H12  1  0.50664700  0.55739300  0.46763300  1
  H  H13  1  0.49335300  0.55739300  0.96763300  1
  H  H14  1  0.73403000  0.46471300  0.54459200  1
  H  H15  1  0.26597000  0.46471300  0.04459200  1
  H  H16  1  0.47369900  0.34752700  0.56779300  1
  H  H17  1  0.52630100  0.34752700  0.06779300  1
  N  N18  1  0.55860600  0.01959600  0.27143600  1
  N  N19  1  0.44139400  0.01959600  0.77143600  1
  N  N20  1  0.55916300  0.50313600  0.54861000  1
  N  N21  1  0.44083700  0.50313600  0.04861000  1
  O  O22  1  0.93068800  0.76006200  0.41408000  1
  O  O23  1  0.06931200  0.76006200  0.91408000  1
  O  O24  1  0.33694000  0.94544500  0.53784500  1
  O  O25  1  0.66306000  0.94544500  0.03784500  1
  O  O26  1  0.88329500  0.02554400  0.61539100  1
  O  O27  1  0.11670500  0.02554400  0.11539100  1
  O  O28  1  0.33450900  0.58818900  0.28679000  1
  O  O29  1  0.66549100  0.58818900  0.78679000  1
  O  O30  1  0.03095100  0.25994700  0.40855700  1
  O  O31  1  0.96904900  0.25994700  0.90855700  1
  O  O32  1  0.87952700  0.51536100  0.20697300  1
  O  O33  1  0.12047300  0.51536100  0.70697300  1
