# generated using pymatgen
data_ZnH16C6S2(N2Cl)2
_symmetry_space_group_name_H-M   'P 1'
_cell_length_a   8.04047663
_cell_length_b   8.04047663
_cell_length_c   12.64437059
_cell_angle_alpha   76.04193560
_cell_angle_beta   76.04193560
_cell_angle_gamma   68.97897083
_symmetry_Int_Tables_number   1
_chemical_formula_structural   ZnH16C6S2(N2Cl)2
_chemical_formula_sum   'Zn2 H32 C12 S4 N8 Cl4'
_cell_volume   729.64036898
_cell_formula_units_Z   2
loop_
 _symmetry_equiv_pos_site_id
 _symmetry_equiv_pos_as_xyz
  1  'x, y, z'
loop_
 _atom_site_type_symbol
 _atom_site_label
 _atom_site_symmetry_multiplicity
 _atom_site_fract_x
 _atom_site_fract_y
 _atom_site_fract_z
 _atom_site_occupancy
  Zn  Zn0  1  0.15044100  0.84955900  0.75000000  1
  Zn  Zn1  1  0.84955900  0.15044100  0.25000000  1
  H  H2  1  0.85139900  0.62154500  0.15514000  1
  H  H3  1  0.37845500  0.14860100  0.34486000  1
  H  H4  1  0.14860100  0.37845500  0.84486000  1
  H  H5  1  0.62154500  0.85139900  0.65514000  1
  H  H6  1  0.20502000  0.74253200  0.96942600  1
  H  H7  1  0.25746800  0.79498000  0.53057400  1
  H  H8  1  0.79498000  0.25746800  0.03057400  1
  H  H9  1  0.74253200  0.20502000  0.46942600  1
  H  H10  1  0.61008400  0.74789900  0.99191700  1
  H  H11  1  0.25210100  0.38991600  0.50808300  1
  H  H12  1  0.38991600  0.25210100  0.00808300  1
  H  H13  1  0.74789900  0.61008400  0.49191700  1
  H  H14  1  0.54843900  0.89231000  0.09260100  1
  H  H15  1  0.10769000  0.45156100  0.40739900  1
  H  H16  1  0.45156100  0.10769000  0.90739900  1
  H  H17  1  0.89231000  0.54843900  0.59260100  1
  H  H18  1  0.56753800  0.65830800  0.13578000  1
  H  H19  1  0.34169200  0.43246200  0.36422000  1
  H  H20  1  0.43246200  0.34169200  0.86422000  1
  H  H21  1  0.65830800  0.56753800  0.63578000  1
  H  H22  1  0.13218800  0.46209200  0.15100000  1
  H  H23  1  0.53790800  0.86781200  0.34900000  1
  H  H24  1  0.86781200  0.53790800  0.84900000  1
  H  H25  1  0.46209200  0.13218800  0.65100000  1
  H  H26  1  0.09803200  0.66494000  0.20087900  1
  H  H27  1  0.33506000  0.90196800  0.29912100  1
  H  H28  1  0.90196800  0.33506000  0.79912100  1
  H  H29  1  0.66494000  0.09803200  0.70087900  1
  H  H30  1  0.31068300  0.55456300  0.12374100  1
  H  H31  1  0.44543700  0.68931700  0.37625900  1
  H  H32  1  0.68931700  0.44543700  0.87625900  1
  H  H33  1  0.55456300  0.31068300  0.62374100  1
  C  C34  1  0.94172400  0.75654700  0.00702200  1
  C  C35  1  0.24345300  0.05827600  0.49297800  1
  C  C36  1  0.05827600  0.24345300  0.99297800  1
  C  C37  1  0.75654700  0.94172400  0.50702200  1
  C  C38  1  0.62419800  0.75513300  0.07475800  1
  C  C39  1  0.24486700  0.37580200  0.42524200  1
  C  C40  1  0.37580200  0.24486700  0.92524200  1
  C  C41  1  0.75513300  0.62419800  0.57475800  1
  C  C42  1  0.16427200  0.58965000  0.13159000  1
  C  C43  1  0.41035000  0.83572800  0.36841000  1
  C  C44  1  0.83572800  0.41035000  0.86841000  1
  C  C45  1  0.58965000  0.16427200  0.63159000  1
  S  S46  1  0.88508200  0.89720400  0.88518500  1
  S  S47  1  0.10279600  0.11491800  0.61481500  1
  S  S48  1  0.11491800  0.10279600  0.11481500  1
  S  S49  1  0.89720400  0.88508200  0.38518500  1
  N  N50  1  0.81377300  0.70480200  0.08363900  1
  N  N51  1  0.29519800  0.18622700  0.41636100  1
  N  N52  1  0.18622700  0.29519800  0.91636100  1
  N  N53  1  0.70480200  0.81377300  0.58363900  1
  N  N54  1  0.11075600  0.69753700  0.02803800  1
  N  N55  1  0.30246300  0.88924400  0.47196200  1
  N  N56  1  0.88924400  0.30246300  0.97196200  1
  N  N57  1  0.69753700  0.11075600  0.52803800  1
  Cl  Cl58  1  0.40658500  0.80379700  0.82051000  1
  Cl  Cl59  1  0.19620300  0.59341500  0.67949000  1
  Cl  Cl60  1  0.59341500  0.19620300  0.17949000  1
  Cl  Cl61  1  0.80379700  0.40658500  0.32051000  1
