# generated using pymatgen
data_Na5P3H2O11
_symmetry_space_group_name_H-M   'P 1'
_cell_length_a   7.02558300
_cell_length_b   7.08214627
_cell_length_c   10.93786731
_cell_angle_alpha   82.93683888
_cell_angle_beta   81.62727295
_cell_angle_gamma   76.64962452
_symmetry_Int_Tables_number   1
_chemical_formula_structural   Na5P3H2O11
_chemical_formula_sum   'Na10 P6 H4 O22'
_cell_volume   521.61477356
_cell_formula_units_Z   2
loop_
 _symmetry_equiv_pos_site_id
 _symmetry_equiv_pos_as_xyz
  1  'x, y, z'
loop_
 _atom_site_type_symbol
 _atom_site_label
 _atom_site_symmetry_multiplicity
 _atom_site_fract_x
 _atom_site_fract_y
 _atom_site_fract_z
 _atom_site_occupancy
  Na  Na0  1  0.07177100  0.00238200  0.75722700  1
  Na  Na1  1  0.92822900  0.99761800  0.24277300  1
  Na  Na2  1  0.95859100  0.57880700  0.74505700  1
  Na  Na3  1  0.04140900  0.42119300  0.25494300  1
  Na  Na4  1  0.45081900  0.56553200  0.75056600  1
  Na  Na5  1  0.54918100  0.43446800  0.24943400  1
  Na  Na6  1  0.68039400  0.78280200  0.50101400  1
  Na  Na7  1  0.31960600  0.21719800  0.49898600  1
  Na  Na8  1  0.70224000  0.80544700  0.00067900  1
  Na  Na9  1  0.29776000  0.19455300  0.99932100  1
  P  P10  1  0.42757200  0.94398000  0.28327200  1
  P  P11  1  0.57242800  0.05602000  0.71672800  1
  P  P12  1  0.20381900  0.69011600  0.46521200  1
  P  P13  1  0.79618100  0.30988400  0.53478800  1
  P  P14  1  0.19478300  0.68067700  0.02529900  1
  P  P15  1  0.80521700  0.31932300  0.97470100  1
  H  H16  1  0.00000000  0.00000000  0.50000000  1
  H  H17  1  0.50000000  0.50000000  0.00000000  1
  H  H18  1  0.94833100  0.99441500  0.01050000  1
  H  H19  1  0.05166900  0.00558500  0.98950000  1
  O  O20  1  0.37293600  0.81623800  0.41833700  1
  O  O21  1  0.62706400  0.18376200  0.58166300  1
  O  O22  1  0.42248700  0.95631700  0.67713900  1
  O  O23  1  0.57751300  0.04368300  0.32286100  1
  O  O24  1  0.76028100  0.91662500  0.75196900  1
  O  O25  1  0.23971900  0.08337500  0.24803100  1
  O  O26  1  0.23008100  0.53004400  0.37958200  1
  O  O27  1  0.76991900  0.46995600  0.62041800  1
  O  O28  1  0.00505200  0.84743100  0.45458900  1
  O  O29  1  0.99494800  0.15256900  0.54541100  1
  O  O30  1  0.23068800  0.61707400  0.59926200  1
  O  O31  1  0.76931200  0.38292600  0.40073800  1
  O  O32  1  0.52009800  0.79042400  0.19234700  1
  O  O33  1  0.47990200  0.20957600  0.80765300  1
  O  O34  1  0.01493700  0.70558400  0.12354200  1
  O  O35  1  0.98506300  0.29441600  0.87645800  1
  O  O36  1  0.14236900  0.68221100  0.89213200  1
  O  O37  1  0.85763100  0.31778900  0.10786800  1
  O  O38  1  0.65596500  0.51519300  0.93856500  1
  O  O39  1  0.34403500  0.48480700  0.06143500  1
  O  O40  1  0.31938200  0.84275600  0.00864500  1
  O  O41  1  0.68061800  0.15724400  0.99135500  1
