# generated using pymatgen
data_MnH12C2NCl3O2
_symmetry_space_group_name_H-M   'P 1'
_cell_length_a   11.73707245
_cell_length_b   11.73707245
_cell_length_c   11.79853700
_cell_angle_alpha   90.00000000
_cell_angle_beta   90.00000000
_cell_angle_gamma   110.37383458
_symmetry_Int_Tables_number   1
_chemical_formula_structural   MnH12C2NCl3O2
_chemical_formula_sum   'Mn4 H48 C8 N4 Cl12 O8'
_cell_volume   1523.67277850
_cell_formula_units_Z   4
loop_
 _symmetry_equiv_pos_site_id
 _symmetry_equiv_pos_as_xyz
  1  'x, y, z'
loop_
 _atom_site_type_symbol
 _atom_site_label
 _atom_site_symmetry_multiplicity
 _atom_site_fract_x
 _atom_site_fract_y
 _atom_site_fract_z
 _atom_site_occupancy
  Mn  Mn0  1  0.37895000  0.37895000  0.61437900  1
  Mn  Mn1  1  0.62105000  0.62105000  0.38562100  1
  Mn  Mn2  1  0.12105000  0.12105000  0.11437900  1
  Mn  Mn3  1  0.87895000  0.87895000  0.88562100  1
  H  H4  1  0.81780700  0.77844500  0.72421500  1
  H  H5  1  0.22155500  0.18219300  0.27578500  1
  H  H6  1  0.72155500  0.68219300  0.22421500  1
  H  H7  1  0.31780700  0.27844500  0.77578500  1
  H  H8  1  0.18219300  0.22155500  0.27578500  1
  H  H9  1  0.77844500  0.81780700  0.72421500  1
  H  H10  1  0.27844500  0.31780700  0.77578500  1
  H  H11  1  0.68219300  0.72155500  0.22421500  1
  H  H12  1  0.50820200  0.25212900  0.00921000  1
  H  H13  1  0.74787100  0.49179800  0.99079000  1
  H  H14  1  0.24787100  0.99179800  0.50921000  1
  H  H15  1  0.00820200  0.75212900  0.49079000  1
  H  H16  1  0.49179800  0.74787100  0.99079000  1
  H  H17  1  0.25212900  0.50820200  0.00921000  1
  H  H18  1  0.75212900  0.00820200  0.49079000  1
  H  H19  1  0.99179800  0.24787100  0.50921000  1
  H  H20  1  0.59809600  0.34006700  0.56439500  1
  H  H21  1  0.65993300  0.40190400  0.43560500  1
  H  H22  1  0.15993300  0.90190400  0.06439500  1
  H  H23  1  0.09809600  0.84006700  0.93560500  1
  H  H24  1  0.40190400  0.65993300  0.43560500  1
  H  H25  1  0.34006700  0.59809600  0.56439500  1
  H  H26  1  0.84006700  0.09809600  0.93560500  1
  H  H27  1  0.90190400  0.15993300  0.06439500  1
  H  H28  1  0.30767100  0.96995300  0.91598600  1
  H  H29  1  0.03004700  0.69232900  0.08401400  1
  H  H30  1  0.53004700  0.19232900  0.41598600  1
  H  H31  1  0.80767100  0.46995300  0.58401400  1
  H  H32  1  0.69232900  0.03004700  0.08401400  1
  H  H33  1  0.96995300  0.30767100  0.91598600  1
  H  H34  1  0.46995300  0.80767100  0.58401400  1
  H  H35  1  0.19232900  0.53004700  0.41598600  1
  H  H36  1  0.29350100  0.81607900  0.88428300  1
  H  H37  1  0.18392100  0.70649900  0.11571700  1
  H  H38  1  0.68392100  0.20649900  0.38428300  1
  H  H39  1  0.79350100  0.31607900  0.61571700  1
  H  H40  1  0.70649900  0.18392100  0.11571700  1
  H  H41  1  0.81607900  0.29350100  0.88428300  1
  H  H42  1  0.31607900  0.79350100  0.61571700  1
  H  H43  1  0.20649900  0.68392100  0.38428300  1
  H  H44  1  0.61828500  0.14683900  0.51851500  1
  H  H45  1  0.85316100  0.38171500  0.48148500  1
  H  H46  1  0.35316100  0.88171500  0.01851500  1
  H  H47  1  0.11828500  0.64683900  0.98148500  1
  H  H48  1  0.38171500  0.85316100  0.48148500  1
  H  H49  1  0.14683900  0.61828500  0.51851500  1
  H  H50  1  0.64683900  0.11828500  0.98148500  1
  H  H51  1  0.88171500  0.35316100  0.01851500  1
  C  C52  1  0.28728600  0.87879300  0.95143700  1
  C  C53  1  0.12120700  0.71271400  0.04856300  1
  C  C54  1  0.62120700  0.21271400  0.45143700  1
  C  C55  1  0.78728600  0.37879300  0.54856300  1
  C  C56  1  0.71271400  0.12120700  0.04856300  1
  C  C57  1  0.87879300  0.28728600  0.95143700  1
  C  C58  1  0.37879300  0.78728600  0.54856300  1
  C  C59  1  0.21271400  0.62120700  0.45143700  1
  N  N60  1  0.66288100  0.33711900  0.50000000  1
  N  N61  1  0.16288100  0.83711900  0.00000000  1
  N  N62  1  0.33711900  0.66288100  0.50000000  1
  N  N63  1  0.83711900  0.16288100  0.00000000  1
  Cl  Cl64  1  0.14687000  0.14687000  0.93076000  1
  Cl  Cl65  1  0.85313000  0.85313000  0.06924000  1
  Cl  Cl66  1  0.35313000  0.35313000  0.43076000  1
  Cl  Cl67  1  0.64687000  0.64687000  0.56924000  1
  Cl  Cl68  1  0.51325400  0.26338700  0.90054100  1
  Cl  Cl69  1  0.73661300  0.48674600  0.09945900  1
  Cl  Cl70  1  0.23661300  0.98674600  0.40054100  1
  Cl  Cl71  1  0.01325400  0.76338700  0.59945900  1
  Cl  Cl72  1  0.48674600  0.73661300  0.09945900  1
  Cl  Cl73  1  0.26338700  0.51325400  0.90054100  1
  Cl  Cl74  1  0.76338700  0.01325400  0.59945900  1
  Cl  Cl75  1  0.98674600  0.23661300  0.40054100  1
  O  O76  1  0.17061600  0.00717800  0.15402400  1
  O  O77  1  0.99282200  0.82938400  0.84597600  1
  O  O78  1  0.49282200  0.32938400  0.65402400  1
  O  O79  1  0.67061600  0.50717800  0.34597600  1
  O  O80  1  0.82938400  0.99282200  0.84597600  1
  O  O81  1  0.00717800  0.17061600  0.15402400  1
  O  O82  1  0.50717800  0.67061600  0.34597600  1
  O  O83  1  0.32938400  0.49282200  0.65402400  1
