# generated using pymatgen
data_Hg4HN3O10
_symmetry_space_group_name_H-M   'P 1'
_cell_length_a   11.41154788
_cell_length_b   11.41154788
_cell_length_c   11.62633500
_cell_angle_alpha   90.00000000
_cell_angle_beta   90.00000000
_cell_angle_gamma   129.74958515
_symmetry_Int_Tables_number   1
_chemical_formula_structural   Hg4HN3O10
_chemical_formula_sum   'Hg16 H4 N12 O40'
_cell_volume   1164.04981573
_cell_formula_units_Z   4
loop_
 _symmetry_equiv_pos_site_id
 _symmetry_equiv_pos_as_xyz
  1  'x, y, z'
loop_
 _atom_site_type_symbol
 _atom_site_label
 _atom_site_symmetry_multiplicity
 _atom_site_fract_x
 _atom_site_fract_y
 _atom_site_fract_z
 _atom_site_occupancy
  Hg  Hg0  1  0.46516200  0.52699800  0.59613600  1
  Hg  Hg1  1  0.52699800  0.46516200  0.40386400  1
  Hg  Hg2  1  0.96516200  0.02699800  0.90386400  1
  Hg  Hg3  1  0.02699800  0.96516200  0.09613600  1
  Hg  Hg4  1  0.46291800  0.55713500  0.92561800  1
  Hg  Hg5  1  0.55713500  0.46291800  0.07438200  1
  Hg  Hg6  1  0.96291800  0.05713500  0.57438200  1
  Hg  Hg7  1  0.05713500  0.96291800  0.42561800  1
  Hg  Hg8  1  0.30907700  0.71191600  0.70776000  1
  Hg  Hg9  1  0.71191600  0.30907700  0.29224000  1
  Hg  Hg10  1  0.80907700  0.21191600  0.79224000  1
  Hg  Hg11  1  0.21191600  0.80907700  0.20776000  1
  Hg  Hg12  1  0.10998400  0.74736300  0.75152500  1
  Hg  Hg13  1  0.74736300  0.10998400  0.24847500  1
  Hg  Hg14  1  0.60998400  0.24736300  0.74847500  1
  Hg  Hg15  1  0.24736300  0.60998400  0.25152500  1
  H  H16  1  0.76229700  0.94976800  0.74752400  1
  H  H17  1  0.94976800  0.76229700  0.25247600  1
  H  H18  1  0.26229700  0.44976800  0.75247600  1
  H  H19  1  0.44976800  0.26229700  0.24752400  1
  N  N20  1  0.81299700  0.69349300  0.72059600  1
  N  N21  1  0.69349300  0.81299700  0.27940400  1
  N  N22  1  0.31299700  0.19349300  0.77940400  1
  N  N23  1  0.19349300  0.31299700  0.22059600  1
  N  N24  1  0.58368200  0.92799600  0.53897200  1
  N  N25  1  0.92799600  0.58368200  0.46102800  1
  N  N26  1  0.08368200  0.42799600  0.96102800  1
  N  N27  1  0.42799600  0.08368200  0.03897200  1
  N  N28  1  0.11593700  0.40609100  0.50430900  1
  N  N29  1  0.40609100  0.11593700  0.49569100  1
  N  N30  1  0.61593700  0.90609100  0.99569100  1
  N  N31  1  0.90609100  0.61593700  0.00430900  1
  O  O32  1  0.36641800  0.54822200  0.74905200  1
  O  O33  1  0.54822200  0.36641800  0.25094800  1
  O  O34  1  0.86641800  0.04822200  0.75094800  1
  O  O35  1  0.04822200  0.86641800  0.24905200  1
  O  O36  1  0.21575700  0.21177300  0.76553300  1
  O  O37  1  0.21177300  0.21575700  0.23446700  1
  O  O38  1  0.71575700  0.71177300  0.73446700  1
  O  O39  1  0.71177300  0.71575700  0.26553300  1
  O  O40  1  0.95162500  0.80489000  0.75613600  1
  O  O41  1  0.80489000  0.95162500  0.24386400  1
  O  O42  1  0.45162500  0.30489000  0.74386400  1
  O  O43  1  0.30489000  0.45162500  0.25613600  1
  O  O44  1  0.78288400  0.57872600  0.67489600  1
  O  O45  1  0.57872600  0.78288400  0.32510400  1
  O  O46  1  0.28288400  0.07872600  0.82510400  1
  O  O47  1  0.07872600  0.28288400  0.17489600  1
  O  O48  1  0.47497800  0.90899100  0.49283700  1
  O  O49  1  0.90899100  0.47497800  0.50716300  1
  O  O50  1  0.97497800  0.40899100  0.00716300  1
  O  O51  1  0.40899100  0.97497800  0.99283700  1
  O  O52  1  0.56109100  0.84683500  0.62954100  1
  O  O53  1  0.84683500  0.56109100  0.37045900  1
  O  O54  1  0.06109100  0.34683500  0.87045900  1
  O  O55  1  0.34683500  0.06109100  0.12954100  1
  O  O56  1  0.71923100  0.02437500  0.50277200  1
  O  O57  1  0.02437500  0.71923100  0.49722800  1
  O  O58  1  0.21923100  0.52437500  0.99722800  1
  O  O59  1  0.52437500  0.21923100  0.00277200  1
  O  O60  1  0.04630000  0.33443000  0.41428100  1
  O  O61  1  0.33443000  0.04630000  0.58571900  1
  O  O62  1  0.54630000  0.83443000  0.08571900  1
  O  O63  1  0.83443000  0.54630000  0.91428100  1
  O  O64  1  0.08280700  0.33524100  0.60073000  1
  O  O65  1  0.33524100  0.08280700  0.39927000  1
  O  O66  1  0.58280700  0.83524100  0.89927000  1
  O  O67  1  0.83524100  0.58280700  0.10073000  1
  O  O68  1  0.22292300  0.54968600  0.50229700  1
  O  O69  1  0.54968600  0.22292300  0.49770300  1
  O  O70  1  0.72292300  0.04968600  0.99770300  1
  O  O71  1  0.04968600  0.72292300  0.00229700  1
