# generated using pymatgen
data_Ca2MnFeSi4(HO3)5
_symmetry_space_group_name_H-M   'P 1'
_cell_length_a   8.86456200
_cell_length_b   9.04924183
_cell_length_c   10.20013402
_cell_angle_alpha   78.01541226
_cell_angle_beta   67.33679797
_cell_angle_gamma   64.57020596
_symmetry_Int_Tables_number   1
_chemical_formula_structural   Ca2MnFeSi4(HO3)5
_chemical_formula_sum   'Ca4 Mn2 Fe2 Si8 H10 O30'
_cell_volume   681.02111517
_cell_formula_units_Z   2
loop_
 _symmetry_equiv_pos_site_id
 _symmetry_equiv_pos_as_xyz
  1  'x, y, z'
loop_
 _atom_site_type_symbol
 _atom_site_label
 _atom_site_symmetry_multiplicity
 _atom_site_fract_x
 _atom_site_fract_y
 _atom_site_fract_z
 _atom_site_occupancy
  Ca  Ca0  1  0.58062200  0.81519800  0.42246700  1
  Ca  Ca1  1  0.86823000  0.30116700  0.49674800  1
  Ca  Ca2  1  0.13177000  0.69883300  0.50325200  1
  Ca  Ca3  1  0.41937800  0.18480200  0.57753300  1
  Mn  Mn4  1  0.29330600  0.98388600  0.22387000  1
  Mn  Mn5  1  0.70669400  0.01611400  0.77613000  1
  Fe  Fe6  1  0.98137100  0.15780000  0.12961300  1
  Fe  Fe7  1  0.01862900  0.84220000  0.87038700  1
  Si  Si8  1  0.61726700  0.79753400  0.96249500  1
  Si  Si9  1  0.04053000  0.80722000  0.21228400  1
  Si  Si10  1  0.02488300  0.51015800  0.16741700  1
  Si  Si11  1  0.61619600  0.16515800  0.21823400  1
  Si  Si12  1  0.38380400  0.83484200  0.78176600  1
  Si  Si13  1  0.97511700  0.48984200  0.83258300  1
  Si  Si14  1  0.95947000  0.19278000  0.78771600  1
  Si  Si15  1  0.38273300  0.20246600  0.03750500  1
  H  H16  1  0.75418200  0.55893200  0.15070400  1
  H  H17  1  0.21330500  0.97282400  0.49511500  1
  H  H18  1  0.95841700  0.60544300  0.37518900  1
  H  H19  1  0.62975900  0.31942900  0.23400100  1
  H  H20  1  0.66370900  0.35782600  0.83250400  1
  H  H21  1  0.33629100  0.64217400  0.16749600  1
  H  H22  1  0.37024100  0.68057100  0.76599900  1
  H  H23  1  0.04158300  0.39455700  0.62481100  1
  H  H24  1  0.78669500  0.02717600  0.50488500  1
  H  H25  1  0.24581800  0.44106800  0.84929600  1
  O  O26  1  0.17193000  0.95780000  0.83767400  1
  O  O27  1  0.78802800  0.61891700  0.92497400  1
  O  O28  1  0.54408000  0.81366800  0.13468400  1
  O  O29  1  0.47082700  0.78568500  0.90900100  1
  O  O30  1  0.13392900  0.53070600  0.84544100  1
  O  O31  1  0.90516400  0.80441200  0.37525700  1
  O  O32  1  0.00589400  0.70545900  0.10630700  1
  O  O33  1  0.14444700  0.92990900  0.12415500  1
  O  O34  1  0.99367600  0.49470800  0.33901800  1
  O  O35  1  0.50759300  0.08808800  0.35929300  1
  O  O36  1  0.22574100  0.65636000  0.24501500  1
  O  O37  1  0.60159500  0.52019300  0.44702400  1
  O  O38  1  0.04574800  0.17256400  0.27736400  1
  O  O39  1  0.65326900  0.56235900  0.53948700  1
  O  O40  1  0.27844000  0.88146400  0.43149700  1
  O  O41  1  0.72156000  0.11853600  0.56850300  1
  O  O42  1  0.34673100  0.43764100  0.46051300  1
  O  O43  1  0.95425200  0.82743600  0.72263600  1
  O  O44  1  0.39840500  0.47980700  0.55297600  1
  O  O45  1  0.77425900  0.34364000  0.75498500  1
  O  O46  1  0.49240700  0.91191200  0.64070700  1
  O  O47  1  0.00632400  0.50529200  0.66098200  1
  O  O48  1  0.85555300  0.07009100  0.87584500  1
  O  O49  1  0.99410600  0.29454100  0.89369300  1
  O  O50  1  0.09483600  0.19558800  0.62474300  1
  O  O51  1  0.86607100  0.46929400  0.15455900  1
  O  O52  1  0.52917300  0.21431500  0.09099900  1
  O  O53  1  0.45592000  0.18633200  0.86531600  1
  O  O54  1  0.21197200  0.38108300  0.07502600  1
  O  O55  1  0.82807000  0.04220000  0.16232600  1
