# generated using pymatgen
data_MgCdH4(N2O5)2
_symmetry_space_group_name_H-M   'P 1'
_cell_length_a   6.78675485
_cell_length_b   6.78675485
_cell_length_c   12.22924922
_cell_angle_alpha   88.62148788
_cell_angle_beta   88.62148788
_cell_angle_gamma   62.99000648
_symmetry_Int_Tables_number   1
_chemical_formula_structural   MgCdH4(N2O5)2
_chemical_formula_sum   'Mg2 Cd2 H8 N8 O20'
_cell_volume   501.64152608
_cell_formula_units_Z   2
loop_
 _symmetry_equiv_pos_site_id
 _symmetry_equiv_pos_as_xyz
  1  'x, y, z'
loop_
 _atom_site_type_symbol
 _atom_site_label
 _atom_site_symmetry_multiplicity
 _atom_site_fract_x
 _atom_site_fract_y
 _atom_site_fract_z
 _atom_site_occupancy
  Mg  Mg0  1  0.00000000  0.50000000  0.50000000  1
  Mg  Mg1  1  0.50000000  0.00000000  0.00000000  1
  Cd  Cd2  1  0.01372400  0.98627600  0.75000000  1
  Cd  Cd3  1  0.98627600  0.01372400  0.25000000  1
  H  H4  1  0.77463700  0.59115100  0.93846100  1
  H  H5  1  0.40884900  0.22536300  0.56153900  1
  H  H6  1  0.22536300  0.40884900  0.06153900  1
  H  H7  1  0.59115100  0.77463700  0.43846100  1
  H  H8  1  0.77040600  0.57944200  0.06716800  1
  H  H9  1  0.42055800  0.22959400  0.43283200  1
  H  H10  1  0.22959400  0.42055800  0.93283200  1
  H  H11  1  0.57944200  0.77040600  0.56716800  1
  N  N12  1  0.73292100  0.28605700  0.57928000  1
  N  N13  1  0.71394300  0.26707900  0.92072000  1
  N  N14  1  0.26707900  0.71394300  0.42072000  1
  N  N15  1  0.28605700  0.73292100  0.07928000  1
  N  N16  1  0.13264200  0.51056700  0.72875400  1
  N  N17  1  0.48943300  0.86735800  0.77124600  1
  N  N18  1  0.86735800  0.48943300  0.27124600  1
  N  N19  1  0.51056700  0.13264200  0.22875400  1
  O  O20  1  0.68474200  0.15991100  0.63901100  1
  O  O21  1  0.84008900  0.31525800  0.86098900  1
  O  O22  1  0.31525800  0.84008900  0.36098900  1
  O  O23  1  0.15991100  0.68474200  0.13901100  1
  O  O24  1  0.92434300  0.27172900  0.59823500  1
  O  O25  1  0.72827100  0.07565700  0.90176500  1
  O  O26  1  0.07565700  0.72827100  0.40176500  1
  O  O27  1  0.27172900  0.92434300  0.09823500  1
  O  O28  1  0.14655100  0.60692800  0.81328500  1
  O  O29  1  0.39307200  0.85344900  0.68671500  1
  O  O30  1  0.85344900  0.39307200  0.18671500  1
  O  O31  1  0.60692800  0.14655100  0.31328500  1
  O  O32  1  0.04977400  0.64204800  0.64729600  1
  O  O33  1  0.35795200  0.95022600  0.85270400  1
  O  O34  1  0.95022600  0.35795200  0.35270400  1
  O  O35  1  0.64204800  0.04977400  0.14729600  1
  O  O36  1  0.74600200  0.68176900  0.00421000  1
  O  O37  1  0.31823100  0.25399800  0.49579000  1
  O  O38  1  0.25399800  0.31823100  0.99579000  1
  O  O39  1  0.68176900  0.74600200  0.50421000  1
