# generated using pymatgen
data_KFe2P2H5O11
_symmetry_space_group_name_H-M   'P 1'
_cell_length_a   9.80068700
_cell_length_b   9.86607300
_cell_length_c   12.30515086
_cell_angle_alpha   51.54527163
_cell_angle_beta   90.00000000
_cell_angle_gamma   90.00000000
_symmetry_Int_Tables_number   1
_chemical_formula_structural   KFe2P2H5O11
_chemical_formula_sum   'K4 Fe8 P8 H20 O44'
_cell_volume   931.76177891
_cell_formula_units_Z   4
loop_
 _symmetry_equiv_pos_site_id
 _symmetry_equiv_pos_as_xyz
  1  'x, y, z'
loop_
 _atom_site_type_symbol
 _atom_site_label
 _atom_site_symmetry_multiplicity
 _atom_site_fract_x
 _atom_site_fract_y
 _atom_site_fract_z
 _atom_site_occupancy
  K  K0  1  0.69602900  0.38129900  0.60170900  1
  K  K1  1  0.80397100  0.38129900  0.10170900  1
  K  K2  1  0.30397100  0.61870100  0.39829100  1
  K  K3  1  0.19602900  0.61870100  0.89829100  1
  Fe  Fe4  1  0.05371300  0.97776400  0.12885400  1
  Fe  Fe5  1  0.44628700  0.97776400  0.62885400  1
  Fe  Fe6  1  0.94628700  0.02223600  0.87114600  1
  Fe  Fe7  1  0.55371300  0.02223600  0.37114600  1
  Fe  Fe8  1  0.72607200  0.70914600  0.19245300  1
  Fe  Fe9  1  0.77392800  0.70914600  0.69245300  1
  Fe  Fe10  1  0.27392800  0.29085400  0.80754700  1
  Fe  Fe11  1  0.22607200  0.29085400  0.30754700  1
  P  P12  1  0.52770200  0.35274700  0.35499300  1
  P  P13  1  0.97229800  0.35274700  0.85499300  1
  P  P14  1  0.47229800  0.64725300  0.64500700  1
  P  P15  1  0.02770200  0.64725300  0.14500700  1
  P  P16  1  0.67717000  0.83945700  0.87124200  1
  P  P17  1  0.82283000  0.83945700  0.37124200  1
  P  P18  1  0.32283000  0.16054300  0.12875800  1
  P  P19  1  0.17717000  0.16054300  0.62875800  1
  H  H20  1  0.79877900  0.04235700  0.03309500  1
  H  H21  1  0.70122100  0.04235700  0.53309500  1
  H  H22  1  0.20122100  0.95764300  0.96690500  1
  H  H23  1  0.29877900  0.95764300  0.46690500  1
  H  H24  1  0.47201600  0.85293500  0.10396300  1
  H  H25  1  0.02798400  0.85293500  0.60396300  1
  H  H26  1  0.52798400  0.14706500  0.89603700  1
  H  H27  1  0.97201600  0.14706500  0.39603700  1
  H  H28  1  0.52141200  0.93275600  0.18017300  1
  H  H29  1  0.97858800  0.93275600  0.68017300  1
  H  H30  1  0.47858800  0.06724400  0.81982700  1
  H  H31  1  0.02141200  0.06724400  0.31982700  1
  H  H32  1  0.58672700  0.19712000  0.04091900  1
  H  H33  1  0.91327300  0.19712000  0.54091900  1
  H  H34  1  0.41327300  0.80288000  0.95908100  1
  H  H35  1  0.08672700  0.80288000  0.45908100  1
  H  H36  1  0.63987100  0.34573300  0.88876300  1
  H  H37  1  0.86012900  0.34573300  0.38876300  1
  H  H38  1  0.36012900  0.65426700  0.11123700  1
  H  H39  1  0.13987100  0.65426700  0.61123700  1
  O  O40  1  0.59274200  0.26260300  0.29958500  1
  O  O41  1  0.90725800  0.26260300  0.79958500  1
  O  O42  1  0.40725800  0.73739700  0.70041500  1
  O  O43  1  0.09274200  0.73739700  0.20041500  1
  O  O44  1  0.62143300  0.49517300  0.32921100  1
  O  O45  1  0.87856700  0.49517300  0.82921100  1
  O  O46  1  0.37856700  0.50482700  0.67078900  1
  O  O47  1  0.12143300  0.50482700  0.17078900  1
  O  O48  1  0.50577700  0.22157300  0.51501600  1
  O  O49  1  0.99422300  0.22157300  0.01501600  1
  O  O50  1  0.49422300  0.77842700  0.48498400  1
  O  O51  1  0.00577700  0.77842700  0.98498400  1
  O  O52  1  0.88773500  0.56492700  0.21841600  1
  O  O53  1  0.61226500  0.56492700  0.71841600  1
  O  O54  1  0.11226500  0.43507300  0.78158400  1
  O  O55  1  0.38773500  0.43507300  0.28158400  1
  O  O56  1  0.72965800  0.71509900  0.84482000  1
  O  O57  1  0.77034200  0.71509900  0.34482000  1
  O  O58  1  0.27034200  0.28490100  0.15518000  1
  O  O59  1  0.22965800  0.28490100  0.65518000  1
  O  O60  1  0.53102200  0.90864200  0.80738400  1
  O  O61  1  0.96897800  0.90864200  0.30738400  1
  O  O62  1  0.46897800  0.09135800  0.19261600  1
  O  O63  1  0.03102200  0.09135800  0.69261600  1
  O  O64  1  0.77066900  0.99952400  0.80550900  1
  O  O65  1  0.72933100  0.99952400  0.30550900  1
  O  O66  1  0.22933100  0.00047600  0.19449100  1
  O  O67  1  0.27066900  0.00047600  0.69449100  1
  O  O68  1  0.66364300  0.73548000  0.02940700  1
  O  O69  1  0.83635700  0.73548000  0.52940700  1
  O  O70  1  0.33635700  0.26452000  0.97059300  1
  O  O71  1  0.16364300  0.26452000  0.47059300  1
  O  O72  1  0.85638700  0.94263900  0.06215200  1
  O  O73  1  0.64361300  0.94263900  0.56215200  1
  O  O74  1  0.14361300  0.05736100  0.93784800  1
  O  O75  1  0.35638700  0.05736100  0.43784800  1
  O  O76  1  0.54460900  0.85089300  0.16087500  1
  O  O77  1  0.95539100  0.85089300  0.66087500  1
  O  O78  1  0.45539100  0.14910700  0.83912500  1
  O  O79  1  0.04460900  0.14910700  0.33912500  1
  O  O80  1  0.65185900  0.22215900  0.96923700  1
  O  O81  1  0.84814100  0.22215900  0.46923700  1
  O  O82  1  0.34814100  0.77784100  0.03076300  1
  O  O83  1  0.15185900  0.77784100  0.53076300  1
