# generated using pymatgen
data_CrH8(NO2)2
_symmetry_space_group_name_H-M   'P 1'
_cell_length_a   6.93590611
_cell_length_b   6.93590611
_cell_length_c   7.70550943
_cell_angle_alpha   67.69029945
_cell_angle_beta   67.69029945
_cell_angle_gamma   54.62152637
_symmetry_Int_Tables_number   1
_chemical_formula_structural   CrH8(NO2)2
_chemical_formula_sum   'Cr2 H16 N4 O8'
_cell_volume   273.26565167
_cell_formula_units_Z   2
loop_
 _symmetry_equiv_pos_site_id
 _symmetry_equiv_pos_as_xyz
  1  'x, y, z'
loop_
 _atom_site_type_symbol
 _atom_site_label
 _atom_site_symmetry_multiplicity
 _atom_site_fract_x
 _atom_site_fract_y
 _atom_site_fract_z
 _atom_site_occupancy
  Cr  Cr0  1  0.17257800  0.17257800  0.78615100  1
  Cr  Cr1  1  0.82742200  0.82742200  0.21384900  1
  H  H2  1  0.43763800  0.43763800  0.73536300  1
  H  H3  1  0.56236200  0.56236200  0.26463700  1
  H  H4  1  0.58824900  0.58824900  0.60654700  1
  H  H5  1  0.41175100  0.41175100  0.39345300  1
  H  H6  1  0.39398100  0.65712200  0.81960500  1
  H  H7  1  0.65712200  0.39398100  0.81960500  1
  H  H8  1  0.60601900  0.34287800  0.18039500  1
  H  H9  1  0.34287800  0.60601900  0.18039500  1
  H  H10  1  0.91949400  0.91949400  0.75061700  1
  H  H11  1  0.08050600  0.08050600  0.24938300  1
  H  H12  1  0.85879300  0.85879300  0.59051400  1
  H  H13  1  0.14120700  0.14120700  0.40948600  1
  H  H14  1  0.65765300  0.91804300  0.80370900  1
  H  H15  1  0.91804300  0.65765300  0.80370900  1
  H  H16  1  0.34234700  0.08195700  0.19629100  1
  H  H17  1  0.08195700  0.34234700  0.19629100  1
  N  N18  1  0.51891000  0.51891000  0.74619200  1
  N  N19  1  0.48109000  0.48109000  0.25380800  1
  N  N20  1  0.83932600  0.83932600  0.73691300  1
  N  N21  1  0.16067400  0.16067400  0.26308700  1
  O  O22  1  0.31981000  0.31981000  0.64058100  1
  O  O23  1  0.68019000  0.68019000  0.35941900  1
  O  O24  1  0.09073000  0.09073000  0.66048100  1
  O  O25  1  0.90927000  0.90927000  0.33951900  1
  O  O26  1  0.92675900  0.35583300  0.92166400  1
  O  O27  1  0.35583300  0.92675900  0.92166400  1
  O  O28  1  0.07324100  0.64416700  0.07833600  1
  O  O29  1  0.64416700  0.07324100  0.07833600  1
