# generated using pymatgen
data_Na9Zr8Si4(P4O23)2
_symmetry_space_group_name_H-M   'P 1'
_cell_length_a   9.11817400
_cell_length_b   9.53811372
_cell_length_c   14.62450959
_cell_angle_alpha   91.71725706
_cell_angle_beta   107.68476223
_cell_angle_gamma   117.57748946
_symmetry_Int_Tables_number   1
_chemical_formula_structural   Na9Zr8Si4(P4O23)2
_chemical_formula_sum   'Na9 Zr8 Si4 P8 O46'
_cell_volume   1051.96685624
_cell_formula_units_Z   1
loop_
 _symmetry_equiv_pos_site_id
 _symmetry_equiv_pos_as_xyz
  1  'x, y, z'
loop_
 _atom_site_type_symbol
 _atom_site_label
 _atom_site_symmetry_multiplicity
 _atom_site_fract_x
 _atom_site_fract_y
 _atom_site_fract_z
 _atom_site_occupancy
  Na  Na0  1  0.90424000  0.14205200  0.37319600  1
  Na  Na1  1  0.55799000  0.73143300  0.21606100  1
  Na  Na2  1  0.37754900  0.71465300  0.42303300  1
  Na  Na3  1  0.90218900  0.68301700  0.86489200  1
  Na  Na4  1  0.07988000  0.30250300  0.10248000  1
  Na  Na5  1  0.85898800  0.49556300  0.44208700  1
  Na  Na6  1  0.61088200  0.23727000  0.72127400  1
  Na  Na7  1  0.40070500  0.23177100  0.92487000  1
  Na  Na8  1  0.08057300  0.81436700  0.60083100  1
  Zr  Zr9  1  0.83762000  0.63786200  0.08785200  1
  Zr  Zr10  1  0.62016700  0.09657200  0.14361800  1
  Zr  Zr11  1  0.84502800  0.14446900  0.59168300  1
  Zr  Zr12  1  0.57667200  0.56190500  0.62435700  1
  Zr  Zr13  1  0.35298500  0.38170600  0.34507700  1
  Zr  Zr14  1  0.13948100  0.89473000  0.37647700  1
  Zr  Zr15  1  0.35765900  0.88129700  0.83756600  1
  Zr  Zr16  1  0.12815200  0.36813100  0.87484300  1
  Si  Si17  1  0.97392800  0.01206700  0.19623500  1
  Si  Si18  1  0.55641800  0.15232400  0.36708400  1
  Si  Si19  1  0.96840100  0.51588000  0.69780000  1
  Si  Si20  1  0.54417100  0.63428000  0.86151800  1
  P  P21  1  0.24537100  0.88566900  0.08857100  1
  P  P22  1  0.74343300  0.76851100  0.45522600  1
  P  P23  1  0.44722200  0.39263300  0.11730500  1
  P  P24  1  0.00107500  0.47977100  0.28027000  1
  P  P25  1  0.21753500  0.18034900  0.57459500  1
  P  P26  1  0.75686100  0.27423600  0.95835300  1
  P  P27  1  0.44444800  0.87705400  0.61396300  1
  P  P28  1  0.00916400  0.97359300  0.77485600  1
  O  O29  1  0.96413900  0.83562800  0.22394600  1
  O  O30  1  0.78864700  0.00680900  0.19993000  1
  O  O31  1  0.50255000  0.26235400  0.11359300  1
  O  O32  1  0.71848900  0.19852700  0.47200600  1
  O  O33  1  0.63150400  0.13315900  0.28253400  1
  O  O34  1  0.40940500  0.85294100  0.12884800  1
  O  O35  1  0.74079500  0.92898500  0.47409500  1
  O  O36  1  0.90783700  0.80079000  0.42848100  1
  O  O37  1  0.61325100  0.56076000  0.13059900  1
  O  O38  1  0.37125100  0.98763800  0.35490800  1
  O  O39  1  0.06723500  0.72047100  0.05200500  1
  O  O40  1  0.00619400  0.04045300  0.09783500  1
  O  O41  1  0.57135000  0.65182700  0.36843500  1
  O  O42  1  0.37739700  0.40352600  0.19946300  1
  O  O43  1  0.95257600  0.33267200  0.72226700  1
  O  O44  1  0.29626100  0.36607000  0.01967000  1
  O  O45  1  0.77648000  0.50130400  0.69227300  1
  O  O46  1  0.49028300  0.74197700  0.60698300  1
  O  O47  1  0.93635300  0.51030500  0.17325400  1
  O  O48  1  0.18174600  0.47964400  0.28950900  1
  O  O49  1  0.53841900  0.31420800  0.36664300  1
  O  O50  1  0.71272100  0.67888800  0.96139400  1
  O  O51  1  0.07333600  0.65180300  0.35040100  1
  O  O52  1  0.59562100  0.61351700  0.76700600  1
  O  O53  1  0.21835100  0.10094400  0.48173200  1
  O  O54  1  0.40353600  0.31583700  0.64128500  1
  O  O55  1  0.72241400  0.41454400  0.97696900  1
  O  O56  1  0.93670900  0.34245800  0.93952600  1
  O  O57  1  0.13310900  0.13911700  0.30165500  1
  O  O58  1  0.61730800  0.04213500  0.63171500  1
  O  O59  1  0.35982000  0.47077300  0.85575800  1
  O  O60  1  0.39653800  0.45584400  0.48385300  1
  O  O61  1  0.07658800  0.23708800  0.54809200  1
  O  O62  1  0.01169100  0.55107800  0.60166500  1
  O  O63  1  0.60159700  0.15050000  0.86641500  1
  O  O64  1  0.75606100  0.69258500  0.54783500  1
  O  O65  1  0.37729000  0.88881700  0.69768100  1
  O  O66  1  0.29769700  0.85625100  0.51817900  1
  O  O67  1  0.94565700  0.01422900  0.67032300  1
  O  O68  1  0.19746000  0.99167000  0.78321000  1
  O  O69  1  0.50804900  0.78538400  0.86880600  1
  O  O70  1  0.07014300  0.14262600  0.84571000  1
  O  O71  1  0.25170000  0.88755700  0.96739200  1
  O  O72  1  0.12330500  0.64062700  0.80342600  1
  O  O73  1  0.43900700  0.00642600  0.98407400  1
  O  O74  1  0.77234300  0.19608700  0.05015300  1
