# generated using pymatgen
data_RbP(HO2)2
_symmetry_space_group_name_H-M   'P 1'
_cell_length_a   6.53382700
_cell_length_b   8.36102100
_cell_length_c   9.42381534
_cell_angle_alpha   67.44241233
_cell_angle_beta   90.00000000
_cell_angle_gamma   90.00000000
_symmetry_Int_Tables_number   1
_chemical_formula_structural   RbP(HO2)2
_chemical_formula_sum   'Rb4 P4 H8 O16'
_cell_volume   475.43154570
_cell_formula_units_Z   4
loop_
 _symmetry_equiv_pos_site_id
 _symmetry_equiv_pos_as_xyz
  1  'x, y, z'
loop_
 _atom_site_type_symbol
 _atom_site_label
 _atom_site_symmetry_multiplicity
 _atom_site_fract_x
 _atom_site_fract_y
 _atom_site_fract_z
 _atom_site_occupancy
  Rb  Rb0  1  0.23702200  0.74278600  0.77914800  1
  Rb  Rb1  1  0.73702200  0.25721400  0.72085200  1
  Rb  Rb2  1  0.76297800  0.25721400  0.22085200  1
  Rb  Rb3  1  0.26297800  0.74278600  0.27914800  1
  P  P4  1  0.29110500  0.26798600  0.98633400  1
  P  P5  1  0.79110500  0.73201400  0.51366600  1
  P  P6  1  0.70889500  0.73201400  0.01366600  1
  P  P7  1  0.20889500  0.26798600  0.48633400  1
  H  H8  1  0.92258500  0.93863000  0.96237100  1
  H  H9  1  0.42258500  0.06137000  0.53762900  1
  H  H10  1  0.07741500  0.06137000  0.03762900  1
  H  H11  1  0.57741500  0.93863000  0.46237100  1
  H  H12  1  0.78359700  0.61574100  0.83970300  1
  H  H13  1  0.28359700  0.38425900  0.66029700  1
  H  H14  1  0.21640300  0.38425900  0.16029700  1
  H  H15  1  0.71640300  0.61574100  0.33970300  1
  O  O16  1  0.75261100  0.58076400  0.95474800  1
  O  O17  1  0.25261100  0.41923600  0.54525200  1
  O  O18  1  0.24738900  0.41923600  0.04525200  1
  O  O19  1  0.74738900  0.58076400  0.45474800  1
  O  O20  1  0.91823600  0.87646600  0.40449100  1
  O  O21  1  0.41823600  0.12353400  0.09550900  1
  O  O22  1  0.08176400  0.12353400  0.59550900  1
  O  O23  1  0.58176400  0.87646600  0.90449100  1
  O  O24  1  0.64233400  0.64114000  0.17955100  1
  O  O25  1  0.14233400  0.35886000  0.32044900  1
  O  O26  1  0.35766600  0.35886000  0.82044900  1
  O  O27  1  0.85766600  0.64114000  0.67955100  1
  O  O28  1  0.55800100  0.81400400  0.51435100  1
  O  O29  1  0.05800100  0.18599600  0.98564900  1
  O  O30  1  0.44199900  0.18599600  0.48564900  1
  O  O31  1  0.94199900  0.81400400  0.01435100  1
