# generated using pymatgen
data_Zn4P3H10C2NO13
_symmetry_space_group_name_H-M   'P 1'
_cell_length_a   15.41400000
_cell_length_b   5.34898800
_cell_length_c   18.26664513
_cell_angle_alpha   75.36008470
_cell_angle_beta   90.00000000
_cell_angle_gamma   90.00000000
_symmetry_Int_Tables_number   1
_chemical_formula_structural   Zn4P3H10C2NO13
_chemical_formula_sum   'Zn16 P12 H40 C8 N4 O52'
_cell_volume   1457.17497733
_cell_formula_units_Z   4
loop_
 _symmetry_equiv_pos_site_id
 _symmetry_equiv_pos_as_xyz
  1  'x, y, z'
loop_
 _atom_site_type_symbol
 _atom_site_label
 _atom_site_symmetry_multiplicity
 _atom_site_fract_x
 _atom_site_fract_y
 _atom_site_fract_z
 _atom_site_occupancy
  Zn  Zn0  1  0.90299200  0.74209200  0.95877500  1
  Zn  Zn1  1  0.59700800  0.74209200  0.45877500  1
  Zn  Zn2  1  0.09700800  0.25790800  0.04122500  1
  Zn  Zn3  1  0.40299200  0.25790800  0.54122500  1
  Zn  Zn4  1  0.75740900  0.93374900  0.68228100  1
  Zn  Zn5  1  0.74259100  0.93374900  0.18228100  1
  Zn  Zn6  1  0.24259100  0.06625100  0.31771900  1
  Zn  Zn7  1  0.25740900  0.06625100  0.81771900  1
  Zn  Zn8  1  0.59901300  0.79989800  0.99012600  1
  Zn  Zn9  1  0.90098700  0.79989800  0.49012600  1
  Zn  Zn10  1  0.40098700  0.20010200  0.00987400  1
  Zn  Zn11  1  0.09901300  0.20010200  0.50987400  1
  Zn  Zn12  1  0.72983200  0.34214300  0.94912300  1
  Zn  Zn13  1  0.77016800  0.34214300  0.44912300  1
  Zn  Zn14  1  0.27016800  0.65785700  0.05087700  1
  Zn  Zn15  1  0.22983200  0.65785700  0.55087700  1
  P  P16  1  0.74101400  0.91885700  0.85803500  1
  P  P17  1  0.75898600  0.91885700  0.35803500  1
  P  P18  1  0.25898600  0.08114300  0.14196500  1
  P  P19  1  0.24101400  0.08114300  0.64196500  1
  P  P20  1  0.11373100  0.83375400  0.94235400  1
  P  P21  1  0.38626900  0.83375400  0.44235400  1
  P  P22  1  0.88626900  0.16624600  0.05764600  1
  P  P23  1  0.61373100  0.16624600  0.55764600  1
  P  P24  1  0.91079900  0.19476500  0.58373700  1
  P  P25  1  0.58920100  0.19476500  0.08373700  1
  P  P26  1  0.08920100  0.80523500  0.41626300  1
  P  P27  1  0.41079900  0.80523500  0.91626300  1
  H  H28  1  0.52949200  0.18759300  0.69100700  1
  H  H29  1  0.97050800  0.18759300  0.19100700  1
  H  H30  1  0.47050800  0.81240700  0.30899300  1
  H  H31  1  0.02949200  0.81240700  0.80899300  1
  H  H32  1  0.58917500  0.09216600  0.76954200  1
  H  H33  1  0.91082500  0.09216600  0.26954200  1
  H  H34  1  0.41082500  0.90783400  0.23045800  1
  H  H35  1  0.08917500  0.90783400  0.73045800  1
  H  H36  1  0.47899800  0.08426800  0.77646800  1
  H  H37  1  0.02100200  0.08426800  0.27646800  1
  H  H38  1  0.52100200  0.91573200  0.22353200  1
  H  H39  1  0.97899800  0.91573200  0.72353200  1
  H  H40  1  0.72189800  0.47752100  0.64026600  1
  H  H41  1  0.77810200  0.47752100  0.14026600  1
  H  H42  1  0.27810200  0.52247900  0.35973400  1
  H  H43  1  0.22189800  0.52247900  0.85973400  1
  H  H44  1  0.76602600  0.43934700  0.72010900  1
  H  H45  1  0.73397400  0.43934700  0.22010900  1
  H  H46  1  0.23397400  0.56065300  0.27989100  1
  H  H47  1  0.26602600  0.56065300  0.77989100  1
  H  H48  1  0.58957300  0.55042900  0.74163900  1
  H  H49  1  0.91042700  0.55042900  0.24163900  1
  H  H50  1  0.41042700  0.44957100  0.25836100  1
  H  H51  1  0.08957300  0.44957100  0.75836100  1
  H  H52  1  0.51694300  0.44350900  0.81747900  1
  H  H53  1  0.98305700  0.44350900  0.31747900  1
  H  H54  1  0.48305700  0.55649100  0.18252100  1
  H  H55  1  0.01694300  0.55649100  0.68252100  1
  H  H56  1  0.42679300  0.76186900  0.72708800  1
  H  H57  1  0.07320700  0.76186900  0.22708800  1
  H  H58  1  0.57320700  0.23813100  0.27291200  1
  H  H59  1  0.92679300  0.23813100  0.77291200  1
  H  H60  1  0.47263900  0.66844700  0.64887900  1
  H  H61  1  0.02736100  0.66844700  0.14887900  1
  H  H62  1  0.52736100  0.33155300  0.35112100  1
  H  H63  1  0.97263900  0.33155300  0.85112100  1
  H  H64  1  0.39848500  0.46518800  0.70877000  1
  H  H65  1  0.10151500  0.46518800  0.20877000  1
  H  H66  1  0.60151500  0.53481200  0.29123000  1
  H  H67  1  0.89848500  0.53481200  0.79123000  1
  C  C68  1  0.52663300  0.45791400  0.75715900  1
  C  C69  1  0.97336700  0.45791400  0.25715900  1
  C  C70  1  0.47336700  0.54208600  0.24284100  1
  C  C71  1  0.02663300  0.54208600  0.74284100  1
  C  C72  1  0.45288000  0.59814500  0.70814200  1
  C  C73  1  0.04712000  0.59814500  0.20814200  1
  C  C74  1  0.54712000  0.40185500  0.29185800  1
  C  C75  1  0.95288000  0.40185500  0.79185800  1
  N  N76  1  0.53188500  0.18577100  0.74800000  1
  N  N77  1  0.96811500  0.18577100  0.24800000  1
  N  N78  1  0.46811500  0.81422900  0.25200000  1
  N  N79  1  0.03188500  0.81422900  0.75200000  1
  O  O80  1  0.83908100  0.86810300  0.86402000  1
  O  O81  1  0.66091900  0.86810300  0.36402000  1
  O  O82  1  0.16091900  0.13189700  0.13598000  1
  O  O83  1  0.33908100  0.13189700  0.63598000  1
  O  O84  1  0.02232000  0.75536700  0.92205100  1
  O  O85  1  0.47768000  0.75536700  0.42205100  1
  O  O86  1  0.97768000  0.24463300  0.07794900  1
  O  O87  1  0.52232000  0.24463300  0.57794900  1
  O  O88  1  0.11796000  0.10464700  0.95682300  1
  O  O89  1  0.38204000  0.10464700  0.45682300  1
  O  O90  1  0.88204000  0.89535300  0.04317700  1
  O  O91  1  0.61796000  0.89535300  0.54317700  1
  O  O92  1  0.14793000  0.62475500  0.01440900  1
  O  O93  1  0.35207000  0.62475500  0.51440900  1
  O  O94  1  0.85207000  0.37524500  0.98559100  1
  O  O95  1  0.64793000  0.37524500  0.48559100  1
  O  O96  1  0.70447700  0.88777200  0.78206100  1
  O  O97  1  0.79552300  0.88777200  0.28206100  1
  O  O98  1  0.29552300  0.11222800  0.21793900  1
  O  O99  1  0.20447700  0.11222800  0.71793900  1
  O  O100  1  0.87661700  0.05399500  0.66380000  1
  O  O101  1  0.62338300  0.05399500  0.16380000  1
  O  O102  1  0.12338300  0.94600500  0.33620000  1
  O  O103  1  0.37661700  0.94600500  0.83620000  1
  O  O104  1  0.17382600  0.81860300  0.87535300  1
  O  O105  1  0.32617400  0.81860300  0.37535300  1
  O  O106  1  0.82617400  0.18139700  0.12464700  1
  O  O107  1  0.67382600  0.18139700  0.62464700  1
  O  O108  1  0.00351100  0.09374900  0.57884300  1
  O  O109  1  0.49648900  0.09374900  0.07884300  1
  O  O110  1  0.99648900  0.90625100  0.42115700  1
  O  O111  1  0.50351100  0.90625100  0.92115700  1
  O  O112  1  0.85280600  0.10867200  0.52169200  1
  O  O113  1  0.64719400  0.10867200  0.02169200  1
  O  O114  1  0.14719400  0.89132800  0.47830800  1
  O  O115  1  0.35280600  0.89132800  0.97830800  1
  O  O116  1  0.90467700  0.48780300  0.57074500  1
  O  O117  1  0.59532300  0.48780300  0.07074500  1
  O  O118  1  0.09532300  0.51219700  0.42925500  1
  O  O119  1  0.40467700  0.51219700  0.92925500  1
  O  O120  1  0.69475400  0.71238400  0.92502700  1
  O  O121  1  0.80524600  0.71238400  0.42502700  1
  O  O122  1  0.30524600  0.28761600  0.07497300  1
  O  O123  1  0.19475400  0.28761600  0.57497300  1
  O  O124  1  0.71611000  0.19256700  0.86421900  1
  O  O125  1  0.78389000  0.19256700  0.36421900  1
  O  O126  1  0.28389000  0.80743300  0.13578100  1
  O  O127  1  0.21611000  0.80743300  0.63578100  1
  O  O128  1  0.75566300  0.56661200  0.67215100  1
  O  O129  1  0.74433700  0.56661200  0.17215100  1
  O  O130  1  0.24433700  0.43338800  0.32784900  1
  O  O131  1  0.25566300  0.43338800  0.82784900  1
