# generated using pymatgen
data_V3(O2F)2
_symmetry_space_group_name_H-M   'P 1'
_cell_length_a   4.73163200
_cell_length_b   5.62311929
_cell_length_c   7.71405245
_cell_angle_alpha   84.83667277
_cell_angle_beta   87.13339596
_cell_angle_gamma   86.21360246
_symmetry_Int_Tables_number   1
_chemical_formula_structural   V3(O2F)2
_chemical_formula_sum   'V6 O8 F4'
_cell_volume   203.76450638
_cell_formula_units_Z   2
loop_
 _symmetry_equiv_pos_site_id
 _symmetry_equiv_pos_as_xyz
  1  'x, y, z'
loop_
 _atom_site_type_symbol
 _atom_site_label
 _atom_site_symmetry_multiplicity
 _atom_site_fract_x
 _atom_site_fract_y
 _atom_site_fract_z
 _atom_site_occupancy
  V  V0  1  0.50000000  0.50000000  0.50000000  1
  V  V1  1  0.45299200  0.13447900  0.81854700  1
  V  V2  1  0.54700800  0.86552100  0.18145300  1
  V  V3  1  0.00000000  0.00000000  0.50000000  1
  V  V4  1  0.99364800  0.33028500  0.16318000  1
  V  V5  1  0.00635200  0.66971500  0.83682000  1
  O  O6  1  0.80232400  0.03894700  0.26804400  1
  O  O7  1  0.69060900  0.87016100  0.93611200  1
  O  O8  1  0.69269100  0.19737300  0.60482500  1
  O  O9  1  0.70167700  0.54310300  0.26513300  1
  O  O10  1  0.30730900  0.80262700  0.39517500  1
  O  O11  1  0.30939100  0.12983900  0.06388800  1
  O  O12  1  0.29832300  0.45689700  0.73486700  1
  O  O13  1  0.19767600  0.96105300  0.73195600  1
  F  F14  1  0.80252900  0.36987100  0.93192800  1
  F  F15  1  0.80458100  0.69942800  0.60351200  1
  F  F16  1  0.19747100  0.63012900  0.06807200  1
  F  F17  1  0.19541900  0.30057200  0.39648800  1
