# generated using pymatgen
data_P4WO13
_symmetry_space_group_name_H-M   'P 1'
_cell_length_a   5.21283800
_cell_length_b   7.99310598
_cell_length_c   13.95489296
_cell_angle_alpha   78.48245632
_cell_angle_beta   86.59211158
_cell_angle_gamma   81.32080979
_symmetry_Int_Tables_number   1
_chemical_formula_structural   P4WO13
_chemical_formula_sum   'P8 W2 O26'
_cell_volume   562.96458723
_cell_formula_units_Z   2
loop_
 _symmetry_equiv_pos_site_id
 _symmetry_equiv_pos_as_xyz
  1  'x, y, z'
loop_
 _atom_site_type_symbol
 _atom_site_label
 _atom_site_symmetry_multiplicity
 _atom_site_fract_x
 _atom_site_fract_y
 _atom_site_fract_z
 _atom_site_occupancy
  P  P0  1  0.11912100  0.79501100  0.12736900  1
  P  P1  1  0.33834800  0.57487700  0.31534400  1
  P  P2  1  0.30384300  0.64762100  0.80306700  1
  P  P3  1  0.67968100  0.34913100  0.20320600  1
  P  P4  1  0.63880100  0.43010500  0.67772900  1
  P  P5  1  0.99019300  0.10352200  0.35173800  1
  P  P6  1  0.87249100  0.20799200  0.86312800  1
  P  P7  1  0.99553300  0.88012300  0.65121900  1
  W  W8  1  0.43362700  0.04875000  0.75413700  1
  W  W9  1  0.55512900  0.94748200  0.24086600  1
  O  O10  1  0.17056000  0.01966400  0.66989900  1
  O  O11  1  0.27060000  0.01343100  0.33009700  1
  O  O12  1  0.16071800  0.12453400  0.84302900  1
  O  O13  1  0.15317800  0.75747500  0.02944000  1
  O  O14  1  0.03221100  0.73937800  0.75436900  1
  O  O15  1  0.16755300  0.63379800  0.21787800  1
  O  O16  1  0.06403600  0.80787300  0.56382600  1
  O  O17  1  0.19130200  0.55910100  0.40761000  1
  O  O18  1  0.30297600  0.92409900  0.15078600  1
  O  O19  1  0.28513300  0.50626500  0.88531300  1
  O  O20  1  0.55326600  0.19056600  0.18395800  1
  O  O21  1  0.50443900  0.39792100  0.29677800  1
  O  O22  1  0.45054100  0.28618900  0.69190200  1
  O  O23  1  0.46869700  0.59620800  0.70842900  1
  O  O24  1  0.54294800  0.70843800  0.29885700  1
  O  O25  1  0.43078700  0.80921300  0.81796500  1
  O  O26  1  0.70565600  0.49255700  0.12275600  1
  O  O27  1  0.69879900  0.07345700  0.83861000  1
  O  O28  1  0.76553800  0.46804600  0.58207300  1
  O  O29  1  0.94739800  0.25581600  0.25369200  1
  O  O30  1  0.81817800  0.25209200  0.95904700  1
  O  O31  1  0.94026500  0.16421300  0.44357000  1
  O  O32  1  0.83224300  0.36237600  0.76824400  1
  O  O33  1  0.70861800  0.96817100  0.66460500  1
  O  O34  1  0.83821000  0.88345700  0.15392400  1
  O  O35  1  0.80518400  0.97249000  0.33142000  1
