# generated using pymatgen
data_Li4Co7O3F13
_symmetry_space_group_name_H-M   'P 1'
_cell_length_a   6.17185525
_cell_length_b   6.09317751
_cell_length_c   10.53983558
_cell_angle_alpha   105.48486365
_cell_angle_beta   73.19645649
_cell_angle_gamma   120.72935656
_symmetry_Int_Tables_number   1
_chemical_formula_structural   Li4Co7O3F13
_chemical_formula_sum   'Li4 Co7 O3 F13'
_cell_volume   322.71858813
_cell_formula_units_Z   1
loop_
 _symmetry_equiv_pos_site_id
 _symmetry_equiv_pos_as_xyz
  1  'x, y, z'
loop_
 _atom_site_type_symbol
 _atom_site_label
 _atom_site_symmetry_multiplicity
 _atom_site_fract_x
 _atom_site_fract_y
 _atom_site_fract_z
 _atom_site_occupancy
  Li  Li0  1  0.84033300  0.71809800  0.06116800  1
  Li  Li1  1  0.68946200  0.77967100  0.44100000  1
  Li  Li2  1  0.31376500  0.20812000  0.55949600  1
  Li  Li3  1  0.17384400  0.29515000  0.94241700  1
  Co  Co4  1  0.22824600  0.73722300  0.24984400  1
  Co  Co5  1  0.23442700  0.23537900  0.22884600  1
  Co  Co6  1  0.98111100  0.48829200  0.49956600  1
  Co  Co7  1  0.49785200  0.00878300  0.99870600  1
  Co  Co8  1  0.77039900  0.27308800  0.25298800  1
  Co  Co9  1  0.24643500  0.75315400  0.74851800  1
  Co  Co10  1  0.74157000  0.74466100  0.75086000  1
  O  O11  1  0.17272800  0.90916900  0.13297200  1
  O  O12  1  0.13226300  0.37825900  0.14165700  1
  O  O13  1  0.89481700  0.60303100  0.37378300  1
  F  F14  1  0.62200700  0.90268900  0.13569600  1
  F  F15  1  0.62227900  0.37318200  0.12692200  1
  F  F16  1  0.11344700  0.86968900  0.62902900  1
  F  F17  1  0.36014900  0.58910300  0.36606300  1
  F  F18  1  0.60396500  0.84874700  0.63647600  1
  F  F19  1  0.13817800  0.41763600  0.61601300  1
  F  F20  1  0.38569500  0.13332600  0.36005900  1
  F  F21  1  0.63468500  0.40314900  0.62463300  1
  F  F22  1  0.89324100  0.11944300  0.37231400  1
  F  F23  1  0.37036300  0.63272100  0.87279600  1
  F  F24  1  0.35729900  0.09248200  0.87742900  1
  F  F25  1  0.88959400  0.65208800  0.86626700  1
  F  F26  1  0.84184300  0.08366500  0.88448000  1
