# generated using pymatgen
data_Na4NiO4
_symmetry_space_group_name_H-M   'P 1'
_cell_length_a   5.70572200
_cell_length_b   5.71073752
_cell_length_c   8.67682600
_cell_angle_alpha   71.67222028
_cell_angle_beta   80.66237459
_cell_angle_gamma   68.22671184
_symmetry_Int_Tables_number   1
_chemical_formula_structural   Na4NiO4
_chemical_formula_sum   'Na8 Ni2 O8'
_cell_volume   248.90236846
_cell_formula_units_Z   2
loop_
 _symmetry_equiv_pos_site_id
 _symmetry_equiv_pos_as_xyz
  1  'x, y, z'
loop_
 _atom_site_type_symbol
 _atom_site_label
 _atom_site_symmetry_multiplicity
 _atom_site_fract_x
 _atom_site_fract_y
 _atom_site_fract_z
 _atom_site_occupancy
  Na  Na0  1  0.76567600  0.02053600  0.92765400  1
  Na  Na1  1  0.25695100  0.54979300  0.89803600  1
  Na  Na2  1  0.23432400  0.97946400  0.07234600  1
  Na  Na3  1  0.74304900  0.45020700  0.10196400  1
  Na  Na4  1  0.75091300  0.90500900  0.32091700  1
  Na  Na5  1  0.24646800  0.74005000  0.48293600  1
  Na  Na6  1  0.75353200  0.25995000  0.51706400  1
  Na  Na7  1  0.24908700  0.09499100  0.67908300  1
  Ni  Ni8  1  0.21864800  0.34896900  0.25542200  1
  Ni  Ni9  1  0.78135200  0.65103100  0.74457800  1
  O  O10  1  0.52347600  0.79254400  0.88414200  1
  O  O11  1  0.97840900  0.33156700  0.86083300  1
  O  O12  1  0.02159100  0.66843300  0.13916700  1
  O  O13  1  0.47652400  0.20745600  0.11585800  1
  O  O14  1  0.02464300  0.13494600  0.30340500  1
  O  O15  1  0.35649700  0.34184600  0.42925600  1
  O  O16  1  0.97535700  0.86505400  0.69659500  1
  O  O17  1  0.64350300  0.65815400  0.57074400  1
