# generated using pymatgen
data_Fe2OF3
_symmetry_space_group_name_H-M   'P 1'
_cell_length_a   3.10580800
_cell_length_b   4.85121700
_cell_length_c   9.68896500
_cell_angle_alpha   90.00000000
_cell_angle_beta   90.00000000
_cell_angle_gamma   90.00000000
_symmetry_Int_Tables_number   1
_chemical_formula_structural   Fe2OF3
_chemical_formula_sum   'Fe4 O2 F6'
_cell_volume   145.98313734
_cell_formula_units_Z   2
loop_
 _symmetry_equiv_pos_site_id
 _symmetry_equiv_pos_as_xyz
  1  'x, y, z'
loop_
 _atom_site_type_symbol
 _atom_site_label
 _atom_site_symmetry_multiplicity
 _atom_site_fract_x
 _atom_site_fract_y
 _atom_site_fract_z
 _atom_site_occupancy
  Fe  Fe0  1  0.50000000  0.53200600  0.36200600  1
  Fe  Fe1  1  0.50000000  0.47670200  0.87018400  1
  Fe  Fe2  1  0.00000000  0.03200600  0.63799400  1
  Fe  Fe3  1  0.00000000  0.97670200  0.12981600  1
  O  O4  1  0.00000000  0.69153800  0.28427400  1
  O  O5  1  0.50000000  0.19153800  0.71572600  1
  F  F6  1  0.00000000  0.70214800  0.76759800  1
  F  F7  1  0.50000000  0.80354900  0.52856200  1
  F  F8  1  0.50000000  0.79405800  0.02002600  1
  F  F9  1  0.50000000  0.20214800  0.23240200  1
  F  F10  1  0.00000000  0.29405800  0.97997400  1
  F  F11  1  0.00000000  0.30354900  0.47143800  1
