# generated using pymatgen
data_Li4Fe2Ni3Sb3O16
_symmetry_space_group_name_H-M   'P 1'
_cell_length_a   6.08651661
_cell_length_b   6.08651661
_cell_length_c   9.68292816
_cell_angle_alpha   88.71908389
_cell_angle_beta   88.71908389
_cell_angle_gamma   59.71608024
_symmetry_Int_Tables_number   1
_chemical_formula_structural   Li4Fe2Ni3Sb3O16
_chemical_formula_sum   'Li4 Fe2 Ni3 Sb3 O16'
_cell_volume   309.65708561
_cell_formula_units_Z   1
loop_
 _symmetry_equiv_pos_site_id
 _symmetry_equiv_pos_as_xyz
  1  'x, y, z'
loop_
 _atom_site_type_symbol
 _atom_site_label
 _atom_site_symmetry_multiplicity
 _atom_site_fract_x
 _atom_site_fract_y
 _atom_site_fract_z
 _atom_site_occupancy
  Li  Li0  1  0.66640900  0.66640900  0.11744000  1
  Li  Li1  1  0.98262300  0.98262300  0.01286400  1
  Li  Li2  1  0.98934100  0.98934100  0.49472500  1
  Li  Li3  1  0.32798500  0.32798500  0.60007100  1
  Fe  Fe4  1  0.67805900  0.67805900  0.48964000  1
  Fe  Fe5  1  0.35283800  0.35283800  0.02515200  1
  Ni  Ni6  1  0.82994200  0.82994200  0.78454400  1
  Ni  Ni7  1  0.66079600  0.17132200  0.28685000  1
  Ni  Ni8  1  0.17132200  0.66079600  0.28685000  1
  Sb  Sb9  1  0.83191900  0.33673800  0.78405200  1
  Sb  Sb10  1  0.33673800  0.83191900  0.78405200  1
  Sb  Sb11  1  0.17090400  0.17090400  0.28407100  1
  O  O12  1  0.84850300  0.32992800  0.40479900  1
  O  O13  1  0.51157700  0.51157700  0.66559600  1
  O  O14  1  0.66205200  0.66205200  0.89909000  1
  O  O15  1  0.00163500  0.00163500  0.68210400  1
  O  O16  1  0.99946100  0.99946100  0.19724800  1
  O  O17  1  0.32992800  0.84850300  0.40479900  1
  O  O18  1  0.96298400  0.51037700  0.66185100  1
  O  O19  1  0.51037700  0.96298400  0.66185100  1
  O  O20  1  0.15515700  0.15515700  0.89826700  1
  O  O21  1  0.83746500  0.83746500  0.39506700  1
  O  O22  1  0.47614700  0.03495700  0.15504200  1
  O  O23  1  0.03495700  0.47614700  0.15504200  1
  O  O24  1  0.33392500  0.33392500  0.39042000  1
  O  O25  1  0.67800800  0.17231400  0.90159900  1
  O  O26  1  0.48142500  0.48142500  0.16766200  1
  O  O27  1  0.17231400  0.67800800  0.90159900  1
