# generated using pymatgen
data_Mn3SbO8
_symmetry_space_group_name_H-M   'P 1'
_cell_length_a   5.98852885
_cell_length_b   5.98852885
_cell_length_c   5.98852878
_cell_angle_alpha   61.00577567
_cell_angle_beta   61.00577567
_cell_angle_gamma   61.00577134
_symmetry_Int_Tables_number   1
_chemical_formula_structural   Mn3SbO8
_chemical_formula_sum   'Mn3 Sb1 O8'
_cell_volume   155.30097394
_cell_formula_units_Z   1
loop_
 _symmetry_equiv_pos_site_id
 _symmetry_equiv_pos_as_xyz
  1  'x, y, z'
loop_
 _atom_site_type_symbol
 _atom_site_label
 _atom_site_symmetry_multiplicity
 _atom_site_fract_x
 _atom_site_fract_y
 _atom_site_fract_z
 _atom_site_occupancy
  Mn  Mn0  1  0.50000000  0.50000000  0.00000000  1
  Mn  Mn1  1  0.00000000  0.50000000  0.50000000  1
  Mn  Mn2  1  0.50000000  0.00000000  0.50000000  1
  Sb  Sb3  1  0.00000000  0.00000000  0.00000000  1
  O  O4  1  0.27309400  0.27309400  0.27309400  1
  O  O5  1  0.76529300  0.76529300  0.26428700  1
  O  O6  1  0.26428700  0.76529300  0.76529300  1
  O  O7  1  0.72690600  0.72690600  0.72690600  1
  O  O8  1  0.76529300  0.26428700  0.76529300  1
  O  O9  1  0.23470700  0.23470700  0.73571300  1
  O  O10  1  0.73571300  0.23470700  0.23470700  1
  O  O11  1  0.23470700  0.73571300  0.23470700  1
