# generated using pymatgen
data_Ba(WO3)6
_symmetry_space_group_name_H-M   'P 1'
_cell_length_a   7.46692634
_cell_length_b   7.46692634
_cell_length_c   7.69189500
_cell_angle_alpha   90.00000000
_cell_angle_beta   90.00000000
_cell_angle_gamma   120.00000304
_symmetry_Int_Tables_number   1
_chemical_formula_structural   Ba(WO3)6
_chemical_formula_sum   'Ba1 W6 O18'
_cell_volume   371.40496068
_cell_formula_units_Z   1
loop_
 _symmetry_equiv_pos_site_id
 _symmetry_equiv_pos_as_xyz
  1  'x, y, z'
loop_
 _atom_site_type_symbol
 _atom_site_label
 _atom_site_symmetry_multiplicity
 _atom_site_fract_x
 _atom_site_fract_y
 _atom_site_fract_z
 _atom_site_occupancy
  Ba  Ba0  1  0.00000000  0.00000000  0.56592800  1
  W  W1  1  0.00000000  0.50432100  0.75163400  1
  W  W2  1  0.00000000  0.49239400  0.25009500  1
  W  W3  1  0.49567900  0.49567900  0.75163400  1
  W  W4  1  0.50760600  0.50760600  0.25009500  1
  W  W5  1  0.49239400  0.00000000  0.25009500  1
  W  W6  1  0.50432100  0.00000000  0.75163400  1
  O  O7  1  0.00000000  0.49867000  0.99906900  1
  O  O8  1  0.00000000  0.49877400  0.50108600  1
  O  O9  1  0.21052300  0.78679300  0.25327200  1
  O  O10  1  0.20953000  0.79111400  0.74596500  1
  O  O11  1  0.20888600  0.41841600  0.74596500  1
  O  O12  1  0.21320700  0.42373000  0.25327200  1
  O  O13  1  0.57627000  0.78947700  0.25327200  1
  O  O14  1  0.58158400  0.79047000  0.74596500  1
  O  O15  1  0.50133000  0.50133000  0.99906900  1
  O  O16  1  0.50122600  0.50122600  0.50108600  1
  O  O17  1  0.42373000  0.21320700  0.25327200  1
  O  O18  1  0.41841600  0.20888600  0.74596500  1
  O  O19  1  0.49877400  0.00000000  0.50108600  1
  O  O20  1  0.79047000  0.58158400  0.74596500  1
  O  O21  1  0.78947700  0.57627000  0.25327200  1
  O  O22  1  0.49867000  0.00000000  0.99906900  1
  O  O23  1  0.78679300  0.21052300  0.25327200  1
  O  O24  1  0.79111400  0.20953000  0.74596500  1
