# generated using pymatgen
data_Co3NiO8
_symmetry_space_group_name_H-M   'P 1'
_cell_length_a   5.60458190
_cell_length_b   7.98448837
_cell_length_c   5.65131994
_cell_angle_alpha   90.24314947
_cell_angle_beta   89.95989946
_cell_angle_gamma   90.00230218
_symmetry_Int_Tables_number   1
_chemical_formula_structural   Co3NiO8
_chemical_formula_sum   'Co6 Ni2 O16'
_cell_volume   252.89263974
_cell_formula_units_Z   2
loop_
 _symmetry_equiv_pos_site_id
 _symmetry_equiv_pos_as_xyz
  1  'x, y, z'
loop_
 _atom_site_type_symbol
 _atom_site_label
 _atom_site_symmetry_multiplicity
 _atom_site_fract_x
 _atom_site_fract_y
 _atom_site_fract_z
 _atom_site_occupancy
  Co  Co0  1  0.25013500  0.25038600  0.74968800  1
  Co  Co1  1  0.74987700  0.74960800  0.25031600  1
  Co  Co2  1  0.49992900  0.00002800  0.99998800  1
  Co  Co3  1  0.00002900  0.49998000  0.50002100  1
  Co  Co4  1  0.74985300  0.25044400  0.74981300  1
  Co  Co5  1  0.25016100  0.74957000  0.25018800  1
  Ni  Ni6  1  0.50007600  0.99997400  0.49991700  1
  Ni  Ni7  1  0.99996700  0.49998600  0.00005200  1
  O  O8  1  0.50018000  0.76420800  0.02930500  1
  O  O9  1  0.99973400  0.26453500  0.52643400  1
  O  O10  1  0.49968100  0.23584400  0.97066400  1
  O  O11  1  0.00040700  0.73542700  0.47359900  1
  O  O12  1  0.99997900  0.73499600  0.02767700  1
  O  O13  1  0.50012300  0.23494800  0.52680700  1
  O  O14  1  0.22121000  0.51410400  0.24863600  1
  O  O15  1  0.72329400  0.01456100  0.74979300  1
  O  O16  1  0.77857100  0.51390700  0.24894800  1
  O  O17  1  0.27663500  0.01486700  0.74978500  1
  O  O18  1  0.22140300  0.48603700  0.75121700  1
  O  O19  1  0.72337800  0.98517400  0.25002100  1
  O  O20  1  0.77881200  0.48587600  0.75138000  1
  O  O21  1  0.27666300  0.98548500  0.25022200  1
  O  O22  1  0.99986200  0.26500100  0.97241200  1
  O  O23  1  0.50004100  0.76505400  0.47311400  1
