# generated using pymatgen
data_Rb3YO3
_symmetry_space_group_name_H-M   'P 1'
_cell_length_a   7.35998814
_cell_length_b   7.35998814
_cell_length_c   7.30328935
_cell_angle_alpha   85.21899673
_cell_angle_beta   85.21899673
_cell_angle_gamma   116.18398688
_symmetry_Int_Tables_number   1
_chemical_formula_structural   Rb3YO3
_chemical_formula_sum   'Rb6 Y2 O6'
_cell_volume   350.57599191
_cell_formula_units_Z   2
loop_
 _symmetry_equiv_pos_site_id
 _symmetry_equiv_pos_as_xyz
  1  'x, y, z'
loop_
 _atom_site_type_symbol
 _atom_site_label
 _atom_site_symmetry_multiplicity
 _atom_site_fract_x
 _atom_site_fract_y
 _atom_site_fract_z
 _atom_site_occupancy
  Rb  Rb0  1  0.63688000  0.63688000  0.64289700  1
  Rb  Rb1  1  0.20498500  0.79501500  0.50000000  1
  Rb  Rb2  1  0.79501500  0.20498500  0.50000000  1
  Rb  Rb3  1  0.73949700  0.26050300  0.00000000  1
  Rb  Rb4  1  0.26050300  0.73949700  0.00000000  1
  Rb  Rb5  1  0.36312000  0.36312000  0.35710300  1
  Y  Y6  1  0.82168900  0.82168900  0.14984800  1
  Y  Y7  1  0.17831100  0.17831100  0.85015200  1
  O  O8  1  0.89713100  0.89713100  0.84368000  1
  O  O9  1  0.83047200  0.55169200  0.26934600  1
  O  O10  1  0.55169200  0.83047200  0.26934600  1
  O  O11  1  0.16952800  0.44830800  0.73065400  1
  O  O12  1  0.44830800  0.16952800  0.73065400  1
  O  O13  1  0.10286900  0.10286900  0.15632000  1
