# generated using pymatgen
data_La2Se2O
_symmetry_space_group_name_H-M   'P 1'
_cell_length_a   7.50910500
_cell_length_b   7.49488100
_cell_length_c   9.03745513
_cell_angle_alpha   80.15385891
_cell_angle_beta   90.00000000
_cell_angle_gamma   90.00000000
_symmetry_Int_Tables_number   1
_chemical_formula_structural   La2Se2O
_chemical_formula_sum   'La8 Se8 O4'
_cell_volume   501.13479267
_cell_formula_units_Z   4
loop_
 _symmetry_equiv_pos_site_id
 _symmetry_equiv_pos_as_xyz
  1  'x, y, z'
loop_
 _atom_site_type_symbol
 _atom_site_label
 _atom_site_symmetry_multiplicity
 _atom_site_fract_x
 _atom_site_fract_y
 _atom_site_fract_z
 _atom_site_occupancy
  La  La0  1  0.44747200  0.24506000  0.14261200  1
  La  La1  1  0.05252800  0.74506000  0.14261200  1
  La  La2  1  0.85166000  0.32490700  0.42609700  1
  La  La3  1  0.64834000  0.82490700  0.42609700  1
  La  La4  1  0.35166000  0.17509300  0.57390300  1
  La  La5  1  0.14834000  0.67509300  0.57390300  1
  La  La6  1  0.94747200  0.25494000  0.85738800  1
  La  La7  1  0.55252800  0.75494000  0.85738800  1
  Se  Se8  1  0.77699300  0.47141800  0.07864600  1
  Se  Se9  1  0.72300700  0.97141800  0.07864600  1
  Se  Se10  1  0.12947600  0.06591700  0.32012100  1
  Se  Se11  1  0.37052400  0.56591700  0.32012100  1
  Se  Se12  1  0.62947600  0.43408300  0.67987900  1
  Se  Se13  1  0.87052400  0.93408300  0.67987900  1
  Se  Se14  1  0.27699300  0.02858200  0.92135400  1
  Se  Se15  1  0.22300700  0.52858200  0.92135400  1
  O  O16  1  0.58368900  0.14879100  0.38544200  1
  O  O17  1  0.91631100  0.64879100  0.38544200  1
  O  O18  1  0.08368900  0.35120900  0.61455800  1
  O  O19  1  0.41631100  0.85120900  0.61455800  1
