# generated using pymatgen
data_TePb3
_symmetry_space_group_name_H-M   'P 1'
_cell_length_a   7.06730691
_cell_length_b   7.06730691
_cell_length_c   5.96323700
_cell_angle_alpha   90.00000000
_cell_angle_beta   90.00000000
_cell_angle_gamma   119.99998975
_symmetry_Int_Tables_number   1
_chemical_formula_structural   TePb3
_chemical_formula_sum   'Te2 Pb6'
_cell_volume   257.94116051
_cell_formula_units_Z   2
loop_
 _symmetry_equiv_pos_site_id
 _symmetry_equiv_pos_as_xyz
  1  'x, y, z'
loop_
 _atom_site_type_symbol
 _atom_site_label
 _atom_site_symmetry_multiplicity
 _atom_site_fract_x
 _atom_site_fract_y
 _atom_site_fract_z
 _atom_site_occupancy
  Te  Te0  1  0.33333300  0.66666700  0.75000000  1
  Te  Te1  1  0.66666700  0.33333300  0.25000000  1
  Pb  Pb2  1  0.16741200  0.33482400  0.25000000  1
  Pb  Pb3  1  0.66517600  0.83258800  0.25000000  1
  Pb  Pb4  1  0.16741200  0.83258800  0.25000000  1
  Pb  Pb5  1  0.83258800  0.66517600  0.75000000  1
  Pb  Pb6  1  0.33482400  0.16741200  0.75000000  1
  Pb  Pb7  1  0.83258800  0.16741200  0.75000000  1
