# generated using pymatgen
data_Na5Mn2P2(CO7)2
_symmetry_space_group_name_H-M   'P 1'
_cell_length_a   6.63058431
_cell_length_b   10.56808174
_cell_length_c   10.43393500
_cell_angle_alpha   119.59234913
_cell_angle_beta   88.81323704
_cell_angle_gamma   90.14698718
_symmetry_Int_Tables_number   1
_chemical_formula_structural   Na5Mn2P2(CO7)2
_chemical_formula_sum   'Na10 Mn4 P4 C4 O28'
_cell_volume   635.60315997
_cell_formula_units_Z   2
loop_
 _symmetry_equiv_pos_site_id
 _symmetry_equiv_pos_as_xyz
  1  'x, y, z'
loop_
 _atom_site_type_symbol
 _atom_site_label
 _atom_site_symmetry_multiplicity
 _atom_site_fract_x
 _atom_site_fract_y
 _atom_site_fract_z
 _atom_site_occupancy
  Na  Na0  1  0.22634000  0.43257800  0.08958200  1
  Na  Na1  1  0.22644500  0.93231900  0.08965900  1
  Na  Na2  1  0.49461700  0.25403600  0.26237600  1
  Na  Na3  1  0.49495500  0.75404300  0.26242200  1
  Na  Na4  1  0.50149800  0.74401300  0.73944200  1
  Na  Na5  1  0.50155600  0.24416800  0.73943900  1
  Na  Na6  1  0.99011300  0.74237700  0.73544800  1
  Na  Na7  1  0.99004000  0.24230700  0.73546900  1
  Na  Na8  1  0.76210900  0.58080700  0.92871200  1
  Na  Na9  1  0.76205300  0.08078600  0.92862200  1
  Mn  Mn10  1  0.76303700  0.06482100  0.34953800  1
  Mn  Mn11  1  0.24908000  0.43494600  0.64598300  1
  Mn  Mn12  1  0.76282500  0.56417300  0.34942100  1
  Mn  Mn13  1  0.24926400  0.93478000  0.64585100  1
  P  P14  1  0.25685400  0.56091000  0.42112100  1
  P  P15  1  0.25699700  0.06090700  0.42117100  1
  P  P16  1  0.74723000  0.43898400  0.58074800  1
  P  P17  1  0.74743000  0.93888000  0.58049500  1
  C  C18  1  0.74272700  0.39047300  0.05735100  1
  C  C19  1  0.74272400  0.89053500  0.05728100  1
  C  C20  1  0.25243100  0.60660500  0.93585400  1
  C  C21  1  0.25257700  0.10640300  0.93572700  1
  O  O22  1  0.27465900  0.17062000  0.07399800  1
  O  O23  1  0.27465300  0.67109500  0.07412600  1
  O  O24  1  0.75693700  0.53288600  0.12965300  1
  O  O25  1  0.75696100  0.03298300  0.12961300  1
  O  O26  1  0.73259300  0.32232400  0.13072300  1
  O  O27  1  0.73259300  0.82235500  0.13061200  1
  O  O28  1  0.07039100  0.54207400  0.32685300  1
  O  O29  1  0.07061200  0.04203300  0.32685100  1
  O  O30  1  0.44224400  0.55125200  0.32225000  1
  O  O31  1  0.44238900  0.05131600  0.32237400  1
  O  O32  1  0.27350300  0.43334200  0.45575400  1
  O  O33  1  0.27361900  0.93328500  0.45577400  1
  O  O34  1  0.74049900  0.29566100  0.43584900  1
  O  O35  1  0.74072700  0.79539300  0.43586500  1
  O  O36  1  0.25077500  0.70558800  0.57001900  1
  O  O37  1  0.25074900  0.20554900  0.57010700  1
  O  O38  1  0.74912600  0.57229900  0.55320800  1
  O  O39  1  0.74914100  0.07220300  0.55294000  1
  O  O40  1  0.56235500  0.45847300  0.68594500  1
  O  O41  1  0.56257700  0.95851600  0.68583000  1
  O  O42  1  0.93413500  0.45148900  0.67603800  1
  O  O43  1  0.93445400  0.95171200  0.67587300  1
  O  O44  1  0.23941100  0.67485200  0.86063900  1
  O  O45  1  0.23964400  0.17488800  0.86074100  1
  O  O46  1  0.24026300  0.46218900  0.86036400  1
  O  O47  1  0.24046700  0.96198800  0.85999000  1
  O  O48  1  0.74370400  0.82310800  0.91399300  1
  O  O49  1  0.74372000  0.32295400  0.91402400  1
