# generated using pymatgen
data_Ce3Y4O12
_symmetry_space_group_name_H-M   'P 1'
_cell_length_a   13.94079884
_cell_length_b   13.94079884
_cell_length_c   5.49971289
_cell_angle_alpha   78.81214631
_cell_angle_beta   78.81214631
_cell_angle_gamma   15.49671748
_symmetry_Int_Tables_number   1
_chemical_formula_structural   Ce3Y4O12
_chemical_formula_sum   'Ce3 Y4 O12'
_cell_volume   280.04929651
_cell_formula_units_Z   1
loop_
 _symmetry_equiv_pos_site_id
 _symmetry_equiv_pos_as_xyz
  1  'x, y, z'
loop_
 _atom_site_type_symbol
 _atom_site_label
 _atom_site_symmetry_multiplicity
 _atom_site_fract_x
 _atom_site_fract_y
 _atom_site_fract_z
 _atom_site_occupancy
  Ce  Ce0  1  0.85675500  0.85675500  0.14532000  1
  Ce  Ce1  1  0.28030900  0.28030900  0.72180000  1
  Ce  Ce2  1  0.42494100  0.42494100  0.56783400  1
  Y  Y3  1  0.00415100  0.00415100  0.05097500  1
  Y  Y4  1  0.57252200  0.57252200  0.42815600  1
  Y  Y5  1  0.71817800  0.71817800  0.29256500  1
  Y  Y6  1  0.14231500  0.14231500  0.80501300  1
  O  O7  1  0.20228600  0.20228600  0.03948200  1
  O  O8  1  0.08572000  0.08572000  0.16494300  1
  O  O9  1  0.92637300  0.92637300  0.32824800  1
  O  O10  1  0.35720000  0.35720000  0.38896900  1
  O  O11  1  0.50171300  0.50171300  0.26630000  1
  O  O12  1  0.78773500  0.78773500  0.46637300  1
  O  O13  1  0.05489300  0.05489300  0.68689400  1
  O  O14  1  0.21703100  0.21703100  0.53210200  1
  O  O15  1  0.64056700  0.64056700  0.59118500  1
  O  O16  1  0.78463800  0.78463800  0.97020500  1
  O  O17  1  0.35944900  0.35944900  0.88724400  1
  O  O18  1  0.94037700  0.94037700  0.80924700  1
