# generated using pymatgen
data_Na4CrO3
_symmetry_space_group_name_H-M   'P 1'
_cell_length_a   5.83226900
_cell_length_b   6.17568964
_cell_length_c   8.82163278
_cell_angle_alpha   66.93642863
_cell_angle_beta   90.00000000
_cell_angle_gamma   61.82307161
_symmetry_Int_Tables_number   1
_chemical_formula_structural   Na4CrO3
_chemical_formula_sum   'Na8 Cr2 O6'
_cell_volume   250.90629384
_cell_formula_units_Z   2
loop_
 _symmetry_equiv_pos_site_id
 _symmetry_equiv_pos_as_xyz
  1  'x, y, z'
loop_
 _atom_site_type_symbol
 _atom_site_label
 _atom_site_symmetry_multiplicity
 _atom_site_fract_x
 _atom_site_fract_y
 _atom_site_fract_z
 _atom_site_occupancy
  Na  Na0  1  0.94793300  0.78103800  0.94746500  1
  Na  Na1  1  0.27103000  0.78103800  0.44746400  1
  Na  Na2  1  0.84718600  0.60713900  0.62757600  1
  Na  Na3  1  0.50772600  0.38284300  0.85047700  1
  Na  Na4  1  0.54567600  0.60713900  0.12757600  1
  Na  Na5  1  0.10943200  0.38284300  0.35047700  1
  Na  Na6  1  0.74024600  0.21989300  0.53280500  1
  Na  Na7  1  0.03986100  0.21989300  0.03280500  1
  Cr  Cr8  1  0.32984500  0.04168500  0.74011100  1
  Cr  Cr9  1  0.62847000  0.04168500  0.24011100  1
  O  O10  1  0.63333000  0.70605700  0.84654800  1
  O  O11  1  0.66061200  0.70605700  0.34654800  1
  O  O12  1  0.33372700  0.35045500  0.61320900  1
  O  O13  1  0.01264900  0.12577100  0.79417800  1
  O  O14  1  0.31581800  0.35045500  0.11320900  1
  O  O15  1  0.86158100  0.12577100  0.29417800  1
