# generated using pymatgen
data_Li4Cu2Ni3Sb3O16
_symmetry_space_group_name_H-M   'P 1'
_cell_length_a   6.06382606
_cell_length_b   6.06382606
_cell_length_c   9.66925854
_cell_angle_alpha   87.86813451
_cell_angle_beta   87.86813451
_cell_angle_gamma   59.62215622
_symmetry_Int_Tables_number   1
_chemical_formula_structural   Li4Cu2Ni3Sb3O16
_chemical_formula_sum   'Li4 Cu2 Ni3 Sb3 O16'
_cell_volume   306.44434692
_cell_formula_units_Z   1
loop_
 _symmetry_equiv_pos_site_id
 _symmetry_equiv_pos_as_xyz
  1  'x, y, z'
loop_
 _atom_site_type_symbol
 _atom_site_label
 _atom_site_symmetry_multiplicity
 _atom_site_fract_x
 _atom_site_fract_y
 _atom_site_fract_z
 _atom_site_occupancy
  Li  Li0  1  0.67031500  0.67031500  0.11432000  1
  Li  Li1  1  0.97406800  0.97406800  0.01406200  1
  Li  Li2  1  0.98681700  0.98681700  0.49622100  1
  Li  Li3  1  0.32859100  0.32859100  0.59758900  1
  Cu  Cu4  1  0.67486500  0.67486500  0.50497500  1
  Cu  Cu5  1  0.35151800  0.35151800  0.02509800  1
  Ni  Ni6  1  0.82910400  0.82910400  0.78417200  1
  Ni  Ni7  1  0.17413500  0.66305500  0.28673000  1
  Ni  Ni8  1  0.66305500  0.17413500  0.28673000  1
  Sb  Sb9  1  0.33588700  0.82888400  0.78556500  1
  Sb  Sb10  1  0.82888400  0.33588700  0.78556500  1
  Sb  Sb11  1  0.17332200  0.17332200  0.28640700  1
  O  O12  1  0.33165100  0.84138300  0.40036400  1
  O  O13  1  0.51203000  0.51203000  0.66482800  1
  O  O14  1  0.65964100  0.65964100  0.89979200  1
  O  O15  1  0.00163000  0.00163000  0.68138000  1
  O  O16  1  0.00546200  0.00546200  0.19420700  1
  O  O17  1  0.84138300  0.33165100  0.40036400  1
  O  O18  1  0.50908700  0.96324900  0.65953500  1
  O  O19  1  0.96324900  0.50908700  0.65953500  1
  O  O20  1  0.15258000  0.15258000  0.89736500  1
  O  O21  1  0.83684600  0.83684600  0.39270100  1
  O  O22  1  0.04394500  0.48132800  0.15461000  1
  O  O23  1  0.48132800  0.04394500  0.15461000  1
  O  O24  1  0.33190800  0.33190800  0.39483200  1
  O  O25  1  0.16899000  0.67390800  0.90197600  1
  O  O26  1  0.48590200  0.48590200  0.16669700  1
  O  O27  1  0.67390800  0.16899000  0.90197600  1
