# generated using pymatgen
data_Ga4SiO8
_symmetry_space_group_name_H-M   'P 1'
_cell_length_a   6.40088779
_cell_length_b   6.40088779
_cell_length_c   9.40821080
_cell_angle_alpha   55.03108138
_cell_angle_beta   55.03108138
_cell_angle_gamma   26.94455657
_symmetry_Int_Tables_number   1
_chemical_formula_structural   Ga4SiO8
_chemical_formula_sum   'Ga4 Si1 O8'
_cell_volume   141.10890783
_cell_formula_units_Z   1
loop_
 _symmetry_equiv_pos_site_id
 _symmetry_equiv_pos_as_xyz
  1  'x, y, z'
loop_
 _atom_site_type_symbol
 _atom_site_label
 _atom_site_symmetry_multiplicity
 _atom_site_fract_x
 _atom_site_fract_y
 _atom_site_fract_z
 _atom_site_occupancy
  Ga  Ga0  1  0.75517600  0.75517600  0.64429700  1
  Ga  Ga1  1  0.46128200  0.46128200  0.72168500  1
  Ga  Ga2  1  0.53871800  0.53871800  0.27831500  1
  Ga  Ga3  1  0.24482400  0.24482400  0.35570300  1
  Si  Si4  1  0.00000000  0.00000000  0.00000000  1
  O  O5  1  0.88550100  0.88550100  0.70127700  1
  O  O6  1  0.84813700  0.84813700  0.20587400  1
  O  O7  1  0.64620800  0.64620800  0.53694200  1
  O  O8  1  0.44491900  0.44491900  0.93156600  1
  O  O9  1  0.55508100  0.55508100  0.06843400  1
  O  O10  1  0.35379200  0.35379200  0.46305800  1
  O  O11  1  0.15186300  0.15186300  0.79412600  1
  O  O12  1  0.11449900  0.11449900  0.29872300  1
