# generated using pymatgen
data_Rb2Ni2O3
_symmetry_space_group_name_H-M   'P 1'
_cell_length_a   6.15385500
_cell_length_b   7.96898700
_cell_length_c   11.71083600
_cell_angle_alpha   90.00000000
_cell_angle_beta   90.00000000
_cell_angle_gamma   90.00000000
_symmetry_Int_Tables_number   1
_chemical_formula_structural   Rb2Ni2O3
_chemical_formula_sum   'Rb8 Ni8 O12'
_cell_volume   574.29928613
_cell_formula_units_Z   4
loop_
 _symmetry_equiv_pos_site_id
 _symmetry_equiv_pos_as_xyz
  1  'x, y, z'
loop_
 _atom_site_type_symbol
 _atom_site_label
 _atom_site_symmetry_multiplicity
 _atom_site_fract_x
 _atom_site_fract_y
 _atom_site_fract_z
 _atom_site_occupancy
  Rb  Rb0  1  0.25000000  0.37143600  0.56269000  1
  Rb  Rb1  1  0.75000000  0.00604900  0.62461400  1
  Rb  Rb2  1  0.25000000  0.50604900  0.87538600  1
  Rb  Rb3  1  0.75000000  0.87143600  0.93731000  1
  Rb  Rb4  1  0.25000000  0.12856400  0.06269000  1
  Rb  Rb5  1  0.75000000  0.49395100  0.12461400  1
  Rb  Rb6  1  0.25000000  0.99395100  0.37538600  1
  Rb  Rb7  1  0.75000000  0.62856400  0.43731000  1
  Ni  Ni8  1  0.25000000  0.78415700  0.64752300  1
  Ni  Ni9  1  0.75000000  0.59003800  0.72592900  1
  Ni  Ni10  1  0.25000000  0.09003800  0.77407100  1
  Ni  Ni11  1  0.75000000  0.28415700  0.85247700  1
  Ni  Ni12  1  0.25000000  0.71584300  0.14752300  1
  Ni  Ni13  1  0.75000000  0.90996200  0.22592900  1
  Ni  Ni14  1  0.25000000  0.40996200  0.27407100  1
  Ni  Ni15  1  0.75000000  0.21584300  0.35247700  1
  O  O16  1  0.25000000  0.01509400  0.62288100  1
  O  O17  1  0.99951600  0.65648100  0.64873400  1
  O  O18  1  0.50048400  0.65648100  0.64873400  1
  O  O19  1  0.00048400  0.15648100  0.85126600  1
  O  O20  1  0.49951600  0.15648100  0.85126600  1
  O  O21  1  0.75000000  0.51509400  0.87711900  1
  O  O22  1  0.25000000  0.48490600  0.12288100  1
  O  O23  1  0.99951600  0.84351900  0.14873400  1
  O  O24  1  0.50048400  0.84351900  0.14873400  1
  O  O25  1  0.49951600  0.34351900  0.35126600  1
  O  O26  1  0.00048400  0.34351900  0.35126600  1
  O  O27  1  0.75000000  0.98490600  0.37711900  1
