# generated using pymatgen
data_NaSbO2
_symmetry_space_group_name_H-M   'P 1'
_cell_length_a   5.41264922
_cell_length_b   5.41264922
_cell_length_c   5.64064186
_cell_angle_alpha   63.91933428
_cell_angle_beta   63.91933428
_cell_angle_gamma   91.07836469
_symmetry_Int_Tables_number   1
_chemical_formula_structural   NaSbO2
_chemical_formula_sum   'Na2 Sb2 O4'
_cell_volume   128.62247441
_cell_formula_units_Z   2
loop_
 _symmetry_equiv_pos_site_id
 _symmetry_equiv_pos_as_xyz
  1  'x, y, z'
loop_
 _atom_site_type_symbol
 _atom_site_label
 _atom_site_symmetry_multiplicity
 _atom_site_fract_x
 _atom_site_fract_y
 _atom_site_fract_z
 _atom_site_occupancy
  Na  Na0  1  0.62311700  0.37688300  0.75000000  1
  Na  Na1  1  0.37688300  0.62311700  0.25000000  1
  Sb  Sb2  1  0.10794600  0.89205400  0.75000000  1
  Sb  Sb3  1  0.89205400  0.10794600  0.25000000  1
  O  O4  1  0.74042900  0.85641700  0.74733100  1
  O  O5  1  0.85641700  0.74042900  0.24733100  1
  O  O6  1  0.14358300  0.25957100  0.75266900  1
  O  O7  1  0.25957100  0.14358300  0.25266900  1
