# generated using pymatgen
data_Ba4HfO6
_symmetry_space_group_name_H-M   'P 1'
_cell_length_a   7.47476658
_cell_length_b   7.47476658
_cell_length_c   7.47476726
_cell_angle_alpha   89.51861194
_cell_angle_beta   89.51861194
_cell_angle_gamma   89.51861483
_symmetry_Int_Tables_number   1
_chemical_formula_structural   Ba4HfO6
_chemical_formula_sum   'Ba8 Hf2 O12'
_cell_volume   417.58723400
_cell_formula_units_Z   2
loop_
 _symmetry_equiv_pos_site_id
 _symmetry_equiv_pos_as_xyz
  1  'x, y, z'
loop_
 _atom_site_type_symbol
 _atom_site_label
 _atom_site_symmetry_multiplicity
 _atom_site_fract_x
 _atom_site_fract_y
 _atom_site_fract_z
 _atom_site_occupancy
  Ba  Ba0  1  0.75000000  0.11436300  0.38563700  1
  Ba  Ba1  1  0.61436300  0.25000000  0.88563700  1
  Ba  Ba2  1  0.88563700  0.61436300  0.25000000  1
  Ba  Ba3  1  0.25000000  0.25000000  0.25000000  1
  Ba  Ba4  1  0.75000000  0.75000000  0.75000000  1
  Ba  Ba5  1  0.11436300  0.38563700  0.75000000  1
  Ba  Ba6  1  0.38563700  0.75000000  0.11436300  1
  Ba  Ba7  1  0.25000000  0.88563700  0.61436300  1
  Hf  Hf8  1  0.50000000  0.50000000  0.50000000  1
  Hf  Hf9  1  0.00000000  0.00000000  0.00000000  1
  O  O10  1  0.92673700  0.05759300  0.72997300  1
  O  O11  1  0.94240700  0.27002700  0.07326300  1
  O  O12  1  0.77002700  0.44240700  0.57326300  1
  O  O13  1  0.27002700  0.07326300  0.94240700  1
  O  O14  1  0.42673700  0.22997300  0.55759300  1
  O  O15  1  0.55759300  0.42673700  0.22997300  1
  O  O16  1  0.44240700  0.57326300  0.77002700  1
  O  O17  1  0.57326300  0.77002700  0.44240700  1
  O  O18  1  0.72997300  0.92673700  0.05759300  1
  O  O19  1  0.22997300  0.55759300  0.42673700  1
  O  O20  1  0.05759300  0.72997300  0.92673700  1
  O  O21  1  0.07326300  0.94240700  0.27002700  1
