# generated using pymatgen
data_Fe6O5F7
_symmetry_space_group_name_H-M   'P 1'
_cell_length_a   4.76625200
_cell_length_b   5.66126114
_cell_length_c   7.88720742
_cell_angle_alpha   85.09557435
_cell_angle_beta   87.86098917
_cell_angle_gamma   87.21633699
_symmetry_Int_Tables_number   1
_chemical_formula_structural   Fe6O5F7
_chemical_formula_sum   'Fe6 O5 F7'
_cell_volume   211.67339774
_cell_formula_units_Z   1
loop_
 _symmetry_equiv_pos_site_id
 _symmetry_equiv_pos_as_xyz
  1  'x, y, z'
loop_
 _atom_site_type_symbol
 _atom_site_label
 _atom_site_symmetry_multiplicity
 _atom_site_fract_x
 _atom_site_fract_y
 _atom_site_fract_z
 _atom_site_occupancy
  Fe  Fe0  1  0.52195900  0.82521500  0.64752400  1
  Fe  Fe1  1  0.52606500  0.51828100  0.01072000  1
  Fe  Fe2  1  0.47250200  0.17154500  0.35076200  1
  Fe  Fe3  1  0.99989700  0.33476700  0.67415800  1
  Fe  Fe4  1  0.98755700  0.66456500  0.31519400  1
  Fe  Fe5  1  0.99168000  0.98894300  0.00094400  1
  O  O6  1  0.80710300  0.69650300  0.09988400  1
  O  O7  1  0.69760000  0.53277800  0.76690700  1
  O  O8  1  0.70221300  0.87602400  0.42753400  1
  O  O9  1  0.29463200  0.12756100  0.57600300  1
  O  O10  1  0.30558700  0.46310500  0.23346100  1
  F  F11  1  0.80682400  0.37033600  0.43815100  1
  F  F12  1  0.79458400  0.04044100  0.76197900  1
  F  F13  1  0.68592000  0.20398300  0.10851000  1
  F  F14  1  0.31541100  0.79709200  0.88761800  1
  F  F15  1  0.20665900  0.96242600  0.23659600  1
  F  F16  1  0.19161000  0.62614600  0.56284100  1
  F  F17  1  0.19219900  0.30028800  0.90121300  1
