# generated using pymatgen
data_BaSrI4
_symmetry_space_group_name_H-M   'P 1'
_cell_length_a   12.20986762
_cell_length_b   12.20986762
_cell_length_c   8.30069600
_cell_angle_alpha   90.00000000
_cell_angle_beta   90.00000000
_cell_angle_gamma   149.80446730
_symmetry_Int_Tables_number   1
_chemical_formula_structural   BaSrI4
_chemical_formula_sum   'Ba2 Sr2 I8'
_cell_volume   622.39119603
_cell_formula_units_Z   2
loop_
 _symmetry_equiv_pos_site_id
 _symmetry_equiv_pos_as_xyz
  1  'x, y, z'
loop_
 _atom_site_type_symbol
 _atom_site_label
 _atom_site_symmetry_multiplicity
 _atom_site_fract_x
 _atom_site_fract_y
 _atom_site_fract_z
 _atom_site_occupancy
  Ba  Ba0  1  0.81223000  0.18777000  0.10335200  1
  Ba  Ba1  1  0.18777000  0.81223000  0.60335200  1
  Sr  Sr2  1  0.58453700  0.41546300  0.00535000  1
  Sr  Sr3  1  0.41546300  0.58453700  0.50535000  1
  I  I4  1  0.90102900  0.09897100  0.44999100  1
  I  I5  1  0.54499700  0.45500300  0.62451700  1
  I  I6  1  0.67797800  0.32202200  0.31084300  1
  I  I7  1  0.70961000  0.29039000  0.79623900  1
  I  I8  1  0.09897100  0.90102900  0.94999100  1
  I  I9  1  0.29039000  0.70961000  0.29623900  1
  I  I10  1  0.45500300  0.54499700  0.12451700  1
  I  I11  1  0.32202200  0.67797800  0.81084300  1
