# generated using pymatgen
data_V2O3F
_symmetry_space_group_name_H-M   'P 1'
_cell_length_a   4.70667145
_cell_length_b   4.70666482
_cell_length_c   12.09797600
_cell_angle_alpha   90.00009262
_cell_angle_beta   89.99992412
_cell_angle_gamma   94.00902962
_symmetry_Int_Tables_number   1
_chemical_formula_structural   V2O3F
_chemical_formula_sum   'V8 O12 F4'
_cell_volume   267.34734261
_cell_formula_units_Z   4
loop_
 _symmetry_equiv_pos_site_id
 _symmetry_equiv_pos_as_xyz
  1  'x, y, z'
loop_
 _atom_site_type_symbol
 _atom_site_label
 _atom_site_symmetry_multiplicity
 _atom_site_fract_x
 _atom_site_fract_y
 _atom_site_fract_z
 _atom_site_occupancy
  V  V0  1  0.99998000  0.00001200  0.00001200  1
  V  V1  1  0.99580300  0.00419900  0.24999600  1
  V  V2  1  0.99998200  0.00002400  0.49998700  1
  V  V3  1  0.00419200  0.99580200  0.75000200  1
  V  V4  1  0.54389200  0.45610900  0.12472000  1
  V  V5  1  0.45609300  0.54390700  0.62472400  1
  V  V6  1  0.45609400  0.54390400  0.87527900  1
  V  V7  1  0.54389000  0.45610900  0.37528100  1
  O  O8  1  0.19663800  0.80336000  0.87506400  1
  O  O9  1  0.19663300  0.80336800  0.62494000  1
  O  O10  1  0.30766900  0.30765600  0.00000100  1
  O  O11  1  0.31112700  0.30346400  0.24999900  1
  O  O12  1  0.30766700  0.30765900  0.50000000  1
  O  O13  1  0.30347400  0.31111800  0.75000100  1
  O  O14  1  0.69234200  0.69233000  0.00000000  1
  O  O15  1  0.69653800  0.68887600  0.24999900  1
  O  O16  1  0.69234000  0.69233500  0.50000000  1
  O  O17  1  0.68888100  0.69652500  0.75000100  1
  O  O18  1  0.80336500  0.19663700  0.12494400  1
  O  O19  1  0.80336800  0.19663400  0.37505400  1
  F  F20  1  0.20011500  0.79988600  0.12503300  1
  F  F21  1  0.20010900  0.79989300  0.37496300  1
  F  F22  1  0.79990300  0.20009900  0.62503100  1
  F  F23  1  0.79990500  0.20009600  0.87497100  1
