# generated using pymatgen
data_Na3NiO2
_symmetry_space_group_name_H-M   'P 1'
_cell_length_a   5.54067200
_cell_length_b   6.30710600
_cell_length_c   10.82070900
_cell_angle_alpha   90.00000000
_cell_angle_beta   90.00000000
_cell_angle_gamma   90.00000000
_symmetry_Int_Tables_number   1
_chemical_formula_structural   Na3NiO2
_chemical_formula_sum   'Na12 Ni4 O8'
_cell_volume   378.13622919
_cell_formula_units_Z   4
loop_
 _symmetry_equiv_pos_site_id
 _symmetry_equiv_pos_as_xyz
  1  'x, y, z'
loop_
 _atom_site_type_symbol
 _atom_site_label
 _atom_site_symmetry_multiplicity
 _atom_site_fract_x
 _atom_site_fract_y
 _atom_site_fract_z
 _atom_site_occupancy
  Na  Na0  1  0.72224300  0.25000000  0.58800000  1
  Na  Na1  1  0.13829100  0.50289500  0.64174500  1
  Na  Na2  1  0.13829100  0.99710500  0.64174500  1
  Na  Na3  1  0.63829100  0.49710500  0.85825500  1
  Na  Na4  1  0.63829100  0.00289500  0.85825500  1
  Na  Na5  1  0.22224300  0.75000000  0.91200000  1
  Na  Na6  1  0.77775700  0.25000000  0.08800000  1
  Na  Na7  1  0.36170900  0.99710500  0.14174500  1
  Na  Na8  1  0.36170900  0.50289500  0.14174500  1
  Na  Na9  1  0.86170900  0.49710500  0.35825500  1
  Na  Na10  1  0.86170900  0.00289500  0.35825500  1
  Na  Na11  1  0.27775700  0.75000000  0.41200000  1
  Ni  Ni12  1  0.64987300  0.75000000  0.61467600  1
  Ni  Ni13  1  0.14987300  0.25000000  0.88532400  1
  Ni  Ni14  1  0.85012700  0.75000000  0.11467600  1
  Ni  Ni15  1  0.35012700  0.25000000  0.38532400  1
  O  O16  1  0.90681100  0.75000000  0.51610600  1
  O  O17  1  0.40916100  0.75000000  0.72510000  1
  O  O18  1  0.90916100  0.25000000  0.77490000  1
  O  O19  1  0.40681100  0.25000000  0.98389400  1
  O  O20  1  0.59318900  0.75000000  0.01610600  1
  O  O21  1  0.09083900  0.75000000  0.22510000  1
  O  O22  1  0.59083900  0.25000000  0.27490000  1
  O  O23  1  0.09318900  0.25000000  0.48389400  1
