# generated using pymatgen
data_Ca3Zr2O7
_symmetry_space_group_name_H-M   'P 1'
_cell_length_a   10.43677815
_cell_length_b   10.43677815
_cell_length_c   5.82143400
_cell_angle_alpha   90.00000000
_cell_angle_beta   90.00000000
_cell_angle_gamma   147.70452654
_symmetry_Int_Tables_number   1
_chemical_formula_structural   Ca3Zr2O7
_chemical_formula_sum   'Ca6 Zr4 O14'
_cell_volume   338.79448036
_cell_formula_units_Z   2
loop_
 _symmetry_equiv_pos_site_id
 _symmetry_equiv_pos_as_xyz
  1  'x, y, z'
loop_
 _atom_site_type_symbol
 _atom_site_label
 _atom_site_symmetry_multiplicity
 _atom_site_fract_x
 _atom_site_fract_y
 _atom_site_fract_z
 _atom_site_occupancy
  Ca  Ca0  1  0.93806200  0.55273900  0.75000000  1
  Ca  Ca1  1  0.44726100  0.06193800  0.25000000  1
  Ca  Ca2  1  0.72260000  0.72260000  0.75000000  1
  Ca  Ca3  1  0.27740000  0.27740000  0.25000000  1
  Ca  Ca4  1  0.55273900  0.93806200  0.75000000  1
  Ca  Ca5  1  0.06193800  0.44726100  0.25000000  1
  Zr  Zr6  1  0.85576400  0.65261000  0.25000000  1
  Zr  Zr7  1  0.34739000  0.14423600  0.75000000  1
  Zr  Zr8  1  0.14423600  0.34739000  0.75000000  1
  Zr  Zr9  1  0.65261000  0.85576400  0.25000000  1
  O  O10  1  0.87193100  0.12806900  0.00000000  1
  O  O11  1  0.87193100  0.12806900  0.50000000  1
  O  O12  1  0.84541500  0.44329800  0.25000000  1
  O  O13  1  0.55670200  0.15458500  0.75000000  1
  O  O14  1  0.57591900  0.42408100  0.00000000  1
  O  O15  1  0.57591900  0.42408100  0.50000000  1
  O  O16  1  0.87158900  0.87158900  0.25000000  1
  O  O17  1  0.12841100  0.12841100  0.75000000  1
  O  O18  1  0.42408100  0.57591900  0.50000000  1
  O  O19  1  0.42408100  0.57591900  0.00000000  1
  O  O20  1  0.15458500  0.55670200  0.75000000  1
  O  O21  1  0.44329800  0.84541500  0.25000000  1
  O  O22  1  0.12806900  0.87193100  0.50000000  1
  O  O23  1  0.12806900  0.87193100  0.00000000  1
