# generated using pymatgen
data_Fe3OF5
_symmetry_space_group_name_H-M   'P 1'
_cell_length_a   7.42558807
_cell_length_b   5.76338346
_cell_length_c   5.76971250
_cell_angle_alpha   71.24032618
_cell_angle_beta   73.23816362
_cell_angle_gamma   73.86053637
_symmetry_Int_Tables_number   1
_chemical_formula_structural   Fe3OF5
_chemical_formula_sum   'Fe6 O2 F10'
_cell_volume   219.15005702
_cell_formula_units_Z   2
loop_
 _symmetry_equiv_pos_site_id
 _symmetry_equiv_pos_as_xyz
  1  'x, y, z'
loop_
 _atom_site_type_symbol
 _atom_site_label
 _atom_site_symmetry_multiplicity
 _atom_site_fract_x
 _atom_site_fract_y
 _atom_site_fract_z
 _atom_site_occupancy
  Fe  Fe0  1  0.84239900  0.64010800  0.66802800  1
  Fe  Fe1  1  0.66788000  0.31134600  0.32237400  1
  Fe  Fe2  1  0.33223600  0.66800200  0.67666500  1
  Fe  Fe3  1  0.16206800  0.32768800  0.35405300  1
  Fe  Fe4  1  0.51178200  0.00477900  0.00408100  1
  Fe  Fe5  1  0.98168600  0.02965800  0.98501800  1
  O  O6  1  0.72294500  0.08835000  0.08753600  1
  O  O7  1  0.99151300  0.31724900  0.70627400  1
  F  F8  1  0.67658900  0.00232700  0.62691600  1
  F  F9  1  0.33117200  0.36850800  0.97437400  1
  F  F10  1  0.27654000  0.91918600  0.91270200  1
  F  F11  1  0.97467500  0.23021500  0.22448000  1
  F  F12  1  0.63843300  0.56346200  0.55748100  1
  F  F13  1  0.02037600  0.78232200  0.77331000  1
  F  F14  1  0.37016600  0.43826200  0.43289600  1
  F  F15  1  0.33506500  0.96523900  0.37520800  1
  F  F16  1  0.67047500  0.62433200  0.01296700  1
  F  F17  1  0.99399900  0.71896700  0.30563500  1
