# generated using pymatgen
data_Mn2Fe3P6WO24
_symmetry_space_group_name_H-M   'P 1'
_cell_length_a   8.68598980
_cell_length_b   8.68598980
_cell_length_c   8.68599022
_cell_angle_alpha   60.04383919
_cell_angle_beta   60.04383919
_cell_angle_gamma   60.04383342
_symmetry_Int_Tables_number   1
_chemical_formula_structural   Mn2Fe3P6WO24
_chemical_formula_sum   'Mn2 Fe3 P6 W1 O24'
_cell_volume   463.84649608
_cell_formula_units_Z   1
loop_
 _symmetry_equiv_pos_site_id
 _symmetry_equiv_pos_as_xyz
  1  'x, y, z'
loop_
 _atom_site_type_symbol
 _atom_site_label
 _atom_site_symmetry_multiplicity
 _atom_site_fract_x
 _atom_site_fract_y
 _atom_site_fract_z
 _atom_site_occupancy
  Mn  Mn0  1  0.99546900  0.99546900  0.99546900  1
  Mn  Mn1  1  0.49941400  0.49941400  0.49941400  1
  Fe  Fe2  1  0.64472100  0.64472100  0.64472100  1
  Fe  Fe3  1  0.85378700  0.85378700  0.85378700  1
  Fe  Fe4  1  0.35533100  0.35533100  0.35533100  1
  P  P5  1  0.95562400  0.25329900  0.54719400  1
  P  P6  1  0.54719400  0.95562400  0.25329900  1
  P  P7  1  0.25329900  0.54719400  0.95562400  1
  P  P8  1  0.74539000  0.46225000  0.04294300  1
  P  P9  1  0.46225000  0.04294300  0.74539000  1
  P  P10  1  0.04294300  0.74539000  0.46225000  1
  W  W11  1  0.14367800  0.14367800  0.14367800  1
  O  O12  1  0.50243000  0.11255700  0.31508300  1
  O  O13  1  0.31508300  0.50243000  0.11255700  1
  O  O14  1  0.11255700  0.31508300  0.50243000  1
  O  O15  1  0.94110500  0.08705000  0.73535500  1
  O  O16  1  0.99910900  0.18488500  0.38721100  1
  O  O17  1  0.76379900  0.41349900  0.55371500  1
  O  O18  1  0.73535500  0.94110500  0.08705000  1
  O  O19  1  0.55371500  0.76379900  0.41349900  1
  O  O20  1  0.81310500  0.61271700  0.00428300  1
  O  O21  1  0.41349900  0.55371500  0.76379900  1
  O  O22  1  0.91275000  0.26248400  0.06503900  1
  O  O23  1  0.61271700  0.00428300  0.81310500  1
  O  O24  1  0.38721100  0.99910900  0.18488500  1
  O  O25  1  0.08705000  0.73535500  0.94110500  1
  O  O26  1  0.58835900  0.43839200  0.23769800  1
  O  O27  1  0.18488500  0.38721100  0.99910900  1
  O  O28  1  0.43839200  0.23769800  0.58835900  1
  O  O29  1  0.26248400  0.06503900  0.91275000  1
  O  O30  1  0.23769800  0.58835900  0.43839200  1
  O  O31  1  0.00428300  0.81310500  0.61271700  1
  O  O32  1  0.06503900  0.91275000  0.26248400  1
  O  O33  1  0.88335000  0.69625500  0.49065800  1
  O  O34  1  0.69625500  0.49065800  0.88335000  1
  O  O35  1  0.49065800  0.88335000  0.69625500  1
