# generated using pymatgen
data_Mn3Co5O16
_symmetry_space_group_name_H-M   'P 1'
_cell_length_a   5.66822795
_cell_length_b   5.69578788
_cell_length_c   8.61146664
_cell_angle_alpha   89.99840078
_cell_angle_beta   90.65084888
_cell_angle_gamma   120.15687719
_symmetry_Int_Tables_number   1
_chemical_formula_structural   Mn3Co5O16
_chemical_formula_sum   'Mn3 Co5 O16'
_cell_volume   240.37139105
_cell_formula_units_Z   1
loop_
 _symmetry_equiv_pos_site_id
 _symmetry_equiv_pos_as_xyz
  1  'x, y, z'
loop_
 _atom_site_type_symbol
 _atom_site_label
 _atom_site_symmetry_multiplicity
 _atom_site_fract_x
 _atom_site_fract_y
 _atom_site_fract_z
 _atom_site_occupancy
  Mn  Mn0  1  0.66506100  0.83253300  0.21088600  1
  Mn  Mn1  1  0.83268900  0.66465600  0.71059200  1
  Mn  Mn2  1  0.83265800  0.16803100  0.71058600  1
  Co  Co3  1  0.16750800  0.83141800  0.20681900  1
  Co  Co4  1  0.33578000  0.66790100  0.48359100  1
  Co  Co5  1  0.16751100  0.33612200  0.20683300  1
  Co  Co6  1  0.33476500  0.16740400  0.70565600  1
  Co  Co7  1  0.66654500  0.33327900  0.98615600  1
  O  O8  1  0.17250800  0.83725900  0.60134500  1
  O  O9  1  0.04586800  0.52297100  0.33745100  1
  O  O10  1  0.32859700  0.66428400  0.09679100  1
  O  O11  1  0.00698100  0.00351300  0.31856800  1
  O  O12  1  0.00403100  0.00202600  0.82010000  1
  O  O13  1  0.17248700  0.33527400  0.60133900  1
  O  O14  1  0.47400100  0.95823600  0.34230300  1
  O  O15  1  0.47402100  0.51577200  0.34231100  1
  O  O16  1  0.33364800  0.16682000  0.10433400  1
  O  O17  1  0.65709800  0.82855400  0.59878900  1
  O  O18  1  0.51563800  0.47244800  0.84223200  1
  O  O19  1  0.51566100  0.04323000  0.84224800  1
  O  O20  1  0.66586000  0.33295400  0.59587900  1
  O  O21  1  0.83585100  0.66304700  0.10221600  1
  O  O22  1  0.95937100  0.47965900  0.84646800  1
  O  O23  1  0.83586000  0.17280800  0.10222500  1
