# generated using pymatgen
data_YAlO3
_symmetry_space_group_name_H-M   'P 1'
_cell_length_a   6.73805642
_cell_length_b   6.73805642
_cell_length_c   10.11813900
_cell_angle_alpha   90.00000000
_cell_angle_beta   90.00000000
_cell_angle_gamma   120.16636274
_symmetry_Int_Tables_number   1
_chemical_formula_structural   YAlO3
_chemical_formula_sum   'Y6 Al6 O18'
_cell_volume   397.16417997
_cell_formula_units_Z   6
loop_
 _symmetry_equiv_pos_site_id
 _symmetry_equiv_pos_as_xyz
  1  'x, y, z'
loop_
 _atom_site_type_symbol
 _atom_site_label
 _atom_site_symmetry_multiplicity
 _atom_site_fract_x
 _atom_site_fract_y
 _atom_site_fract_z
 _atom_site_occupancy
  Y  Y0  1  0.83014600  0.16985400  0.50000000  1
  Y  Y1  1  0.83014600  0.16985400  0.00000000  1
  Y  Y2  1  0.16985400  0.83014600  0.50000000  1
  Y  Y3  1  0.16985400  0.83014600  0.00000000  1
  Y  Y4  1  0.50000000  0.50000000  0.00000000  1
  Y  Y5  1  0.50000000  0.50000000  0.50000000  1
  Al  Al6  1  0.56552600  0.83439600  0.25000000  1
  Al  Al7  1  0.16560400  0.43447400  0.75000000  1
  Al  Al8  1  0.83439600  0.56552600  0.25000000  1
  Al  Al9  1  0.43447400  0.16560400  0.75000000  1
  Al  Al10  1  0.89325100  0.89325100  0.75000000  1
  Al  Al11  1  0.10674900  0.10674900  0.25000000  1
  O  O12  1  0.83614500  0.09292900  0.25000000  1
  O  O13  1  0.90707100  0.16385500  0.75000000  1
  O  O14  1  0.47774200  0.83366200  0.08814500  1
  O  O15  1  0.47774200  0.83366200  0.41185500  1
  O  O16  1  0.16633800  0.52225800  0.58814500  1
  O  O17  1  0.16633800  0.52225800  0.91185500  1
  O  O18  1  0.83366200  0.47774200  0.41185500  1
  O  O19  1  0.52225800  0.16633800  0.58814500  1
  O  O20  1  0.83366200  0.47774200  0.08814500  1
  O  O21  1  0.52225800  0.16633800  0.91185500  1
  O  O22  1  0.09292900  0.83614500  0.25000000  1
  O  O23  1  0.16385500  0.90707100  0.75000000  1
  O  O24  1  0.42558500  0.42558500  0.75000000  1
  O  O25  1  0.81220800  0.81220800  0.58368000  1
  O  O26  1  0.81220800  0.81220800  0.91632000  1
  O  O27  1  0.18779200  0.18779200  0.08368000  1
  O  O28  1  0.18779200  0.18779200  0.41632000  1
  O  O29  1  0.57441500  0.57441500  0.25000000  1
