# generated using pymatgen
data_Tm4(B2O5)3
_symmetry_space_group_name_H-M   'P 1'
_cell_length_a   8.08349637
_cell_length_b   8.08349637
_cell_length_c   8.08349580
_cell_angle_alpha   112.27806376
_cell_angle_beta   112.27806376
_cell_angle_gamma   112.27806105
_symmetry_Int_Tables_number   1
_chemical_formula_structural   Tm4(B2O5)3
_chemical_formula_sum   'Tm4 B6 O15'
_cell_volume   358.19442101
_cell_formula_units_Z   1
loop_
 _symmetry_equiv_pos_site_id
 _symmetry_equiv_pos_as_xyz
  1  'x, y, z'
loop_
 _atom_site_type_symbol
 _atom_site_label
 _atom_site_symmetry_multiplicity
 _atom_site_fract_x
 _atom_site_fract_y
 _atom_site_fract_z
 _atom_site_occupancy
  Tm  Tm0  1  0.10090500  0.80037200  0.27615600  1
  Tm  Tm1  1  0.80037200  0.27615600  0.10090500  1
  Tm  Tm2  1  0.99406200  0.99406200  0.99406200  1
  Tm  Tm3  1  0.27615600  0.10090500  0.80037200  1
  B  B4  1  0.26847200  0.49902600  0.19071900  1
  B  B5  1  0.50981200  0.85050200  0.59847200  1
  B  B6  1  0.85050200  0.59847200  0.50981200  1
  B  B7  1  0.49902600  0.19071900  0.26847200  1
  B  B8  1  0.19071900  0.26847200  0.49902600  1
  B  B9  1  0.59847200  0.50981200  0.85050200  1
  O  O10  1  0.80525700  0.71805600  0.98624400  1
  O  O11  1  0.08384600  0.50111100  0.11669700  1
  O  O12  1  0.35906900  0.89344100  0.59278100  1
  O  O13  1  0.47004400  0.68474100  0.40816300  1
  O  O14  1  0.24704300  0.31192300  0.05106700  1
  O  O15  1  0.89344100  0.59278100  0.35906900  1
  O  O16  1  0.98624400  0.80525700  0.71805600  1
  O  O17  1  0.50111100  0.11669700  0.08384600  1
  O  O18  1  0.05106700  0.24704300  0.31192300  1
  O  O19  1  0.68474100  0.40816300  0.47004400  1
  O  O20  1  0.40816300  0.47004400  0.68474100  1
  O  O21  1  0.31192300  0.05106700  0.24704300  1
  O  O22  1  0.11669700  0.08384600  0.50111100  1
  O  O23  1  0.59278100  0.35906900  0.89344100  1
  O  O24  1  0.71805600  0.98624400  0.80525700  1
