# generated using pymatgen
data_NiH12SO9
_symmetry_space_group_name_H-M   'P 1'
_cell_length_a   5.92963860
_cell_length_b   7.99361406
_cell_length_c   17.51515971
_cell_angle_alpha   90.00817566
_cell_angle_beta   89.99835395
_cell_angle_gamma   97.76310454
_symmetry_Int_Tables_number   1
_chemical_formula_structural   NiH12SO9
_chemical_formula_sum   'Ni4 H48 S4 O36'
_cell_volume   822.59648567
_cell_formula_units_Z   4
loop_
 _symmetry_equiv_pos_site_id
 _symmetry_equiv_pos_as_xyz
  1  'x, y, z'
loop_
 _atom_site_type_symbol
 _atom_site_label
 _atom_site_symmetry_multiplicity
 _atom_site_fract_x
 _atom_site_fract_y
 _atom_site_fract_z
 _atom_site_occupancy
  Ni  Ni0  1  0.00845000  0.00880100  0.50017200  1
  Ni  Ni1  1  0.00907200  0.50905900  0.75007100  1
  Ni  Ni2  1  0.00894900  0.00906200  0.00001900  1
  Ni  Ni3  1  0.00906600  0.50906000  0.25003800  1
  H  H4  1  0.95882200  0.29121700  0.63086000  1
  H  H5  1  0.95868900  0.79113300  0.88082200  1
  H  H6  1  0.95885900  0.29117300  0.13081300  1
  H  H7  1  0.95899900  0.79140900  0.38089600  1
  H  H8  1  0.02954000  0.75579400  0.60149500  1
  H  H9  1  0.02955300  0.25585100  0.85149600  1
  H  H10  1  0.02958600  0.75578600  0.10149000  1
  H  H11  1  0.02963200  0.25570700  0.35146400  1
  H  H12  1  0.55292500  0.49422600  0.26765100  1
  H  H13  1  0.55280300  0.99416800  0.51764600  1
  H  H14  1  0.55289500  0.49405900  0.76767700  1
  H  H15  1  0.55276500  0.99408900  0.01767400  1
  H  H16  1  0.06815600  0.34289600  0.46702800  1
  H  H17  1  0.06811600  0.84276300  0.71705200  1
  H  H18  1  0.06818000  0.34266100  0.96704900  1
  H  H19  1  0.06834500  0.84266200  0.21704400  1
  H  H20  1  0.27688800  0.23837200  0.58512600  1
  H  H21  1  0.27674700  0.73834200  0.83511800  1
  H  H22  1  0.27662600  0.23833200  0.08507600  1
  H  H23  1  0.27667700  0.73839700  0.33508500  1
  H  H24  1  0.40851900  0.17242500  0.44781100  1
  H  H25  1  0.40856900  0.67234000  0.69783400  1
  H  H26  1  0.40852100  0.17233900  0.94786500  1
  H  H27  1  0.40851100  0.67233000  0.19789100  1
  H  H28  1  0.14023500  0.69180200  0.52477000  1
  H  H29  1  0.14026300  0.19158900  0.77479600  1
  H  H30  1  0.14028700  0.69154900  0.02481000  1
  H  H31  1  0.14041400  0.19155900  0.27480100  1
  H  H32  1  0.64191500  0.44065600  0.34976100  1
  H  H33  1  0.64182500  0.94068100  0.59976100  1
  H  H34  1  0.64201200  0.44068100  0.84977400  1
  H  H35  1  0.64192100  0.94065000  0.09975300  1
  H  H36  1  0.74118800  0.39121600  0.62544800  1
  H  H37  1  0.74111900  0.89108400  0.87540700  1
  H  H38  1  0.74121600  0.39111500  0.12544200  1
  H  H39  1  0.74128000  0.89121200  0.37544900  1
  H  H40  1  0.18930900  0.58898100  0.39257100  1
  H  H41  1  0.18941000  0.08889000  0.64253600  1
  H  H42  1  0.18932100  0.58880700  0.89253900  1
  H  H43  1  0.18927100  0.08883100  0.14252400  1
  H  H44  1  0.37384400  0.49639900  0.65361600  1
  H  H45  1  0.37384200  0.99641400  0.90361400  1
  H  H46  1  0.37394400  0.49646700  0.15363100  1
  H  H47  1  0.37371500  0.99646500  0.40365500  1
  H  H48  1  0.80373800  0.28176800  0.45381000  1
  H  H49  1  0.80377400  0.78162700  0.70382800  1
  H  H50  1  0.80378700  0.28164700  0.95379300  1
  H  H51  1  0.80382700  0.78165300  0.20380200  1
  S  S52  1  0.49915900  0.49908100  0.50000500  1
  S  S53  1  0.49915700  0.99905300  0.74997100  1
  S  S54  1  0.49918400  0.49906000  0.99997700  1
  S  S55  1  0.49921200  0.99914200  0.24998200  1
  O  O56  1  0.08961800  0.79107300  0.55031300  1
  O  O57  1  0.08962800  0.29095100  0.80028900  1
  O  O58  1  0.08964100  0.79091500  0.05028400  1
  O  O59  1  0.08987500  0.29095700  0.30029800  1
  O  O60  1  0.69033400  0.49064200  0.29955400  1
  O  O61  1  0.69022200  0.99071900  0.54956200  1
  O  O62  1  0.69038800  0.49055000  0.79953900  1
  O  O63  1  0.69027400  0.99057700  0.04952700  1
  O  O64  1  0.89150500  0.39007900  0.65018400  1
  O  O65  1  0.89152100  0.89005500  0.90010600  1
  O  O66  1  0.89162000  0.39006700  0.15012500  1
  O  O67  1  0.89152000  0.89013800  0.40023000  1
  O  O68  1  0.14276000  0.65003300  0.34636800  1
  O  O69  1  0.14268200  0.15023800  0.59644800  1
  O  O70  1  0.14272000  0.65005600  0.84638600  1
  O  O71  1  0.14265100  0.15000600  0.09636300  1
  O  O72  1  0.34280400  0.54990700  0.70365200  1
  O  O73  1  0.34272100  0.04989900  0.95364100  1
  O  O74  1  0.34283700  0.54989500  0.20368600  1
  O  O75  1  0.34280400  0.04997700  0.45368500  1
  O  O76  1  0.95727100  0.24295200  0.45002400  1
  O  O77  1  0.95730900  0.74284800  0.69996200  1
  O  O78  1  0.95730400  0.24281700  0.94993500  1
  O  O79  1  0.95738000  0.74283300  0.19998000  1
  O  O80  1  0.24793300  0.51941200  0.48050700  1
  O  O81  1  0.24798000  0.01937200  0.73047300  1
  O  O82  1  0.24796500  0.51934200  0.98048500  1
  O  O83  1  0.24798100  0.01944300  0.23048200  1
  O  O84  1  0.48031700  0.40303300  0.57762100  1
  O  O85  1  0.48024500  0.90298500  0.82759000  1
  O  O86  1  0.48034000  0.40300500  0.07759200  1
  O  O87  1  0.48037500  0.90311100  0.32760700  1
  O  O88  1  0.55828000  0.36404000  0.44186200  1
  O  O89  1  0.55832400  0.86397000  0.69184100  1
  O  O90  1  0.55835000  0.36395900  0.94185400  1
  O  O91  1  0.55828600  0.86401300  0.19186200  1
