# generated using pymatgen
data_Tb3NbO7
_symmetry_space_group_name_H-M   'P 1'
_cell_length_a   6.47535329
_cell_length_b   6.47535329
_cell_length_c   7.57752000
_cell_angle_alpha   90.00000000
_cell_angle_beta   90.00000000
_cell_angle_gamma   110.40135720
_symmetry_Int_Tables_number   1
_chemical_formula_structural   Tb3NbO7
_chemical_formula_sum   'Tb6 Nb2 O14'
_cell_volume   297.79710610
_cell_formula_units_Z   2
loop_
 _symmetry_equiv_pos_site_id
 _symmetry_equiv_pos_as_xyz
  1  'x, y, z'
loop_
 _atom_site_type_symbol
 _atom_site_label
 _atom_site_symmetry_multiplicity
 _atom_site_fract_x
 _atom_site_fract_y
 _atom_site_fract_z
 _atom_site_occupancy
  Tb  Tb0  1  0.51483600  0.05609700  0.25000000  1
  Tb  Tb1  1  0.94390300  0.48516400  0.75000000  1
  Tb  Tb2  1  0.00000000  0.00000000  0.00000000  1
  Tb  Tb3  1  0.00000000  0.00000000  0.50000000  1
  Tb  Tb4  1  0.05609700  0.51483600  0.25000000  1
  Tb  Tb5  1  0.48516400  0.94390300  0.75000000  1
  Nb  Nb6  1  0.50000000  0.50000000  0.00000000  1
  Nb  Nb7  1  0.50000000  0.50000000  0.50000000  1
  O  O8  1  0.88681000  0.15185800  0.25000000  1
  O  O9  1  0.84814200  0.11319000  0.75000000  1
  O  O10  1  0.43436100  0.17590900  0.53361100  1
  O  O11  1  0.82409100  0.56563900  0.03361100  1
  O  O12  1  0.82409100  0.56563900  0.46638900  1
  O  O13  1  0.43436100  0.17590900  0.96638900  1
  O  O14  1  0.42319200  0.42319200  0.25000000  1
  O  O15  1  0.57680800  0.57680800  0.75000000  1
  O  O16  1  0.17590900  0.43436100  0.53361100  1
  O  O17  1  0.56563900  0.82409100  0.03361100  1
  O  O18  1  0.56563900  0.82409100  0.46638900  1
  O  O19  1  0.17590900  0.43436100  0.96638900  1
  O  O20  1  0.15185800  0.88681000  0.25000000  1
  O  O21  1  0.11319000  0.84814200  0.75000000  1
