# generated using pymatgen
data_Mn3Ni2P6WO24
_symmetry_space_group_name_H-M   'P 1'
_cell_length_a   8.59701052
_cell_length_b   8.59701052
_cell_length_c   8.59700998
_cell_angle_alpha   60.89731364
_cell_angle_beta   60.89731364
_cell_angle_gamma   60.89731308
_symmetry_Int_Tables_number   1
_chemical_formula_structural   Mn3Ni2P6WO24
_chemical_formula_sum   'Mn3 Ni2 P6 W1 O24'
_cell_volume   458.37791318
_cell_formula_units_Z   1
loop_
 _symmetry_equiv_pos_site_id
 _symmetry_equiv_pos_as_xyz
  1  'x, y, z'
loop_
 _atom_site_type_symbol
 _atom_site_label
 _atom_site_symmetry_multiplicity
 _atom_site_fract_x
 _atom_site_fract_y
 _atom_site_fract_z
 _atom_site_occupancy
  Mn  Mn0  1  0.35718500  0.35718500  0.35718500  1
  Mn  Mn1  1  0.14560800  0.14560800  0.14560800  1
  Mn  Mn2  1  0.64334500  0.64334500  0.64334500  1
  Ni  Ni3  1  0.00765600  0.00765600  0.00765600  1
  Ni  Ni4  1  0.50112300  0.50112300  0.50112300  1
  P  P5  1  0.44979700  0.74743600  0.04770600  1
  P  P6  1  0.74743600  0.04770600  0.44979700  1
  P  P7  1  0.04770600  0.44979700  0.74743600  1
  P  P8  1  0.95078100  0.54017500  0.25726700  1
  P  P9  1  0.25726700  0.95078100  0.54017500  1
  P  P10  1  0.54017500  0.25726700  0.95078100  1
  W  W11  1  0.85760500  0.85760500  0.85760500  1
  O  O12  1  0.68126500  0.89359200  0.49266400  1
  O  O13  1  0.89359200  0.49266400  0.68126500  1
  O  O14  1  0.49266400  0.68126500  0.89359200  1
  O  O15  1  0.25877400  0.91064600  0.05856100  1
  O  O16  1  0.61683800  0.82563900  0.98323300  1
  O  O17  1  0.45486200  0.59889400  0.24033700  1
  O  O18  1  0.91064600  0.05856100  0.25877400  1
  O  O19  1  0.59889400  0.24033700  0.45486200  1
  O  O20  1  0.98832800  0.39012600  0.18647500  1
  O  O21  1  0.24033700  0.45486200  0.59889400  1
  O  O22  1  0.92550800  0.74451800  0.08800600  1
  O  O23  1  0.18647500  0.98832800  0.39012600  1
  O  O24  1  0.82563900  0.98323300  0.61683800  1
  O  O25  1  0.05856100  0.25877400  0.91064600  1
  O  O26  1  0.75246100  0.56253600  0.40768200  1
  O  O27  1  0.98323300  0.61683800  0.82563900  1
  O  O28  1  0.40768200  0.75246100  0.56253600  1
  O  O29  1  0.08800600  0.92550800  0.74451800  1
  O  O30  1  0.56253600  0.40768200  0.75246100  1
  O  O31  1  0.39012600  0.18647500  0.98832800  1
  O  O32  1  0.74451800  0.08800600  0.92550800  1
  O  O33  1  0.52087800  0.30751100  0.10495500  1
  O  O34  1  0.10495500  0.52087800  0.30751100  1
  O  O35  1  0.30751100  0.10495500  0.52087800  1
