# generated using pymatgen
data_La5Ta22O62
_symmetry_space_group_name_H-M   'P 1'
_cell_length_a   12.97897467
_cell_length_b   12.97897467
_cell_length_c   12.37672758
_cell_angle_alpha   88.24330077
_cell_angle_beta   88.24330077
_cell_angle_gamma   35.03568974
_symmetry_Int_Tables_number   1
_chemical_formula_structural   La5Ta22O62
_chemical_formula_sum   'La5 Ta22 O62'
_cell_volume   1196.29829436
_cell_formula_units_Z   1
loop_
 _symmetry_equiv_pos_site_id
 _symmetry_equiv_pos_as_xyz
  1  'x, y, z'
loop_
 _atom_site_type_symbol
 _atom_site_label
 _atom_site_symmetry_multiplicity
 _atom_site_fract_x
 _atom_site_fract_y
 _atom_site_fract_z
 _atom_site_occupancy
  La  La0  1  0.16511300  0.16511300  0.16984500  1
  La  La1  1  0.50485700  0.50485700  0.49033800  1
  La  La2  1  0.00431500  0.00431500  0.49137700  1
  La  La3  1  0.83206500  0.83206500  0.83580600  1
  La  La4  1  0.33236500  0.33236500  0.83528700  1
  Ta  Ta5  1  0.78752100  0.29261200  0.21297300  1
  Ta  Ta6  1  0.29261200  0.78752100  0.21297300  1
  Ta  Ta7  1  0.89100300  0.39609000  0.41985800  1
  Ta  Ta8  1  0.39609000  0.89100300  0.41985800  1
  Ta  Ta9  1  0.15006200  0.64980100  0.06786500  1
  Ta  Ta10  1  0.46581200  0.96626300  0.70017500  1
  Ta  Ta11  1  0.96626300  0.46581200  0.70017500  1
  Ta  Ta12  1  0.64980100  0.15006200  0.06786500  1
  Ta  Ta13  1  0.16639000  0.66660000  0.33165000  1
  Ta  Ta14  1  0.33392700  0.83442000  0.66697100  1
  Ta  Ta15  1  0.83442000  0.33392700  0.66697100  1
  Ta  Ta16  1  0.66660000  0.16639000  0.33165000  1
  Ta  Ta17  1  0.53507200  0.03271200  0.29796000  1
  Ta  Ta18  1  0.03271200  0.53507200  0.29796000  1
  Ta  Ta19  1  0.84982600  0.35219700  0.93226900  1
  Ta  Ta20  1  0.35219700  0.84982600  0.93226900  1
  Ta  Ta21  1  0.60738800  0.10752900  0.57528500  1
  Ta  Ta22  1  0.10752900  0.60738800  0.57528500  1
  Ta  Ta23  1  0.21233300  0.71244700  0.78505400  1
  Ta  Ta24  1  0.71244700  0.21233300  0.78505400  1
  Ta  Ta25  1  0.99658500  0.50050400  0.00292000  1
  Ta  Ta26  1  0.50050400  0.99658500  0.00292000  1
  O  O27  1  0.00804800  0.48230500  0.15941400  1
  O  O28  1  0.40759900  0.93294700  0.00965200  1
  O  O29  1  0.48230500  0.00804800  0.15941400  1
  O  O30  1  0.93294700  0.40759900  0.00965200  1
  O  O31  1  0.80492900  0.30639600  0.06080600  1
  O  O32  1  0.96884800  0.47038200  0.38863600  1
  O  O33  1  0.30639600  0.80492900  0.06080600  1
  O  O34  1  0.47038200  0.96884800  0.38863600  1
  O  O35  1  0.35587200  0.87630100  0.26781600  1
  O  O36  1  0.87630100  0.35587200  0.26781600  1
  O  O37  1  0.54218500  0.54218500  0.22792200  1
  O  O38  1  0.14052200  0.14052200  0.40854200  1
  O  O39  1  0.63604000  0.63604000  0.41555100  1
  O  O40  1  0.04565700  0.04565700  0.21903700  1
  O  O41  1  0.70835900  0.20734700  0.17903700  1
  O  O42  1  0.91094400  0.41009500  0.58427300  1
  O  O43  1  0.20734700  0.70835900  0.17903700  1
  O  O44  1  0.41009500  0.91094400  0.58427300  1
  O  O45  1  0.71874200  0.71874200  0.71007800  1
  O  O46  1  0.39532800  0.39532800  0.06271700  1
  O  O47  1  0.89489000  0.89489000  0.06246600  1
  O  O48  1  0.21869300  0.21869300  0.70944400  1
  O  O49  1  0.24680400  0.75209100  0.35715600  1
  O  O50  1  0.75209100  0.24680400  0.35715600  1
  O  O51  1  0.31882900  0.82409100  0.50113000  1
  O  O52  1  0.82409100  0.31882900  0.50113000  1
  O  O53  1  0.89254300  0.39098600  0.78269800  1
  O  O54  1  0.60781200  0.10948100  0.21649600  1
  O  O55  1  0.10948100  0.60781200  0.21649600  1
  O  O56  1  0.92192900  0.92192900  0.34273700  1
  O  O57  1  0.57860500  0.57860500  0.65532900  1
  O  O58  1  0.39098600  0.89254300  0.78269800  1
  O  O59  1  0.42244300  0.42244300  0.34275500  1
  O  O60  1  0.07860800  0.07860800  0.65602000  1
  O  O61  1  0.67855300  0.17922600  0.49826700  1
  O  O62  1  0.17922600  0.67855300  0.49826700  1
  O  O63  1  0.75055600  0.25111400  0.64215400  1
  O  O64  1  0.25111400  0.75055600  0.64215400  1
  O  O65  1  0.10230600  0.10230600  0.93540500  1
  O  O66  1  0.60352800  0.60352800  0.93009900  1
  O  O67  1  0.28227600  0.28227600  0.29536100  1
  O  O68  1  0.78491500  0.78491500  0.29277600  1
  O  O69  1  0.79243000  0.29124200  0.82008000  1
  O  O70  1  0.09054200  0.58930100  0.41633600  1
  O  O71  1  0.58930100  0.09054200  0.41633600  1
  O  O72  1  0.29124200  0.79243000  0.82008000  1
  O  O73  1  0.95146600  0.95146600  0.78040800  1
  O  O74  1  0.85983000  0.85983000  0.59698900  1
  O  O75  1  0.35977600  0.35977600  0.59729800  1
  O  O76  1  0.45145200  0.45145200  0.78056400  1
  O  O77  1  0.62999000  0.13019600  0.73983300  1
  O  O78  1  0.13019600  0.62999000  0.73983300  1
  O  O79  1  0.53109000  0.03091300  0.61142400  1
  O  O80  1  0.19437000  0.69428200  0.93804600  1
  O  O81  1  0.03091300  0.53109000  0.61142400  1
  O  O82  1  0.69428200  0.19437000  0.93804600  1
  O  O83  1  0.58072000  0.08335900  0.97883500  1
  O  O84  1  0.01190300  0.50926300  0.83594500  1
  O  O85  1  0.08335900  0.58072000  0.97883500  1
  O  O86  1  0.50926300  0.01190300  0.83594500  1
  O  O87  1  0.75456000  0.75456000  0.99079600  1
  O  O88  1  0.25207300  0.25207300  0.99570300  1
