# generated using pymatgen
data_Fe3Co2Cu(PO4)6
_symmetry_space_group_name_H-M   'P 1'
_cell_length_a   8.38893770
_cell_length_b   8.38893770
_cell_length_c   8.38893814
_cell_angle_alpha   61.96869910
_cell_angle_beta   61.96869910
_cell_angle_gamma   61.96869908
_symmetry_Int_Tables_number   1
_chemical_formula_structural   Fe3Co2Cu(PO4)6
_chemical_formula_sum   'Fe3 Co2 Cu1 P6 O24'
_cell_volume   435.83805460
_cell_formula_units_Z   1
loop_
 _symmetry_equiv_pos_site_id
 _symmetry_equiv_pos_as_xyz
  1  'x, y, z'
loop_
 _atom_site_type_symbol
 _atom_site_label
 _atom_site_symmetry_multiplicity
 _atom_site_fract_x
 _atom_site_fract_y
 _atom_site_fract_z
 _atom_site_occupancy
  Fe  Fe0  1  0.35466600  0.35466600  0.35466600  1
  Fe  Fe1  1  0.14387900  0.14387900  0.14387900  1
  Fe  Fe2  1  0.64442500  0.64442500  0.64442500  1
  Co  Co3  1  0.99878700  0.99878700  0.99878700  1
  Co  Co4  1  0.49932900  0.49932900  0.49932900  1
  Cu  Cu5  1  0.85479900  0.85479900  0.85479900  1
  P  P6  1  0.45483100  0.75006300  0.04668400  1
  P  P7  1  0.75006300  0.04668400  0.45483100  1
  P  P8  1  0.04668400  0.45483100  0.75006300  1
  P  P9  1  0.95170500  0.54728500  0.24850200  1
  P  P10  1  0.24850200  0.95170500  0.54728500  1
  P  P11  1  0.54728500  0.24850200  0.95170500  1
  O  O12  1  0.67797300  0.89075400  0.49811100  1
  O  O13  1  0.89075400  0.49811100  0.67797300  1
  O  O14  1  0.49811100  0.67797300  0.89075400  1
  O  O15  1  0.25216000  0.90524800  0.05932600  1
  O  O16  1  0.60988500  0.81784000  0.01642300  1
  O  O17  1  0.43560000  0.59504900  0.25039600  1
  O  O18  1  0.90524800  0.05932600  0.25216000  1
  O  O19  1  0.59504900  0.25039600  0.43560000  1
  O  O20  1  0.99399000  0.39161100  0.17667400  1
  O  O21  1  0.25039600  0.43560000  0.59504900  1
  O  O22  1  0.94138300  0.74974200  0.09272200  1
  O  O23  1  0.17667400  0.99399000  0.39161100  1
  O  O24  1  0.81784000  0.01642300  0.60988500  1
  O  O25  1  0.05932600  0.25216000  0.90524800  1
  O  O26  1  0.74935600  0.56293800  0.40340200  1
  O  O27  1  0.01642300  0.60988500  0.81784000  1
  O  O28  1  0.40340200  0.74935600  0.56293800  1
  O  O29  1  0.09272200  0.94138300  0.74974200  1
  O  O30  1  0.56293800  0.40340200  0.74935600  1
  O  O31  1  0.39161100  0.17667400  0.99399000  1
  O  O32  1  0.74974200  0.09272200  0.94138300  1
  O  O33  1  0.50617100  0.32080100  0.10751300  1
  O  O34  1  0.10751300  0.50617100  0.32080100  1
  O  O35  1  0.32080100  0.10751300  0.50617100  1
