# generated using pymatgen
data_Ba8In8O19
_symmetry_space_group_name_H-M   'P 1'
_cell_length_a   9.47813145
_cell_length_b   9.47813145
_cell_length_c   8.62677386
_cell_angle_alpha   89.08841111
_cell_angle_beta   89.08841111
_cell_angle_gamma   125.07382295
_symmetry_Int_Tables_number   1
_chemical_formula_structural   Ba8In8O19
_chemical_formula_sum   'Ba8 In8 O19'
_cell_volume   633.88059615
_cell_formula_units_Z   1
loop_
 _symmetry_equiv_pos_site_id
 _symmetry_equiv_pos_as_xyz
  1  'x, y, z'
loop_
 _atom_site_type_symbol
 _atom_site_label
 _atom_site_symmetry_multiplicity
 _atom_site_fract_x
 _atom_site_fract_y
 _atom_site_fract_z
 _atom_site_occupancy
  Ba  Ba0  1  0.86947600  0.16084200  0.75652500  1
  Ba  Ba1  1  0.85115500  0.12817200  0.23933800  1
  Ba  Ba2  1  0.63290200  0.35280300  0.73701400  1
  Ba  Ba3  1  0.35280300  0.63290200  0.73701400  1
  Ba  Ba4  1  0.65487900  0.37533400  0.25556400  1
  Ba  Ba5  1  0.16084200  0.86947600  0.75652500  1
  Ba  Ba6  1  0.37533400  0.65487900  0.25556400  1
  Ba  Ba7  1  0.12817200  0.85115500  0.23933800  1
  In  In8  1  0.50098800  0.99970400  0.99989400  1
  In  In9  1  0.74254100  0.74254100  0.91400200  1
  In  In10  1  0.80127100  0.80127100  0.54991300  1
  In  In11  1  0.50174900  0.99984500  0.49819700  1
  In  In12  1  0.99970400  0.50098800  0.99989400  1
  In  In13  1  0.99984500  0.50174900  0.49819700  1
  In  In14  1  0.23369500  0.23369500  0.45314200  1
  In  In15  1  0.29949900  0.29949900  0.01618200  1
  O  O16  1  0.50970700  0.99484400  0.74966300  1
  O  O17  1  0.75841700  0.24204600  0.49539400  1
  O  O18  1  0.99484400  0.50970700  0.74966300  1
  O  O19  1  0.73951900  0.26023200  0.99418900  1
  O  O20  1  0.26023200  0.73951900  0.99418900  1
  O  O21  1  0.50138800  0.50138800  0.87541400  1
  O  O22  1  0.31694600  0.09390300  0.98302300  1
  O  O23  1  0.09390300  0.31694600  0.98302300  1
  O  O24  1  0.60326600  0.82770700  0.48310800  1
  O  O25  1  0.82770700  0.60326600  0.48310800  1
  O  O26  1  0.88409300  0.66312300  0.02532000  1
  O  O27  1  0.66312300  0.88409300  0.02532000  1
  O  O28  1  0.15404700  0.37947400  0.54160400  1
  O  O29  1  0.37947400  0.15404700  0.54160400  1
  O  O30  1  0.37262400  0.37262400  0.24702800  1
  O  O31  1  0.49583200  0.01288900  0.24874700  1
  O  O32  1  0.01288900  0.49583200  0.24874700  1
  O  O33  1  0.24204600  0.75841700  0.49539400  1
  O  O34  1  0.00106600  0.00106600  0.39589100  1
