# generated using pymatgen
data_V6CuO15
_symmetry_space_group_name_H-M   'P 1'
_cell_length_a   7.37323400
_cell_length_b   7.92697702
_cell_length_c   10.27277454
_cell_angle_alpha   106.67628521
_cell_angle_beta   90.00624115
_cell_angle_gamma   103.42390197
_symmetry_Int_Tables_number   1
_chemical_formula_structural   V6CuO15
_chemical_formula_sum   'V12 Cu2 O30'
_cell_volume   558.01430732
_cell_formula_units_Z   2
loop_
 _symmetry_equiv_pos_site_id
 _symmetry_equiv_pos_as_xyz
  1  'x, y, z'
loop_
 _atom_site_type_symbol
 _atom_site_label
 _atom_site_symmetry_multiplicity
 _atom_site_fract_x
 _atom_site_fract_y
 _atom_site_fract_z
 _atom_site_occupancy
  V  V0  1  0.83348400  0.33466700  0.90884900  1
  V  V1  1  0.33363800  0.32976000  0.90265500  1
  V  V2  1  0.05851300  0.22524800  0.11964800  1
  V  V3  1  0.55773600  0.22906600  0.11814300  1
  V  V4  1  0.35557600  0.43145700  0.59400100  1
  V  V5  1  0.85590200  0.42409100  0.59286400  1
  V  V6  1  0.64189900  0.56787300  0.40594000  1
  V  V7  1  0.14243800  0.57673300  0.40729000  1
  V  V8  1  0.44594300  0.77480000  0.88243000  1
  V  V9  1  0.94342000  0.77070800  0.87961100  1
  V  V10  1  0.66699500  0.67056100  0.09690400  1
  V  V11  1  0.16673400  0.66457400  0.09118600  1
  Cu  Cu12  1  0.20992800  0.04612000  0.36791600  1
  Cu  Cu13  1  0.68796000  0.95338900  0.63210700  1
  O  O14  1  0.28195200  0.13228700  0.79147900  1
  O  O15  1  0.77952800  0.13162300  0.79173500  1
  O  O16  1  0.29422400  0.20662200  0.53608900  1
  O  O17  1  0.79913300  0.20329300  0.54297700  1
  O  O18  1  0.10302300  0.38124600  0.95806900  1
  O  O19  1  0.58468700  0.37046600  0.95254900  1
  O  O20  1  0.49997400  0.99963700  0.99903900  1
  O  O21  1  0.00021100  0.00052100  0.00100900  1
  O  O22  1  0.06476500  0.19269500  0.27182500  1
  O  O23  1  0.54356000  0.20279300  0.26994100  1
  O  O24  1  0.37090400  0.48225500  0.77869600  1
  O  O25  1  0.87087300  0.48526200  0.77586200  1
  O  O26  1  0.31627200  0.26336200  0.08043800  1
  O  O27  1  0.81661900  0.26536200  0.08526300  1
  O  O28  1  0.62003100  0.48590100  0.57235100  1
  O  O29  1  0.12277400  0.49048700  0.57409000  1
  O  O30  1  0.37844700  0.51311900  0.42750400  1
  O  O31  1  0.87616500  0.51050400  0.42618600  1
  O  O32  1  0.68535800  0.73684500  0.91937500  1
  O  O33  1  0.18423100  0.73440300  0.91479700  1
  O  O34  1  0.12933700  0.51436100  0.22485000  1
  O  O35  1  0.62869700  0.51819500  0.22078500  1
  O  O36  1  0.46742900  0.80289500  0.72819700  1
  O  O37  1  0.94356800  0.80246300  0.73039100  1
  O  O38  1  0.41567700  0.63217500  0.04714200  1
  O  O39  1  0.89632400  0.61620100  0.04219700  1
  O  O40  1  0.19583100  0.79760100  0.45717400  1
  O  O41  1  0.69234700  0.79281900  0.46402300  1
  O  O42  1  0.20949500  0.86785800  0.20794500  1
  O  O43  1  0.72129400  0.86769800  0.20848200  1
