# generated using pymatgen
data_FeOF
_symmetry_space_group_name_H-M   'P 1'
_cell_length_a   3.09587500
_cell_length_b   9.49817300
_cell_length_c   14.28270542
_cell_angle_alpha   89.46209546
_cell_angle_beta   90.00000000
_cell_angle_gamma   90.00000000
_symmetry_Int_Tables_number   1
_chemical_formula_structural   FeOF
_chemical_formula_sum   'Fe12 O12 F12'
_cell_volume   419.96667759
_cell_formula_units_Z   12
loop_
 _symmetry_equiv_pos_site_id
 _symmetry_equiv_pos_as_xyz
  1  'x, y, z'
loop_
 _atom_site_type_symbol
 _atom_site_label
 _atom_site_symmetry_multiplicity
 _atom_site_fract_x
 _atom_site_fract_y
 _atom_site_fract_z
 _atom_site_occupancy
  Fe  Fe0  1  0.00000000  0.98613400  0.99593500  1
  Fe  Fe1  1  0.00000000  0.99093000  0.33603700  1
  Fe  Fe2  1  0.00000000  0.99143200  0.66035400  1
  Fe  Fe3  1  0.50000000  0.71022200  0.16345800  1
  Fe  Fe4  1  0.50000000  0.77050900  0.49933200  1
  Fe  Fe5  1  0.50000000  0.77529000  0.82896200  1
  Fe  Fe6  1  0.00000000  0.49528500  0.32466700  1
  Fe  Fe7  1  0.00000000  0.48989000  0.00009000  1
  Fe  Fe8  1  0.00000000  0.48415400  0.66690900  1
  Fe  Fe9  1  0.50000000  0.27316900  0.16569200  1
  Fe  Fe10  1  0.50000000  0.25235300  0.52097900  1
  Fe  Fe11  1  0.50000000  0.27503300  0.83369600  1
  O  O12  1  0.50000000  0.90136500  0.59940300  1
  O  O13  1  0.50000000  0.90117600  0.94037000  1
  O  O14  1  0.00000000  0.85650000  0.76787400  1
  O  O15  1  0.00000000  0.84914600  0.42826100  1
  O  O16  1  0.00000000  0.65410600  0.23752400  1
  O  O17  1  0.50000000  0.59504900  0.05973100  1
  O  O18  1  0.50000000  0.39777500  0.27401200  1
  O  O19  1  0.50000000  0.40165500  0.93462700  1
  O  O20  1  0.50000000  0.41539000  0.59926200  1
  O  O21  1  0.00000000  0.34004000  0.10231300  1
  O  O22  1  0.00000000  0.34727200  0.76670800  1
  O  O23  1  0.00000000  0.15142900  0.56596000  1
  F  F24  1  0.50000000  0.90913000  0.26507100  1
  F  F25  1  0.00000000  0.84834600  0.10798000  1
  F  F26  1  0.00000000  0.65634500  0.56155600  1
  F  F27  1  0.00000000  0.65650700  0.89139600  1
  F  F28  1  0.50000000  0.59509000  0.40500600  1
  F  F29  1  0.50000000  0.60413800  0.72936200  1
  F  F30  1  0.00000000  0.34408300  0.43601900  1
  F  F31  1  0.00000000  0.14294300  0.23511300  1
  F  F32  1  0.00000000  0.14958100  0.90119500  1
  F  F33  1  0.50000000  0.09010700  0.06973000  1
  F  F34  1  0.50000000  0.09922200  0.39200400  1
  F  F35  1  0.50000000  0.09920300  0.73341000  1
