# generated using pymatgen
data_H21C6N2Cl3
_symmetry_space_group_name_H-M   'P 1'
_cell_length_a   10.60139100
_cell_length_b   5.44407700
_cell_length_c   11.55399439
_cell_angle_alpha   87.60680999
_cell_angle_beta   90.00000000
_cell_angle_gamma   90.00000000
_symmetry_Int_Tables_number   1
_chemical_formula_structural   H21C6N2Cl3
_chemical_formula_sum   'H42 C12 N4 Cl6'
_cell_volume   666.25473286
_cell_formula_units_Z   2
loop_
 _symmetry_equiv_pos_site_id
 _symmetry_equiv_pos_as_xyz
  1  'x, y, z'
loop_
 _atom_site_type_symbol
 _atom_site_label
 _atom_site_symmetry_multiplicity
 _atom_site_fract_x
 _atom_site_fract_y
 _atom_site_fract_z
 _atom_site_occupancy
  H  H0  1  0.73227900  0.97456000  0.67798100  1
  H  H1  1  0.37799400  0.97901500  0.10217100  1
  H  H2  1  0.67206600  0.96370800  0.20941200  1
  H  H3  1  0.84477100  0.93447700  0.39211700  1
  H  H4  1  0.57256700  0.92880000  0.45356800  1
  H  H5  1  0.34024000  0.88175500  0.90877700  1
  H  H6  1  0.51717400  0.87452400  0.70632400  1
  H  H7  1  0.75287200  0.79837400  0.90506100  1
  H  H8  1  0.10485200  0.86486100  0.04811600  1
  H  H9  1  0.89164900  0.75281800  0.99281200  1
  H  H10  1  0.18855600  0.77851200  0.42297700  1
  H  H11  1  0.14604800  0.76638000  0.27271100  1
  H  H12  1  0.62310300  0.76678200  0.09616400  1
  H  H13  1  0.46388800  0.71515100  0.52362500  1
  H  H14  1  0.13749200  0.68624400  0.92393300  1
  H  H15  1  0.95076700  0.72878200  0.46952500  1
  H  H16  1  0.93276200  0.70932900  0.31557300  1
  H  H17  1  0.62974500  0.69076300  0.55148900  1
  H  H18  1  0.77182900  0.71626700  0.16680600  1
  H  H19  1  0.23298600  0.65007200  0.05207700  1
  H  H20  1  0.03884500  0.56110500  0.68558300  1
  H  H21  1  0.53884500  0.43889500  0.31441700  1
  H  H22  1  0.73298600  0.34992800  0.94792300  1
  H  H23  1  0.27182900  0.28373300  0.83319400  1
  H  H24  1  0.12974500  0.30923700  0.44851100  1
  H  H25  1  0.43276200  0.29067100  0.68442700  1
  H  H26  1  0.45076700  0.27121800  0.53047500  1
  H  H27  1  0.63749200  0.31375600  0.07606700  1
  H  H28  1  0.96388800  0.28484900  0.47637500  1
  H  H29  1  0.12310300  0.23321800  0.90383600  1
  H  H30  1  0.64604800  0.23362000  0.72728900  1
  H  H31  1  0.68855600  0.22148800  0.57702300  1
  H  H32  1  0.39164900  0.24718200  0.00718800  1
  H  H33  1  0.60485200  0.13513900  0.95188400  1
  H  H34  1  0.25287200  0.20162600  0.09493900  1
  H  H35  1  0.01717400  0.12547600  0.29367600  1
  H  H36  1  0.84024000  0.11824500  0.09122300  1
  H  H37  1  0.07256700  0.07120000  0.54643200  1
  H  H38  1  0.34477100  0.06552300  0.60788300  1
  H  H39  1  0.17206600  0.03629200  0.79058800  1
  H  H40  1  0.87799400  0.02098500  0.89782900  1
  H  H41  1  0.23227900  0.02544000  0.32201900  1
  C  C42  1  0.82647200  0.88928400  0.95439100  1
  C  C43  1  0.16045000  0.88715200  0.34493100  1
  C  C44  1  0.70375000  0.85551500  0.13670300  1
  C  C45  1  0.93405700  0.83374100  0.38782200  1
  C  C46  1  0.55189800  0.81808700  0.53284600  1
  C  C47  1  0.17877200  0.77998700  0.99696100  1
  C  C48  1  0.67877200  0.22001300  0.00303900  1
  C  C49  1  0.05189800  0.18191300  0.46715400  1
  C  C50  1  0.43405700  0.16625900  0.61217800  1
  C  C51  1  0.20375000  0.14448500  0.86329700  1
  C  C52  1  0.66045000  0.11284800  0.65506900  1
  C  C53  1  0.32647200  0.11071600  0.04560900  1
  N  N54  1  0.26628500  0.97457800  0.95047700  1
  N  N55  1  0.53889800  0.98574300  0.63109900  1
  N  N56  1  0.03889800  0.01425700  0.36890100  1
  N  N57  1  0.76628500  0.02542200  0.04952300  1
  Cl  Cl58  1  0.49590200  0.67621000  0.85916300  1
  Cl  Cl59  1  0.18666000  0.63673700  0.64824900  1
  Cl  Cl60  1  0.90843200  0.50579600  0.72367400  1
  Cl  Cl61  1  0.40843200  0.49420400  0.27632600  1
  Cl  Cl62  1  0.68666000  0.36326300  0.35175100  1
  Cl  Cl63  1  0.99590200  0.32379000  0.14083700  1
