# generated using pymatgen
data_Co2C2O7
_symmetry_space_group_name_H-M   'P 1'
_cell_length_a   8.52030785
_cell_length_b   8.52030785
_cell_length_c   8.24876600
_cell_angle_alpha   90.00000000
_cell_angle_beta   90.00000000
_cell_angle_gamma   119.99999882
_symmetry_Int_Tables_number   1
_chemical_formula_structural   Co2C2O7
_chemical_formula_sum   'Co6 C6 O21'
_cell_volume   518.59723123
_cell_formula_units_Z   3
loop_
 _symmetry_equiv_pos_site_id
 _symmetry_equiv_pos_as_xyz
  1  'x, y, z'
loop_
 _atom_site_type_symbol
 _atom_site_label
 _atom_site_symmetry_multiplicity
 _atom_site_fract_x
 _atom_site_fract_y
 _atom_site_fract_z
 _atom_site_occupancy
  Co  Co0  1  0.00000000  0.00000000  0.28441900  1
  Co  Co1  1  0.00000000  0.00000000  0.71558100  1
  Co  Co2  1  0.66666700  0.33333300  0.82454100  1
  Co  Co3  1  0.66666700  0.33333300  0.25899600  1
  Co  Co4  1  0.33333300  0.66666700  0.17545900  1
  Co  Co5  1  0.33333300  0.66666700  0.74100400  1
  C  C6  1  0.33689500  0.33898700  0.26624300  1
  C  C7  1  0.00209200  0.66310500  0.26624300  1
  C  C8  1  0.66101300  0.99790800  0.26624300  1
  C  C9  1  0.99790800  0.66101300  0.73375700  1
  C  C10  1  0.33898700  0.33689500  0.73375700  1
  C  C11  1  0.66310500  0.00209200  0.73375700  1
  O  O12  1  0.00000000  0.00000000  0.50000000  1
  O  O13  1  0.23643500  0.17000000  0.77997400  1
  O  O14  1  0.42406300  0.26187000  0.32412000  1
  O  O15  1  0.51032200  0.41506400  0.73995800  1
  O  O16  1  0.66666700  0.33333300  0.04079400  1
  O  O17  1  0.83780700  0.57593700  0.32412000  1
  O  O18  1  0.58493600  0.09525700  0.73995800  1
  O  O19  1  0.93356500  0.76356500  0.77997400  1
  O  O20  1  0.06643500  0.83000000  0.22002600  1
  O  O21  1  0.90474300  0.48967800  0.73995800  1
  O  O22  1  0.73813000  0.16219300  0.32412000  1
  O  O23  1  0.83000000  0.06643500  0.77997400  1
  O  O24  1  0.16219300  0.73813000  0.67588000  1
  O  O25  1  0.09525700  0.58493600  0.26004200  1
  O  O26  1  0.33333300  0.66666700  0.95920600  1
  O  O27  1  0.26187000  0.42406300  0.67588000  1
  O  O28  1  0.48967800  0.90474300  0.26004200  1
  O  O29  1  0.17000000  0.23643500  0.22002600  1
  O  O30  1  0.41506400  0.51032200  0.26004200  1
  O  O31  1  0.57593700  0.83780700  0.67588000  1
  O  O32  1  0.76356500  0.93356500  0.22002600  1
