# generated using pymatgen
data_MnFeO3
_symmetry_space_group_name_H-M   'P 1'
_cell_length_a   8.24329500
_cell_length_b   8.26158864
_cell_length_c   8.26695775
_cell_angle_alpha   109.34926995
_cell_angle_beta   108.58349517
_cell_angle_gamma   109.52411165
_symmetry_Int_Tables_number   1
_chemical_formula_structural   MnFeO3
_chemical_formula_sum   'Mn8 Fe8 O24'
_cell_volume   438.41711795
_cell_formula_units_Z   8
loop_
 _symmetry_equiv_pos_site_id
 _symmetry_equiv_pos_as_xyz
  1  'x, y, z'
loop_
 _atom_site_type_symbol
 _atom_site_label
 _atom_site_symmetry_multiplicity
 _atom_site_fract_x
 _atom_site_fract_y
 _atom_site_fract_z
 _atom_site_occupancy
  Mn  Mn0  1  0.00695900  0.00502200  0.50357500  1
  Mn  Mn1  1  0.25078400  0.03134700  0.27945900  1
  Mn  Mn2  1  0.03054500  0.28035200  0.25081400  1
  Mn  Mn3  1  0.78018500  0.74997300  0.03041300  1
  Mn  Mn4  1  0.27961700  0.74671400  0.53302900  1
  Mn  Mn5  1  0.49974700  0.50064800  0.49265500  1
  Mn  Mn6  1  0.74230700  0.46584900  0.20943600  1
  Mn  Mn7  1  0.49688800  0.99798800  0.99874200  1
  Fe  Fe8  1  0.46451800  0.21110800  0.74922500  1
  Fe  Fe9  1  0.25280900  0.54126500  0.79400200  1
  Fe  Fe10  1  0.99901800  0.49648300  0.00204000  1
  Fe  Fe11  1  0.71304000  0.25294500  0.46225700  1
  Fe  Fe12  1  0.20771200  0.24947500  0.95775400  1
  Fe  Fe13  1  0.96563800  0.71646300  0.75449300  1
  Fe  Fe14  1  0.54000500  0.78661500  0.25046800  1
  Fe  Fe15  1  0.74924900  0.96022000  0.70937600  1
  O  O16  1  0.04498000  0.77681100  0.04896100  1
  O  O17  1  0.49465600  0.27292200  0.52419800  1
  O  O18  1  0.74204400  0.74248400  0.78583200  1
  O  O19  1  0.05453300  0.54077100  0.27595500  1
  O  O20  1  0.22503300  0.94569900  0.49793900  1
  O  O21  1  0.44002900  0.20507900  0.00508400  1
  O  O22  1  0.73240500  0.44722900  0.96227200  1
  O  O23  1  0.23493400  0.78800000  0.80302200  1
  O  O24  1  0.01403000  0.05649200  0.29112700  1
  O  O25  1  0.53937300  0.97855100  0.77604900  1
  O  O26  1  0.28807100  0.51987200  0.56331700  1
  O  O27  1  0.75699000  0.71835900  0.25393800  1
  O  O28  1  0.45393400  0.99233600  0.22321000  1
  O  O29  1  0.74110000  0.51149700  0.45815500  1
  O  O30  1  0.23402100  0.28612300  0.73751200  1
  O  O31  1  0.76417900  0.22207900  0.22127500  1
  O  O32  1  0.99948500  0.95046400  0.71461000  1
  O  O33  1  0.27596300  0.54952900  0.05214800  1
  O  O34  1  0.54793000  0.78006700  0.00002100  1
  O  O35  1  0.25353800  0.27476200  0.21590600  1
  O  O36  1  0.76933500  0.04728000  0.49771100  1
  O  O37  1  0.95510300  0.45705900  0.72514100  1
  O  O38  1  0.51634500  0.72328400  0.45369300  1
  O  O39  1  0.94296900  0.22078700  0.93519000  1
