# generated using pymatgen
data_V3OF11
_symmetry_space_group_name_H-M   'P 1'
_cell_length_a   5.27625800
_cell_length_b   5.45735731
_cell_length_c   14.79589251
_cell_angle_alpha   100.28379817
_cell_angle_beta   90.04672839
_cell_angle_gamma   90.01941231
_symmetry_Int_Tables_number   1
_chemical_formula_structural   V3OF11
_chemical_formula_sum   'V6 O2 F22'
_cell_volume   419.19494784
_cell_formula_units_Z   2
loop_
 _symmetry_equiv_pos_site_id
 _symmetry_equiv_pos_as_xyz
  1  'x, y, z'
loop_
 _atom_site_type_symbol
 _atom_site_label
 _atom_site_symmetry_multiplicity
 _atom_site_fract_x
 _atom_site_fract_y
 _atom_site_fract_z
 _atom_site_occupancy
  V  V0  1  0.00000800  0.00001900  0.00004700  1
  V  V1  1  0.49025400  0.15520200  0.33464400  1
  V  V2  1  0.99096800  0.33328400  0.67285300  1
  V  V3  1  0.49987600  0.50002700  0.00006400  1
  V  V4  1  0.97496900  0.62598300  0.33032400  1
  V  V5  1  0.49556800  0.83147400  0.66574400  1
  O  O6  1  0.91850000  0.37814700  0.78135200  1
  O  O7  1  0.79576000  0.37538500  0.31107500  1
  F  F8  1  0.79662000  0.03128300  0.64071400  1
  F  F9  1  0.69840300  0.18984800  0.97541300  1
  F  F10  1  0.29317400  0.13725200  0.69076200  1
  F  F11  1  0.91435700  0.04185800  0.11711400  1
  F  F12  1  0.58725100  0.21451800  0.45028300  1
  F  F13  1  0.42384900  0.12865000  0.21649800  1
  F  F14  1  0.09070700  0.29551800  0.55154500  1
  F  F15  1  0.41494200  0.45817400  0.88311100  1
  F  F16  1  0.70728200  0.52805300  0.64083600  1
  F  F17  1  0.80134200  0.69042600  0.97541500  1
  F  F18  1  0.19854900  0.31037500  0.02478400  1
  F  F19  1  0.28744300  0.47019400  0.35735000  1
  F  F20  1  0.20279400  0.63761200  0.69158400  1
  F  F21  1  0.58702000  0.54194400  0.11707900  1
  F  F22  1  0.92639200  0.72668400  0.44993000  1
  F  F23  1  0.58784800  0.87623800  0.78162900  1
  F  F24  1  0.09205800  0.63422100  0.21824400  1
  F  F25  1  0.41924900  0.78973400  0.54849000  1
  F  F26  1  0.08577700  0.95911600  0.88325800  1
  F  F27  1  0.70945600  0.85804600  0.30878700  1
  F  F28  1  0.30164900  0.81007800  0.02448800  1
  F  F29  1  0.20793800  0.97065900  0.35658600  1
