# generated using pymatgen
data_Ba8Mn8O23
_symmetry_space_group_name_H-M   'P 1'
_cell_length_a   5.79832687
_cell_length_b   5.79832687
_cell_length_c   19.41513300
_cell_angle_alpha   90.00000000
_cell_angle_beta   90.00000000
_cell_angle_gamma   120.37249739
_symmetry_Int_Tables_number   1
_chemical_formula_structural   Ba8Mn8O23
_chemical_formula_sum   'Ba8 Mn8 O23'
_cell_volume   563.16283277
_cell_formula_units_Z   1
loop_
 _symmetry_equiv_pos_site_id
 _symmetry_equiv_pos_as_xyz
  1  'x, y, z'
loop_
 _atom_site_type_symbol
 _atom_site_label
 _atom_site_symmetry_multiplicity
 _atom_site_fract_x
 _atom_site_fract_y
 _atom_site_fract_z
 _atom_site_occupancy
  Ba  Ba0  1  0.66856400  0.33143600  0.86255000  1
  Ba  Ba1  1  0.66713900  0.33286100  0.62348700  1
  Ba  Ba2  1  0.99597700  0.00402300  0.00000000  1
  Ba  Ba3  1  0.66713900  0.33286100  0.37651300  1
  Ba  Ba4  1  0.66856400  0.33143600  0.13745000  1
  Ba  Ba5  1  0.33221500  0.66778500  0.25452800  1
  Ba  Ba6  1  0.33382700  0.66617300  0.50000000  1
  Ba  Ba7  1  0.33221500  0.66778500  0.74547200  1
  Mn  Mn8  1  0.99708100  0.00291900  0.30672000  1
  Mn  Mn9  1  0.99747400  0.00252600  0.82456000  1
  Mn  Mn10  1  0.99708100  0.00291900  0.69328000  1
  Mn  Mn11  1  0.00025400  0.99974600  0.56420800  1
  Mn  Mn12  1  0.00025400  0.99974600  0.43579200  1
  Mn  Mn13  1  0.99747400  0.00252600  0.17544000  1
  Mn  Mn14  1  0.32566100  0.67433900  0.07192200  1
  Mn  Mn15  1  0.32566100  0.67433900  0.92807800  1
  O  O16  1  0.29902500  0.14971200  0.50000000  1
  O  O17  1  0.29192700  0.15241000  0.75572300  1
  O  O18  1  0.29192700  0.15241000  0.24427700  1
  O  O19  1  0.84759000  0.70807300  0.75572300  1
  O  O20  1  0.84759000  0.70807300  0.24427700  1
  O  O21  1  0.85028800  0.70097500  0.50000000  1
  O  O22  1  0.84683200  0.15316800  0.75407400  1
  O  O23  1  0.84683200  0.15316800  0.24592600  1
  O  O24  1  0.05787900  0.50638000  0.00000000  1
  O  O25  1  0.14729200  0.85270800  0.37175700  1
  O  O26  1  0.14729200  0.85270800  0.62824300  1
  O  O27  1  0.15758800  0.84241200  0.87462300  1
  O  O28  1  0.15758800  0.84241200  0.12537700  1
  O  O29  1  0.85177200  0.14822800  0.50000000  1
  O  O30  1  0.14986300  0.29899200  0.62713900  1
  O  O31  1  0.14986300  0.29899200  0.37286100  1
  O  O32  1  0.49362000  0.94212100  0.00000000  1
  O  O33  1  0.17438100  0.33108900  0.87931800  1
  O  O34  1  0.17438100  0.33108900  0.12068200  1
  O  O35  1  0.66891100  0.82561900  0.87931800  1
  O  O36  1  0.66891100  0.82561900  0.12068200  1
  O  O37  1  0.70100800  0.85013700  0.62713900  1
  O  O38  1  0.70100800  0.85013700  0.37286100  1
