# generated using pymatgen
data_TeH3CCl3
_symmetry_space_group_name_H-M   'P 1'
_cell_length_a   6.68736200
_cell_length_b   10.55901500
_cell_length_c   10.91909707
_cell_angle_alpha   60.55177306
_cell_angle_beta   90.00000000
_cell_angle_gamma   90.00000000
_symmetry_Int_Tables_number   1
_chemical_formula_structural   TeH3CCl3
_chemical_formula_sum   'Te4 H12 C4 Cl12'
_cell_volume   671.40340052
_cell_formula_units_Z   4
loop_
 _symmetry_equiv_pos_site_id
 _symmetry_equiv_pos_as_xyz
  1  'x, y, z'
loop_
 _atom_site_type_symbol
 _atom_site_label
 _atom_site_symmetry_multiplicity
 _atom_site_fract_x
 _atom_site_fract_y
 _atom_site_fract_z
 _atom_site_occupancy
  Te  Te0  1  0.39708200  0.32268100  0.76404500  1
  Te  Te1  1  0.89708200  0.67731900  0.73595500  1
  Te  Te2  1  0.10291800  0.32268100  0.26404500  1
  Te  Te3  1  0.60291800  0.67731900  0.23595500  1
  H  H4  1  0.69277500  0.18087300  0.94433900  1
  H  H5  1  0.60086200  0.32410800  0.97489900  1
  H  H6  1  0.10086200  0.67589200  0.52510100  1
  H  H7  1  0.96208800  0.84396800  0.45850300  1
  H  H8  1  0.19277500  0.81912700  0.55566100  1
  H  H9  1  0.46208800  0.15603200  0.04149700  1
  H  H10  1  0.53791200  0.84396800  0.95850300  1
  H  H11  1  0.80722500  0.18087300  0.44433900  1
  H  H12  1  0.03791200  0.15603200  0.54149700  1
  H  H13  1  0.89913800  0.32410800  0.47489900  1
  H  H14  1  0.39913800  0.67589200  0.02510100  1
  H  H15  1  0.30722500  0.81912700  0.05566100  1
  C  C16  1  0.56028300  0.23370500  0.95791900  1
  C  C17  1  0.06028300  0.76629500  0.54208100  1
  C  C18  1  0.93971700  0.23370500  0.45791900  1
  C  C19  1  0.43971700  0.76629500  0.04208100  1
  Cl  Cl20  1  0.11722200  0.16147000  0.86578200  1
  Cl  Cl21  1  0.73651100  0.49743300  0.64028000  1
  Cl  Cl22  1  0.23651100  0.50256700  0.85972000  1
  Cl  Cl23  1  0.45347000  0.84646100  0.29673400  1
  Cl  Cl24  1  0.61722200  0.83853000  0.63421800  1
  Cl  Cl25  1  0.95347000  0.15353900  0.20326600  1
  Cl  Cl26  1  0.04653000  0.84646100  0.79673400  1
  Cl  Cl27  1  0.38277800  0.16147000  0.36578200  1
  Cl  Cl28  1  0.54653000  0.15353900  0.70326600  1
  Cl  Cl29  1  0.76348900  0.49743300  0.14028000  1
  Cl  Cl30  1  0.26348900  0.50256700  0.35972000  1
  Cl  Cl31  1  0.88277800  0.83853000  0.13421800  1
