# generated using pymatgen
data_Li7Ni(O2F)2
_symmetry_space_group_name_H-M   'P 1'
_cell_length_a   5.35613720
_cell_length_b   5.83111588
_cell_length_c   10.11206988
_cell_angle_alpha   83.23851276
_cell_angle_beta   80.05091951
_cell_angle_gamma   119.66298142
_symmetry_Int_Tables_number   1
_chemical_formula_structural   Li7Ni(O2F)2
_chemical_formula_sum   'Li14 Ni2 O8 F4'
_cell_volume   262.57584538
_cell_formula_units_Z   2
loop_
 _symmetry_equiv_pos_site_id
 _symmetry_equiv_pos_as_xyz
  1  'x, y, z'
loop_
 _atom_site_type_symbol
 _atom_site_label
 _atom_site_symmetry_multiplicity
 _atom_site_fract_x
 _atom_site_fract_y
 _atom_site_fract_z
 _atom_site_occupancy
  Li  Li0  1  0.09391200  0.03680500  0.22695300  1
  Li  Li1  1  0.09564200  0.62189700  0.74595500  1
  Li  Li2  1  0.48558000  0.94330000  0.38432100  1
  Li  Li3  1  0.53857200  0.57254600  0.11505700  1
  Li  Li4  1  0.26546800  0.21703400  0.44223100  1
  Li  Li5  1  0.23709400  0.72000100  0.96208700  1
  Li  Li6  1  0.30475300  0.34842200  0.67677100  1
  Li  Li7  1  0.72289400  0.23868300  0.06057700  1
  Li  Li8  1  0.75489200  0.77454900  0.52706700  1
  Li  Li9  1  0.47673700  0.49489200  0.89262600  1
  Li  Li10  1  0.52480700  0.02977100  0.61642000  1
  Li  Li11  1  0.93141600  0.46393500  0.27901600  1
  Li  Li12  1  0.89096400  0.90327000  0.75119000  1
  Li  Li13  1  0.65238800  0.14914100  0.83672500  1
  Ni  Ni14  1  0.04248200  0.03999000  0.95712800  1
  Ni  Ni15  1  0.00482100  0.49373600  0.50835700  1
  O  O16  1  0.08601100  0.82435300  0.39762200  1
  O  O17  1  0.24363700  0.96338900  0.80226000  1
  O  O18  1  0.36516100  0.19369800  0.02897300  1
  O  O19  1  0.34794800  0.68046100  0.56537100  1
  O  O20  1  0.06525600  0.36954000  0.89225500  1
  O  O21  1  0.65211900  0.30975900  0.46264800  1
  O  O22  1  0.65603800  0.83563300  0.93778900  1
  O  O23  1  0.93835300  0.15956000  0.60802300  1
  F  F24  1  0.25345100  0.39885200  0.27878300  1
  F  F25  1  0.90636800  0.60948300  0.11056700  1
  F  F26  1  0.75112700  0.05398100  0.21345600  1
  F  F27  1  0.71210700  0.55331800  0.71977500  1
