# generated using pymatgen
data_Te2W2SeS
_symmetry_space_group_name_H-M   'P 1'
_cell_length_a   3.39626632
_cell_length_b   3.39626632
_cell_length_c   38.82675200
_cell_angle_alpha   90.00000000
_cell_angle_beta   90.00000000
_cell_angle_gamma   120.00000617
_symmetry_Int_Tables_number   1
_chemical_formula_structural   Te2W2SeS
_chemical_formula_sum   'Te4 W4 Se2 S2'
_cell_volume   387.85120253
_cell_formula_units_Z   2
loop_
 _symmetry_equiv_pos_site_id
 _symmetry_equiv_pos_as_xyz
  1  'x, y, z'
loop_
 _atom_site_type_symbol
 _atom_site_label
 _atom_site_symmetry_multiplicity
 _atom_site_fract_x
 _atom_site_fract_y
 _atom_site_fract_z
 _atom_site_occupancy
  Te  Te0  1  0.00000000  0.00000000  0.33029700  1
  Te  Te1  1  0.00000000  0.00000000  0.70600700  1
  Te  Te2  1  0.00000000  0.00000000  0.23334100  1
  Te  Te3  1  0.00000000  0.00000000  0.60904500  1
  W  W4  1  0.00000000  0.00000000  0.09389500  1
  W  W5  1  0.00000000  0.00000000  0.46966400  1
  W  W6  1  0.33333300  0.66666700  0.28179700  1
  W  W7  1  0.33333300  0.66666700  0.65755200  1
  Se  Se8  1  0.33333300  0.66666700  0.05132100  1
  Se  Se9  1  0.33333300  0.66666700  0.13650000  1
  S  S10  1  0.33333300  0.66666700  0.43084600  1
  S  S11  1  0.33333300  0.66666700  0.50848400  1
