# generated using pymatgen
data_Mn6O7F5
_symmetry_space_group_name_H-M   'P 1'
_cell_length_a   4.76298208
_cell_length_b   7.70982337
_cell_length_c   5.64280422
_cell_angle_alpha   95.45334430
_cell_angle_beta   96.60019913
_cell_angle_gamma   85.30233610
_symmetry_Int_Tables_number   1
_chemical_formula_structural   Mn6O7F5
_chemical_formula_sum   'Mn6 O7 F5'
_cell_volume   204.38020296
_cell_formula_units_Z   1
loop_
 _symmetry_equiv_pos_site_id
 _symmetry_equiv_pos_as_xyz
  1  'x, y, z'
loop_
 _atom_site_type_symbol
 _atom_site_label
 _atom_site_symmetry_multiplicity
 _atom_site_fract_x
 _atom_site_fract_y
 _atom_site_fract_z
 _atom_site_occupancy
  Mn  Mn0  1  0.53443200  0.01113300  0.47949100  1
  Mn  Mn1  1  0.49879000  0.66583000  0.16767900  1
  Mn  Mn2  1  0.49231400  0.33152800  0.83557300  1
  Mn  Mn3  1  0.00207800  0.66860900  0.66641300  1
  Mn  Mn4  1  0.98376700  0.32231500  0.33643300  1
  Mn  Mn5  1  0.99634100  0.00293000  0.00857700  1
  O  O6  1  0.81035000  0.10156000  0.28860100  1
  O  O7  1  0.69945200  0.10303500  0.79322200  1
  O  O8  1  0.69314200  0.76865800  0.46868900  1
  O  O9  1  0.69329200  0.43405100  0.12886700  1
  O  O10  1  0.30452900  0.56756900  0.86711000  1
  O  O11  1  0.31038800  0.22974200  0.52985700  1
  O  O12  1  0.30655700  0.90001200  0.20865700  1
  F  F13  1  0.80563800  0.43944500  0.63473700  1
  F  F14  1  0.81267800  0.76735900  0.96069000  1
  F  F15  1  0.17629700  0.55220800  0.37284900  1
  F  F16  1  0.19458300  0.23144800  0.03352800  1
  F  F17  1  0.18537400  0.90256900  0.71902600  1
