# generated using pymatgen
data_Li3V2(O2F)2
_symmetry_space_group_name_H-M   'P 1'
_cell_length_a   5.03625939
_cell_length_b   5.03625939
_cell_length_c   14.89056736
_cell_angle_alpha   89.90751940
_cell_angle_beta   89.90751940
_cell_angle_gamma   119.90288856
_symmetry_Int_Tables_number   1
_chemical_formula_structural   Li3V2(O2F)2
_chemical_formula_sum   'Li9 V6 O12 F6'
_cell_volume   327.40096354
_cell_formula_units_Z   3
loop_
 _symmetry_equiv_pos_site_id
 _symmetry_equiv_pos_as_xyz
  1  'x, y, z'
loop_
 _atom_site_type_symbol
 _atom_site_label
 _atom_site_symmetry_multiplicity
 _atom_site_fract_x
 _atom_site_fract_y
 _atom_site_fract_z
 _atom_site_occupancy
  Li  Li0  1  0.67383700  0.32616300  0.00000000  1
  Li  Li1  1  0.66548300  0.33451700  0.50000000  1
  Li  Li2  1  0.33075300  0.66924700  0.50000000  1
  Li  Li3  1  0.33286200  0.66713800  0.00000000  1
  Li  Li4  1  0.00455500  0.66754700  0.14162400  1
  Li  Li5  1  0.66812700  0.67110700  0.85690900  1
  Li  Li6  1  0.98956400  0.01043600  0.00000000  1
  Li  Li7  1  0.33245300  0.99544500  0.85837600  1
  Li  Li8  1  0.32889300  0.33187300  0.14309100  1
  V  V9  1  0.68061300  0.00480900  0.66731800  1
  V  V10  1  0.99519100  0.31938700  0.33268200  1
  V  V11  1  0.00191700  0.66836900  0.66820100  1
  V  V12  1  0.67150600  0.67847200  0.33289900  1
  V  V13  1  0.33163100  0.99808300  0.33179900  1
  V  V14  1  0.32152800  0.32849400  0.66710100  1
  O  O15  1  0.65675800  0.00133400  0.40823300  1
  O  O16  1  0.66098700  0.33199100  0.73485800  1
  O  O17  1  0.66800900  0.33901300  0.26514200  1
  O  O18  1  0.99866600  0.34324200  0.59176700  1
  O  O19  1  0.34379800  0.67469500  0.73551100  1
  O  O20  1  0.32530500  0.65620200  0.26448900  1
  O  O21  1  0.99907200  0.65728400  0.40586100  1
  O  O22  1  0.65850000  0.65829600  0.59394100  1
  O  O23  1  0.00625500  0.00151000  0.26190900  1
  O  O24  1  0.99849000  0.99374500  0.73809100  1
  O  O25  1  0.34271600  0.00092800  0.59413900  1
  O  O26  1  0.34170400  0.34150000  0.40605900  1
  F  F27  1  0.64908800  0.98488600  0.92194000  1
  F  F28  1  0.01511400  0.35091200  0.07806000  1
  F  F29  1  0.00033200  0.69134900  0.92059200  1
  F  F30  1  0.66914800  0.64785700  0.08047200  1
  F  F31  1  0.30865100  0.99966800  0.07940800  1
  F  F32  1  0.35214300  0.33085200  0.91952800  1
