# generated using pymatgen
data_Na5MnHO4
_symmetry_space_group_name_H-M   'P 1'
_cell_length_a   10.09625200
_cell_length_b   10.36104700
_cell_length_c   12.14891500
_cell_angle_alpha   90.00000000
_cell_angle_beta   90.00000000
_cell_angle_gamma   90.00000000
_symmetry_Int_Tables_number   1
_chemical_formula_structural   Na5MnHO4
_chemical_formula_sum   'Na40 Mn8 H8 O32'
_cell_volume   1270.87055977
_cell_formula_units_Z   8
loop_
 _symmetry_equiv_pos_site_id
 _symmetry_equiv_pos_as_xyz
  1  'x, y, z'
loop_
 _atom_site_type_symbol
 _atom_site_label
 _atom_site_symmetry_multiplicity
 _atom_site_fract_x
 _atom_site_fract_y
 _atom_site_fract_z
 _atom_site_occupancy
  Na  Na0  1  0.98923500  0.58779800  0.20890600  1
  Na  Na1  1  0.98923500  0.91220200  0.20890600  1
  Na  Na2  1  0.06998400  0.06341000  0.41730000  1
  Na  Na3  1  0.06998400  0.43659000  0.41730000  1
  Na  Na4  1  0.08080000  0.75000000  0.44616100  1
  Na  Na5  1  0.11780900  0.25000000  0.98297000  1
  Na  Na6  1  0.12348500  0.56392300  0.99078800  1
  Na  Na7  1  0.12348500  0.93607700  0.99078800  1
  Na  Na8  1  0.21597100  0.57681600  0.67028500  1
  Na  Na9  1  0.21597100  0.92318400  0.67028500  1
  Na  Na10  1  0.28402900  0.07681600  0.17028500  1
  Na  Na11  1  0.28402900  0.42318400  0.17028500  1
  Na  Na12  1  0.37651500  0.06392300  0.49078800  1
  Na  Na13  1  0.37651500  0.43607700  0.49078800  1
  Na  Na14  1  0.38219100  0.75000000  0.48297000  1
  Na  Na15  1  0.41920000  0.25000000  0.94616100  1
  Na  Na16  1  0.43001600  0.56341000  0.91730000  1
  Na  Na17  1  0.43001600  0.93659000  0.91730000  1
  Na  Na18  1  0.51076500  0.08779800  0.70890600  1
  Na  Na19  1  0.51076500  0.41220200  0.70890600  1
  Na  Na20  1  0.48923500  0.58779800  0.29109400  1
  Na  Na21  1  0.48923500  0.91220200  0.29109400  1
  Na  Na22  1  0.56998400  0.06341000  0.08270000  1
  Na  Na23  1  0.56998400  0.43659000  0.08270000  1
  Na  Na24  1  0.58080000  0.75000000  0.05383900  1
  Na  Na25  1  0.61780900  0.25000000  0.51703000  1
  Na  Na26  1  0.62348500  0.56392300  0.50921200  1
  Na  Na27  1  0.62348500  0.93607700  0.50921200  1
  Na  Na28  1  0.71597100  0.57681600  0.82971500  1
  Na  Na29  1  0.71597100  0.92318400  0.82971500  1
  Na  Na30  1  0.78402900  0.07681600  0.32971500  1
  Na  Na31  1  0.78402900  0.42318400  0.32971500  1
  Na  Na32  1  0.87651500  0.06392300  0.00921200  1
  Na  Na33  1  0.87651500  0.43607700  0.00921200  1
  Na  Na34  1  0.88219100  0.75000000  0.01703000  1
  Na  Na35  1  0.91920000  0.25000000  0.55383900  1
  Na  Na36  1  0.93001600  0.93659000  0.58270000  1
  Na  Na37  1  0.93001600  0.56341000  0.58270000  1
  Na  Na38  1  0.01076500  0.08779800  0.79109400  1
  Na  Na39  1  0.01076500  0.41220200  0.79109400  1
  Mn  Mn40  1  0.01229800  0.25000000  0.20682600  1
  Mn  Mn41  1  0.20387700  0.25000000  0.62510300  1
  Mn  Mn42  1  0.29612300  0.75000000  0.12510300  1
  Mn  Mn43  1  0.48770200  0.75000000  0.70682600  1
  Mn  Mn44  1  0.51229800  0.25000000  0.29317400  1
  Mn  Mn45  1  0.70387700  0.25000000  0.87489700  1
  Mn  Mn46  1  0.79612300  0.75000000  0.37489700  1
  Mn  Mn47  1  0.98770200  0.75000000  0.79317400  1
  H  H48  1  0.23190600  0.62545600  0.31130300  1
  H  H49  1  0.23190600  0.87454400  0.31130300  1
  H  H50  1  0.26809400  0.12545600  0.81130300  1
  H  H51  1  0.26809400  0.37454400  0.81130300  1
  H  H52  1  0.73190600  0.62545600  0.18869700  1
  H  H53  1  0.73190600  0.87454400  0.18869700  1
  H  H54  1  0.76809400  0.12545600  0.68869700  1
  H  H55  1  0.76809400  0.37454400  0.68869700  1
  O  O56  1  0.06210100  0.75000000  0.64257200  1
  O  O57  1  0.06430800  0.40664200  0.12174300  1
  O  O58  1  0.06430800  0.09335800  0.12174300  1
  O  O59  1  0.09077000  0.40651000  0.60841600  1
  O  O60  1  0.09077000  0.09349000  0.60841600  1
  O  O61  1  0.10089400  0.75000000  0.11250800  1
  O  O62  1  0.24279400  0.07978900  0.87884000  1
  O  O63  1  0.24279400  0.42021100  0.87884000  1
  O  O64  1  0.25720600  0.57978900  0.37884000  1
  O  O65  1  0.25720600  0.92021100  0.37884000  1
  O  O66  1  0.39910600  0.25000000  0.61250800  1
  O  O67  1  0.40923000  0.59349000  0.10841600  1
  O  O68  1  0.40923000  0.90651000  0.10841600  1
  O  O69  1  0.43569200  0.59335800  0.62174300  1
  O  O70  1  0.43569200  0.90664200  0.62174300  1
  O  O71  1  0.43789900  0.25000000  0.14257200  1
  O  O72  1  0.56210100  0.75000000  0.85742800  1
  O  O73  1  0.56430800  0.09335800  0.37825700  1
  O  O74  1  0.56430800  0.40664200  0.37825700  1
  O  O75  1  0.59077000  0.09349000  0.89158400  1
  O  O76  1  0.59077000  0.40651000  0.89158400  1
  O  O77  1  0.60089400  0.75000000  0.38749200  1
  O  O78  1  0.74279400  0.07978900  0.62116000  1
  O  O79  1  0.74279400  0.42021100  0.62116000  1
  O  O80  1  0.75720600  0.57978900  0.12116000  1
  O  O81  1  0.75720600  0.92021100  0.12116000  1
  O  O82  1  0.89910600  0.25000000  0.88749200  1
  O  O83  1  0.90923000  0.90651000  0.39158400  1
  O  O84  1  0.90923000  0.59349000  0.39158400  1
  O  O85  1  0.93569200  0.90664200  0.87825700  1
  O  O86  1  0.93569200  0.59335800  0.87825700  1
  O  O87  1  0.93789900  0.25000000  0.35742800  1
