# generated using pymatgen
data_Na2Co6O7
_symmetry_space_group_name_H-M   'P 1'
_cell_length_a   10.85584200
_cell_length_b   10.85584200
_cell_length_c   3.24817100
_cell_angle_alpha   90.00000000
_cell_angle_beta   90.00000000
_cell_angle_gamma   90.00000000
_symmetry_Int_Tables_number   1
_chemical_formula_structural   Na2Co6O7
_chemical_formula_sum   'Na4 Co12 O14'
_cell_volume   382.79469659
_cell_formula_units_Z   2
loop_
 _symmetry_equiv_pos_site_id
 _symmetry_equiv_pos_as_xyz
  1  'x, y, z'
loop_
 _atom_site_type_symbol
 _atom_site_label
 _atom_site_symmetry_multiplicity
 _atom_site_fract_x
 _atom_site_fract_y
 _atom_site_fract_z
 _atom_site_occupancy
  Na  Na0  1  0.36118800  0.63881200  0.98478800  1
  Na  Na1  1  0.86118800  0.86118800  0.48478800  1
  Na  Na2  1  0.13881200  0.13881200  0.48478800  1
  Na  Na3  1  0.63881200  0.36118800  0.98478800  1
  Co  Co4  1  0.84504100  0.58747700  0.98815900  1
  Co  Co5  1  0.61909000  0.61909000  0.49727700  1
  Co  Co6  1  0.08747700  0.65495900  0.48815900  1
  Co  Co7  1  0.58747700  0.84504100  0.98815900  1
  Co  Co8  1  0.11909000  0.88091000  0.99727700  1
  Co  Co9  1  0.34504100  0.91252300  0.48815900  1
  Co  Co10  1  0.65495900  0.08747700  0.48815900  1
  Co  Co11  1  0.88091000  0.11909000  0.99727700  1
  Co  Co12  1  0.41252300  0.15495900  0.98815900  1
  Co  Co13  1  0.91252300  0.34504100  0.48815900  1
  Co  Co14  1  0.38091000  0.38091000  0.49727700  1
  Co  Co15  1  0.15495900  0.41252300  0.98815900  1
  O  O16  1  0.50000000  0.50000000  0.63596700  1
  O  O17  1  0.19619700  0.50963900  0.48808200  1
  O  O18  1  0.99036100  0.69619700  0.98808200  1
  O  O19  1  0.69587200  0.69587200  0.00298100  1
  O  O20  1  0.19587200  0.80412800  0.50298100  1
  O  O21  1  0.49036100  0.80380300  0.48808200  1
  O  O22  1  0.69619700  0.99036100  0.98808200  1
  O  O23  1  0.00000000  0.00000000  0.13596700  1
  O  O24  1  0.30380300  0.00963900  0.98808200  1
  O  O25  1  0.50963900  0.19619700  0.48808200  1
  O  O26  1  0.80412800  0.19587200  0.50298100  1
  O  O27  1  0.30412800  0.30412800  0.00298100  1
  O  O28  1  0.00963900  0.30380300  0.98808200  1
  O  O29  1  0.80380300  0.49036100  0.48808200  1
