# generated using pymatgen
data_V3OF11
_symmetry_space_group_name_H-M   'P 1'
_cell_length_a   5.27164900
_cell_length_b   5.45657485
_cell_length_c   14.74026266
_cell_angle_alpha   100.35214034
_cell_angle_beta   90.06157827
_cell_angle_gamma   90.06810509
_symmetry_Int_Tables_number   1
_chemical_formula_structural   V3OF11
_chemical_formula_sum   'V6 O2 F22'
_cell_volume   417.10317320
_cell_formula_units_Z   2
loop_
 _symmetry_equiv_pos_site_id
 _symmetry_equiv_pos_as_xyz
  1  'x, y, z'
loop_
 _atom_site_type_symbol
 _atom_site_label
 _atom_site_symmetry_multiplicity
 _atom_site_fract_x
 _atom_site_fract_y
 _atom_site_fract_z
 _atom_site_occupancy
  V  V0  1  0.00009700  0.99984300  0.99985800  1
  V  V1  1  0.49052400  0.16577200  0.32706400  1
  V  V2  1  0.00805300  0.32169600  0.66703300  1
  V  V3  1  0.50012300  0.49968800  0.99971200  1
  V  V4  1  0.99564000  0.66785600  0.33455400  1
  V  V5  1  0.52453900  0.79271900  0.66334000  1
  O  O6  1  0.41824100  0.12302600  0.21871800  1
  O  O7  1  0.70462000  0.54165500  0.64402100  1
  F  F8  1  0.79039400  0.02319700  0.64193400  1
  F  F9  1  0.69747700  0.18923200  0.97519700  1
  F  F10  1  0.29225400  0.13880700  0.69042800  1
  F  F11  1  0.91430800  0.04210100  0.11757300  1
  F  F12  1  0.59177200  0.20889900  0.44897000  1
  F  F13  1  0.91199200  0.38370400  0.78393500  1
  F  F14  1  0.07643400  0.29682700  0.54848900  1
  F  F15  1  0.41320200  0.46043700  0.88228200  1
  F  F16  1  0.79265100  0.36247300  0.30896000  1
  F  F17  1  0.80264400  0.68896600  0.97543500  1
  F  F18  1  0.19755500  0.31107300  0.02459300  1
  F  F19  1  0.29622700  0.46832500  0.35974200  1
  F  F20  1  0.21363300  0.63655500  0.69085600  1
  F  F21  1  0.58659900  0.54179300  0.11747300  1
  F  F22  1  0.91713500  0.71095200  0.45225000  1
  F  F23  1  0.57195500  0.89479600  0.78317900  1
  F  F24  1  0.08861400  0.62420400  0.21784500  1
  F  F25  1  0.40580500  0.80150300  0.55130400  1
  F  F26  1  0.08484000  0.95796100  0.88226600  1
  F  F27  1  0.70215900  0.86327400  0.30847100  1
  F  F28  1  0.30213200  0.81058500  0.02479500  1
  F  F29  1  0.20838100  0.97207700  0.35972800  1
