# generated using pymatgen
data_Na2Ni3(P2O7)2
_symmetry_space_group_name_H-M   'P 1'
_cell_length_a   8.22837500
_cell_length_b   7.40916100
_cell_length_c   9.50084243
_cell_angle_alpha   68.55918710
_cell_angle_beta   90.00000000
_cell_angle_gamma   90.00000000
_symmetry_Int_Tables_number   1
_chemical_formula_structural   Na2Ni3(P2O7)2
_chemical_formula_sum   'Na4 Ni6 P8 O28'
_cell_volume   539.13754665
_cell_formula_units_Z   2
loop_
 _symmetry_equiv_pos_site_id
 _symmetry_equiv_pos_as_xyz
  1  'x, y, z'
loop_
 _atom_site_type_symbol
 _atom_site_label
 _atom_site_symmetry_multiplicity
 _atom_site_fract_x
 _atom_site_fract_y
 _atom_site_fract_z
 _atom_site_occupancy
  Na  Na0  1  0.41779600  0.68953900  0.87793400  1
  Na  Na1  1  0.08220400  0.68953900  0.37793400  1
  Na  Na2  1  0.91779600  0.31046100  0.62206600  1
  Na  Na3  1  0.58220400  0.31046100  0.12206600  1
  Ni  Ni4  1  0.00000000  0.00000000  0.50000000  1
  Ni  Ni5  1  0.38158600  0.82080100  0.51354500  1
  Ni  Ni6  1  0.50000000  0.00000000  0.00000000  1
  Ni  Ni7  1  0.11841400  0.82080100  0.01354500  1
  Ni  Ni8  1  0.88158600  0.17919900  0.98645500  1
  Ni  Ni9  1  0.61841400  0.17919900  0.48645500  1
  P  P10  1  0.79865400  0.88987600  0.80599000  1
  P  P11  1  0.70134600  0.88987600  0.30599000  1
  P  P12  1  0.04042100  0.60079600  0.79102900  1
  P  P13  1  0.54042100  0.39920400  0.70897100  1
  P  P14  1  0.45957900  0.60079600  0.29102900  1
  P  P15  1  0.95957900  0.39920400  0.20897100  1
  P  P16  1  0.29865400  0.11012400  0.69401000  1
  P  P17  1  0.20134600  0.11012400  0.19401000  1
  O  O18  1  0.29686100  0.98774700  0.86598100  1
  O  O19  1  0.92449400  0.97456000  0.88641000  1
  O  O20  1  0.63595100  0.86113600  0.88411400  1
  O  O21  1  0.20313900  0.98774700  0.36598100  1
  O  O22  1  0.57550600  0.97456000  0.38641000  1
  O  O23  1  0.86150700  0.68272900  0.81269200  1
  O  O24  1  0.15117400  0.63021600  0.90922000  1
  O  O25  1  0.86404900  0.86113600  0.38411400  1
  O  O26  1  0.09872300  0.72121300  0.62818600  1
  O  O27  1  0.50729800  0.61056100  0.68602300  1
  O  O28  1  0.63849300  0.68272900  0.31269200  1
  O  O29  1  0.34882600  0.63021600  0.40922000  1
  O  O30  1  0.40127700  0.72121300  0.12818600  1
  O  O31  1  0.00729800  0.38943900  0.81397700  1
  O  O32  1  0.99270200  0.61056100  0.18602300  1
  O  O33  1  0.59872300  0.27878700  0.87181400  1
  O  O34  1  0.65117400  0.36978400  0.59078000  1
  O  O35  1  0.36150700  0.31727100  0.68730800  1
  O  O36  1  0.49270200  0.38943900  0.31397700  1
  O  O37  1  0.90127700  0.27878700  0.37181400  1
  O  O38  1  0.13595100  0.13886400  0.61588600  1
  O  O39  1  0.84882600  0.36978400  0.09078000  1
  O  O40  1  0.13849300  0.31727100  0.18730800  1
  O  O41  1  0.42449400  0.02544000  0.61359000  1
  O  O42  1  0.79686100  0.01225300  0.63401900  1
  O  O43  1  0.36404900  0.13886400  0.11588600  1
  O  O44  1  0.07550600  0.02544000  0.11359000  1
  O  O45  1  0.70313900  0.01225300  0.13401900  1
