# generated using pymatgen
data_Na3V2(PO4)3
_symmetry_space_group_name_H-M   'P 1'
_cell_length_a   9.01309100
_cell_length_b   8.87166400
_cell_length_c   15.44046625
_cell_angle_alpha   55.32587763
_cell_angle_beta   90.00000000
_cell_angle_gamma   90.00000000
_symmetry_Int_Tables_number   1
_chemical_formula_structural   Na3V2(PO4)3
_chemical_formula_sum   'Na12 V8 P12 O48'
_cell_volume   1015.36670772
_cell_formula_units_Z   4
loop_
 _symmetry_equiv_pos_site_id
 _symmetry_equiv_pos_as_xyz
  1  'x, y, z'
loop_
 _atom_site_type_symbol
 _atom_site_label
 _atom_site_symmetry_multiplicity
 _atom_site_fract_x
 _atom_site_fract_y
 _atom_site_fract_z
 _atom_site_occupancy
  Na  Na0  1  0.93492600  0.38708300  0.69015100  1
  Na  Na1  1  0.30070400  0.32757200  0.76475300  1
  Na  Na2  1  0.20485200  0.04571600  0.16334900  1
  Na  Na3  1  0.70485200  0.95428400  0.33665100  1
  Na  Na4  1  0.80070400  0.67242800  0.73524700  1
  Na  Na5  1  0.43492600  0.61291700  0.80984900  1
  Na  Na6  1  0.56507400  0.38708300  0.19015100  1
  Na  Na7  1  0.19929600  0.32757200  0.26475300  1
  Na  Na8  1  0.29514800  0.04571600  0.66334900  1
  Na  Na9  1  0.79514800  0.95428400  0.83665100  1
  Na  Na10  1  0.69929600  0.67242800  0.23524700  1
  Na  Na11  1  0.06507400  0.61291700  0.30984900  1
  V  V12  1  0.47851600  0.64558400  0.60153700  1
  V  V13  1  0.97851600  0.35441600  0.89846300  1
  V  V14  1  0.53727900  0.13675000  0.10548000  1
  V  V15  1  0.03727900  0.86325000  0.39452000  1
  V  V16  1  0.96272100  0.13675000  0.60548000  1
  V  V17  1  0.46272100  0.86325000  0.89452000  1
  V  V18  1  0.02148400  0.64558400  0.10153700  1
  V  V19  1  0.52148400  0.35441600  0.39846300  1
  P  P20  1  0.74967900  0.53087500  0.49658100  1
  P  P21  1  0.61984800  0.25338600  0.85451800  1
  P  P22  1  0.89646300  0.96810000  0.14707500  1
  P  P23  1  0.39646300  0.03190000  0.35292500  1
  P  P24  1  0.11984800  0.74661400  0.64548200  1
  P  P25  1  0.24967900  0.46912500  0.00341900  1
  P  P26  1  0.75032100  0.53087500  0.99658100  1
  P  P27  1  0.88015200  0.25338600  0.35451800  1
  P  P28  1  0.60353700  0.96810000  0.64707500  1
  P  P29  1  0.10353700  0.03190000  0.85292500  1
  P  P30  1  0.38015200  0.74661400  0.14548200  1
  P  P31  1  0.25032100  0.46912500  0.50341900  1
  O  O32  1  0.15146700  0.63917500  0.43419500  1
  O  O33  1  0.09484300  0.19664200  0.86387200  1
  O  O34  1  0.33802800  0.47971700  0.58645200  1
  O  O35  1  0.41162900  0.90585000  0.15782200  1
  O  O36  1  0.64893000  0.54289400  0.57405200  1
  O  O37  1  0.78898900  0.30322300  0.83559300  1
  O  O38  1  0.57152800  0.19401500  0.96440400  1
  O  O39  1  0.99190200  0.91202100  0.24544200  1
  O  O40  1  0.73133700  0.98249700  0.17104100  1
  O  O41  1  0.84549700  0.70588100  0.43767900  1
  O  O42  1  0.96274400  0.14258100  0.05194200  1
  O  O43  1  0.52720900  0.42498700  0.77111000  1
  O  O44  1  0.02720900  0.57501300  0.72889000  1
  O  O45  1  0.46274400  0.85741900  0.44805800  1
  O  O46  1  0.34549700  0.29411900  0.06232100  1
  O  O47  1  0.23133700  0.01750300  0.32895900  1
  O  O48  1  0.07152800  0.80598500  0.53559600  1
  O  O49  1  0.28898900  0.69677700  0.66440700  1
  O  O50  1  0.49190200  0.08797900  0.25455800  1
  O  O51  1  0.14893000  0.45710600  0.92594800  1
  O  O52  1  0.83802800  0.52028300  0.91354800  1
  O  O53  1  0.59484300  0.80335800  0.63612800  1
  O  O54  1  0.91162900  0.09415000  0.34217800  1
  O  O55  1  0.65146700  0.36082500  0.06580500  1
  O  O56  1  0.34853300  0.63917500  0.93419500  1
  O  O57  1  0.08837100  0.90585000  0.65782200  1
  O  O58  1  0.40515700  0.19664200  0.36387200  1
  O  O59  1  0.16197200  0.47971700  0.08645200  1
  O  O60  1  0.85107000  0.54289400  0.07405200  1
  O  O61  1  0.50809800  0.91202100  0.74544200  1
  O  O62  1  0.71101100  0.30322300  0.33559300  1
  O  O63  1  0.92847200  0.19401500  0.46440400  1
  O  O64  1  0.76866300  0.98249700  0.67104100  1
  O  O65  1  0.65450300  0.70588100  0.93767900  1
  O  O66  1  0.53725600  0.14258100  0.55194200  1
  O  O67  1  0.97279100  0.42498700  0.27111000  1
  O  O68  1  0.47279100  0.57501300  0.22889000  1
  O  O69  1  0.03725600  0.85741900  0.94805800  1
  O  O70  1  0.15450300  0.29411900  0.56232100  1
  O  O71  1  0.26866300  0.01750300  0.82895900  1
  O  O72  1  0.00809800  0.08797900  0.75455800  1
  O  O73  1  0.42847200  0.80598500  0.03559600  1
  O  O74  1  0.21101100  0.69677700  0.16440700  1
  O  O75  1  0.35107000  0.45710600  0.42594800  1
  O  O76  1  0.58837100  0.09415000  0.84217800  1
  O  O77  1  0.66197200  0.52028300  0.41354800  1
  O  O78  1  0.90515700  0.80335800  0.13612800  1
  O  O79  1  0.84853300  0.36082500  0.56580500  1
