# generated using pymatgen
data_Al10ZnO16
_symmetry_space_group_name_H-M   'P 1'
_cell_length_a   9.70320911
_cell_length_b   9.70320911
_cell_length_c   9.70320884
_cell_angle_alpha   34.25733123
_cell_angle_beta   34.25733123
_cell_angle_gamma   34.25732624
_symmetry_Int_Tables_number   1
_chemical_formula_structural   Al10ZnO16
_chemical_formula_sum   'Al10 Zn1 O16'
_cell_volume   258.15036743
_cell_formula_units_Z   1
loop_
 _symmetry_equiv_pos_site_id
 _symmetry_equiv_pos_as_xyz
  1  'x, y, z'
loop_
 _atom_site_type_symbol
 _atom_site_label
 _atom_site_symmetry_multiplicity
 _atom_site_fract_x
 _atom_site_fract_y
 _atom_site_fract_z
 _atom_site_occupancy
  Al  Al0  1  0.50164600  0.50164600  0.50164600  1
  Al  Al1  1  0.30774600  0.30774600  0.30774600  1
  Al  Al2  1  0.24973800  0.75534200  0.75534200  1
  Al  Al3  1  0.75534200  0.24973800  0.75534200  1
  Al  Al4  1  0.24056900  0.75588400  0.24056900  1
  Al  Al5  1  0.81110800  0.81110800  0.81110800  1
  Al  Al6  1  0.24056900  0.24056900  0.75588400  1
  Al  Al7  1  0.75534200  0.75534200  0.24973800  1
  Al  Al8  1  0.75588400  0.24056900  0.24056900  1
  Al  Al9  1  0.69028900  0.69028900  0.69028900  1
  Zn  Zn10  1  0.18980400  0.18980400  0.18980400  1
  O  O11  1  0.39964400  0.39964400  0.83602700  1
  O  O12  1  0.39964400  0.83602700  0.39964400  1
  O  O13  1  0.37675700  0.37675700  0.37675700  1
  O  O14  1  0.11759500  0.62299800  0.11759500  1
  O  O15  1  0.87771400  0.87771400  0.87771400  1
  O  O16  1  0.11759500  0.11759500  0.62299800  1
  O  O17  1  0.14923700  0.61150600  0.61150600  1
  O  O18  1  0.62299800  0.11759500  0.11759500  1
  O  O19  1  0.83602700  0.39964400  0.39964400  1
  O  O20  1  0.87948500  0.87948500  0.38142700  1
  O  O21  1  0.38142700  0.87948500  0.87948500  1
  O  O22  1  0.87948500  0.38142700  0.87948500  1
  O  O23  1  0.62459400  0.62459400  0.62459400  1
  O  O24  1  0.11674100  0.11674100  0.11674100  1
  O  O25  1  0.61150600  0.14923700  0.61150600  1
  O  O26  1  0.61150600  0.61150600  0.14923700  1
