# generated using pymatgen
data_V4OF11
_symmetry_space_group_name_H-M   'P 1'
_cell_length_a   5.25372800
_cell_length_b   5.44933530
_cell_length_c   17.49760365
_cell_angle_alpha   89.24477748
_cell_angle_beta   98.26969729
_cell_angle_gamma   118.33859477
_symmetry_Int_Tables_number   1
_chemical_formula_structural   V4OF11
_chemical_formula_sum   'V8 O2 F22'
_cell_volume   435.45196441
_cell_formula_units_Z   2
loop_
 _symmetry_equiv_pos_site_id
 _symmetry_equiv_pos_as_xyz
  1  'x, y, z'
loop_
 _atom_site_type_symbol
 _atom_site_label
 _atom_site_symmetry_multiplicity
 _atom_site_fract_x
 _atom_site_fract_y
 _atom_site_fract_z
 _atom_site_occupancy
  V  V0  1  0.24741600  0.62846300  0.87625400  1
  V  V1  1  0.24923300  0.12616500  0.37540900  1
  V  V2  1  0.50097800  0.24755400  0.74815400  1
  V  V3  1  0.50080700  0.74834800  0.24949000  1
  V  V4  1  0.73486100  0.89286300  0.62759600  1
  V  V5  1  0.75310000  0.37030800  0.12379100  1
  V  V6  1  0.00772700  0.98504500  0.99262700  1
  V  V7  1  0.99730500  0.50475400  0.50174600  1
  O  O8  1  0.07830100  0.84011600  0.91971600  1
  O  O9  1  0.59132700  0.07530800  0.66482300  1
  F  F10  1  0.02426400  0.30973300  0.93716700  1
  F  F11  1  0.02187800  0.81282500  0.43914900  1
  F  F12  1  0.46991500  0.93820400  0.81370300  1
  F  F13  1  0.07695200  0.03266600  0.71155200  1
  F  F14  1  0.07359200  0.34032400  0.41226300  1
  F  F15  1  0.07285500  0.53393300  0.21219400  1
  F  F16  1  0.57943400  0.78823900  0.96284600  1
  F  F17  1  0.42269300  0.41388600  0.83602700  1
  F  F18  1  0.42604000  0.91176500  0.33892900  1
  F  F19  1  0.42706500  0.71473400  0.53764700  1
  F  F20  1  0.52535900  0.55790400  0.68492100  1
  F  F21  1  0.47728100  0.43792500  0.31174600  1
  F  F22  1  0.57248800  0.28747900  0.46427100  1
  F  F23  1  0.57339900  0.58417300  0.16076800  1
  F  F24  1  0.42392200  0.21481700  0.03716300  1
  F  F25  1  0.91720000  0.67472300  0.58899500  1
  F  F26  1  0.92348200  0.46564000  0.78806600  1
  F  F27  1  0.92790300  0.96403300  0.28684500  1
  F  F28  1  0.52487400  0.06041100  0.18749300  1
  F  F29  1  0.98011300  0.69459200  0.06414500  1
  F  F30  1  0.97348200  0.18696000  0.56227400  1
  F  F31  1  0.92475300  0.15611200  0.08223000  1
