# generated using pymatgen
data_Na7Cr4(PO4)6
_symmetry_space_group_name_H-M   'P 1'
_cell_length_a   8.83650800
_cell_length_b   9.02930700
_cell_length_c   12.88201154
_cell_angle_alpha   89.83951215
_cell_angle_beta   90.00000000
_cell_angle_gamma   90.00000000
_symmetry_Int_Tables_number   1
_chemical_formula_structural   Na7Cr4(PO4)6
_chemical_formula_sum   'Na14 Cr8 P12 O48'
_cell_volume   1027.82002417
_cell_formula_units_Z   2
loop_
 _symmetry_equiv_pos_site_id
 _symmetry_equiv_pos_as_xyz
  1  'x, y, z'
loop_
 _atom_site_type_symbol
 _atom_site_label
 _atom_site_symmetry_multiplicity
 _atom_site_fract_x
 _atom_site_fract_y
 _atom_site_fract_z
 _atom_site_occupancy
  Na  Na0  1  0.18322800  0.47329500  0.81402800  1
  Na  Na1  1  0.18322800  0.52670500  0.18597200  1
  Na  Na2  1  0.26341600  0.94786600  0.66745600  1
  Na  Na3  1  0.26341600  0.05213400  0.33254400  1
  Na  Na4  1  0.44241100  0.23596400  0.82270900  1
  Na  Na5  1  0.44241100  0.76403600  0.17729100  1
  Na  Na6  1  0.57257900  0.77014300  0.81449600  1
  Na  Na7  1  0.57257900  0.22985700  0.18550400  1
  Na  Na8  1  0.69529300  0.46435500  0.67058300  1
  Na  Na9  1  0.69529300  0.53564500  0.32941700  1
  Na  Na10  1  0.81896800  0.96668800  0.83266100  1
  Na  Na11  1  0.81896800  0.03331200  0.16733900  1
  Na  Na12  1  0.93023300  0.75162200  0.31989400  1
  Na  Na13  1  0.93023300  0.24837800  0.68010600  1
  Cr  Cr14  1  0.24486300  0.21503300  0.10042000  1
  Cr  Cr15  1  0.24486300  0.78496700  0.89958000  1
  Cr  Cr16  1  0.25579100  0.28765500  0.59684600  1
  Cr  Cr17  1  0.25579100  0.71234500  0.40315400  1
  Cr  Cr18  1  0.75541700  0.78988600  0.60244900  1
  Cr  Cr19  1  0.75541700  0.21011400  0.39755100  1
  Cr  Cr20  1  0.76008000  0.30123900  0.90586900  1
  Cr  Cr21  1  0.76008000  0.69876100  0.09413100  1
  P  P22  1  0.02837400  0.00000000  0.50000000  1
  P  P23  1  0.11849300  0.14461100  0.85509200  1
  P  P24  1  0.11849300  0.85538900  0.14490800  1
  P  P25  1  0.38910800  0.63897200  0.64650500  1
  P  P26  1  0.38910800  0.36102800  0.35349500  1
  P  P27  1  0.45745600  0.50000000  0.00000000  1
  P  P28  1  0.53012400  0.00000000  0.00000000  1
  P  P29  1  0.60771400  0.13088300  0.63964700  1
  P  P30  1  0.60771400  0.86911700  0.36035300  1
  P  P31  1  0.88828100  0.64981300  0.83907700  1
  P  P32  1  0.88828100  0.35018700  0.16092300  1
  P  P33  1  0.96997000  0.50000000  0.50000000  1
  O  O34  1  0.06749200  0.41029200  0.57899900  1
  O  O35  1  0.06749200  0.58970800  0.42100100  1
  O  O36  1  0.06010200  0.67664700  0.85213400  1
  O  O37  1  0.06010200  0.32335300  0.14786600  1
  O  O38  1  0.12990800  0.89387000  0.43508100  1
  O  O39  1  0.12990800  0.10613000  0.56491900  1
  O  O40  1  0.19684400  0.21139600  0.95086800  1
  O  O41  1  0.19684400  0.78860400  0.04913200  1
  O  O42  1  0.14938200  0.97675600  0.84074700  1
  O  O43  1  0.14938200  0.02324400  0.15925300  1
  O  O44  1  0.18487000  0.23220800  0.75932500  1
  O  O45  1  0.18487000  0.76779200  0.24067500  1
  O  O46  1  0.33052700  0.73028600  0.74098600  1
  O  O47  1  0.33052700  0.26971400  0.25901400  1
  O  O48  1  0.35926600  0.53087200  0.33634300  1
  O  O49  1  0.35926600  0.46912800  0.66365700  1
  O  O50  1  0.30961800  0.69932900  0.54906200  1
  O  O51  1  0.30961800  0.30067100  0.45093800  1
  O  O52  1  0.35315400  0.59315800  0.92691100  1
  O  O53  1  0.35315400  0.40684200  0.07308900  1
  O  O54  1  0.43147800  0.14911000  0.63612600  1
  O  O55  1  0.43147800  0.85089000  0.36387400  1
  O  O56  1  0.43146500  0.89777900  0.92946300  1
  O  O57  1  0.43146500  0.10222100  0.07053700  1
  O  O58  1  0.55439900  0.59544900  0.07334300  1
  O  O59  1  0.55439900  0.40455100  0.92665700  1
  O  O60  1  0.56296200  0.66231500  0.64053700  1
  O  O61  1  0.56296200  0.33768500  0.35946300  1
  O  O62  1  0.62769900  0.08948200  0.92312700  1
  O  O63  1  0.62769900  0.91051800  0.07687300  1
  O  O64  1  0.68683100  0.18464000  0.54049500  1
  O  O65  1  0.68683100  0.81536000  0.45950500  1
  O  O66  1  0.64149600  0.96548000  0.66596200  1
  O  O67  1  0.64149600  0.03452000  0.33403800  1
  O  O68  1  0.67131700  0.23013300  0.72769400  1
  O  O69  1  0.67131700  0.76986700  0.27230600  1
  O  O70  1  0.82291400  0.74560500  0.74779900  1
  O  O71  1  0.82291400  0.25439500  0.25220100  1
  O  O72  1  0.86382700  0.48237100  0.81677200  1
  O  O73  1  0.86382700  0.51762900  0.18322800  1
  O  O74  1  0.79855700  0.70903000  0.93221000  1
  O  O75  1  0.79855700  0.29097000  0.06779000  1
  O  O76  1  0.86467500  0.60081000  0.56445400  1
  O  O77  1  0.86467500  0.39919000  0.43554600  1
  O  O78  1  0.94622400  0.82800700  0.14293500  1
  O  O79  1  0.94622400  0.17199300  0.85706500  1
  O  O80  1  0.93575400  0.91634100  0.58269600  1
  O  O81  1  0.93575400  0.08365900  0.41730400  1
