# generated using pymatgen
data_VOF2
_symmetry_space_group_name_H-M   'P 1'
_cell_length_a   5.23335400
_cell_length_b   5.25342620
_cell_length_c   13.37744879
_cell_angle_alpha   90.06235698
_cell_angle_beta   90.31261435
_cell_angle_gamma   119.85056230
_symmetry_Int_Tables_number   1
_chemical_formula_structural   VOF2
_chemical_formula_sum   'V6 O6 F12'
_cell_volume   318.98337051
_cell_formula_units_Z   6
loop_
 _symmetry_equiv_pos_site_id
 _symmetry_equiv_pos_as_xyz
  1  'x, y, z'
loop_
 _atom_site_type_symbol
 _atom_site_label
 _atom_site_symmetry_multiplicity
 _atom_site_fract_x
 _atom_site_fract_y
 _atom_site_fract_z
 _atom_site_occupancy
  V  V0  1  0.01054800  0.99204400  0.49317200  1
  V  V1  1  0.96544200  0.96965700  0.99287600  1
  V  V2  1  0.61801600  0.31382900  0.16061400  1
  V  V3  1  0.32484600  0.69721000  0.32625100  1
  V  V4  1  0.70770300  0.33464000  0.65940200  1
  V  V5  1  0.31900800  0.65714700  0.82638900  1
  O  O6  1  0.41106600  0.98997600  0.25237700  1
  O  O7  1  0.33132400  0.23310600  0.08523700  1
  O  O8  1  0.02316700  0.57586300  0.75187500  1
  O  O9  1  0.09100200  0.77721300  0.42008100  1
  O  O10  1  0.90756500  0.25239500  0.58182400  1
  O  O11  1  0.67480100  0.76005600  0.91841600  1
  F  F12  1  0.98525100  0.41128100  0.25016100  1
  F  F13  1  0.32660200  0.08508500  0.59037500  1
  F  F14  1  0.08809600  0.34217800  0.92320100  1
  F  F15  1  0.25153800  0.35548600  0.41721500  1
  F  F16  1  0.60367600  0.00126100  0.75097100  1
  F  F17  1  0.75015600  0.07108100  0.08974200  1
  F  F18  1  0.44104500  0.41467700  0.75304700  1
  F  F19  1  0.58281700  0.58315700  0.25318100  1
  F  F20  1  0.26155200  0.92411000  0.91644800  1
  F  F21  1  0.74364200  0.67368000  0.58495100  1
  F  F22  1  0.91833300  0.65792500  0.08458600  1
  F  F23  1  0.66280400  0.92694000  0.41760900  1
