# generated using pymatgen
data_Hf5N5O2
_symmetry_space_group_name_H-M   'P 1'
_cell_length_a   5.43065267
_cell_length_b   5.43065267
_cell_length_c   9.11705535
_cell_angle_alpha   75.17307713
_cell_angle_beta   75.17307713
_cell_angle_gamma   32.80971378
_symmetry_Int_Tables_number   1
_chemical_formula_structural   Hf5N5O2
_chemical_formula_sum   'Hf5 N5 O2'
_cell_volume   140.41340168
_cell_formula_units_Z   1
loop_
 _symmetry_equiv_pos_site_id
 _symmetry_equiv_pos_as_xyz
  1  'x, y, z'
loop_
 _atom_site_type_symbol
 _atom_site_label
 _atom_site_symmetry_multiplicity
 _atom_site_fract_x
 _atom_site_fract_y
 _atom_site_fract_z
 _atom_site_occupancy
  Hf  Hf0  1  0.88595400  0.88595400  0.42335300  1
  Hf  Hf1  1  0.29772300  0.29772300  0.80693100  1
  Hf  Hf2  1  0.70227700  0.70227700  0.19306900  1
  Hf  Hf3  1  0.11404600  0.11404600  0.57664700  1
  Hf  Hf4  1  0.00000000  0.00000000  0.00000000  1
  N  N5  1  0.50000000  0.50000000  0.50000000  1
  N  N6  1  0.34471800  0.34471800  0.05189400  1
  N  N7  1  0.26146200  0.26146200  0.35209300  1
  N  N8  1  0.73853800  0.73853800  0.64790700  1
  N  N9  1  0.65528200  0.65528200  0.94810600  1
  O  O10  1  0.95500900  0.95500900  0.78711700  1
  O  O11  1  0.04499100  0.04499100  0.21288300  1
