# generated using pymatgen
data_Cr4OF11
_symmetry_space_group_name_H-M   'P 1'
_cell_length_a   5.34765816
_cell_length_b   5.34765816
_cell_length_c   17.13998699
_cell_angle_alpha   78.60756598
_cell_angle_beta   78.60756598
_cell_angle_gamma   56.39635398
_symmetry_Int_Tables_number   1
_chemical_formula_structural   Cr4OF11
_chemical_formula_sum   'Cr8 O2 F22'
_cell_volume   397.86141605
_cell_formula_units_Z   2
loop_
 _symmetry_equiv_pos_site_id
 _symmetry_equiv_pos_as_xyz
  1  'x, y, z'
loop_
 _atom_site_type_symbol
 _atom_site_label
 _atom_site_symmetry_multiplicity
 _atom_site_fract_x
 _atom_site_fract_y
 _atom_site_fract_z
 _atom_site_occupancy
  Cr  Cr0  1  0.61520100  0.26784900  0.69177700  1
  Cr  Cr1  1  0.14739800  0.73966700  0.19031600  1
  Cr  Cr2  1  0.73215100  0.38479900  0.30822300  1
  Cr  Cr3  1  0.26033300  0.85260200  0.80968400  1
  Cr  Cr4  1  0.88157800  0.49573900  0.93707300  1
  Cr  Cr5  1  0.37186500  0.00661900  0.43669800  1
  Cr  Cr6  1  0.50426100  0.11842200  0.06292700  1
  Cr  Cr7  1  0.99338100  0.62813500  0.56330200  1
  O  O8  1  0.47193700  0.47133900  0.78092200  1
  O  O9  1  0.52866100  0.52806300  0.21907800  1
  F  F10  1  0.77431000  0.03420500  0.59802400  1
  F  F11  1  0.56105700  0.94405000  0.75077100  1
  F  F12  1  0.19411200  0.05909600  0.12672500  1
  F  F13  1  0.68794800  0.56284700  0.62396100  1
  F  F14  1  0.96985000  0.97026700  0.28220100  1
  F  F15  1  0.28576500  0.27701300  0.96996100  1
  F  F16  1  0.96579500  0.22569000  0.40197600  1
  F  F17  1  0.47542200  0.71857000  0.90480400  1
  F  F18  1  0.28143000  0.52457800  0.09519600  1
  F  F19  1  0.21796500  0.46919000  0.65679200  1
  F  F20  1  0.05595000  0.43894300  0.24922900  1
  F  F21  1  0.94090400  0.80588800  0.87327500  1
  F  F22  1  0.77905400  0.78975900  0.46875100  1
  F  F23  1  0.02973300  0.03015000  0.71779900  1
  F  F24  1  0.72298700  0.71423500  0.03003900  1
  F  F25  1  0.53081000  0.78203500  0.34320800  1
  F  F26  1  0.73571200  0.96106500  0.15571200  1
  F  F27  1  0.03893500  0.26428800  0.84428800  1
  F  F28  1  0.30575700  0.69424300  0.50000000  1
  F  F29  1  0.81033600  0.18966400  0.00000000  1
  F  F30  1  0.43715300  0.31205200  0.37603900  1
  F  F31  1  0.21024100  0.22094600  0.53124900  1
