# generated using pymatgen
data_Na9Fe3P8O29
_symmetry_space_group_name_H-M   'P 1'
_cell_length_a   10.18181436
_cell_length_b   10.18181436
_cell_length_c   14.71585100
_cell_angle_alpha   90.00000000
_cell_angle_beta   90.00000000
_cell_angle_gamma   120.00000236
_symmetry_Int_Tables_number   1
_chemical_formula_structural   Na9Fe3P8O29
_chemical_formula_sum   'Na18 Fe6 P16 O58'
_cell_volume   1321.19326922
_cell_formula_units_Z   2
loop_
 _symmetry_equiv_pos_site_id
 _symmetry_equiv_pos_as_xyz
  1  'x, y, z'
loop_
 _atom_site_type_symbol
 _atom_site_label
 _atom_site_symmetry_multiplicity
 _atom_site_fract_x
 _atom_site_fract_y
 _atom_site_fract_z
 _atom_site_occupancy
  Na  Na0  1  0.10390400  0.75235100  0.94195700  1
  Na  Na1  1  0.24764900  0.89609600  0.44195700  1
  Na  Na2  1  0.10390400  0.35155300  0.44195700  1
  Na  Na3  1  0.00000000  0.00000000  0.00000000  1
  Na  Na4  1  0.00000000  0.00000000  0.50000000  1
  Na  Na5  1  0.33333300  0.66666700  0.12488300  1
  Na  Na6  1  0.33333300  0.66666700  0.62488300  1
  Na  Na7  1  0.24764900  0.35155300  0.94195700  1
  Na  Na8  1  0.64844700  0.89609600  0.94195700  1
  Na  Na9  1  0.35155300  0.24764900  0.55804300  1
  Na  Na10  1  0.64844700  0.75235100  0.44195700  1
  Na  Na11  1  0.35155300  0.10390400  0.05804300  1
  Na  Na12  1  0.75235100  0.64844700  0.05804300  1
  Na  Na13  1  0.66666700  0.33333300  0.37511700  1
  Na  Na14  1  0.66666700  0.33333300  0.87511700  1
  Na  Na15  1  0.89609600  0.64844700  0.55804300  1
  Na  Na16  1  0.75235100  0.10390400  0.55804300  1
  Na  Na17  1  0.89609600  0.24764900  0.05804300  1
  Fe  Fe18  1  0.00000000  0.56282100  0.75000000  1
  Fe  Fe19  1  0.00000000  0.43717900  0.25000000  1
  Fe  Fe20  1  0.43717900  0.43717900  0.75000000  1
  Fe  Fe21  1  0.56282100  0.56282100  0.25000000  1
  Fe  Fe22  1  0.43717900  0.00000000  0.25000000  1
  Fe  Fe23  1  0.56282100  0.00000000  0.75000000  1
  P  P24  1  0.09043900  0.77324300  0.16272200  1
  P  P25  1  0.22675700  0.90956100  0.66272200  1
  P  P26  1  0.09043900  0.31719500  0.66272200  1
  P  P27  1  0.33333300  0.66666700  0.86383600  1
  P  P28  1  0.33333300  0.66666700  0.36383600  1
  P  P29  1  0.22675700  0.31719500  0.16272200  1
  P  P30  1  0.31719500  0.22675700  0.33727800  1
  P  P31  1  0.68280500  0.90956100  0.16272200  1
  P  P32  1  0.31719500  0.09043900  0.83727800  1
  P  P33  1  0.68280500  0.77324300  0.66272200  1
  P  P34  1  0.77324300  0.68280500  0.83727800  1
  P  P35  1  0.66666700  0.33333300  0.13616400  1
  P  P36  1  0.66666700  0.33333300  0.63616400  1
  P  P37  1  0.90956100  0.68280500  0.33727800  1
  P  P38  1  0.77324300  0.09043900  0.33727800  1
  P  P39  1  0.90956100  0.22675700  0.83727800  1
  O  O40  1  0.00000000  0.78501800  0.25000000  1
  O  O41  1  0.99045800  0.77222100  0.42191800  1
  O  O42  1  0.08965000  0.74715100  0.66557400  1
  O  O43  1  0.22777900  0.00954200  0.92191800  1
  O  O44  1  0.25284900  0.91035000  0.16557400  1
  O  O45  1  0.09450800  0.62432000  0.16984700  1
  O  O46  1  0.18826200  0.66463000  0.82751200  1
  O  O47  1  0.09450800  0.47018800  0.66984700  1
  O  O48  1  0.99045800  0.21823700  0.92191800  1
  O  O49  1  0.00000000  0.21498200  0.75000000  1
  O  O50  1  0.08965000  0.34249900  0.16557400  1
  O  O51  1  0.33537000  0.81173800  0.32751200  1
  O  O52  1  0.37568000  0.90549200  0.66984700  1
  O  O53  1  0.18826200  0.52363200  0.32751200  1
  O  O54  1  0.33333300  0.66666700  0.46813700  1
  O  O55  1  0.33333300  0.66666700  0.96813700  1
  O  O56  1  0.33537000  0.52363200  0.82751200  1
  O  O57  1  0.52981200  0.90549200  0.16984700  1
  O  O58  1  0.47636800  0.81173800  0.82751200  1
  O  O59  1  0.25284900  0.34249900  0.66557400  1
  O  O60  1  0.21498200  0.21498200  0.25000000  1
  O  O61  1  0.22777900  0.21823700  0.42191800  1
  O  O62  1  0.21823700  0.22777900  0.07808200  1
  O  O63  1  0.37568000  0.47018800  0.16984700  1
  O  O64  1  0.47636800  0.66463000  0.32751200  1
  O  O65  1  0.34249900  0.25284900  0.83442600  1
  O  O66  1  0.52981200  0.62432000  0.66984700  1
  O  O67  1  0.65750100  0.91035000  0.66557400  1
  O  O68  1  0.21498200  0.00000000  0.75000000  1
  O  O69  1  0.21823700  0.99045800  0.57808200  1
  O  O70  1  0.78176300  0.00954200  0.42191800  1
  O  O71  1  0.34249900  0.08965000  0.33442600  1
  O  O72  1  0.47018800  0.37568000  0.33015300  1
  O  O73  1  0.65750100  0.74715100  0.16557400  1
  O  O74  1  0.52363200  0.33537000  0.67248800  1
  O  O75  1  0.62432000  0.52981200  0.83015300  1
  O  O76  1  0.78176300  0.77222100  0.92191800  1
  O  O77  1  0.77222100  0.78176300  0.57808200  1
  O  O78  1  0.78501800  0.78501800  0.75000000  1
  O  O79  1  0.74715100  0.65750100  0.33442600  1
  O  O80  1  0.52363200  0.18826200  0.17248800  1
  O  O81  1  0.47018800  0.09450800  0.83015300  1
  O  O82  1  0.66463000  0.47636800  0.17248800  1
  O  O83  1  0.66666700  0.33333300  0.03186300  1
  O  O84  1  0.66666700  0.33333300  0.53186300  1
  O  O85  1  0.81173800  0.47636800  0.67248800  1
  O  O86  1  0.62432000  0.09450800  0.33015300  1
  O  O87  1  0.66463000  0.18826200  0.67248800  1
  O  O88  1  0.91035000  0.65750100  0.83442600  1
  O  O89  1  0.00954200  0.78176300  0.07808200  1
  O  O90  1  0.90549200  0.52981200  0.33015300  1
  O  O91  1  0.81173800  0.33537000  0.17248800  1
  O  O92  1  0.90549200  0.37568000  0.83015300  1
  O  O93  1  0.74715100  0.08965000  0.83442600  1
  O  O94  1  0.77222100  0.99045800  0.07808200  1
  O  O95  1  0.78501800  0.00000000  0.25000000  1
  O  O96  1  0.91035000  0.25284900  0.33442600  1
  O  O97  1  0.00954200  0.22777900  0.57808200  1
