# generated using pymatgen
data_Tm3Sc
_symmetry_space_group_name_H-M   'P 1'
_cell_length_a   6.98791843
_cell_length_b   6.98791843
_cell_length_c   5.46067400
_cell_angle_alpha   90.00000000
_cell_angle_beta   90.00000000
_cell_angle_gamma   120.00000404
_symmetry_Int_Tables_number   1
_chemical_formula_structural   Tm3Sc
_chemical_formula_sum   'Tm6 Sc2'
_cell_volume   230.92583217
_cell_formula_units_Z   2
loop_
 _symmetry_equiv_pos_site_id
 _symmetry_equiv_pos_as_xyz
  1  'x, y, z'
loop_
 _atom_site_type_symbol
 _atom_site_label
 _atom_site_symmetry_multiplicity
 _atom_site_fract_x
 _atom_site_fract_y
 _atom_site_fract_z
 _atom_site_occupancy
  Tm  Tm0  1  0.16852700  0.83147300  0.25000000  1
  Tm  Tm1  1  0.66294500  0.83147300  0.25000000  1
  Tm  Tm2  1  0.16852700  0.33705500  0.25000000  1
  Tm  Tm3  1  0.83147300  0.16852700  0.75000000  1
  Tm  Tm4  1  0.33705500  0.16852700  0.75000000  1
  Tm  Tm5  1  0.83147300  0.66294500  0.75000000  1
  Sc  Sc6  1  0.33333300  0.66666700  0.75000000  1
  Sc  Sc7  1  0.66666700  0.33333300  0.25000000  1
