# generated using pymatgen
data_Ce4ThO10
_symmetry_space_group_name_H-M   'P 1'
_cell_length_a   16.02676073
_cell_length_b   16.02676073
_cell_length_c   6.73582269
_cell_angle_alpha   85.99809561
_cell_angle_beta   85.99809561
_cell_angle_gamma   13.94495947
_symmetry_Int_Tables_number   1
_chemical_formula_structural   Ce4ThO10
_chemical_formula_sum   'Ce8 Th2 O20'
_cell_volume   415.91490396
_cell_formula_units_Z   2
loop_
 _symmetry_equiv_pos_site_id
 _symmetry_equiv_pos_as_xyz
  1  'x, y, z'
loop_
 _atom_site_type_symbol
 _atom_site_label
 _atom_site_symmetry_multiplicity
 _atom_site_fract_x
 _atom_site_fract_y
 _atom_site_fract_z
 _atom_site_occupancy
  Ce  Ce0  1  0.00000000  0.00000000  0.50000000  1
  Ce  Ce1  1  0.29962700  0.29962700  0.39943700  1
  Ce  Ce2  1  0.50000000  0.50000000  0.00000000  1
  Ce  Ce3  1  0.70037300  0.70037300  0.60056300  1
  Ce  Ce4  1  0.89998500  0.89998500  0.19991500  1
  Ce  Ce5  1  0.79937500  0.79937500  0.90091300  1
  Ce  Ce6  1  0.20062500  0.20062500  0.09908700  1
  Ce  Ce7  1  0.10001500  0.10001500  0.80008500  1
  Th  Th8  1  0.39984700  0.39984700  0.70019200  1
  Th  Th9  1  0.60015300  0.60015300  0.29980800  1
  O  O10  1  0.52415000  0.52415000  0.32467000  1
  O  O11  1  0.07449400  0.07449400  0.47884400  1
  O  O12  1  0.92550600  0.92550600  0.52115600  1
  O  O13  1  0.02490100  0.02490100  0.82584400  1
  O  O14  1  0.57458500  0.57458500  0.97144500  1
  O  O15  1  0.47585000  0.47585000  0.67533000  1
  O  O16  1  0.37440100  0.37440100  0.37146100  1
  O  O17  1  0.77490400  0.77490400  0.57497300  1
  O  O18  1  0.32384300  0.32384300  0.72526400  1
  O  O19  1  0.22509600  0.22509600  0.42502700  1
  O  O20  1  0.87431500  0.87431500  0.87911400  1
  O  O21  1  0.97509900  0.97509900  0.17415600  1
  O  O22  1  0.42541500  0.42541500  0.02855500  1
  O  O23  1  0.27483900  0.27483900  0.07514700  1
  O  O24  1  0.82459700  0.82459700  0.22549200  1
  O  O25  1  0.72516100  0.72516100  0.92485300  1
  O  O26  1  0.17540300  0.17540300  0.77450800  1
  O  O27  1  0.62559900  0.62559900  0.62853900  1
  O  O28  1  0.12568500  0.12568500  0.12088600  1
  O  O29  1  0.67615700  0.67615700  0.27473600  1
