# generated using pymatgen
data_V2O3F
_symmetry_space_group_name_H-M   'P 1'
_cell_length_a   4.71696526
_cell_length_b   4.71696526
_cell_length_c   9.05050600
_cell_angle_alpha   90.00000000
_cell_angle_beta   90.00000000
_cell_angle_gamma   94.39834535
_symmetry_Int_Tables_number   1
_chemical_formula_structural   V2O3F
_chemical_formula_sum   'V6 O9 F3'
_cell_volume   200.77855151
_cell_formula_units_Z   3
loop_
 _symmetry_equiv_pos_site_id
 _symmetry_equiv_pos_as_xyz
  1  'x, y, z'
loop_
 _atom_site_type_symbol
 _atom_site_label
 _atom_site_symmetry_multiplicity
 _atom_site_fract_x
 _atom_site_fract_y
 _atom_site_fract_z
 _atom_site_occupancy
  V  V0  1  0.99764800  0.00235200  0.66696400  1
  V  V1  1  0.99764800  0.00235200  0.33303600  1
  V  V2  1  0.99230200  0.00769800  0.00000000  1
  V  V3  1  0.44835800  0.55164200  0.50000000  1
  V  V4  1  0.54312600  0.45687400  0.83261900  1
  V  V5  1  0.54312600  0.45687400  0.16738100  1
  O  O6  1  0.80094600  0.19905400  0.16728100  1
  O  O7  1  0.80094600  0.19905400  0.83271900  1
  O  O8  1  0.30447900  0.31140600  0.66614400  1
  O  O9  1  0.30447900  0.31140600  0.33385600  1
  O  O10  1  0.31002600  0.30470400  0.00000000  1
  O  O11  1  0.68859400  0.69552100  0.66614400  1
  O  O12  1  0.68859400  0.69552100  0.33385600  1
  O  O13  1  0.69529600  0.68997400  0.00000000  1
  O  O14  1  0.19206200  0.80793800  0.50000000  1
  F  F15  1  0.80008000  0.19992000  0.50000000  1
  F  F16  1  0.19614500  0.80385500  0.83400400  1
  F  F17  1  0.19614500  0.80385500  0.16599600  1
