# generated using pymatgen
data_CrFeO4
_symmetry_space_group_name_H-M   'P 1'
_cell_length_a   5.04401127
_cell_length_b   5.04401127
_cell_length_c   6.33330500
_cell_angle_alpha   90.00000000
_cell_angle_beta   90.00000000
_cell_angle_gamma   112.72236225
_symmetry_Int_Tables_number   1
_chemical_formula_structural   CrFeO4
_chemical_formula_sum   'Cr2 Fe2 O8'
_cell_volume   148.62636729
_cell_formula_units_Z   2
loop_
 _symmetry_equiv_pos_site_id
 _symmetry_equiv_pos_as_xyz
  1  'x, y, z'
loop_
 _atom_site_type_symbol
 _atom_site_label
 _atom_site_symmetry_multiplicity
 _atom_site_fract_x
 _atom_site_fract_y
 _atom_site_fract_z
 _atom_site_occupancy
  Cr  Cr0  1  0.64374200  0.35625800  0.25000000  1
  Cr  Cr1  1  0.35625800  0.64374200  0.75000000  1
  Fe  Fe2  1  0.00000000  0.00000000  0.00000000  1
  Fe  Fe3  1  0.00000000  0.00000000  0.50000000  1
  O  O4  1  0.26433000  0.21332500  0.25000000  1
  O  O5  1  0.21332500  0.26433000  0.75000000  1
  O  O6  1  0.76708100  0.23291900  0.04139800  1
  O  O7  1  0.76708100  0.23291900  0.45860200  1
  O  O8  1  0.23291900  0.76708100  0.54139800  1
  O  O9  1  0.23291900  0.76708100  0.95860200  1
  O  O10  1  0.78667500  0.73567000  0.25000000  1
  O  O11  1  0.73567000  0.78667500  0.75000000  1
