# generated using pymatgen
data_Sn(PO3)2
_symmetry_space_group_name_H-M   'P 1'
_cell_length_a   8.08043707
_cell_length_b   8.08043707
_cell_length_c   9.77355700
_cell_angle_alpha   90.00000000
_cell_angle_beta   90.00000000
_cell_angle_gamma   90.15680372
_symmetry_Int_Tables_number   1
_chemical_formula_structural   Sn(PO3)2
_chemical_formula_sum   'Sn4 P8 O24'
_cell_volume   638.14699542
_cell_formula_units_Z   4
loop_
 _symmetry_equiv_pos_site_id
 _symmetry_equiv_pos_as_xyz
  1  'x, y, z'
loop_
 _atom_site_type_symbol
 _atom_site_label
 _atom_site_symmetry_multiplicity
 _atom_site_fract_x
 _atom_site_fract_y
 _atom_site_fract_z
 _atom_site_occupancy
  Sn  Sn0  1  0.18905000  0.64654400  0.49142500  1
  Sn  Sn1  1  0.64654400  0.18905000  0.50857500  1
  Sn  Sn2  1  0.35345600  0.81095000  0.00857500  1
  Sn  Sn3  1  0.81095000  0.35345600  0.99142500  1
  P  P4  1  0.11772200  0.34013100  0.23813100  1
  P  P5  1  0.34013100  0.11772200  0.76186900  1
  P  P6  1  0.35223400  0.35223400  0.00000000  1
  P  P7  1  0.97159900  0.02840100  0.75000000  1
  P  P8  1  0.02840100  0.97159900  0.25000000  1
  P  P9  1  0.64776600  0.64776600  0.50000000  1
  P  P10  1  0.88227800  0.65986900  0.73813200  1
  P  P11  1  0.65986900  0.88227800  0.26186900  1
  O  O12  1  0.03766000  0.16786200  0.28674100  1
  O  O13  1  0.16786200  0.03766000  0.71325900  1
  O  O14  1  0.21007900  0.41422500  0.35852800  1
  O  O15  1  0.41422500  0.21007900  0.64147200  1
  O  O16  1  0.25075500  0.27521900  0.12711900  1
  O  O17  1  0.27521900  0.25075500  0.87288100  1
  O  O18  1  0.01289000  0.55330000  0.67339300  1
  O  O19  1  0.55330000  0.01289000  0.32660700  1
  O  O20  1  0.87733000  0.06442800  0.62136300  1
  O  O21  1  0.06442800  0.87733000  0.37863700  1
  O  O22  1  0.53027400  0.30514000  0.01976100  1
  O  O23  1  0.30514000  0.53027400  0.98023900  1
  O  O24  1  0.46972600  0.69486000  0.51976100  1
  O  O25  1  0.69486000  0.46972600  0.48023900  1
  O  O26  1  0.93557200  0.12267000  0.87863700  1
  O  O27  1  0.12267000  0.93557200  0.12136300  1
  O  O28  1  0.44670000  0.98711000  0.82660700  1
  O  O29  1  0.98711000  0.44670000  0.17339300  1
  O  O30  1  0.74924500  0.72478100  0.62711900  1
  O  O31  1  0.72478100  0.74924500  0.37288100  1
  O  O32  1  0.78992100  0.58577500  0.85852800  1
  O  O33  1  0.58577500  0.78992100  0.14147200  1
  O  O34  1  0.83213800  0.96234000  0.21325900  1
  O  O35  1  0.96234000  0.83213800  0.78674100  1
