# generated using pymatgen
data_TiO2
_symmetry_space_group_name_H-M   'P 1'
_cell_length_a   7.28678543
_cell_length_b   7.28678543
_cell_length_c   4.78941953
_cell_angle_alpha   88.10890871
_cell_angle_beta   88.10890871
_cell_angle_gamma   23.61396343
_symmetry_Int_Tables_number   1
_chemical_formula_structural   TiO2
_chemical_formula_sum   'Ti3 O6'
_cell_volume   101.80963107
_cell_formula_units_Z   3
loop_
 _symmetry_equiv_pos_site_id
 _symmetry_equiv_pos_as_xyz
  1  'x, y, z'
loop_
 _atom_site_type_symbol
 _atom_site_label
 _atom_site_symmetry_multiplicity
 _atom_site_fract_x
 _atom_site_fract_y
 _atom_site_fract_z
 _atom_site_occupancy
  Ti  Ti0  1  0.34340200  0.34340200  0.51998800  1
  Ti  Ti1  1  0.65659800  0.65659800  0.48001200  1
  Ti  Ti2  1  0.00000000  0.00000000  0.00000000  1
  O  O3  1  0.43748900  0.43748900  0.81898200  1
  O  O4  1  0.77630800  0.77630800  0.70049000  1
  O  O5  1  0.09895300  0.09895300  0.68874400  1
  O  O6  1  0.90104700  0.90104700  0.31125600  1
  O  O7  1  0.22369200  0.22369200  0.29951000  1
  O  O8  1  0.56251100  0.56251100  0.18101800  1
