# generated using pymatgen
data_V11NiO18
_symmetry_space_group_name_H-M   'P 1'
_cell_length_a   5.55317682
_cell_length_b   8.86056870
_cell_length_c   7.50771359
_cell_angle_alpha   66.95064834
_cell_angle_beta   96.35790037
_cell_angle_gamma   74.54598697
_symmetry_Int_Tables_number   1
_chemical_formula_structural   V11NiO18
_chemical_formula_sum   'V11 Ni1 O18'
_cell_volume   317.85227819
_cell_formula_units_Z   1
loop_
 _symmetry_equiv_pos_site_id
 _symmetry_equiv_pos_as_xyz
  1  'x, y, z'
loop_
 _atom_site_type_symbol
 _atom_site_label
 _atom_site_symmetry_multiplicity
 _atom_site_fract_x
 _atom_site_fract_y
 _atom_site_fract_z
 _atom_site_occupancy
  V  V0  1  0.29876200  0.00049700  0.35241000  1
  V  V1  1  0.70185000  0.00205900  0.14872600  1
  V  V2  1  0.63690400  0.33055700  0.18737900  1
  V  V3  1  0.29588500  0.00214800  0.84930900  1
  V  V4  1  0.69813600  0.00015100  0.64965900  1
  V  V5  1  0.63607100  0.33495700  0.67765900  1
  V  V6  1  0.37287300  0.66088800  0.32260700  1
  V  V7  1  0.96518900  0.66522500  0.02028600  1
  V  V8  1  0.03445000  0.33318900  0.98406500  1
  V  V9  1  0.96897400  0.66713800  0.51661100  1
  V  V10  1  0.36853800  0.66685800  0.81747600  1
  Ni  Ni11  1  0.04183500  0.33135900  0.47968800  1
  O  O12  1  0.39671100  0.20360000  0.14695200  1
  O  O13  1  0.30122000  0.09500300  0.55077100  1
  O  O14  1  0.93571100  0.12823700  0.18697500  1
  O  O15  1  0.37431400  0.56571600  0.12626000  1
  O  O16  1  0.03303800  0.22886200  0.79138100  1
  O  O17  1  0.72134800  0.23275100  0.48114800  1
  O  O18  1  0.93057400  0.43818200  0.17798000  1
  O  O19  1  0.60027200  0.10290000  0.85348500  1
  O  O20  1  0.26829200  0.46906700  0.51318100  1
  O  O21  1  0.71198800  0.55190100  0.47084500  1
  O  O22  1  0.39963600  0.88973200  0.15383300  1
  O  O23  1  0.06671700  0.56729300  0.81339600  1
  O  O24  1  0.27002600  0.76603500  0.51611200  1
  O  O25  1  0.97709000  0.76668500  0.21688600  1
  O  O26  1  0.62976500  0.43511900  0.87799300  1
  O  O27  1  0.70393600  0.89932500  0.44884300  1
  O  O28  1  0.06226200  0.86722100  0.81622000  1
  O  O29  1  0.59763400  0.79734300  0.85186300  1
