data_image0
_chemical_formula_structural       Hf4Ni2P2
_chemical_formula_sum              "Hf4 Ni2 P2"
_cell_length_a       5.18739
_cell_length_b       3.59812
_cell_length_c       7.43339
_cell_angle_alpha    90
_cell_angle_beta     110.874
_cell_angle_gamma    90

_space_group_name_H-M_alt    "P 1"
_space_group_IT_number       1

loop_
  _space_group_symop_operation_xyz
  'x, y, z'

loop_
  _atom_site_type_symbol
  _atom_site_label
  _atom_site_symmetry_multiplicity
  _atom_site_fract_x
  _atom_site_fract_y
  _atom_site_fract_z
  _atom_site_occupancy
  Hf  Hf1       1.0  0.79200  0.25000  0.07520  1.0000
  Hf  Hf2       1.0  0.20600  0.75000  0.42900  1.0000
  Hf  Hf3       1.0  0.79400  0.25000  0.57100  1.0000
  Hf  Hf4       1.0  0.20800  0.75000  0.92500  1.0000
  Ni  Ni1       1.0  0.64600  0.75000  0.29100  1.0000
  Ni  Ni2       1.0  0.35400  0.25000  0.70900  1.0000
  P   P1        1.0  0.35100  0.25000  0.21100  1.0000
  P   P2        1.0  0.64900  0.75000  0.78900  1.0000
