# generated using pymatgen
data_Mn4Si4O13
_symmetry_space_group_name_H-M   'P 1'
_cell_length_a   7.10362400
_cell_length_b   7.81232387
_cell_length_c   10.07163977
_cell_angle_alpha   67.41389581
_cell_angle_beta   84.13943994
_cell_angle_gamma   81.33150525
_symmetry_Int_Tables_number   1
_chemical_formula_structural   Mn4Si4O13
_chemical_formula_sum   'Mn8 Si8 O26'
_cell_volume   509.57132979
_cell_formula_units_Z   2
loop_
 _symmetry_equiv_pos_site_id
 _symmetry_equiv_pos_as_xyz
  1  'x, y, z'
loop_
 _atom_site_type_symbol
 _atom_site_label
 _atom_site_symmetry_multiplicity
 _atom_site_fract_x
 _atom_site_fract_y
 _atom_site_fract_z
 _atom_site_occupancy
  Mn  Mn0  1  0.06112000  0.19810700  0.00282700  1
  Mn  Mn1  1  0.56270200  0.20261800  0.99210800  1
  Mn  Mn2  1  0.57009200  0.55989600  0.62140900  1
  Mn  Mn3  1  0.05130200  0.57400200  0.62039800  1
  Mn  Mn4  1  0.94869800  0.42599800  0.37960200  1
  Mn  Mn5  1  0.42990800  0.44010400  0.37859100  1
  Mn  Mn6  1  0.43729800  0.79738200  0.00789200  1
  Mn  Mn7  1  0.93888000  0.80189300  0.99717300  1
  Si  Si8  1  0.27300700  0.57838300  0.82726100  1
  Si  Si9  1  0.71947100  0.86272800  0.71419500  1
  Si  Si10  1  0.38852000  0.14086600  0.70960800  1
  Si  Si11  1  0.94056000  0.16547800  0.71063500  1
  Si  Si12  1  0.05944000  0.83452200  0.28936500  1
  Si  Si13  1  0.61148000  0.85913400  0.29039200  1
  Si  Si14  1  0.28052900  0.13727200  0.28580500  1
  Si  Si15  1  0.72699300  0.42161700  0.17273900  1
  O  O16  1  0.41335200  0.09085500  0.88134900  1
  O  O17  1  0.88531400  0.11240400  0.88320600  1
  O  O18  1  0.23008500  0.70980000  0.92152600  1
  O  O19  1  0.49287900  0.46267500  0.84045100  1
  O  O20  1  0.10022900  0.44667800  0.84037500  1
  O  O21  1  0.72359600  0.77224800  0.89054400  1
  O  O22  1  0.87604300  0.38455400  0.60372400  1
  O  O23  1  0.44623300  0.34536300  0.60028500  1
  O  O24  1  0.26774900  0.68810500  0.64965600  1
  O  O25  1  0.77303100  0.71256000  0.63668400  1
  O  O26  1  0.16866600  0.13796300  0.68742300  1
  O  O27  1  0.50494700  0.96948900  0.66847500  1
  O  O28  1  0.86508000  0.02329700  0.65167400  1
  O  O29  1  0.13492000  0.97670300  0.34832600  1
  O  O30  1  0.49505300  0.03051100  0.33152500  1
  O  O31  1  0.83133400  0.86203700  0.31257700  1
  O  O32  1  0.22696900  0.28744000  0.36331600  1
  O  O33  1  0.73225100  0.31189500  0.35034400  1
  O  O34  1  0.55376700  0.65463700  0.39971500  1
  O  O35  1  0.12395700  0.61544600  0.39627600  1
  O  O36  1  0.27640400  0.22775200  0.10945600  1
  O  O37  1  0.89977100  0.55332200  0.15962500  1
  O  O38  1  0.50712100  0.53732500  0.15954900  1
  O  O39  1  0.76991500  0.29020000  0.07847400  1
  O  O40  1  0.11468600  0.88759600  0.11679400  1
  O  O41  1  0.58664800  0.90914500  0.11865100  1
