# generated using pymatgen
data_Ba2Ta2O7
_symmetry_space_group_name_H-M   'P 1'
_cell_length_a   7.77953447
_cell_length_b   7.77953447
_cell_length_c   7.77953447
_cell_angle_alpha   120.44776157
_cell_angle_beta   117.46678591
_cell_angle_gamma   91.83452802
_symmetry_Int_Tables_number   1
_chemical_formula_structural   Ba2Ta2O7
_chemical_formula_sum   'Ba4 Ta4 O14'
_cell_volume   337.70923465
_cell_formula_units_Z   2
loop_
 _symmetry_equiv_pos_site_id
 _symmetry_equiv_pos_as_xyz
  1  'x, y, z'
loop_
 _atom_site_type_symbol
 _atom_site_label
 _atom_site_symmetry_multiplicity
 _atom_site_fract_x
 _atom_site_fract_y
 _atom_site_fract_z
 _atom_site_occupancy
  Ba  Ba0  1  0.00000000  0.00000000  0.00000000  1
  Ba  Ba1  1  0.50000000  0.50000000  0.00000000  1
  Ba  Ba2  1  0.00000000  0.50000000  0.00000000  1
  Ba  Ba3  1  0.00000000  0.00000000  0.50000000  1
  Ta  Ta4  1  0.50000000  0.00000000  0.00000000  1
  Ta  Ta5  1  0.50000000  0.00000000  0.50000000  1
  Ta  Ta6  1  0.50000000  0.50000000  0.50000000  1
  Ta  Ta7  1  0.00000000  0.50000000  0.50000000  1
  O  O8  1  0.79888900  0.19178600  0.22820600  1
  O  O9  1  0.79999400  0.09040000  0.70959500  1
  O  O10  1  0.41629200  0.25000000  0.16629200  1
  O  O11  1  0.88080500  0.59040000  0.29040500  1
  O  O12  1  0.53642000  0.30821400  0.60710300  1
  O  O13  1  0.46358000  0.07068300  0.77179400  1
  O  O14  1  0.79888900  0.57068300  0.60710300  1
  O  O15  1  0.20111100  0.42931700  0.39289700  1
  O  O16  1  0.46358000  0.69178600  0.39289700  1
  O  O17  1  0.53642000  0.92931700  0.22820600  1
  O  O18  1  0.11919500  0.40960000  0.70959500  1
  O  O19  1  0.58370800  0.75000000  0.83370800  1
  O  O20  1  0.20000600  0.90960000  0.29040500  1
  O  O21  1  0.20111100  0.80821400  0.77179400  1
