# generated using pymatgen
data_Sc(ClO4)3
_symmetry_space_group_name_H-M   'P 1'
_cell_length_a   9.24846110
_cell_length_b   9.24846110
_cell_length_c   5.39948600
_cell_angle_alpha   90.00000000
_cell_angle_beta   90.00000000
_cell_angle_gamma   119.99999357
_symmetry_Int_Tables_number   1
_chemical_formula_structural   Sc(ClO4)3
_chemical_formula_sum   'Sc2 Cl6 O24'
_cell_volume   399.96503584
_cell_formula_units_Z   2
loop_
 _symmetry_equiv_pos_site_id
 _symmetry_equiv_pos_as_xyz
  1  'x, y, z'
loop_
 _atom_site_type_symbol
 _atom_site_label
 _atom_site_symmetry_multiplicity
 _atom_site_fract_x
 _atom_site_fract_y
 _atom_site_fract_z
 _atom_site_occupancy
  Sc  Sc0  1  0.33333300  0.66666700  0.75000000  1
  Sc  Sc1  1  0.66666700  0.33333300  0.25000000  1
  Cl  Cl2  1  0.09507800  0.70461900  0.25000000  1
  Cl  Cl3  1  0.29538100  0.39045900  0.25000000  1
  Cl  Cl4  1  0.60954100  0.90492200  0.25000000  1
  Cl  Cl5  1  0.39045900  0.09507800  0.75000000  1
  Cl  Cl6  1  0.70461900  0.60954100  0.75000000  1
  Cl  Cl7  1  0.90492200  0.29538100  0.75000000  1
  O  O8  1  0.02492900  0.81007700  0.25000000  1
  O  O9  1  0.02700600  0.47213800  0.75000000  1
  O  O10  1  0.20428900  0.74197300  0.03042000  1
  O  O11  1  0.20428900  0.74197300  0.46958000  1
  O  O12  1  0.44513100  0.97299400  0.75000000  1
  O  O13  1  0.25802700  0.46231600  0.46958000  1
  O  O14  1  0.25802700  0.46231600  0.03042000  1
  O  O15  1  0.18992300  0.21485200  0.25000000  1
  O  O16  1  0.53768400  0.79571100  0.03042000  1
  O  O17  1  0.53768400  0.79571100  0.46958000  1
  O  O18  1  0.21485200  0.02492900  0.75000000  1
  O  O19  1  0.47213800  0.44513100  0.25000000  1
  O  O20  1  0.52786200  0.55486900  0.75000000  1
  O  O21  1  0.78514800  0.97507100  0.25000000  1
  O  O22  1  0.46231600  0.20428900  0.53042000  1
  O  O23  1  0.46231600  0.20428900  0.96958000  1
  O  O24  1  0.81007700  0.78514800  0.75000000  1
  O  O25  1  0.74197300  0.53768400  0.96958000  1
  O  O26  1  0.74197300  0.53768400  0.53042000  1
  O  O27  1  0.55486900  0.02700600  0.25000000  1
  O  O28  1  0.79571100  0.25802700  0.96958000  1
  O  O29  1  0.79571100  0.25802700  0.53042000  1
  O  O30  1  0.97299400  0.52786200  0.25000000  1
  O  O31  1  0.97507100  0.18992300  0.75000000  1
