# generated using pymatgen
data_Rb5FeO4
_symmetry_space_group_name_H-M   'P 1'
_cell_length_a   7.16102800
_cell_length_b   7.37527200
_cell_length_c   8.76387200
_cell_angle_alpha   90.00000000
_cell_angle_beta   90.00000000
_cell_angle_gamma   90.00000000
_symmetry_Int_Tables_number   1
_chemical_formula_structural   Rb5FeO4
_chemical_formula_sum   'Rb10 Fe2 O8'
_cell_volume   462.85977452
_cell_formula_units_Z   2
loop_
 _symmetry_equiv_pos_site_id
 _symmetry_equiv_pos_as_xyz
  1  'x, y, z'
loop_
 _atom_site_type_symbol
 _atom_site_label
 _atom_site_symmetry_multiplicity
 _atom_site_fract_x
 _atom_site_fract_y
 _atom_site_fract_z
 _atom_site_occupancy
  Rb  Rb0  1  0.92208300  0.06110800  0.31127400  1
  Rb  Rb1  1  0.92208300  0.06110800  0.68872600  1
  Rb  Rb2  1  0.74629500  0.62415400  0.70188200  1
  Rb  Rb3  1  0.74629500  0.62415400  0.29811800  1
  Rb  Rb4  1  0.75180700  0.31085400  0.00000000  1
  Rb  Rb5  1  0.42208300  0.93889200  0.81127400  1
  Rb  Rb6  1  0.42208300  0.93889200  0.18872600  1
  Rb  Rb7  1  0.24629500  0.37584600  0.79811800  1
  Rb  Rb8  1  0.24629500  0.37584600  0.20188200  1
  Rb  Rb9  1  0.25180700  0.68914600  0.50000000  1
  Fe  Fe10  1  0.00238800  0.82060500  0.00000000  1
  Fe  Fe11  1  0.50238800  0.17939500  0.50000000  1
  O  O12  1  0.73368200  0.78483200  0.00000000  1
  O  O13  1  0.57266700  0.91914700  0.50000000  1
  O  O14  1  0.59736900  0.27957700  0.30806700  1
  O  O15  1  0.59736900  0.27957700  0.69193300  1
  O  O16  1  0.23368200  0.21516800  0.50000000  1
  O  O17  1  0.07266700  0.08085300  0.00000000  1
  O  O18  1  0.09736900  0.72042300  0.80806700  1
  O  O19  1  0.09736900  0.72042300  0.19193300  1
