# generated using pymatgen
data_HoSO
_symmetry_space_group_name_H-M   'P 1'
_cell_length_a   6.84483499
_cell_length_b   6.84483499
_cell_length_c   5.64854900
_cell_angle_alpha   90.00000000
_cell_angle_beta   90.00000000
_cell_angle_gamma   131.18936790
_symmetry_Int_Tables_number   1
_chemical_formula_structural   HoSO
_chemical_formula_sum   'Ho4 S4 O4'
_cell_volume   199.15480825
_cell_formula_units_Z   4
loop_
 _symmetry_equiv_pos_site_id
 _symmetry_equiv_pos_as_xyz
  1  'x, y, z'
loop_
 _atom_site_type_symbol
 _atom_site_label
 _atom_site_symmetry_multiplicity
 _atom_site_fract_x
 _atom_site_fract_y
 _atom_site_fract_z
 _atom_site_occupancy
  Ho  Ho0  1  0.33568700  0.66431300  0.00000000  1
  Ho  Ho1  1  0.16431300  0.83568700  0.50000000  1
  Ho  Ho2  1  0.83568700  0.16431300  0.50000000  1
  Ho  Ho3  1  0.66431300  0.33568700  0.00000000  1
  S  S4  1  0.86870200  0.86870200  0.86818500  1
  S  S5  1  0.36870200  0.36870200  0.63181500  1
  S  S6  1  0.13129800  0.13129800  0.13181500  1
  S  S7  1  0.63129800  0.63129800  0.36818500  1
  O  O8  1  0.49335600  0.99335600  0.75000000  1
  O  O9  1  0.00664400  0.50664400  0.25000000  1
  O  O10  1  0.50664400  0.00664400  0.25000000  1
  O  O11  1  0.99335600  0.49335600  0.75000000  1
