# generated using pymatgen
data_Li2MnV(PO4)3
_symmetry_space_group_name_H-M   'P 1'
_cell_length_a   9.21058242
_cell_length_b   8.33707477
_cell_length_c   8.28971033
_cell_angle_alpha   60.88306710
_cell_angle_beta   61.90450626
_cell_angle_gamma   91.98576108
_symmetry_Int_Tables_number   1
_chemical_formula_structural   Li2MnV(PO4)3
_chemical_formula_sum   'Li4 Mn2 V2 P6 O24'
_cell_volume   460.95029091
_cell_formula_units_Z   2
loop_
 _symmetry_equiv_pos_site_id
 _symmetry_equiv_pos_as_xyz
  1  'x, y, z'
loop_
 _atom_site_type_symbol
 _atom_site_label
 _atom_site_symmetry_multiplicity
 _atom_site_fract_x
 _atom_site_fract_y
 _atom_site_fract_z
 _atom_site_occupancy
  Li  Li0  1  0.13950100  0.74251400  0.17833700  1
  Li  Li1  1  0.12603500  0.06657500  0.60891800  1
  Li  Li2  1  0.87396500  0.93342500  0.39108200  1
  Li  Li3  1  0.86049900  0.25748600  0.82166300  1
  Mn  Mn4  1  0.56498700  0.84929600  0.28983100  1
  Mn  Mn5  1  0.43501300  0.15070400  0.71016900  1
  V  V6  1  0.04759800  0.35401500  0.29212400  1
  V  V7  1  0.95240200  0.64598500  0.70787600  1
  P  P8  1  0.25400900  0.04554600  0.20639700  1
  P  P9  1  0.24225300  0.46098700  0.49750100  1
  P  P10  1  0.25618600  0.75143000  0.77784000  1
  P  P11  1  0.74381400  0.24857000  0.22216000  1
  P  P12  1  0.75774700  0.53901300  0.50249900  1
  P  P13  1  0.74599100  0.95445400  0.79360300  1
  O  O14  1  0.09773300  0.83900500  0.37219400  1
  O  O15  1  0.27048200  0.12471300  0.98543900  1
  O  O16  1  0.17820500  0.17182600  0.29598700  1
  O  O17  1  0.19180600  0.49816500  0.32779300  1
  O  O18  1  0.08881300  0.47559300  0.68045100  1
  O  O19  1  0.11987900  0.79254200  0.71267400  1
  O  O20  1  0.41729400  0.02792200  0.20077800  1
  O  O21  1  0.24616600  0.25448600  0.61207300  1
  O  O22  1  0.41520600  0.61722500  0.37311000  1
  O  O23  1  0.18607500  0.53597100  0.98007200  1
  O  O24  1  0.26463400  0.88457000  0.85519500  1
  O  O25  1  0.43265500  0.79227800  0.58542600  1
  O  O26  1  0.56734500  0.20772200  0.41457400  1
  O  O27  1  0.73536600  0.11543000  0.14480500  1
  O  O28  1  0.81392500  0.46402900  0.01992800  1
  O  O29  1  0.58479400  0.38277500  0.62689000  1
  O  O30  1  0.75383400  0.74551400  0.38792700  1
  O  O31  1  0.58270600  0.97207800  0.79922200  1
  O  O32  1  0.88012100  0.20745800  0.28732600  1
  O  O33  1  0.91118700  0.52440700  0.31954900  1
  O  O34  1  0.80819400  0.50183500  0.67220700  1
  O  O35  1  0.82179500  0.82817400  0.70401300  1
  O  O36  1  0.72951800  0.87528700  0.01456100  1
  O  O37  1  0.90226700  0.16099500  0.62780600  1
