# generated using pymatgen
data_NbAsO4
_symmetry_space_group_name_H-M   'P 1'
_cell_length_a   5.06308600
_cell_length_b   5.57787200
_cell_length_c   12.05635500
_cell_angle_alpha   90.00000000
_cell_angle_beta   90.00000000
_cell_angle_gamma   90.00000000
_symmetry_Int_Tables_number   1
_chemical_formula_structural   NbAsO4
_chemical_formula_sum   'Nb4 As4 O16'
_cell_volume   340.48648299
_cell_formula_units_Z   4
loop_
 _symmetry_equiv_pos_site_id
 _symmetry_equiv_pos_as_xyz
  1  'x, y, z'
loop_
 _atom_site_type_symbol
 _atom_site_label
 _atom_site_symmetry_multiplicity
 _atom_site_fract_x
 _atom_site_fract_y
 _atom_site_fract_z
 _atom_site_occupancy
  Nb  Nb0  1  0.98387100  0.11200300  0.99622500  1
  Nb  Nb1  1  0.48387100  0.38799700  0.49622500  1
  Nb  Nb2  1  0.51612900  0.61200300  0.99622500  1
  Nb  Nb3  1  0.01612900  0.88799700  0.49622500  1
  As  As4  1  0.59805200  0.06000200  0.74467000  1
  As  As5  1  0.09805200  0.43999800  0.24467000  1
  As  As6  1  0.90194800  0.56000200  0.74467000  1
  As  As7  1  0.40194800  0.93999800  0.24467000  1
  O  O8  1  0.28716400  0.08007300  0.55733700  1
  O  O9  1  0.77161400  0.12657400  0.46272700  1
  O  O10  1  0.16728500  0.14987300  0.16603100  1
  O  O11  1  0.83947600  0.16004300  0.84512200  1
  O  O12  1  0.33947600  0.33995700  0.34512200  1
  O  O13  1  0.66728500  0.35012700  0.66603100  1
  O  O14  1  0.27161400  0.37342600  0.96272700  1
  O  O15  1  0.78716400  0.41992700  0.05733700  1
  O  O16  1  0.21283600  0.58007300  0.55733700  1
  O  O17  1  0.72838600  0.62657400  0.46272700  1
  O  O18  1  0.33271500  0.64987300  0.16603100  1
  O  O19  1  0.66052400  0.66004300  0.84512200  1
  O  O20  1  0.16052400  0.83995700  0.34512200  1
  O  O21  1  0.83271500  0.85012700  0.66603100  1
  O  O22  1  0.22838600  0.87342600  0.96272700  1
  O  O23  1  0.71283600  0.91992700  0.05733700  1
