data_image0
_chemical_formula_structural       Cu2O4Sr2
_chemical_formula_sum              "Cu2 O4 Sr2"
_cell_length_a       3.55748
_cell_length_b       3.92462
_cell_length_c       8.28973
_cell_angle_alpha    90
_cell_angle_beta     77.6096
_cell_angle_gamma    90

_space_group_name_H-M_alt    "P 1"
_space_group_IT_number       1

loop_
  _space_group_symop_operation_xyz
  'x, y, z'

loop_
  _atom_site_type_symbol
  _atom_site_label
  _atom_site_symmetry_multiplicity
  _atom_site_fract_x
  _atom_site_fract_y
  _atom_site_fract_z
  _atom_site_occupancy
  Cu  Cu1       1.0  0.93800  0.25000  0.12300  1.0000
  Cu  Cu2       1.0  0.06160  0.75000  0.87700  1.0000
  O   O1        1.0  0.94500  0.75000  0.11100  1.0000
  O   O2        1.0  0.82100  0.25000  0.35800  1.0000
  O   O3        1.0  0.17900  0.75000  0.64200  1.0000
  O   O4        1.0  0.05530  0.25000  0.88900  1.0000
  Sr  Sr1       1.0  0.33200  0.75000  0.33600  1.0000
  Sr  Sr2       1.0  0.66800  0.25000  0.66400  1.0000
