# generated using pymatgen
data_Rb8Fe2O7
_symmetry_space_group_name_H-M   'P 1'
_cell_length_a   12.86462100
_cell_length_b   10.19477000
_cell_length_c   11.97813492
_cell_angle_alpha   72.36029788
_cell_angle_beta   90.00000000
_cell_angle_gamma   90.00000000
_symmetry_Int_Tables_number   1
_chemical_formula_structural   Rb8Fe2O7
_chemical_formula_sum   'Rb32 Fe8 O28'
_cell_volume   1497.08973721
_cell_formula_units_Z   4
loop_
 _symmetry_equiv_pos_site_id
 _symmetry_equiv_pos_as_xyz
  1  'x, y, z'
loop_
 _atom_site_type_symbol
 _atom_site_label
 _atom_site_symmetry_multiplicity
 _atom_site_fract_x
 _atom_site_fract_y
 _atom_site_fract_z
 _atom_site_occupancy
  Rb  Rb0  1  0.52100300  0.88363900  0.92301200  1
  Rb  Rb1  1  0.53995300  0.92382200  0.64348600  1
  Rb  Rb2  1  0.25858000  0.89589200  0.53175000  1
  Rb  Rb3  1  0.97899700  0.88363900  0.42301200  1
  Rb  Rb4  1  0.05701800  0.75181600  0.71526200  1
  Rb  Rb5  1  0.96004700  0.92382200  0.14348600  1
  Rb  Rb6  1  0.75712600  0.71038500  0.56860700  1
  Rb  Rb7  1  0.24142000  0.89589200  0.03175000  1
  Rb  Rb8  1  0.52635800  0.57217100  0.85559900  1
  Rb  Rb9  1  0.49227500  0.66646300  0.51445400  1
  Rb  Rb10  1  0.44298200  0.75181600  0.21526200  1
  Rb  Rb11  1  0.77218500  0.50265500  0.87226900  1
  Rb  Rb12  1  0.74287400  0.71038500  0.06860700  1
  Rb  Rb13  1  0.27218500  0.49734500  0.62773100  1
  Rb  Rb14  1  0.97364200  0.57217100  0.35559900  1
  Rb  Rb15  1  0.99227500  0.33353700  0.98554600  1
  Rb  Rb16  1  0.00772500  0.66646300  0.01445400  1
  Rb  Rb17  1  0.02635800  0.42782900  0.64440100  1
  Rb  Rb18  1  0.72781500  0.50265500  0.37226900  1
  Rb  Rb19  1  0.25712600  0.28961500  0.93139300  1
  Rb  Rb20  1  0.22781500  0.49734500  0.12773100  1
  Rb  Rb21  1  0.55701800  0.24818400  0.78473800  1
  Rb  Rb22  1  0.50772500  0.33353700  0.48554600  1
  Rb  Rb23  1  0.47364200  0.42782900  0.14440100  1
  Rb  Rb24  1  0.75858000  0.10410800  0.96825000  1
  Rb  Rb25  1  0.24287400  0.28961500  0.43139300  1
  Rb  Rb26  1  0.03995300  0.07617800  0.85651400  1
  Rb  Rb27  1  0.94298200  0.24818400  0.28473800  1
  Rb  Rb28  1  0.02100300  0.11636100  0.57698800  1
  Rb  Rb29  1  0.74142000  0.10410800  0.46825000  1
  Rb  Rb30  1  0.46004700  0.07617800  0.35651400  1
  Rb  Rb31  1  0.47899700  0.11636100  0.07698800  1
  Fe  Fe32  1  0.79638100  0.91437700  0.76942800  1
  Fe  Fe33  1  0.70361900  0.91437700  0.26942800  1
  Fe  Fe34  1  0.28722300  0.70539600  0.84079400  1
  Fe  Fe35  1  0.21277700  0.70539600  0.34079400  1
  Fe  Fe36  1  0.78722300  0.29460400  0.65920600  1
  Fe  Fe37  1  0.71277700  0.29460400  0.15920600  1
  Fe  Fe38  1  0.29638100  0.08562300  0.73057200  1
  Fe  Fe39  1  0.20361900  0.08562300  0.23057200  1
  O  O40  1  0.88143000  0.88623800  0.90856600  1
  O  O41  1  0.22446700  0.89617400  0.78274700  1
  O  O42  1  0.87742800  0.90029700  0.63886100  1
  O  O43  1  0.61857000  0.88623800  0.40856600  1
  O  O44  1  0.68554100  0.77992100  0.80636700  1
  O  O45  1  0.27553300  0.89617400  0.28274700  1
  O  O46  1  0.62257200  0.90029700  0.13886100  1
  O  O47  1  0.37163600  0.68604800  0.71334600  1
  O  O48  1  0.81445900  0.77992100  0.30636700  1
  O  O49  1  0.17048000  0.57533800  0.88498500  1
  O  O50  1  0.12556200  0.67492500  0.47789900  1
  O  O51  1  0.12836400  0.68604800  0.21334600  1
  O  O52  1  0.32952000  0.57533800  0.38498500  1
  O  O53  1  0.62556200  0.32507500  0.02210100  1
  O  O54  1  0.37443800  0.67492500  0.97789900  1
  O  O55  1  0.67048000  0.42466200  0.61501500  1
  O  O56  1  0.87163600  0.31395200  0.78665400  1
  O  O57  1  0.87443800  0.32507500  0.52210100  1
  O  O58  1  0.82952000  0.42466200  0.11501500  1
  O  O59  1  0.18554100  0.22007900  0.69363300  1
  O  O60  1  0.62836400  0.31395200  0.28665400  1
  O  O61  1  0.37742800  0.09970300  0.86113900  1
  O  O62  1  0.72446700  0.10382600  0.71725300  1
  O  O63  1  0.31445900  0.22007900  0.19363300  1
  O  O64  1  0.38143000  0.11376200  0.59143400  1
  O  O65  1  0.12257200  0.09970300  0.36113900  1
  O  O66  1  0.77553300  0.10382600  0.21725300  1
  O  O67  1  0.11857000  0.11376200  0.09143400  1
