# generated using pymatgen
data_EuYO2
_symmetry_space_group_name_H-M   'P 1'
_cell_length_a   6.18262877
_cell_length_b   6.18262877
_cell_length_c   6.18262909
_cell_angle_alpha   32.59080027
_cell_angle_beta   32.59080027
_cell_angle_gamma   32.59080693
_symmetry_Int_Tables_number   1
_chemical_formula_structural   EuYO2
_chemical_formula_sum   'Eu1 Y1 O2'
_cell_volume   60.97773953
_cell_formula_units_Z   1
loop_
 _symmetry_equiv_pos_site_id
 _symmetry_equiv_pos_as_xyz
  1  'x, y, z'
loop_
 _atom_site_type_symbol
 _atom_site_label
 _atom_site_symmetry_multiplicity
 _atom_site_fract_x
 _atom_site_fract_y
 _atom_site_fract_z
 _atom_site_occupancy
  Eu  Eu0  1  0.00000000  0.00000000  0.00000000  1
  Y  Y1  1  0.50000000  0.50000000  0.50000000  1
  O  O2  1  0.23810600  0.23810600  0.23810600  1
  O  O3  1  0.76189400  0.76189400  0.76189400  1
