# generated using pymatgen
data_Rb17Fe5O16
_symmetry_space_group_name_H-M   'P 1'
_cell_length_a   19.16534888
_cell_length_b   19.16534888
_cell_length_c   7.12597990
_cell_angle_alpha   84.74882187
_cell_angle_beta   84.74882187
_cell_angle_gamma   158.60798613
_symmetry_Int_Tables_number   1
_chemical_formula_structural   Rb17Fe5O16
_chemical_formula_sum   'Rb17 Fe5 O16'
_cell_volume   830.55770172
_cell_formula_units_Z   1
loop_
 _symmetry_equiv_pos_site_id
 _symmetry_equiv_pos_as_xyz
  1  'x, y, z'
loop_
 _atom_site_type_symbol
 _atom_site_label
 _atom_site_symmetry_multiplicity
 _atom_site_fract_x
 _atom_site_fract_y
 _atom_site_fract_z
 _atom_site_occupancy
  Rb  Rb0  1  0.40372600  0.68115000  0.05373000  1
  Rb  Rb1  1  0.49057700  0.58311900  0.07321000  1
  Rb  Rb2  1  0.31631600  0.78320700  0.07108000  1
  Rb  Rb3  1  0.08237500  0.91177900  0.19285000  1
  Rb  Rb4  1  0.16874300  0.83123900  0.46832500  1
  Rb  Rb5  1  0.31815700  0.59157700  0.59643900  1
  Rb  Rb6  1  0.22287100  0.67415600  0.61508800  1
  Rb  Rb7  1  0.41055400  0.50189000  0.61364800  1
  Rb  Rb8  1  0.68115000  0.40372600  0.05373000  1
  Rb  Rb9  1  0.58311900  0.49057700  0.07321000  1
  Rb  Rb10  1  0.78320700  0.31631600  0.07108000  1
  Rb  Rb11  1  0.91177900  0.08237500  0.19285000  1
  Rb  Rb12  1  0.83123900  0.16874300  0.46832500  1
  Rb  Rb13  1  0.59157700  0.31815700  0.59643900  1
  Rb  Rb14  1  0.67415600  0.22287100  0.61508800  1
  Rb  Rb15  1  0.50189000  0.41055400  0.61364800  1
  Rb  Rb16  1  0.99742700  0.99742700  0.48530100  1
  Fe  Fe17  1  0.99623100  0.99623100  0.98902800  1
  Fe  Fe18  1  0.08604300  0.90754100  0.68995600  1
  Fe  Fe19  1  0.17737300  0.82060300  0.98280600  1
  Fe  Fe20  1  0.90754100  0.08604300  0.68995600  1
  Fe  Fe21  1  0.82060300  0.17737300  0.98280600  1
  O  O22  1  0.07260200  0.44276700  0.00050900  1
  O  O23  1  0.16024900  0.34414400  0.41671400  1
  O  O24  1  0.44276700  0.07260200  0.00050900  1
  O  O25  1  0.25341000  0.25341000  0.00692000  1
  O  O26  1  0.55733400  0.92608600  0.25559000  1
  O  O27  1  0.21357500  0.78760300  0.78410300  1
  O  O28  1  0.04000100  0.95330600  0.83049500  1
  O  O29  1  0.12900600  0.87050600  0.86661500  1
  O  O30  1  0.34414400  0.16024900  0.41671400  1
  O  O31  1  0.64842500  0.83273500  0.67078200  1
  O  O32  1  0.92608600  0.55733400  0.25559000  1
  O  O33  1  0.73959700  0.73959700  0.26136800  1
  O  O34  1  0.78760300  0.21357500  0.78410300  1
  O  O35  1  0.95330600  0.04000100  0.83049500  1
  O  O36  1  0.87050600  0.12900600  0.86661500  1
  O  O37  1  0.83273500  0.64842500  0.67078200  1
