# generated using pymatgen
data_Na6Sn2P(CO4)4
_symmetry_space_group_name_H-M   'P 1'
_cell_length_a   10.27685661
_cell_length_b   10.27685661
_cell_length_c   10.27685661
_cell_angle_alpha   60.00000000
_cell_angle_beta   60.00000000
_cell_angle_gamma   60.00000000
_symmetry_Int_Tables_number   1
_chemical_formula_structural   Na6Sn2P(CO4)4
_chemical_formula_sum   'Na12 Sn4 P2 C8 O32'
_cell_volume   767.47792632
_cell_formula_units_Z   2
loop_
 _symmetry_equiv_pos_site_id
 _symmetry_equiv_pos_as_xyz
  1  'x, y, z'
loop_
 _atom_site_type_symbol
 _atom_site_label
 _atom_site_symmetry_multiplicity
 _atom_site_fract_x
 _atom_site_fract_y
 _atom_site_fract_z
 _atom_site_occupancy
  Na  Na0  1  0.55038200  0.94961800  0.55038200  1
  Na  Na1  1  0.30038200  0.69961800  0.30038200  1
  Na  Na2  1  0.69961800  0.69961800  0.30038200  1
  Na  Na3  1  0.94961800  0.94961800  0.55038200  1
  Na  Na4  1  0.30038200  0.69961800  0.69961800  1
  Na  Na5  1  0.55038200  0.94961800  0.94961800  1
  Na  Na6  1  0.55038200  0.55038200  0.94961800  1
  Na  Na7  1  0.94961800  0.55038200  0.55038200  1
  Na  Na8  1  0.69961800  0.30038200  0.30038200  1
  Na  Na9  1  0.30038200  0.30038200  0.69961800  1
  Na  Na10  1  0.94961800  0.55038200  0.94961800  1
  Na  Na11  1  0.69961800  0.30038200  0.69961800  1
  Sn  Sn12  1  0.12500000  0.12500000  0.12500000  1
  Sn  Sn13  1  0.12500000  0.12500000  0.62500000  1
  Sn  Sn14  1  0.62500000  0.12500000  0.12500000  1
  Sn  Sn15  1  0.12500000  0.62500000  0.12500000  1
  P  P16  1  0.75000000  0.75000000  0.75000000  1
  P  P17  1  0.50000000  0.50000000  0.50000000  1
  C  C18  1  0.30224200  0.89925300  0.89925300  1
  C  C19  1  0.89925300  0.89925300  0.30224200  1
  C  C20  1  0.89925300  0.30224200  0.89925300  1
  C  C21  1  0.35074700  0.35074700  0.35074700  1
  C  C22  1  0.35074700  0.94775800  0.35074700  1
  C  C23  1  0.89925300  0.89925300  0.89925300  1
  C  C24  1  0.35074700  0.35074700  0.94775800  1
  C  C25  1  0.94775800  0.35074700  0.35074700  1
  O  O26  1  0.30250500  0.76988300  0.90400200  1
  O  O27  1  0.68803100  0.68803100  0.68803100  1
  O  O28  1  0.02360900  0.76988300  0.30250500  1
  O  O29  1  0.76988300  0.90400200  0.30250500  1
  O  O30  1  0.93590700  0.68803100  0.68803100  1
  O  O31  1  0.68803100  0.68803100  0.93590700  1
  O  O32  1  0.30250500  0.02360900  0.76988300  1
  O  O33  1  0.30250500  0.90400200  0.02360900  1
  O  O34  1  0.68803100  0.93590700  0.68803100  1
  O  O35  1  0.90400200  0.30250500  0.76988300  1
  O  O36  1  0.48011700  0.22639100  0.34599800  1
  O  O37  1  0.90400200  0.02360900  0.30250500  1
  O  O38  1  0.76988300  0.30250500  0.02360900  1
  O  O39  1  0.22639100  0.34599800  0.48011700  1
  O  O40  1  0.90400200  0.76988300  0.02360900  1
  O  O41  1  0.22639100  0.94749500  0.34599800  1
  O  O42  1  0.02360900  0.30250500  0.90400200  1
  O  O43  1  0.34599800  0.48011700  0.22639100  1
  O  O44  1  0.02360900  0.90400200  0.76988300  1
  O  O45  1  0.48011700  0.94749500  0.22639100  1
  O  O46  1  0.34599800  0.22639100  0.94749500  1
  O  O47  1  0.76988300  0.02360900  0.90400200  1
  O  O48  1  0.34599800  0.94749500  0.48011700  1
  O  O49  1  0.56196900  0.31409300  0.56196900  1
  O  O50  1  0.94749500  0.34599800  0.22639100  1
  O  O51  1  0.94749500  0.22639100  0.48011700  1
  O  O52  1  0.31409300  0.56196900  0.56196900  1
  O  O53  1  0.56196900  0.56196900  0.31409300  1
  O  O54  1  0.48011700  0.34599800  0.94749500  1
  O  O55  1  0.22639100  0.48011700  0.94749500  1
  O  O56  1  0.56196900  0.56196900  0.56196900  1
  O  O57  1  0.94749500  0.48011700  0.34599800  1
