# generated using pymatgen
data_Na5Mn2P2(CO7)2
_symmetry_space_group_name_H-M   'P 1'
_cell_length_a   5.22799600
_cell_length_b   11.22441386
_cell_length_c   11.24397958
_cell_angle_alpha   73.55802116
_cell_angle_beta   89.48387655
_cell_angle_gamma   89.33462507
_symmetry_Int_Tables_number   1
_chemical_formula_structural   Na5Mn2P2(CO7)2
_chemical_formula_sum   'Na10 Mn4 P4 C4 O28'
_cell_volume   632.77446891
_cell_formula_units_Z   2
loop_
 _symmetry_equiv_pos_site_id
 _symmetry_equiv_pos_as_xyz
  1  'x, y, z'
loop_
 _atom_site_type_symbol
 _atom_site_label
 _atom_site_symmetry_multiplicity
 _atom_site_fract_x
 _atom_site_fract_y
 _atom_site_fract_z
 _atom_site_occupancy
  Na  Na0  1  0.24149100  0.11419800  0.12525400  1
  Na  Na1  1  0.75027300  0.37063000  0.37167800  1
  Na  Na2  1  0.75387700  0.62789700  0.12381900  1
  Na  Na3  1  0.75601500  0.11781000  0.62997100  1
  Na  Na4  1  0.24272700  0.58578600  0.33370100  1
  Na  Na5  1  0.75727300  0.41421400  0.66629900  1
  Na  Na6  1  0.24398500  0.88219000  0.37002900  1
  Na  Na7  1  0.24972700  0.62937000  0.62832200  1
  Na  Na8  1  0.24612300  0.37210300  0.87618100  1
  Na  Na9  1  0.75850900  0.88580200  0.87474600  1
  Mn  Mn10  1  0.77719400  0.29958100  0.05496300  1
  Mn  Mn11  1  0.21919400  0.19136600  0.44718000  1
  Mn  Mn12  1  0.78080600  0.80863400  0.55282000  1
  Mn  Mn13  1  0.22280600  0.70041900  0.94503700  1
  P  P14  1  0.70521700  0.08407600  0.33157400  1
  P  P15  1  0.29887300  0.41622500  0.16388200  1
  P  P16  1  0.70112700  0.58377500  0.83611800  1
  P  P17  1  0.29478300  0.91592400  0.66842600  1
  C  C18  1  0.27609700  0.83743100  0.08840500  1
  C  C19  1  0.26616800  0.34624400  0.59394600  1
  C  C20  1  0.73383200  0.65375600  0.40605400  1
  C  C21  1  0.72390300  0.16256900  0.91159500  1
  O  O22  1  0.79464000  0.13615600  0.19402500  1
  O  O23  1  0.40645100  0.09231800  0.33656500  1
  O  O24  1  0.16512800  0.34081300  0.08773100  1
  O  O25  1  0.81929100  0.16289700  0.41190300  1
  O  O26  1  0.59861600  0.40156400  0.14886200  1
  O  O27  1  0.20702700  0.05259000  0.62048400  1
  O  O28  1  0.23015700  0.55750700  0.11804900  1
  O  O29  1  0.22999400  0.37386300  0.30346200  1
  O  O30  1  0.47155400  0.30380100  0.55316700  1
  O  O31  1  0.48078200  0.79723500  0.04533900  1
  O  O32  1  0.05987400  0.79870100  0.04971100  1
  O  O33  1  0.04312500  0.31743100  0.56027800  1
  O  O34  1  0.72938500  0.09628400  0.83844900  1
  O  O35  1  0.71682400  0.58162000  0.33423500  1
  O  O36  1  0.28317600  0.41838000  0.66576500  1
  O  O37  1  0.27061500  0.90371600  0.16155100  1
  O  O38  1  0.95687500  0.68256900  0.43972200  1
  O  O39  1  0.94012600  0.20129900  0.95028900  1
  O  O40  1  0.52844600  0.69619900  0.44683300  1
  O  O41  1  0.51921800  0.20276500  0.95466100  1
  O  O42  1  0.76984300  0.44249300  0.88195100  1
  O  O43  1  0.79297300  0.94741000  0.37951600  1
  O  O44  1  0.77000600  0.62613700  0.69653800  1
  O  O45  1  0.40138400  0.59843600  0.85113800  1
  O  O46  1  0.18070900  0.83710300  0.58809700  1
  O  O47  1  0.83487200  0.65918700  0.91226900  1
  O  O48  1  0.59354900  0.90768200  0.66343500  1
  O  O49  1  0.20536000  0.86384400  0.80597500  1
