# generated using pymatgen
data_MnP2O7
_symmetry_space_group_name_H-M   'P 1'
_cell_length_a   7.79216900
_cell_length_b   7.87178700
_cell_length_c   15.77313500
_cell_angle_alpha   90.00000000
_cell_angle_beta   90.00000000
_cell_angle_gamma   90.00000000
_symmetry_Int_Tables_number   1
_chemical_formula_structural   MnP2O7
_chemical_formula_sum   'Mn8 P16 O56'
_cell_volume   967.49720196
_cell_formula_units_Z   8
loop_
 _symmetry_equiv_pos_site_id
 _symmetry_equiv_pos_as_xyz
  1  'x, y, z'
loop_
 _atom_site_type_symbol
 _atom_site_label
 _atom_site_symmetry_multiplicity
 _atom_site_fract_x
 _atom_site_fract_y
 _atom_site_fract_z
 _atom_site_occupancy
  Mn  Mn0  1  0.01490200  0.75621900  0.37225300  1
  Mn  Mn1  1  0.02178000  0.25751400  0.12192800  1
  Mn  Mn2  1  0.47822000  0.75751400  0.62192800  1
  Mn  Mn3  1  0.48509800  0.25621900  0.87225300  1
  Mn  Mn4  1  0.51490200  0.75621900  0.12774700  1
  Mn  Mn5  1  0.52178000  0.25751400  0.37807200  1
  Mn  Mn6  1  0.97822000  0.75751400  0.87807200  1
  Mn  Mn7  1  0.98509800  0.25621900  0.62774700  1
  P  P8  1  0.09786500  0.13475900  0.93517400  1
  P  P9  1  0.09598100  0.87359100  0.68905400  1
  P  P10  1  0.11314100  0.87253000  0.17354200  1
  P  P11  1  0.12684400  0.15606300  0.42710000  1
  P  P12  1  0.37315600  0.65606300  0.92710000  1
  P  P13  1  0.38685900  0.37253000  0.67354200  1
  P  P14  1  0.40401900  0.37359100  0.18905400  1
  P  P15  1  0.40213500  0.63475900  0.43517400  1
  P  P16  1  0.59786500  0.13475900  0.56482600  1
  P  P17  1  0.59598100  0.87359100  0.81094600  1
  P  P18  1  0.61314100  0.87253000  0.32645800  1
  P  P19  1  0.62684400  0.15606300  0.07290000  1
  P  P20  1  0.87315600  0.65606300  0.57290000  1
  P  P21  1  0.88685900  0.37253000  0.82645800  1
  P  P22  1  0.90401900  0.37359100  0.31094600  1
  P  P23  1  0.90213500  0.63475900  0.06482600  1
  O  O24  1  0.02467800  0.04533800  0.18361600  1
  O  O25  1  0.02241500  0.20133100  0.50511600  1
  O  O26  1  0.01769000  0.47838400  0.07093700  1
  O  O27  1  0.06059700  0.26972200  0.34912900  1
  O  O28  1  0.02091000  0.78878300  0.09351200  1
  O  O29  1  0.07789100  0.76250700  0.25127100  1
  O  O30  1  0.07285600  0.87811300  0.78451400  1
  O  O31  1  0.14550100  0.16870500  0.02775200  1
  O  O32  1  0.10567700  0.05107600  0.65057700  1
  O  O33  1  0.12374400  0.97020000  0.39893300  1
  O  O34  1  0.18552300  0.70880100  0.93683000  1
  O  O35  1  0.19633200  0.38731400  0.64969400  1
  O  O36  1  0.26180200  0.12943600  0.88199200  1
  O  O37  1  0.24107600  0.27975700  0.16882700  1
  O  O38  1  0.25892400  0.77975700  0.66882700  1
  O  O39  1  0.23819800  0.62943600  0.38199200  1
  O  O40  1  0.30366800  0.88731400  0.14969400  1
  O  O41  1  0.31447700  0.20880100  0.43683000  1
  O  O42  1  0.37625600  0.47020000  0.89893300  1
  O  O43  1  0.39432300  0.55107600  0.15057700  1
  O  O44  1  0.35449900  0.66870500  0.52775200  1
  O  O45  1  0.42714400  0.37811300  0.28451400  1
  O  O46  1  0.42210900  0.26250700  0.75127100  1
  O  O47  1  0.47909000  0.28878300  0.59351200  1
  O  O48  1  0.43940300  0.76972200  0.84912900  1
  O  O49  1  0.48231000  0.97838400  0.57093700  1
  O  O50  1  0.47758500  0.70133100  0.00511600  1
  O  O51  1  0.47532200  0.54533800  0.68361600  1
  O  O52  1  0.52467800  0.04533800  0.31638400  1
  O  O53  1  0.52241500  0.20133100  0.99488400  1
  O  O54  1  0.51769000  0.47838400  0.42906300  1
  O  O55  1  0.56059700  0.26972200  0.15087100  1
  O  O56  1  0.52091000  0.78878300  0.40648800  1
  O  O57  1  0.57789100  0.76250700  0.24872900  1
  O  O58  1  0.57285600  0.87811300  0.71548600  1
  O  O59  1  0.64550100  0.16870500  0.47224800  1
  O  O60  1  0.60567700  0.05107600  0.84942300  1
  O  O61  1  0.62374400  0.97020000  0.10106700  1
  O  O62  1  0.68552300  0.70880100  0.56317000  1
  O  O63  1  0.69633200  0.38731400  0.85030600  1
  O  O64  1  0.76180200  0.12943600  0.61800800  1
  O  O65  1  0.74107600  0.27975700  0.33117300  1
  O  O66  1  0.75892400  0.77975700  0.83117300  1
  O  O67  1  0.73819800  0.62943600  0.11800800  1
  O  O68  1  0.80366800  0.88731400  0.35030600  1
  O  O69  1  0.81447700  0.20880100  0.06317000  1
  O  O70  1  0.87625600  0.47020000  0.60106700  1
  O  O71  1  0.89432300  0.55107600  0.34942300  1
  O  O72  1  0.85449900  0.66870500  0.97224800  1
  O  O73  1  0.92714400  0.37811300  0.21548600  1
  O  O74  1  0.92210900  0.26250700  0.74872900  1
  O  O75  1  0.97909000  0.28878300  0.90648800  1
  O  O76  1  0.93940300  0.76972200  0.65087100  1
  O  O77  1  0.98231000  0.97838400  0.92906300  1
  O  O78  1  0.97758500  0.70133100  0.49488400  1
  O  O79  1  0.97532200  0.54533800  0.81638400  1
