# generated using pymatgen
data_Na3MnPCO7
_symmetry_space_group_name_H-M   'P 1'
_cell_length_a   6.74144800
_cell_length_b   9.09063025
_cell_length_c   10.63816584
_cell_angle_alpha   89.90305207
_cell_angle_beta   90.00031473
_cell_angle_gamma   90.00004360
_symmetry_Int_Tables_number   1
_chemical_formula_structural   Na3MnPCO7
_chemical_formula_sum   'Na12 Mn4 P4 C4 O28'
_cell_volume   651.94854017
_cell_formula_units_Z   4
loop_
 _symmetry_equiv_pos_site_id
 _symmetry_equiv_pos_as_xyz
  1  'x, y, z'
loop_
 _atom_site_type_symbol
 _atom_site_label
 _atom_site_symmetry_multiplicity
 _atom_site_fract_x
 _atom_site_fract_y
 _atom_site_fract_z
 _atom_site_occupancy
  Na  Na0  1  0.48511300  0.00233800  0.50185800  1
  Na  Na1  1  0.48503600  0.00213900  0.00181300  1
  Na  Na2  1  0.98511200  0.99765600  0.99817300  1
  Na  Na3  1  0.98505900  0.99785400  0.49819000  1
  Na  Na4  1  0.21969200  0.16619700  0.22118500  1
  Na  Na5  1  0.21966000  0.16625900  0.72117600  1
  Na  Na6  1  0.71967500  0.83380700  0.27883200  1
  Na  Na7  1  0.71967800  0.83373700  0.77883700  1
  Na  Na8  1  0.49060300  0.49311000  0.24631200  1
  Na  Na9  1  0.49058100  0.49306500  0.74628100  1
  Na  Na10  1  0.99061200  0.50690200  0.25367100  1
  Na  Na11  1  0.99058400  0.50691200  0.75372400  1
  Mn  Mn12  1  0.73805800  0.29436400  0.51046300  1
  Mn  Mn13  1  0.23819000  0.70576700  0.98942300  1
  Mn  Mn14  1  0.73819600  0.29390100  0.01054300  1
  Mn  Mn15  1  0.23820800  0.70604300  0.48942000  1
  P  P16  1  0.23766800  0.34292100  0.49171700  1
  P  P17  1  0.23765600  0.34274500  0.99172100  1
  P  P18  1  0.73766900  0.65706700  0.00829500  1
  P  P19  1  0.73765500  0.65726800  0.50830300  1
  C  C20  1  0.73831700  0.15003000  0.24932000  1
  C  C21  1  0.73833400  0.14994500  0.74928300  1
  C  C22  1  0.23831600  0.84996200  0.25068000  1
  C  C23  1  0.23831900  0.85006000  0.75070900  1
  O  O24  1  0.73834800  0.05119300  0.16086800  1
  O  O25  1  0.73838400  0.05109800  0.66085100  1
  O  O26  1  0.23836000  0.94880300  0.33913000  1
  O  O27  1  0.23837300  0.94888700  0.83916300  1
  O  O28  1  0.73513300  0.10741700  0.36733900  1
  O  O29  1  0.73511600  0.10728200  0.86730000  1
  O  O30  1  0.23512400  0.89257400  0.13266000  1
  O  O31  1  0.23509800  0.89273200  0.63270200  1
  O  O32  1  0.05310100  0.24928700  0.03241700  1
  O  O33  1  0.05312100  0.24949200  0.53244900  1
  O  O34  1  0.55309000  0.75070100  0.46760500  1
  O  O35  1  0.55310000  0.75048900  0.96755200  1
  O  O36  1  0.42227000  0.25278700  0.03749000  1
  O  O37  1  0.42234200  0.25302400  0.53752700  1
  O  O38  1  0.92226600  0.74719900  0.46251600  1
  O  O39  1  0.92231500  0.74696900  0.96246200  1
  O  O40  1  0.74253500  0.28862800  0.22177400  1
  O  O41  1  0.74257200  0.28854800  0.72175200  1
  O  O42  1  0.24253400  0.71136900  0.27823400  1
  O  O43  1  0.24256000  0.71145500  0.77823000  1
  O  O44  1  0.24000500  0.36633400  0.34832200  1
  O  O45  1  0.23997000  0.36634500  0.84834300  1
  O  O46  1  0.73999600  0.63367800  0.15169200  1
  O  O47  1  0.73997900  0.63364200  0.65167500  1
  O  O48  1  0.23368100  0.49273700  0.06313500  1
  O  O49  1  0.23369800  0.49297700  0.56301900  1
  O  O50  1  0.73366100  0.50729300  0.43686300  1
  O  O51  1  0.73367600  0.50701100  0.93700000  1
