# generated using pymatgen
data_Mn7(PO4)6
_symmetry_space_group_name_H-M   'P 1'
_cell_length_a   6.30985900
_cell_length_b   8.24324999
_cell_length_c   9.54833605
_cell_angle_alpha   104.41424389
_cell_angle_beta   108.01336316
_cell_angle_gamma   101.00186755
_symmetry_Int_Tables_number   1
_chemical_formula_structural   Mn7(PO4)6
_chemical_formula_sum   'Mn7 P6 O24'
_cell_volume   437.66858918
_cell_formula_units_Z   1
loop_
 _symmetry_equiv_pos_site_id
 _symmetry_equiv_pos_as_xyz
  1  'x, y, z'
loop_
 _atom_site_type_symbol
 _atom_site_label
 _atom_site_symmetry_multiplicity
 _atom_site_fract_x
 _atom_site_fract_y
 _atom_site_fract_z
 _atom_site_occupancy
  Mn  Mn0  1  0.95252600  0.27529100  0.46913300  1
  Mn  Mn1  1  0.73107700  0.19388800  0.72099200  1
  Mn  Mn2  1  0.38153800  0.45183900  0.11464700  1
  Mn  Mn3  1  0.61846200  0.54816100  0.88535300  1
  Mn  Mn4  1  0.26892300  0.80611200  0.27900800  1
  Mn  Mn5  1  0.04747400  0.72470900  0.53086700  1
  Mn  Mn6  1  0.00000000  0.00000000  0.00000000  1
  P  P7  1  0.90403300  0.40334800  0.16749900  1
  P  P8  1  0.76949400  0.85672000  0.23017000  1
  P  P9  1  0.39906900  0.23145200  0.37088000  1
  P  P10  1  0.60093100  0.76854800  0.62912000  1
  P  P11  1  0.23050600  0.14328000  0.76983000  1
  P  P12  1  0.09596700  0.59665200  0.83250100  1
  O  O13  1  0.88489700  0.21880000  0.08007400  1
  O  O14  1  0.92999900  0.44155200  0.34037200  1
  O  O15  1  0.79162300  0.04808100  0.29471100  1
  O  O16  1  0.97986300  0.80743300  0.33553900  1
  O  O17  1  0.78027000  0.80999000  0.06465800  1
  O  O18  1  0.68733700  0.46162800  0.08471100  1
  O  O19  1  0.87865600  0.46709900  0.83711700  1
  O  O20  1  0.63952200  0.23931700  0.49427400  1
  O  O21  1  0.74413700  0.72112400  0.52854900  1
  O  O22  1  0.53910100  0.74429200  0.22746000  1
  O  O23  1  0.44573900  0.36247000  0.28944000  1
  O  O24  1  0.28103000  0.04444500  0.24805600  1
  O  O25  1  0.71897000  0.95555500  0.75194400  1
  O  O26  1  0.55426100  0.63753000  0.71056000  1
  O  O27  1  0.46089900  0.25570800  0.77254000  1
  O  O28  1  0.25586300  0.27887600  0.47145100  1
  O  O29  1  0.36047800  0.76068300  0.50572600  1
  O  O30  1  0.12134400  0.53290100  0.16288300  1
  O  O31  1  0.31266300  0.53837200  0.91528900  1
  O  O32  1  0.21973000  0.19001000  0.93534200  1
  O  O33  1  0.02013700  0.19256700  0.66446100  1
  O  O34  1  0.20837700  0.95191900  0.70528900  1
  O  O35  1  0.07000100  0.55844800  0.65962800  1
  O  O36  1  0.11510300  0.78120000  0.91992600  1
