# generated using pymatgen
data_Ba3GeO5
_symmetry_space_group_name_H-M   'P 1'
_cell_length_a   10.66783945
_cell_length_b   10.66783945
_cell_length_c   10.66783967
_cell_angle_alpha   44.42051374
_cell_angle_beta   44.42051374
_cell_angle_gamma   44.42051447
_symmetry_Int_Tables_number   1
_chemical_formula_structural   Ba3GeO5
_chemical_formula_sum   'Ba9 Ge3 O15'
_cell_volume   540.65732147
_cell_formula_units_Z   3
loop_
 _symmetry_equiv_pos_site_id
 _symmetry_equiv_pos_as_xyz
  1  'x, y, z'
loop_
 _atom_site_type_symbol
 _atom_site_label
 _atom_site_symmetry_multiplicity
 _atom_site_fract_x
 _atom_site_fract_y
 _atom_site_fract_z
 _atom_site_occupancy
  Ba  Ba0  1  0.49689800  0.00052300  0.49689800  1
  Ba  Ba1  1  0.49689800  0.49689800  0.00052300  1
  Ba  Ba2  1  0.00052300  0.49689800  0.49689800  1
  Ba  Ba3  1  0.71046600  0.24100200  0.71046600  1
  Ba  Ba4  1  0.75537200  0.28581900  0.28581900  1
  Ba  Ba5  1  0.71046600  0.71046600  0.24100200  1
  Ba  Ba6  1  0.28581900  0.28581900  0.75537200  1
  Ba  Ba7  1  0.28581900  0.75537200  0.28581900  1
  Ba  Ba8  1  0.24100200  0.71046600  0.71046600  1
  Ge  Ge9  1  0.21587700  0.21587700  0.21587700  1
  Ge  Ge10  1  0.99621200  0.99621200  0.99621200  1
  Ge  Ge11  1  0.77482700  0.77482700  0.77482700  1
  O  O12  1  0.15347100  0.15347100  0.15347100  1
  O  O13  1  0.67363900  0.03722200  0.67363900  1
  O  O14  1  0.99645400  0.35761200  0.35761200  1
  O  O15  1  0.77545700  0.13807000  0.13807000  1
  O  O16  1  0.67363900  0.67363900  0.03722200  1
  O  O17  1  0.35761200  0.35761200  0.99645400  1
  O  O18  1  0.60962500  0.60962500  0.60962500  1
  O  O19  1  0.49755400  0.49755400  0.49755400  1
  O  O20  1  0.13807000  0.13807000  0.77545700  1
  O  O21  1  0.38277900  0.38277900  0.38277900  1
  O  O22  1  0.03722200  0.67363900  0.67363900  1
  O  O23  1  0.13807000  0.77545700  0.13807000  1
  O  O24  1  0.35761200  0.99645400  0.35761200  1
  O  O25  1  0.93374200  0.93374200  0.93374200  1
  O  O26  1  0.71287400  0.71287400  0.71287400  1
