# generated using pymatgen
data_Na3CrBAsO7
_symmetry_space_group_name_H-M   'P 1'
_cell_length_a   8.61727047
_cell_length_b   8.61711623
_cell_length_c   10.41095985
_cell_angle_alpha   107.54067675
_cell_angle_beta   107.54439798
_cell_angle_gamma   103.02843047
_symmetry_Int_Tables_number   1
_chemical_formula_structural   Na3CrBAsO7
_chemical_formula_sum   'Na12 Cr4 B4 As4 O28'
_cell_volume   658.93927338
_cell_formula_units_Z   4
loop_
 _symmetry_equiv_pos_site_id
 _symmetry_equiv_pos_as_xyz
  1  'x, y, z'
loop_
 _atom_site_type_symbol
 _atom_site_label
 _atom_site_symmetry_multiplicity
 _atom_site_fract_x
 _atom_site_fract_y
 _atom_site_fract_z
 _atom_site_occupancy
  Na  Na0  1  0.54021100  0.29021500  0.07251400  1
  Na  Na1  1  0.04019100  0.79019000  0.07251100  1
  Na  Na2  1  0.95980900  0.20981200  0.92750900  1
  Na  Na3  1  0.45981700  0.70982100  0.92750400  1
  Na  Na4  1  0.24656200  0.24612800  0.24406700  1
  Na  Na5  1  0.74651900  0.74608800  0.24401800  1
  Na  Na6  1  0.49611800  0.99655000  0.24404900  1
  Na  Na7  1  0.99613900  0.49653900  0.24405500  1
  Na  Na8  1  0.00388700  0.50347000  0.75596900  1
  Na  Na9  1  0.50387400  0.00347500  0.75596400  1
  Na  Na10  1  0.25345400  0.25389300  0.75596200  1
  Na  Na11  1  0.75347500  0.75389200  0.75597200  1
  Cr  Cr12  1  0.42976500  0.67978800  0.32826200  1
  Cr  Cr13  1  0.07027200  0.82021200  0.67175300  1
  Cr  Cr14  1  0.92972700  0.17977100  0.32819600  1
  Cr  Cr15  1  0.57025500  0.32022600  0.67179900  1
  B  B16  1  0.76974000  0.01973300  0.06439200  1
  B  B17  1  0.26975300  0.51975800  0.06442000  1
  B  B18  1  0.73023400  0.48022500  0.93556800  1
  B  B19  1  0.23026300  0.98025800  0.93559400  1
  As  As20  1  0.69434900  0.44434200  0.42414800  1
  As  As21  1  0.19433000  0.94433700  0.42413700  1
  As  As22  1  0.80565600  0.05566100  0.57585500  1
  As  As23  1  0.30565500  0.55565400  0.57586400  1
  O  O24  1  0.32030700  0.07031000  0.08106900  1
  O  O25  1  0.82019800  0.57015400  0.08107400  1
  O  O26  1  0.17973100  0.42973200  0.91890800  1
  O  O27  1  0.67977200  0.92976700  0.91885900  1
  O  O28  1  0.91990900  0.16991600  0.13044000  1
  O  O29  1  0.41989100  0.66993000  0.13043900  1
  O  O30  1  0.58006600  0.33006500  0.86952700  1
  O  O31  1  0.08012000  0.83008000  0.86957700  1
  O  O32  1  0.72626700  0.97627300  0.17261000  1
  O  O33  1  0.22628200  0.47628300  0.17262200  1
  O  O34  1  0.77374500  0.52374500  0.82739700  1
  O  O35  1  0.27372300  0.02371900  0.82738100  1
  O  O36  1  0.55683500  0.30684000  0.46641100  1
  O  O37  1  0.05682000  0.80682000  0.46640400  1
  O  O38  1  0.94316900  0.19317200  0.53359800  1
  O  O39  1  0.44317400  0.69316900  0.53359900  1
  O  O40  1  0.64750000  0.89750100  0.41569700  1
  O  O41  1  0.14748300  0.39748800  0.41571600  1
  O  O42  1  0.85250300  0.60250100  0.58431100  1
  O  O43  1  0.35248500  0.10252100  0.58429200  1
  O  O44  1  0.57650900  0.52317400  0.31003100  1
  O  O45  1  0.07647300  0.02312400  0.31000700  1
  O  O46  1  0.77316600  0.32651600  0.31001400  1
  O  O47  1  0.27317300  0.82654600  0.30999000  1
  O  O48  1  0.72681300  0.17347700  0.68996800  1
  O  O49  1  0.22684500  0.67347300  0.69002500  1
  O  O50  1  0.92349000  0.97682900  0.68997500  1
  O  O51  1  0.42349400  0.47683900  0.68997600  1
