# generated using pymatgen
data_Na3BiBAsO7
_symmetry_space_group_name_H-M   'P 1'
_cell_length_a   7.33368000
_cell_length_b   5.40328300
_cell_length_c   9.48213237
_cell_angle_alpha   88.95589499
_cell_angle_beta   90.00000000
_cell_angle_gamma   90.00000000
_symmetry_Int_Tables_number   1
_chemical_formula_structural   Na3BiBAsO7
_chemical_formula_sum   'Na6 Bi2 B2 As2 O14'
_cell_volume   375.67610279
_cell_formula_units_Z   2
loop_
 _symmetry_equiv_pos_site_id
 _symmetry_equiv_pos_as_xyz
  1  'x, y, z'
loop_
 _atom_site_type_symbol
 _atom_site_label
 _atom_site_symmetry_multiplicity
 _atom_site_fract_x
 _atom_site_fract_y
 _atom_site_fract_z
 _atom_site_occupancy
  Na  Na0  1  0.25000000  0.75804200  0.93384500  1
  Na  Na1  1  0.00997100  0.24525100  0.76437700  1
  Na  Na2  1  0.49002900  0.24525100  0.76437700  1
  Na  Na3  1  0.50997100  0.75474900  0.23562300  1
  Na  Na4  1  0.99002900  0.75474900  0.23562300  1
  Na  Na5  1  0.75000000  0.24195800  0.06615500  1
  Bi  Bi6  1  0.75000000  0.76824600  0.66185400  1
  Bi  Bi7  1  0.25000000  0.23175400  0.33814600  1
  B  B8  1  0.75000000  0.72972600  0.94667700  1
  B  B9  1  0.25000000  0.27027400  0.05332300  1
  As  As10  1  0.25000000  0.70331400  0.59723600  1
  As  As11  1  0.75000000  0.29668600  0.40276400  1
  O  O12  1  0.25000000  0.28751000  0.91169400  1
  O  O13  1  0.75000000  0.95992900  0.87095100  1
  O  O14  1  0.75000000  0.51930000  0.85947800  1
  O  O15  1  0.06712900  0.81558500  0.69313800  1
  O  O16  1  0.43287100  0.81558500  0.69313800  1
  O  O17  1  0.25000000  0.38703300  0.60048900  1
  O  O18  1  0.75000000  0.20747300  0.57989100  1
  O  O19  1  0.25000000  0.79252700  0.42010900  1
  O  O20  1  0.75000000  0.61296700  0.39951100  1
  O  O21  1  0.56712900  0.18441500  0.30686200  1
  O  O22  1  0.93287100  0.18441500  0.30686200  1
  O  O23  1  0.25000000  0.48070000  0.14052200  1
  O  O24  1  0.25000000  0.04007100  0.12904900  1
  O  O25  1  0.75000000  0.71249000  0.08830600  1
