# generated using pymatgen
data_K2MnO4
_symmetry_space_group_name_H-M   'P 1'
_cell_length_a   6.12032195
_cell_length_b   8.14329785
_cell_length_c   11.71764144
_cell_angle_alpha   89.96055301
_cell_angle_beta   118.02001927
_cell_angle_gamma   90.04899879
_symmetry_Int_Tables_number   1
_chemical_formula_structural   K2MnO4
_chemical_formula_sum   'K8 Mn4 O16'
_cell_volume   515.54766036
_cell_formula_units_Z   4
loop_
 _symmetry_equiv_pos_site_id
 _symmetry_equiv_pos_as_xyz
  1  'x, y, z'
loop_
 _atom_site_type_symbol
 _atom_site_label
 _atom_site_symmetry_multiplicity
 _atom_site_fract_x
 _atom_site_fract_y
 _atom_site_fract_z
 _atom_site_occupancy
  K  K0  1  0.19823300  0.71943100  0.91109300  1
  K  K1  1  0.47965100  0.49145700  0.71732000  1
  K  K2  1  0.19812200  0.78072000  0.41109300  1
  K  K3  1  0.52043800  0.99143100  0.78267600  1
  K  K4  1  0.47962600  0.00866100  0.21735600  1
  K  K5  1  0.80183400  0.21923100  0.58895300  1
  K  K6  1  0.52044200  0.50863200  0.28268600  1
  K  K7  1  0.80189800  0.28074000  0.08892200  1
  Mn  Mn8  1  0.14670300  0.25098700  0.92828600  1
  Mn  Mn9  1  0.14667400  0.24889800  0.42832800  1
  Mn  Mn10  1  0.85325600  0.75080900  0.57175800  1
  Mn  Mn11  1  0.85333000  0.74922400  0.07162500  1
  O  O12  1  0.24163900  0.06500500  0.91457300  1
  O  O13  1  0.25626500  0.39196100  0.86623000  1
  O  O14  1  0.25183300  0.20799700  0.58524000  1
  O  O15  1  0.16295100  0.75417700  0.64833800  1
  O  O16  1  0.24161200  0.43505200  0.41461400  1
  O  O17  1  0.25624400  0.10814000  0.36630500  1
  O  O18  1  0.83693400  0.25428300  0.85168400  1
  O  O19  1  0.74818700  0.70823300  0.91476800  1
  O  O20  1  0.25191300  0.29192800  0.08516600  1
  O  O21  1  0.16311100  0.74590300  0.14826700  1
  O  O22  1  0.74362600  0.89153000  0.63373900  1
  O  O23  1  0.75829200  0.56459400  0.58539500  1
  O  O24  1  0.83691400  0.24562900  0.35173900  1
  O  O25  1  0.74810500  0.79178000  0.41482300  1
  O  O26  1  0.74379300  0.60830700  0.13370000  1
  O  O27  1  0.75837300  0.93525900  0.08532600  1
