# generated using pymatgen
data_Dy2P4O13
_symmetry_space_group_name_H-M   'P 1'
_cell_length_a   6.88380870
_cell_length_b   6.88380870
_cell_length_c   13.00046559
_cell_angle_alpha   76.07037680
_cell_angle_beta   76.07037680
_cell_angle_gamma   59.08743314
_symmetry_Int_Tables_number   1
_chemical_formula_structural   Dy2P4O13
_chemical_formula_sum   'Dy4 P8 O26'
_cell_volume   507.90477764
_cell_formula_units_Z   2
loop_
 _symmetry_equiv_pos_site_id
 _symmetry_equiv_pos_as_xyz
  1  'x, y, z'
loop_
 _atom_site_type_symbol
 _atom_site_label
 _atom_site_symmetry_multiplicity
 _atom_site_fract_x
 _atom_site_fract_y
 _atom_site_fract_z
 _atom_site_occupancy
  Dy  Dy0  1  0.68955500  0.69400700  0.45002000  1
  Dy  Dy1  1  0.69400700  0.68955500  0.95002000  1
  Dy  Dy2  1  0.30599300  0.31044500  0.04998000  1
  Dy  Dy3  1  0.31044500  0.30599300  0.54998000  1
  P  P4  1  0.76019600  0.77327000  0.15966200  1
  P  P5  1  0.77327000  0.76019600  0.65966200  1
  P  P6  1  0.83986000  0.13709100  0.36603800  1
  P  P7  1  0.86290900  0.16014000  0.13396200  1
  P  P8  1  0.13709100  0.83986000  0.86603800  1
  P  P9  1  0.16014000  0.86290900  0.63396200  1
  P  P10  1  0.22673000  0.23980400  0.34033800  1
  P  P11  1  0.23980400  0.22673000  0.84033800  1
  O  O12  1  0.87681100  0.89792100  0.39708300  1
  O  O13  1  0.89830700  0.90774700  0.15319600  1
  O  O14  1  0.89792100  0.87681100  0.89708300  1
  O  O15  1  0.90774700  0.89830700  0.65319600  1
  O  O16  1  0.69339200  0.70532300  0.27591100  1
  O  O17  1  0.92399900  0.57463400  0.09492300  1
  O  O18  1  0.56265100  0.92548900  0.09329800  1
  O  O19  1  0.67481100  0.31644000  0.43975900  1
  O  O20  1  0.70532300  0.69339200  0.77591100  1
  O  O21  1  0.57463400  0.92399900  0.59492300  1
  O  O22  1  0.92548900  0.56265100  0.59329800  1
  O  O23  1  0.75507000  0.24493000  0.25000000  1
  O  O24  1  0.68356000  0.32518900  0.06024100  1
  O  O25  1  0.31644000  0.67481100  0.93975900  1
  O  O26  1  0.24493000  0.75507000  0.75000000  1
  O  O27  1  0.07451100  0.43734900  0.40670200  1
  O  O28  1  0.42536600  0.07600100  0.40507700  1
  O  O29  1  0.29467700  0.30660800  0.22408900  1
  O  O30  1  0.32518900  0.68356000  0.56024100  1
  O  O31  1  0.43734900  0.07451100  0.90670200  1
  O  O32  1  0.07600100  0.42536600  0.90507700  1
  O  O33  1  0.30660800  0.29467700  0.72408900  1
  O  O34  1  0.09225300  0.10169300  0.34680400  1
  O  O35  1  0.10207900  0.12318900  0.10291700  1
  O  O36  1  0.10169300  0.09225300  0.84680400  1
  O  O37  1  0.12318900  0.10207900  0.60291700  1
