# generated using pymatgen
data_CrSn(PO4)2
_symmetry_space_group_name_H-M   'P 1'
_cell_length_a   6.16733101
_cell_length_b   10.06409461
_cell_length_c   11.24496640
_cell_angle_alpha   115.37822162
_cell_angle_beta   90.00228334
_cell_angle_gamma   89.99372980
_symmetry_Int_Tables_number   1
_chemical_formula_structural   CrSn(PO4)2
_chemical_formula_sum   'Cr4 Sn4 P8 O32'
_cell_volume   630.60506219
_cell_formula_units_Z   4
loop_
 _symmetry_equiv_pos_site_id
 _symmetry_equiv_pos_as_xyz
  1  'x, y, z'
loop_
 _atom_site_type_symbol
 _atom_site_label
 _atom_site_symmetry_multiplicity
 _atom_site_fract_x
 _atom_site_fract_y
 _atom_site_fract_z
 _atom_site_occupancy
  Cr  Cr0  1  0.74987600  0.82018300  0.21742800  1
  Cr  Cr1  1  0.25012000  0.17983600  0.78269900  1
  Cr  Cr2  1  0.74986800  0.32007800  0.21742000  1
  Cr  Cr3  1  0.25004700  0.67966300  0.78245500  1
  Sn  Sn4  1  0.24999600  0.61943000  0.28320400  1
  Sn  Sn5  1  0.25001200  0.11937200  0.28324100  1
  Sn  Sn6  1  0.75016900  0.38062700  0.71684200  1
  Sn  Sn7  1  0.75017400  0.88061400  0.71676500  1
  P  P8  1  0.24992200  0.25029400  0.10083700  1
  P  P9  1  0.24990900  0.75026700  0.10086200  1
  P  P10  1  0.75002000  0.74978900  0.89919400  1
  P  P11  1  0.74998500  0.24970900  0.89913500  1
  P  P12  1  0.74999200  0.65719400  0.40373400  1
  P  P13  1  0.74998400  0.15720300  0.40377300  1
  P  P14  1  0.25005500  0.34277800  0.59622200  1
  P  P15  1  0.25006000  0.84281100  0.59625000  1
  O  O16  1  0.74994800  0.34150800  0.04573000  1
  O  O17  1  0.74998000  0.84158700  0.04575300  1
  O  O18  1  0.24994800  0.65841500  0.95426800  1
  O  O19  1  0.24991700  0.15851200  0.95426300  1
  O  O20  1  0.24994000  0.41552900  0.13107300  1
  O  O21  1  0.24994100  0.91550100  0.13102800  1
  O  O22  1  0.74996400  0.58452800  0.86896300  1
  O  O23  1  0.74997800  0.08449100  0.86892400  1
  O  O24  1  0.74991200  0.29979400  0.38886300  1
  O  O25  1  0.74992100  0.79974500  0.38880900  1
  O  O26  1  0.24999900  0.70025400  0.61120200  1
  O  O27  1  0.24998000  0.20018000  0.61111300  1
  O  O28  1  0.24996000  0.31252100  0.44827200  1
  O  O29  1  0.24996800  0.81250600  0.44831700  1
  O  O30  1  0.75000500  0.68750500  0.55169200  1
  O  O31  1  0.74997700  0.18756600  0.55172000  1
  O  O32  1  0.05803400  0.21052600  0.17381500  1
  O  O33  1  0.05792400  0.71054900  0.17380200  1
  O  O34  1  0.44193600  0.21055600  0.17381200  1
  O  O35  1  0.44196300  0.71053100  0.17378700  1
  O  O36  1  0.55812000  0.78950600  0.82614900  1
  O  O37  1  0.55804400  0.28948500  0.82620100  1
  O  O38  1  0.94206200  0.78940000  0.82614100  1
  O  O39  1  0.94201800  0.28943900  0.82621300  1
  O  O40  1  0.95064500  0.55543800  0.33480500  1
  O  O41  1  0.95059600  0.05543300  0.33480300  1
  O  O42  1  0.54942300  0.55537600  0.33478800  1
  O  O43  1  0.54941400  0.05539700  0.33480500  1
  O  O44  1  0.04950300  0.44464300  0.66523000  1
  O  O45  1  0.04945800  0.94462400  0.66521200  1
  O  O46  1  0.45066500  0.44454000  0.66519600  1
  O  O47  1  0.45067200  0.94456500  0.66519000  1
