# generated using pymatgen
data_H48PtW6C8(NO)24
_symmetry_space_group_name_H-M   'P 1'
_cell_length_a   10.61526772
_cell_length_b   10.61526772
_cell_length_c   10.61526830
_cell_angle_alpha   76.32291793
_cell_angle_beta   76.32291793
_cell_angle_gamma   76.32292145
_symmetry_Int_Tables_number   1
_chemical_formula_structural   H48PtW6C8(NO)24
_chemical_formula_sum   'H48 Pt1 W6 C8 N24 O24'
_cell_volume   1108.45260952
_cell_formula_units_Z   1
loop_
 _symmetry_equiv_pos_site_id
 _symmetry_equiv_pos_as_xyz
  1  'x, y, z'
loop_
 _atom_site_type_symbol
 _atom_site_label
 _atom_site_symmetry_multiplicity
 _atom_site_fract_x
 _atom_site_fract_y
 _atom_site_fract_z
 _atom_site_occupancy
  H  H0  1  0.86274000  0.04227700  0.72146500  1
  H  H1  1  0.85478800  0.17112800  0.35042700  1
  H  H2  1  0.88538700  0.20968700  0.49311100  1
  H  H3  1  0.95772300  0.27853500  0.13726000  1
  H  H4  1  0.64957300  0.14521200  0.82887200  1
  H  H5  1  0.47845200  0.00691400  0.36196100  1
  H  H6  1  0.50688900  0.11461300  0.79031300  1
  H  H7  1  0.92317000  0.55242600  0.67875500  1
  H  H8  1  0.99308600  0.63803900  0.52154800  1
  H  H9  1  0.95373700  0.59827000  0.86503200  1
  H  H10  1  0.58041600  0.27307200  0.38123400  1
  H  H11  1  0.76150300  0.46602600  0.52932700  1
  H  H12  1  0.79031300  0.50688900  0.11461300  1
  H  H13  1  0.32124500  0.07683000  0.44757400  1
  H  H14  1  0.40173100  0.13496800  0.04626300  1
  H  H15  1  0.47067300  0.23849700  0.53397400  1
  H  H16  1  0.61876600  0.41958400  0.72692800  1
  H  H17  1  0.82887200  0.64957300  0.14521200  1
  H  H18  1  0.27853500  0.13726000  0.95772300  1
  H  H19  1  0.72692800  0.61876600  0.41958400  1
  H  H20  1  0.44757400  0.32124500  0.07683000  1
  H  H21  1  0.13496800  0.04626300  0.40173000  1
  H  H22  1  0.63803900  0.52154800  0.99308600  1
  H  H23  1  0.53397400  0.47067300  0.23849700  1
  H  H24  1  0.46602600  0.52932700  0.76150300  1
  H  H25  1  0.36196100  0.47845200  0.00691400  1
  H  H26  1  0.86503200  0.95373700  0.59827000  1
  H  H27  1  0.55242600  0.67875500  0.92317000  1
  H  H28  1  0.27307200  0.38123400  0.58041600  1
  H  H29  1  0.72146500  0.86274000  0.04227700  1
  H  H30  1  0.17112800  0.35042700  0.85478800  1
  H  H31  1  0.38123400  0.58041600  0.27307200  1
  H  H32  1  0.52932700  0.76150300  0.46602600  1
  H  H33  1  0.59827000  0.86503200  0.95373700  1
  H  H34  1  0.67875500  0.92317000  0.55242600  1
  H  H35  1  0.20968700  0.49311100  0.88538700  1
  H  H36  1  0.23849700  0.53397400  0.47067300  1
  H  H37  1  0.41958400  0.72692800  0.61876600  1
  H  H38  1  0.04626300  0.40173000  0.13496800  1
  H  H39  1  0.00691400  0.36196100  0.47845200  1
  H  H40  1  0.07683000  0.44757400  0.32124500  1
  H  H41  1  0.49311100  0.88538700  0.20968700  1
  H  H42  1  0.52154800  0.99308600  0.63803900  1
  H  H43  1  0.35042700  0.85478800  0.17112800  1
  H  H44  1  0.04227700  0.72146500  0.86274000  1
  H  H45  1  0.11461300  0.79031300  0.50688900  1
  H  H46  1  0.14521200  0.82887200  0.64957300  1
  H  H47  1  0.13726000  0.95772300  0.27853500  1
  Pt  Pt48  1  0.00000000  0.00000000  0.00000000  1
  W  W49  1  0.89656700  0.28709800  0.81995600  1
  W  W50  1  0.71290200  0.18004400  0.10343300  1
  W  W51  1  0.18004400  0.10343300  0.71290200  1
  W  W52  1  0.81995600  0.89656700  0.28709800  1
  W  W53  1  0.28709800  0.81995600  0.89656700  1
  W  W54  1  0.10343300  0.71290200  0.18004400  1
  C  C55  1  0.96863800  0.31299000  0.31876400  1
  C  C56  1  0.68123600  0.03136200  0.68701000  1
  C  C57  1  0.68701000  0.68123600  0.03136200  1
  C  C58  1  0.58500300  0.58500300  0.58500300  1
  C  C59  1  0.41499700  0.41499700  0.41499700  1
  C  C60  1  0.31299000  0.31876400  0.96863800  1
  C  C61  1  0.31876400  0.96863800  0.31299000  1
  C  C62  1  0.03136200  0.68701000  0.68123600  1
  N  N63  1  0.81299400  0.01182000  0.66481200  1
  N  N64  1  0.89839600  0.22346700  0.39303200  1
  N  N65  1  0.98818000  0.33518800  0.18700600  1
  N  N66  1  0.60696800  0.10160400  0.77653300  1
  N  N67  1  0.98154600  0.61632300  0.62159400  1
  N  N68  1  0.37840600  0.01845400  0.38367700  1
  N  N69  1  0.49790800  0.30131300  0.44737500  1
  N  N70  1  0.77653300  0.60696800  0.10160400  1
  N  N71  1  0.69868700  0.55262500  0.50209200  1
  N  N72  1  0.33518800  0.18700600  0.98818000  1
  N  N73  1  0.55262500  0.50209200  0.69868700  1
  N  N74  1  0.38367700  0.37840600  0.01845400  1
  N  N75  1  0.61632300  0.62159400  0.98154600  1
  N  N76  1  0.44737500  0.49790800  0.30131300  1
  N  N77  1  0.66481200  0.81299400  0.01182000  1
  N  N78  1  0.30131300  0.44737500  0.49790800  1
  N  N79  1  0.22346700  0.39303200  0.89839600  1
  N  N80  1  0.50209200  0.69868700  0.55262500  1
  N  N81  1  0.62159400  0.98154600  0.61632300  1
  N  N82  1  0.01845400  0.38367700  0.37840600  1
  N  N83  1  0.39303200  0.89839600  0.22346700  1
  N  N84  1  0.01182000  0.66481200  0.81299400  1
  N  N85  1  0.10160400  0.77653300  0.60696800  1
  N  N86  1  0.18700600  0.98818000  0.33518800  1
  O  O87  1  0.97791600  0.08088700  0.80972400  1
  O  O88  1  0.91911300  0.19027600  0.02208400  1
  O  O89  1  0.76692700  0.09131500  0.27508100  1
  O  O90  1  0.85410000  0.32539600  0.65798200  1
  O  O91  1  0.72491900  0.23307300  0.90868500  1
  O  O92  1  0.87052600  0.44570200  0.86293200  1
  O  O93  1  0.55429800  0.13706800  0.12947400  1
  O  O94  1  0.67460400  0.34201800  0.14590000  1
  O  O95  1  0.34201800  0.14590000  0.67460400  1
  O  O96  1  0.90868500  0.72491900  0.23307300  1
  O  O97  1  0.19027600  0.02208400  0.91911300  1
  O  O98  1  0.13706800  0.12947400  0.55429800  1
  O  O99  1  0.86293200  0.87052600  0.44570200  1
  O  O100  1  0.80972400  0.97791600  0.08088700  1
  O  O101  1  0.09131500  0.27508100  0.76692700  1
  O  O102  1  0.65798200  0.85410000  0.32539600  1
  O  O103  1  0.32539600  0.65798200  0.85410000  1
  O  O104  1  0.44570200  0.86293200  0.87052600  1
  O  O105  1  0.12947400  0.55429800  0.13706800  1
  O  O106  1  0.27508100  0.76692700  0.09131500  1
  O  O107  1  0.14590000  0.67460400  0.34201800  1
  O  O108  1  0.23307300  0.90868500  0.72491900  1
  O  O109  1  0.08088700  0.80972400  0.97791600  1
  O  O110  1  0.02208400  0.91911300  0.19027600  1
