# generated using pymatgen
data_In2WO6
_symmetry_space_group_name_H-M   'P 1'
_cell_length_a   5.00392700
_cell_length_b   9.09453300
_cell_length_c   10.28417200
_cell_angle_alpha   90.00000000
_cell_angle_beta   90.00000000
_cell_angle_gamma   90.00000000
_symmetry_Int_Tables_number   1
_chemical_formula_structural   In2WO6
_chemical_formula_sum   'In8 W4 O24'
_cell_volume   468.01599945
_cell_formula_units_Z   4
loop_
 _symmetry_equiv_pos_site_id
 _symmetry_equiv_pos_as_xyz
  1  'x, y, z'
loop_
 _atom_site_type_symbol
 _atom_site_label
 _atom_site_symmetry_multiplicity
 _atom_site_fract_x
 _atom_site_fract_y
 _atom_site_fract_z
 _atom_site_occupancy
  In  In0  1  0.98542500  0.36845800  0.07125600  1
  In  In1  1  0.00630400  0.30913800  0.64707400  1
  In  In2  1  0.49369600  0.69086200  0.14707400  1
  In  In3  1  0.51457500  0.63154200  0.57125600  1
  In  In4  1  0.48542500  0.13154200  0.92874400  1
  In  In5  1  0.50630400  0.19086200  0.35292600  1
  In  In6  1  0.99369600  0.80913800  0.85292600  1
  In  In7  1  0.01457500  0.86845800  0.42874400  1
  W  W8  1  0.01405100  0.99448200  0.13787100  1
  W  W9  1  0.48594900  0.00551800  0.63787100  1
  W  W10  1  0.51405100  0.50551800  0.86212900  1
  W  W11  1  0.98594900  0.49448200  0.36212900  1
  O  O12  1  0.18565900  0.65627700  0.44898600  1
  O  O13  1  0.19861300  0.51519700  0.20678900  1
  O  O14  1  0.23209900  0.84978100  0.67617100  1
  O  O15  1  0.22240400  0.84940700  0.23039900  1
  O  O16  1  0.22441900  0.35123700  0.44274800  1
  O  O17  1  0.28271700  0.03919500  0.47489900  1
  O  O18  1  0.21728300  0.96080500  0.97489900  1
  O  O19  1  0.27558100  0.64876300  0.94274800  1
  O  O20  1  0.27759600  0.15059300  0.73039900  1
  O  O21  1  0.26790100  0.15021900  0.17617100  1
  O  O22  1  0.30138700  0.48480300  0.70678900  1
  O  O23  1  0.31434100  0.34372300  0.94898600  1
  O  O24  1  0.68565900  0.84372300  0.55101400  1
  O  O25  1  0.69861300  0.98480300  0.79321100  1
  O  O26  1  0.73209900  0.65021900  0.32382900  1
  O  O27  1  0.72240400  0.65059300  0.76960100  1
  O  O28  1  0.72441900  0.14876300  0.55725200  1
  O  O29  1  0.78271700  0.46080500  0.52510100  1
  O  O30  1  0.71728300  0.53919500  0.02510100  1
  O  O31  1  0.77558100  0.85123700  0.05725200  1
  O  O32  1  0.77759600  0.34940700  0.26960100  1
  O  O33  1  0.76790100  0.34978100  0.82382900  1
  O  O34  1  0.80138700  0.01519700  0.29321100  1
  O  O35  1  0.81434100  0.15627700  0.05101400  1
