# generated using pymatgen
data_Ba2P6O17
_symmetry_space_group_name_H-M   'P 1'
_cell_length_a   13.71854300
_cell_length_b   7.47999500
_cell_length_c   7.52322408
_cell_angle_alpha   74.91922106
_cell_angle_beta   90.00000000
_cell_angle_gamma   90.00000000
_symmetry_Int_Tables_number   1
_chemical_formula_structural   Ba2P6O17
_chemical_formula_sum   'Ba4 P12 O34'
_cell_volume   745.40541867
_cell_formula_units_Z   2
loop_
 _symmetry_equiv_pos_site_id
 _symmetry_equiv_pos_as_xyz
  1  'x, y, z'
loop_
 _atom_site_type_symbol
 _atom_site_label
 _atom_site_symmetry_multiplicity
 _atom_site_fract_x
 _atom_site_fract_y
 _atom_site_fract_z
 _atom_site_occupancy
  Ba  Ba0  1  0.28178200  0.87996400  0.79779600  1
  Ba  Ba1  1  0.99343200  0.16882800  0.78333400  1
  Ba  Ba2  1  0.49343200  0.83117200  0.21666600  1
  Ba  Ba3  1  0.78178200  0.12003600  0.20220400  1
  P  P4  1  0.06143700  0.60389600  0.99511800  1
  P  P5  1  0.77161200  0.94066500  0.74874900  1
  P  P6  1  0.73997500  0.52571900  0.75770200  1
  P  P7  1  0.25115900  0.38572000  0.66333400  1
  P  P8  1  0.46439300  0.38367600  0.66128300  1
  P  P9  1  0.55390800  0.00648600  0.68073100  1
  P  P10  1  0.05390800  0.99351400  0.31926900  1
  P  P11  1  0.96439300  0.61632400  0.33871700  1
  P  P12  1  0.75115900  0.61428000  0.33666600  1
  P  P13  1  0.23997500  0.47428100  0.24229800  1
  P  P14  1  0.27161200  0.05933500  0.25125100  1
  P  P15  1  0.56143700  0.39610400  0.00488200  1
  O  O16  1  0.82733500  0.95701100  0.91501900  1
  O  O17  1  0.09957900  0.79776800  0.93132700  1
  O  O18  1  0.47908400  0.92170500  0.82337200  1
  O  O19  1  0.65777900  0.96884000  0.78831200  1
  O  O20  1  0.63626200  0.52585200  0.84824900  1
  O  O21  1  0.46822800  0.39119600  0.86980500  1
  O  O22  1  0.03210300  0.49487100  0.86579300  1
  O  O23  1  0.80501600  0.37201600  0.85278800  1
  O  O24  1  0.78169500  0.72343800  0.74389800  1
  O  O25  1  0.26098700  0.53651500  0.75662900  1
  O  O26  1  0.18862800  0.21930600  0.73674900  1
  O  O27  1  0.56051300  0.96596900  0.49813600  1
  O  O28  1  0.36018600  0.29318200  0.64421800  1
  O  O29  1  0.54248200  0.23557000  0.63939100  1
  O  O30  1  0.30350800  0.94449600  0.43554200  1
  O  O31  1  0.72002000  0.52196500  0.55110000  1
  O  O32  1  0.47728800  0.56563900  0.52996600  1
  O  O33  1  0.97728800  0.43436100  0.47003400  1
  O  O34  1  0.22002000  0.47803500  0.44890000  1
  O  O35  1  0.80350800  0.05550400  0.56445800  1
  O  O36  1  0.04248200  0.76443000  0.36060900  1
  O  O37  1  0.86018600  0.70681800  0.35578200  1
  O  O38  1  0.06051300  0.03403100  0.50186400  1
  O  O39  1  0.68862800  0.78069400  0.26325100  1
  O  O40  1  0.76098700  0.46348500  0.24337100  1
  O  O41  1  0.28169500  0.27656200  0.25610200  1
  O  O42  1  0.30501600  0.62798400  0.14721200  1
  O  O43  1  0.53210300  0.50512900  0.13420700  1
  O  O44  1  0.96822800  0.60880400  0.13019500  1
  O  O45  1  0.13626200  0.47414800  0.15175100  1
  O  O46  1  0.15777900  0.03116000  0.21168800  1
  O  O47  1  0.97908400  0.07829500  0.17662800  1
  O  O48  1  0.59957900  0.20223200  0.06867300  1
  O  O49  1  0.32733500  0.04298900  0.08498100  1
