# generated using pymatgen
data_Ba4Sn3O10
_symmetry_space_group_name_H-M   'P 1'
_cell_length_a   7.44603207
_cell_length_b   7.44603207
_cell_length_c   14.08963300
_cell_angle_alpha   90.00000000
_cell_angle_beta   90.00000000
_cell_angle_gamma   132.03687482
_symmetry_Int_Tables_number   1
_chemical_formula_structural   Ba4Sn3O10
_chemical_formula_sum   'Ba8 Sn6 O20'
_cell_volume   580.19116685
_cell_formula_units_Z   2
loop_
 _symmetry_equiv_pos_site_id
 _symmetry_equiv_pos_as_xyz
  1  'x, y, z'
loop_
 _atom_site_type_symbol
 _atom_site_label
 _atom_site_symmetry_multiplicity
 _atom_site_fract_x
 _atom_site_fract_y
 _atom_site_fract_z
 _atom_site_occupancy
  Ba  Ba0  1  0.73709000  0.26291000  0.39117200  1
  Ba  Ba1  1  0.53161100  0.46838900  0.14332200  1
  Ba  Ba2  1  0.96838900  0.03161100  0.64332200  1
  Ba  Ba3  1  0.76291000  0.23709000  0.89117200  1
  Ba  Ba4  1  0.46838900  0.53161100  0.85667800  1
  Ba  Ba5  1  0.23709000  0.76291000  0.10882800  1
  Ba  Ba6  1  0.03161100  0.96838900  0.35667800  1
  Ba  Ba7  1  0.26291000  0.73709000  0.60882800  1
  Sn  Sn8  1  0.00000000  0.00000000  0.00000000  1
  Sn  Sn9  1  0.86460000  0.13540000  0.15458200  1
  Sn  Sn10  1  0.63540000  0.36460000  0.65458200  1
  Sn  Sn11  1  0.50000000  0.50000000  0.50000000  1
  Sn  Sn12  1  0.13540000  0.86460000  0.84541800  1
  Sn  Sn13  1  0.36460000  0.63540000  0.34541800  1
  O  O14  1  0.33928600  0.11788300  0.96202800  1
  O  O15  1  0.36581300  0.13418700  0.75000000  1
  O  O16  1  0.38211700  0.16071400  0.53797200  1
  O  O17  1  0.71820800  0.28179200  0.15590200  1
  O  O18  1  0.78179200  0.21820800  0.65590200  1
  O  O19  1  0.96806100  0.03193900  0.85439100  1
  O  O20  1  0.53193900  0.46806100  0.35439100  1
  O  O21  1  0.11788300  0.33928600  0.03797200  1
  O  O22  1  0.83928600  0.61788300  0.53797200  1
  O  O23  1  0.13418700  0.36581300  0.25000000  1
  O  O24  1  0.86581300  0.63418700  0.75000000  1
  O  O25  1  0.16071400  0.38211700  0.46202800  1
  O  O26  1  0.88211700  0.66071400  0.96202800  1
  O  O27  1  0.21820800  0.78179200  0.34409800  1
  O  O28  1  0.28179200  0.71820800  0.84409800  1
  O  O29  1  0.03193900  0.96806100  0.14560900  1
  O  O30  1  0.46806100  0.53193900  0.64560900  1
  O  O31  1  0.61788300  0.83928600  0.46202800  1
  O  O32  1  0.63418700  0.86581300  0.25000000  1
  O  O33  1  0.66071400  0.88211700  0.03797200  1
