# generated using pymatgen
data_Tm2(WO4)3
_symmetry_space_group_name_H-M   'P 1'
_cell_length_a   10.16168200
_cell_length_b   10.04477600
_cell_length_c   17.16137383
_cell_angle_alpha   54.59124156
_cell_angle_beta   90.00000000
_cell_angle_gamma   90.00000000
_symmetry_Int_Tables_number   1
_chemical_formula_structural   Tm2(WO4)3
_chemical_formula_sum   'Tm8 W12 O48'
_cell_volume   1427.69823883
_cell_formula_units_Z   4
loop_
 _symmetry_equiv_pos_site_id
 _symmetry_equiv_pos_as_xyz
  1  'x, y, z'
loop_
 _atom_site_type_symbol
 _atom_site_label
 _atom_site_symmetry_multiplicity
 _atom_site_fract_x
 _atom_site_fract_y
 _atom_site_fract_z
 _atom_site_occupancy
  Tm  Tm0  1  0.97041800  0.63330600  0.11827500  1
  Tm  Tm1  1  0.03434000  0.13707900  0.61824300  1
  Tm  Tm2  1  0.53434000  0.86292100  0.88175700  1
  Tm  Tm3  1  0.47041800  0.36669400  0.38172500  1
  Tm  Tm4  1  0.52958200  0.63330600  0.61827500  1
  Tm  Tm5  1  0.46566000  0.13707900  0.11824300  1
  Tm  Tm6  1  0.96566000  0.86292100  0.38175700  1
  Tm  Tm7  1  0.02958200  0.36669400  0.88172500  1
  W  W8  1  0.74920800  0.47397800  0.50005000  1
  W  W9  1  0.61937300  0.75310200  0.14336900  1
  W  W10  1  0.88032600  0.03549000  0.85709700  1
  W  W11  1  0.38032600  0.96451000  0.64290300  1
  W  W12  1  0.11937300  0.24689800  0.35663100  1
  W  W13  1  0.24920800  0.52602200  0.99995000  1
  W  W14  1  0.75079200  0.47397800  0.00005000  1
  W  W15  1  0.88062700  0.75310200  0.64336900  1
  W  W16  1  0.61967400  0.03549000  0.35709700  1
  W  W17  1  0.11967400  0.96451000  0.14290300  1
  W  W18  1  0.38062700  0.24689800  0.85663100  1
  W  W19  1  0.25079200  0.52602200  0.49995000  1
  O  O20  1  0.09675700  0.79578700  0.13312600  1
  O  O21  1  0.34392700  0.50463400  0.41758800  1
  O  O22  1  0.17411700  0.33253900  0.58907200  1
  O  O23  1  0.41126500  0.06309900  0.86275100  1
  O  O24  1  0.87498100  0.31953200  0.56511700  1
  O  O25  1  0.79289000  0.70020500  0.16551100  1
  O  O26  1  0.70881000  0.02512400  0.83225700  1
  O  O27  1  0.64035300  0.41595400  0.44111300  1
  O  O28  1  0.98311800  0.06572300  0.76185000  1
  O  O29  1  0.52163600  0.58506300  0.23831400  1
  O  O30  1  0.57558000  0.78801500  0.03067100  1
  O  O31  1  0.92690200  0.84740000  0.96879200  1
  O  O32  1  0.42690200  0.15260000  0.53120800  1
  O  O33  1  0.07558000  0.21198500  0.46932900  1
  O  O34  1  0.02163600  0.41493700  0.26168600  1
  O  O35  1  0.48311800  0.93427700  0.73815000  1
  O  O36  1  0.14035300  0.58404600  0.05888700  1
  O  O37  1  0.20881000  0.97487600  0.66774300  1
  O  O38  1  0.29289000  0.29979500  0.33448900  1
  O  O39  1  0.37498100  0.68046800  0.93488300  1
  O  O40  1  0.84392700  0.49536600  0.08241200  1
  O  O41  1  0.91126500  0.93690100  0.63724900  1
  O  O42  1  0.67411700  0.66746100  0.91092800  1
  O  O43  1  0.59675700  0.20421300  0.36687400  1
  O  O44  1  0.40324300  0.79578700  0.63312600  1
  O  O45  1  0.32588300  0.33253900  0.08907200  1
  O  O46  1  0.08873500  0.06309900  0.36275100  1
  O  O47  1  0.15607300  0.50463400  0.91758800  1
  O  O48  1  0.62501900  0.31953200  0.06511700  1
  O  O49  1  0.70711000  0.70020500  0.66551100  1
  O  O50  1  0.79119000  0.02512400  0.33225700  1
  O  O51  1  0.85964700  0.41595400  0.94111300  1
  O  O52  1  0.51688200  0.06572300  0.26185000  1
  O  O53  1  0.97836400  0.58506300  0.73831400  1
  O  O54  1  0.92442000  0.78801500  0.53067100  1
  O  O55  1  0.57309800  0.84740000  0.46879200  1
  O  O56  1  0.07309800  0.15260000  0.03120800  1
  O  O57  1  0.42442000  0.21198500  0.96932900  1
  O  O58  1  0.47836400  0.41493700  0.76168600  1
  O  O59  1  0.01688200  0.93427700  0.23815000  1
  O  O60  1  0.35964700  0.58404600  0.55888700  1
  O  O61  1  0.29119000  0.97487600  0.16774300  1
  O  O62  1  0.20711000  0.29979500  0.83448900  1
  O  O63  1  0.12501900  0.68046800  0.43488300  1
  O  O64  1  0.58873500  0.93690100  0.13724900  1
  O  O65  1  0.82588300  0.66746100  0.41092800  1
  O  O66  1  0.65607300  0.49536600  0.58241200  1
  O  O67  1  0.90324300  0.20421300  0.86687400  1
