# generated using pymatgen
data_K3V14O28
_symmetry_space_group_name_H-M   'P 1'
_cell_length_a   12.51593380
_cell_length_b   12.51593380
_cell_length_c   12.51593380
_cell_angle_alpha   131.62396459
_cell_angle_beta   131.62396459
_cell_angle_gamma   70.82358627
_symmetry_Int_Tables_number   1
_chemical_formula_structural   K3V14O28
_chemical_formula_sum   'K6 V28 O56'
_cell_volume   1073.03100496
_cell_formula_units_Z   2
loop_
 _symmetry_equiv_pos_site_id
 _symmetry_equiv_pos_as_xyz
  1  'x, y, z'
loop_
 _atom_site_type_symbol
 _atom_site_label
 _atom_site_symmetry_multiplicity
 _atom_site_fract_x
 _atom_site_fract_y
 _atom_site_fract_z
 _atom_site_occupancy
  K  K0  1  0.76949800  0.76949800  0.00000000  1
  K  K1  1  0.07599200  0.07599200  0.00000000  1
  K  K2  1  0.60297200  0.60297200  0.00000000  1
  K  K3  1  0.92400800  0.92400800  0.00000000  1
  K  K4  1  0.23050200  0.23050200  0.00000000  1
  K  K5  1  0.39702800  0.39702800  0.00000000  1
  V  V6  1  0.16884700  0.64773100  0.81657800  1
  V  V7  1  0.78075300  0.59617900  0.52155200  1
  V  V8  1  0.92537400  0.74080000  0.52155200  1
  V  V9  1  0.64773100  0.83115300  0.47888400  1
  V  V10  1  0.50476700  0.68665700  0.48082700  1
  V  V11  1  0.11963200  0.63795800  0.18433700  1
  V  V12  1  0.25920000  0.78075300  0.18457400  1
  V  V13  1  0.40382100  0.92537400  0.18457400  1
  V  V14  1  0.31334300  0.79417000  0.81811000  1
  V  V15  1  0.74080000  0.21924700  0.81542600  1
  V  V16  1  0.45362200  0.93529500  0.81566300  1
  V  V17  1  0.59617900  0.07462600  0.81542600  1
  V  V18  1  0.20583000  0.02394000  0.51917300  1
  V  V19  1  0.06470500  0.88036800  0.51832600  1
  V  V20  1  0.35226900  0.16884700  0.52111600  1
  V  V21  1  0.79417000  0.97606000  0.48082700  1
  V  V22  1  0.21924700  0.40382100  0.47844800  1
  V  V23  1  0.07462600  0.25920000  0.47844800  1
  V  V24  1  0.93529500  0.11963200  0.48167400  1
  V  V25  1  0.68665700  0.20583000  0.18189000  1
  V  V26  1  0.54637800  0.06470500  0.18433700  1
  V  V27  1  0.83115300  0.35226900  0.18342200  1
  V  V28  1  0.88036800  0.36204200  0.81566300  1
  V  V29  1  0.02394000  0.50476700  0.81811000  1
  V  V30  1  0.63795800  0.45362200  0.51832600  1
  V  V31  1  0.49523300  0.31334300  0.51917300  1
  V  V32  1  0.36204200  0.54637800  0.48167400  1
  V  V33  1  0.97606000  0.49523300  0.18189000  1
  O  O34  1  0.22404300  0.58701000  0.95282200  1
  O  O35  1  0.36581100  0.72877800  0.95282200  1
  O  O36  1  0.97004800  0.59473800  0.70657500  1
  O  O37  1  0.11183700  0.73652700  0.70657500  1
  O  O38  1  0.58701000  0.63418900  0.36296700  1
  O  O39  1  0.72877800  0.77595700  0.36296700  1
  O  O40  1  0.84552200  0.79718900  0.64271200  1
  O  O41  1  0.70364700  0.65905400  0.64702700  1
  O  O42  1  0.45994800  0.83692700  0.29687500  1
  O  O43  1  0.32035200  0.69428500  0.29691700  1
  O  O44  1  0.20281100  0.84552200  0.04833300  1
  O  O45  1  0.05662100  0.70364700  0.04459300  1
  O  O46  1  0.45272200  0.74759700  0.62508500  1
  O  O47  1  0.30571500  0.60263200  0.62606700  1
  O  O48  1  0.73652700  0.02995200  0.62469000  1
  O  O49  1  0.59473800  0.88816300  0.62469000  1
  O  O50  1  0.97656500  0.67964800  0.37393300  1
  O  O51  1  0.12251200  0.82763700  0.37491500  1
  O  O52  1  0.40526200  0.11183700  0.37531000  1
  O  O53  1  0.26347300  0.97004800  0.37531000  1
  O  O54  1  0.65905400  0.01202700  0.95540700  1
  O  O55  1  0.51132900  0.86692400  0.95468200  1
  O  O56  1  0.79718900  0.15447800  0.95166700  1
  O  O57  1  0.39736800  0.02343500  0.70308300  1
  O  O58  1  0.25240300  0.87748800  0.70512500  1
  O  O59  1  0.54005200  0.16307300  0.70312500  1
  O  O60  1  0.01202700  0.05662100  0.35297300  1
  O  O61  1  0.86692400  0.91224200  0.35559400  1
  O  O62  1  0.15447800  0.20281100  0.35728800  1
  O  O63  1  0.98797300  0.94337900  0.64702700  1
  O  O64  1  0.41299000  0.36581100  0.63703300  1
  O  O65  1  0.13307600  0.08775800  0.64440600  1
  O  O66  1  0.27122200  0.22404300  0.63703300  1
  O  O67  1  0.60263200  0.97656500  0.29691700  1
  O  O68  1  0.02995200  0.40526200  0.29342500  1
  O  O69  1  0.88816300  0.26347300  0.29342500  1
  O  O70  1  0.74759700  0.12251200  0.29487500  1
  O  O71  1  0.34094600  0.98797300  0.04459300  1
  O  O72  1  0.77595700  0.41299000  0.04717800  1
  O  O73  1  0.63418900  0.27122200  0.04717800  1
  O  O74  1  0.48867100  0.13307600  0.04531800  1
  O  O75  1  0.87748800  0.17236300  0.62508500  1
  O  O76  1  0.16307300  0.45994800  0.62302100  1
  O  O77  1  0.02343500  0.32035200  0.62606700  1
  O  O78  1  0.54727800  0.25240300  0.37491500  1
  O  O79  1  0.83692700  0.54005200  0.37697900  1
  O  O80  1  0.69428500  0.39736800  0.37393300  1
  O  O81  1  0.94337900  0.29635300  0.95540700  1
  O  O82  1  0.08775800  0.44335200  0.95468200  1
  O  O83  1  0.82763700  0.45272200  0.70512500  1
  O  O84  1  0.67964800  0.30571500  0.70308300  1
  O  O85  1  0.29635300  0.34094600  0.35297300  1
  O  O86  1  0.44335200  0.48867100  0.35559400  1
  O  O87  1  0.55664800  0.51132900  0.64440600  1
  O  O88  1  0.17236300  0.54727800  0.29487500  1
  O  O89  1  0.91224200  0.55664800  0.04531800  1
