# generated using pymatgen
data_NaMn2O4
_symmetry_space_group_name_H-M   'P 1'
_cell_length_a   5.17872567
_cell_length_b   5.17872567
_cell_length_c   9.82211200
_cell_angle_alpha   90.00000000
_cell_angle_beta   90.00000000
_cell_angle_gamma   146.12760636
_symmetry_Int_Tables_number   1
_chemical_formula_structural   NaMn2O4
_chemical_formula_sum   'Na2 Mn4 O8'
_cell_volume   146.81651210
_cell_formula_units_Z   2
loop_
 _symmetry_equiv_pos_site_id
 _symmetry_equiv_pos_as_xyz
  1  'x, y, z'
loop_
 _atom_site_type_symbol
 _atom_site_label
 _atom_site_symmetry_multiplicity
 _atom_site_fract_x
 _atom_site_fract_y
 _atom_site_fract_z
 _atom_site_occupancy
  Na  Na0  1  0.39487000  0.60513000  0.25000000  1
  Na  Na1  1  0.60513000  0.39487000  0.75000000  1
  Mn  Mn2  1  0.86267100  0.13732900  0.92798000  1
  Mn  Mn3  1  0.13732900  0.86267100  0.42798000  1
  Mn  Mn4  1  0.86267100  0.13732900  0.57202000  1
  Mn  Mn5  1  0.13732900  0.86267100  0.07202000  1
  O  O6  1  0.23418300  0.76581700  0.60404300  1
  O  O7  1  0.23418300  0.76581700  0.89595700  1
  O  O8  1  0.76581700  0.23418300  0.39595700  1
  O  O9  1  0.76581700  0.23418300  0.10404300  1
  O  O10  1  0.06647100  0.93352900  0.25000000  1
  O  O11  1  0.93352900  0.06647100  0.75000000  1
  O  O12  1  0.50000000  0.50000000  0.50000000  1
  O  O13  1  0.50000000  0.50000000  0.00000000  1
