# generated using pymatgen
data_Na2MnPCO7
_symmetry_space_group_name_H-M   'P 1'
_cell_length_a   8.48874700
_cell_length_b   8.54694975
_cell_length_c   10.23528978
_cell_angle_alpha   107.73681010
_cell_angle_beta   107.40331939
_cell_angle_gamma   104.30704851
_symmetry_Int_Tables_number   1
_chemical_formula_structural   Na2MnPCO7
_chemical_formula_sum   'Na8 Mn4 P4 C4 O28'
_cell_volume   626.44435751
_cell_formula_units_Z   4
loop_
 _symmetry_equiv_pos_site_id
 _symmetry_equiv_pos_as_xyz
  1  'x, y, z'
loop_
 _atom_site_type_symbol
 _atom_site_label
 _atom_site_symmetry_multiplicity
 _atom_site_fract_x
 _atom_site_fract_y
 _atom_site_fract_z
 _atom_site_occupancy
  Na  Na0  1  0.24749700  0.24200400  0.24088500  1
  Na  Na1  1  0.49219300  0.00611300  0.25454200  1
  Na  Na2  1  0.98160500  0.50657400  0.24821700  1
  Na  Na3  1  0.51554700  0.01005700  0.75534400  1
  Na  Na4  1  0.99497800  0.49111700  0.75063300  1
  Na  Na5  1  0.24068200  0.24528900  0.75320300  1
  Na  Na6  1  0.76028400  0.76402800  0.75414100  1
  Na  Na7  1  0.46994800  0.70119000  0.93034600  1
  Mn  Mn8  1  0.93584300  0.18146600  0.35139000  1
  Mn  Mn9  1  0.45116400  0.69094900  0.34991100  1
  Mn  Mn10  1  0.55714400  0.30749900  0.64942100  1
  Mn  Mn11  1  0.05967900  0.80835400  0.64487600  1
  P  P12  1  0.19144300  0.94422000  0.42106600  1
  P  P13  1  0.68851200  0.43363600  0.42049700  1
  P  P14  1  0.31262200  0.56490100  0.57657100  1
  P  P15  1  0.80941600  0.05728700  0.57995400  1
  C  C16  1  0.76778900  0.02095200  0.07027800  1
  C  C17  1  0.27717000  0.53057300  0.07427000  1
  C  C18  1  0.72159000  0.47283400  0.92441600  1
  C  C19  1  0.22431700  0.97199900  0.92472200  1
  O  O20  1  0.29592300  0.04051500  0.06516800  1
  O  O21  1  0.79957700  0.54862300  0.06191300  1
  O  O22  1  0.42235600  0.67526900  0.14587100  1
  O  O23  1  0.91750200  0.16169600  0.14619300  1
  O  O24  1  0.69872400  0.96353200  0.15077400  1
  O  O25  1  0.22172800  0.47398400  0.16264100  1
  O  O26  1  0.27154200  0.84113900  0.32617100  1
  O  O27  1  0.08747900  0.03216000  0.33492300  1
  O  O28  1  0.77428700  0.32712300  0.33134600  1
  O  O29  1  0.57360300  0.50304700  0.32499400  1
  O  O30  1  0.16736300  0.42034300  0.42596800  1
  O  O31  1  0.55984800  0.30092300  0.45762900  1
  O  O32  1  0.06723500  0.81195100  0.45948100  1
  O  O33  1  0.66046800  0.91694400  0.42872900  1
  O  O34  1  0.33900900  0.09034500  0.57499200  1
  O  O35  1  0.44767100  0.69663900  0.54386500  1
  O  O36  1  0.94315600  0.19034100  0.54613300  1
  O  O37  1  0.83407700  0.58226200  0.57170600  1
  O  O38  1  0.23673800  0.67422500  0.67527000  1
  O  O39  1  0.41817700  0.49060200  0.67709500  1
  O  O40  1  0.73655300  0.16717000  0.67811600  1
  O  O41  1  0.91744500  0.97490900  0.66948100  1
  O  O42  1  0.76967900  0.52399700  0.82755300  1
  O  O43  1  0.28271000  0.03012900  0.83769300  1
  O  O44  1  0.57268300  0.32849000  0.85256600  1
  O  O45  1  0.07795400  0.82556600  0.84837900  1
  O  O46  1  0.69802000  0.94693200  0.92701300  1
  O  O47  1  0.20723500  0.46036700  0.93209300  1
