# generated using pymatgen
data_TiMn3Sb2(PO4)6
_symmetry_space_group_name_H-M   'P 1'
_cell_length_a   8.86827169
_cell_length_b   8.86827102
_cell_length_c   8.86827248
_cell_angle_alpha   58.96155130
_cell_angle_beta   58.96155369
_cell_angle_gamma   58.96155108
_symmetry_Int_Tables_number   1
_chemical_formula_structural   TiMn3Sb2(PO4)6
_chemical_formula_sum   'Ti1 Mn3 Sb2 P6 O24'
_cell_volume   481.49133018
_cell_formula_units_Z   1
loop_
 _symmetry_equiv_pos_site_id
 _symmetry_equiv_pos_as_xyz
  1  'x, y, z'
loop_
 _atom_site_type_symbol
 _atom_site_label
 _atom_site_symmetry_multiplicity
 _atom_site_fract_x
 _atom_site_fract_y
 _atom_site_fract_z
 _atom_site_occupancy
  Ti  Ti0  1  0.85370500  0.85370500  0.85370500  1
  Mn  Mn1  1  0.15390300  0.15390300  0.15390300  1
  Mn  Mn2  1  0.34941900  0.34941900  0.34941900  1
  Mn  Mn3  1  0.64761100  0.64761100  0.64761100  1
  Sb  Sb4  1  0.01100600  0.01100600  0.01100600  1
  Sb  Sb5  1  0.50113200  0.50113200  0.50113200  1
  P  P6  1  0.24810200  0.54653200  0.95363600  1
  P  P7  1  0.54653200  0.95363600  0.24810200  1
  P  P8  1  0.95363600  0.24810200  0.54653200  1
  P  P9  1  0.03820800  0.75081700  0.45950500  1
  P  P10  1  0.45950500  0.03820800  0.75081700  1
  P  P11  1  0.75081700  0.45950500  0.03820800  1
  O  O12  1  0.10803000  0.29723300  0.52111700  1
  O  O13  1  0.29723300  0.52111700  0.10803000  1
  O  O14  1  0.06089100  0.91852400  0.26473200  1
  O  O15  1  0.52111700  0.10803000  0.29723300  1
  O  O16  1  0.98702700  0.81793700  0.61520300  1
  O  O17  1  0.23116400  0.59176900  0.44603800  1
  O  O18  1  0.26473200  0.06089100  0.91852400  1
  O  O19  1  0.44603800  0.23116400  0.59176900  1
  O  O20  1  0.20098200  0.38591900  0.98583200  1
  O  O21  1  0.59176900  0.44603800  0.23116400  1
  O  O22  1  0.08008100  0.73522900  0.92662300  1
  O  O23  1  0.38591900  0.98583200  0.20098200  1
  O  O24  1  0.61520300  0.98702700  0.81793700  1
  O  O25  1  0.91852400  0.26473200  0.06089100  1
  O  O26  1  0.41199700  0.57040600  0.75959800  1
  O  O27  1  0.81793700  0.61520300  0.98702700  1
  O  O28  1  0.57040600  0.75959800  0.41199700  1
  O  O29  1  0.73522900  0.92662300  0.08008100  1
  O  O30  1  0.75959800  0.41199700  0.57040600  1
  O  O31  1  0.98583200  0.20098200  0.38591900  1
  O  O32  1  0.48859500  0.88656900  0.69492600  1
  O  O33  1  0.92662300  0.08008100  0.73522900  1
  O  O34  1  0.69492600  0.48859500  0.88656900  1
  O  O35  1  0.88656900  0.69492600  0.48859500  1
