# generated using pymatgen
data_Tl2S
_symmetry_space_group_name_H-M   'P 1'
_cell_length_a   7.29415429
_cell_length_b   7.29415429
_cell_length_c   6.26477100
_cell_angle_alpha   90.00000000
_cell_angle_beta   90.00000000
_cell_angle_gamma   120.00000265
_symmetry_Int_Tables_number   1
_chemical_formula_structural   Tl2S
_chemical_formula_sum   'Tl6 S3'
_cell_volume   288.65940489
_cell_formula_units_Z   3
loop_
 _symmetry_equiv_pos_site_id
 _symmetry_equiv_pos_as_xyz
  1  'x, y, z'
loop_
 _atom_site_type_symbol
 _atom_site_label
 _atom_site_symmetry_multiplicity
 _atom_site_fract_x
 _atom_site_fract_y
 _atom_site_fract_z
 _atom_site_occupancy
  Tl  Tl0  1  0.03677200  0.70612200  0.08156800  1
  Tl  Tl1  1  0.66935000  0.96322800  0.08156800  1
  Tl  Tl2  1  0.29387800  0.33065000  0.08156800  1
  Tl  Tl3  1  0.37569600  0.03990500  0.60847500  1
  Tl  Tl4  1  0.66420900  0.62430400  0.60847500  1
  Tl  Tl5  1  0.96009500  0.33579100  0.60847500  1
  S  S6  1  0.00000000  0.00000000  0.39364000  1
  S  S7  1  0.33333300  0.66666700  0.38462300  1
  S  S8  1  0.66666700  0.33333300  0.25360300  1
