# generated using pymatgen
data_Re2H6PbC(NO5)2
_symmetry_space_group_name_H-M   'P 1'
_cell_length_a   7.83764000
_cell_length_b   10.79628000
_cell_length_c   14.42631390
_cell_angle_alpha   78.67641344
_cell_angle_beta   90.00000000
_cell_angle_gamma   90.00000000
_symmetry_Int_Tables_number   1
_chemical_formula_structural   Re2H6PbC(NO5)2
_chemical_formula_sum   'Re8 H24 Pb4 C4 N8 O40'
_cell_volume   1196.95396283
_cell_formula_units_Z   4
loop_
 _symmetry_equiv_pos_site_id
 _symmetry_equiv_pos_as_xyz
  1  'x, y, z'
loop_
 _atom_site_type_symbol
 _atom_site_label
 _atom_site_symmetry_multiplicity
 _atom_site_fract_x
 _atom_site_fract_y
 _atom_site_fract_z
 _atom_site_occupancy
  Re  Re0  1  0.25168700  0.98317800  0.59181600  1
  Re  Re1  1  0.24831300  0.98317800  0.09181600  1
  Re  Re2  1  0.38958800  0.50377600  0.73495300  1
  Re  Re3  1  0.11041200  0.50377600  0.23495300  1
  Re  Re4  1  0.88958800  0.49622400  0.76504700  1
  Re  Re5  1  0.61041200  0.49622400  0.26504700  1
  Re  Re6  1  0.75168700  0.01682200  0.90818400  1
  Re  Re7  1  0.74831300  0.01682200  0.40818400  1
  H  H8  1  0.10906800  0.83622300  0.77022500  1
  H  H9  1  0.61483300  0.85771400  0.67163100  1
  H  H10  1  0.39295300  0.80227000  0.81627000  1
  H  H11  1  0.81093700  0.85348100  0.64776600  1
  H  H12  1  0.95333300  0.73979700  0.82994400  1
  H  H13  1  0.44467700  0.69641100  0.91982800  1
  H  H14  1  0.39093200  0.83622300  0.27022500  1
  H  H15  1  0.88516700  0.85771400  0.17163100  1
  H  H16  1  0.10704700  0.80227000  0.31627000  1
  H  H17  1  0.68906300  0.85348100  0.14776600  1
  H  H18  1  0.54666700  0.73979700  0.32994400  1
  H  H19  1  0.05532300  0.69641100  0.41982800  1
  H  H20  1  0.94467700  0.30358900  0.58017200  1
  H  H21  1  0.45333300  0.26020300  0.67005600  1
  H  H22  1  0.31093700  0.14651900  0.85223400  1
  H  H23  1  0.89295300  0.19773000  0.68373000  1
  H  H24  1  0.11483300  0.14228600  0.82836900  1
  H  H25  1  0.60906800  0.16377700  0.72977500  1
  H  H26  1  0.55532300  0.30358900  0.08017200  1
  H  H27  1  0.04666700  0.26020300  0.17005600  1
  H  H28  1  0.18906300  0.14651900  0.35223400  1
  H  H29  1  0.60704700  0.19773000  0.18373000  1
  H  H30  1  0.38516700  0.14228600  0.32836900  1
  H  H31  1  0.89093200  0.16377700  0.22977500  1
  Pb  Pb32  1  0.66034700  0.64242200  0.53835800  1
  Pb  Pb33  1  0.83965300  0.64242200  0.03835800  1
  Pb  Pb34  1  0.16034700  0.35757800  0.96164200  1
  Pb  Pb35  1  0.33965300  0.35757800  0.46164200  1
  C  C36  1  0.18916600  0.70987500  0.88958000  1
  C  C37  1  0.31083400  0.70987500  0.38958000  1
  C  C38  1  0.68916600  0.29012500  0.61042000  1
  C  C39  1  0.81083400  0.29012500  0.11042000  1
  N  N40  1  0.07395400  0.77438100  0.82947500  1
  N  N41  1  0.35488100  0.74053700  0.87520400  1
  N  N42  1  0.42604600  0.77438100  0.32947500  1
  N  N43  1  0.14511900  0.74053700  0.37520400  1
  N  N44  1  0.85488100  0.25946300  0.62479600  1
  N  N45  1  0.57395400  0.22561900  0.67052500  1
  N  N46  1  0.64511900  0.25946300  0.12479600  1
  N  N47  1  0.92604600  0.22561900  0.17052500  1
  O  O48  1  0.38741800  0.94563500  0.69044800  1
  O  O49  1  0.04853800  0.91962000  0.62245900  1
  O  O50  1  0.73248800  0.85018200  0.94249200  1
  O  O51  1  0.33555500  0.91981000  0.50014000  1
  O  O52  1  0.11258200  0.94563500  0.19044800  1
  O  O53  1  0.70810800  0.80064100  0.66218000  1
  O  O54  1  0.45146200  0.91962000  0.12245900  1
  O  O55  1  0.76751200  0.85018200  0.44249200  1
  O  O56  1  0.16444500  0.91981000  0.00014000  1
  O  O57  1  0.79189200  0.80064100  0.16218000  1
  O  O58  1  0.14083700  0.62293700  0.95929200  1
  O  O59  1  0.33872700  0.66118800  0.69082900  1
  O  O60  1  0.79878600  0.59266000  0.83733400  1
  O  O61  1  0.90814900  0.55148400  0.64071300  1
  O  O62  1  0.35916300  0.62293700  0.45929200  1
  O  O63  1  0.16127300  0.66118800  0.19082900  1
  O  O64  1  0.60944000  0.50294400  0.70335300  1
  O  O65  1  0.70121400  0.59266000  0.33733400  1
  O  O66  1  0.10944000  0.49705600  0.79664700  1
  O  O67  1  0.59185100  0.55148400  0.14071300  1
  O  O68  1  0.40814900  0.44851600  0.85928700  1
  O  O69  1  0.89056000  0.50294400  0.20335300  1
  O  O70  1  0.29878600  0.40734000  0.66266600  1
  O  O71  1  0.39056000  0.49705600  0.29664700  1
  O  O72  1  0.83872700  0.33881200  0.80917100  1
  O  O73  1  0.64083700  0.37706300  0.54070800  1
  O  O74  1  0.09185100  0.44851600  0.35928700  1
  O  O75  1  0.20121400  0.40734000  0.16266600  1
  O  O76  1  0.66127300  0.33881200  0.30917100  1
  O  O77  1  0.85916300  0.37706300  0.04070800  1
  O  O78  1  0.20810800  0.19935900  0.83782000  1
  O  O79  1  0.83555500  0.08019000  0.99986000  1
  O  O80  1  0.23248800  0.14981800  0.55750800  1
  O  O81  1  0.54853800  0.08038000  0.87754100  1
  O  O82  1  0.29189200  0.19935900  0.33782000  1
  O  O83  1  0.88741800  0.05436500  0.80955200  1
  O  O84  1  0.66444500  0.08019000  0.49986000  1
  O  O85  1  0.26751200  0.14981800  0.05750800  1
  O  O86  1  0.95146200  0.08038000  0.37754100  1
  O  O87  1  0.61258200  0.05436500  0.30955200  1
