# generated using pymatgen
data_Na6Mn7O10
_symmetry_space_group_name_H-M   'P 1'
_cell_length_a   11.33808000
_cell_length_b   11.33808000
_cell_length_c   8.70607308
_cell_angle_alpha   72.50442289
_cell_angle_beta   72.50442289
_cell_angle_gamma   17.88687042
_symmetry_Int_Tables_number   1
_chemical_formula_structural   Na6Mn7O10
_chemical_formula_sum   'Na6 Mn7 O10'
_cell_volume   327.43924777
_cell_formula_units_Z   1
loop_
 _symmetry_equiv_pos_site_id
 _symmetry_equiv_pos_as_xyz
  1  'x, y, z'
loop_
 _atom_site_type_symbol
 _atom_site_label
 _atom_site_symmetry_multiplicity
 _atom_site_fract_x
 _atom_site_fract_y
 _atom_site_fract_z
 _atom_site_occupancy
  Na  Na0  1  0.00046300  0.00046300  0.17435400  1
  Na  Na1  1  0.87467400  0.87467400  0.74183900  1
  Na  Na2  1  0.28354400  0.28354400  0.65065800  1
  Na  Na3  1  0.70680700  0.70680700  0.40030700  1
  Na  Na4  1  0.10807500  0.10807500  0.26111900  1
  Na  Na5  1  0.00890900  0.00890900  0.82476400  1
  Mn  Mn6  1  0.39759700  0.39759700  0.96252400  1
  Mn  Mn7  1  0.43609600  0.43609600  0.47407900  1
  Mn  Mn8  1  0.84474600  0.84474600  0.28129800  1
  Mn  Mn9  1  0.25081800  0.25081800  0.08538600  1
  Mn  Mn10  1  0.15037300  0.15037300  0.70040700  1
  Mn  Mn11  1  0.55153000  0.55153000  0.53661500  1
  Mn  Mn12  1  0.64308300  0.64308300  0.96841300  1
  O  O13  1  0.46257000  0.46257000  0.70710200  1
  O  O14  1  0.88474000  0.88474000  0.47028100  1
  O  O15  1  0.91895300  0.91895300  0.05977300  1
  O  O16  1  0.32126700  0.32126700  0.87941800  1
  O  O17  1  0.28971600  0.28971600  0.28745500  1
  O  O18  1  0.69977700  0.69977700  0.70345300  1
  O  O19  1  0.69020100  0.69020100  0.13888000  1
  O  O20  1  0.09498500  0.09498500  0.94761500  1
  O  O21  1  0.10301800  0.10301800  0.53570900  1
  O  O22  1  0.52683700  0.52683700  0.32558200  1
