# generated using pymatgen
data_Fe2Sn(PO4)3
_symmetry_space_group_name_H-M   'P 1'
_cell_length_a   8.80649743
_cell_length_b   8.80649746
_cell_length_c   8.80649772
_cell_angle_alpha   59.07005237
_cell_angle_beta   59.07005205
_cell_angle_gamma   59.07004893
_symmetry_Int_Tables_number   1
_chemical_formula_structural   Fe2Sn(PO4)3
_chemical_formula_sum   'Fe4 Sn2 P6 O24'
_cell_volume   472.70141048
_cell_formula_units_Z   2
loop_
 _symmetry_equiv_pos_site_id
 _symmetry_equiv_pos_as_xyz
  1  'x, y, z'
loop_
 _atom_site_type_symbol
 _atom_site_label
 _atom_site_symmetry_multiplicity
 _atom_site_fract_x
 _atom_site_fract_y
 _atom_site_fract_z
 _atom_site_occupancy
  Fe  Fe0  1  0.14806400  0.14806400  0.14806400  1
  Fe  Fe1  1  0.35193600  0.35193600  0.35193600  1
  Fe  Fe2  1  0.64806400  0.64806400  0.64806400  1
  Fe  Fe3  1  0.85193600  0.85193600  0.85193600  1
  Sn  Sn4  1  0.00000000  0.00000000  0.00000000  1
  Sn  Sn5  1  0.50000000  0.50000000  0.50000000  1
  P  P6  1  0.04064700  0.75000000  0.45935300  1
  P  P7  1  0.45935300  0.04064700  0.75000000  1
  P  P8  1  0.75000000  0.45935300  0.04064700  1
  P  P9  1  0.25000000  0.54064700  0.95935300  1
  P  P10  1  0.54064700  0.95935300  0.25000000  1
  P  P11  1  0.95935300  0.25000000  0.54064700  1
  O  O12  1  0.11480600  0.30532000  0.50703100  1
  O  O13  1  0.30532000  0.50703100  0.11480600  1
  O  O14  1  0.06025400  0.91660200  0.26547700  1
  O  O15  1  0.50703100  0.11480600  0.30532000  1
  O  O16  1  0.00703100  0.80532000  0.61480600  1
  O  O17  1  0.23452300  0.58339800  0.43974600  1
  O  O18  1  0.26547700  0.06025400  0.91660200  1
  O  O19  1  0.43974600  0.23452300  0.58339800  1
  O  O20  1  0.19468000  0.38519400  0.99296900  1
  O  O21  1  0.58339800  0.43974600  0.23452300  1
  O  O22  1  0.08339800  0.73452300  0.93974600  1
  O  O23  1  0.38519400  0.99296900  0.19468000  1
  O  O24  1  0.61480600  0.00703100  0.80532000  1
  O  O25  1  0.91660200  0.26547700  0.06025400  1
  O  O26  1  0.41660200  0.56025400  0.76547700  1
  O  O27  1  0.80532000  0.61480600  0.00703100  1
  O  O28  1  0.56025400  0.76547700  0.41660200  1
  O  O29  1  0.73452300  0.93974600  0.08339800  1
  O  O30  1  0.76547700  0.41660200  0.56025400  1
  O  O31  1  0.99296900  0.19468000  0.38519400  1
  O  O32  1  0.49296900  0.88519400  0.69468000  1
  O  O33  1  0.93974600  0.08339800  0.73452300  1
  O  O34  1  0.69468000  0.49296900  0.88519400  1
  O  O35  1  0.88519400  0.69468000  0.49296900  1
