# generated using pymatgen
data_Zr2(PO4)3
_symmetry_space_group_name_H-M   'P 1'
_cell_length_a   9.13053809
_cell_length_b   9.13053809
_cell_length_c   9.13053709
_cell_angle_alpha   59.77398162
_cell_angle_beta   59.77398162
_cell_angle_gamma   59.77398167
_symmetry_Int_Tables_number   1
_chemical_formula_structural   Zr2(PO4)3
_chemical_formula_sum   'Zr4 P6 O24'
_cell_volume   535.47560684
_cell_formula_units_Z   2
loop_
 _symmetry_equiv_pos_site_id
 _symmetry_equiv_pos_as_xyz
  1  'x, y, z'
loop_
 _atom_site_type_symbol
 _atom_site_label
 _atom_site_symmetry_multiplicity
 _atom_site_fract_x
 _atom_site_fract_y
 _atom_site_fract_z
 _atom_site_occupancy
  Zr  Zr0  1  0.13890600  0.13890600  0.13890600  1
  Zr  Zr1  1  0.36109400  0.36109400  0.36109400  1
  Zr  Zr2  1  0.86109400  0.86109400  0.86109400  1
  Zr  Zr3  1  0.63890600  0.63890600  0.63890600  1
  P  P4  1  0.75000000  0.03527700  0.46472300  1
  P  P5  1  0.96472300  0.53527700  0.25000000  1
  P  P6  1  0.53527700  0.25000000  0.96472300  1
  P  P7  1  0.46472300  0.75000000  0.03527700  1
  P  P8  1  0.03527700  0.46472300  0.75000000  1
  P  P9  1  0.25000000  0.96472300  0.53527700  1
  O  O10  1  0.91179400  0.06053500  0.28933900  1
  O  O11  1  0.79333900  0.99958700  0.62457700  1
  O  O12  1  0.71066100  0.08820600  0.93946500  1
  O  O13  1  0.00041300  0.37542300  0.20666100  1
  O  O14  1  0.87542300  0.50041300  0.70666100  1
  O  O15  1  0.58820600  0.21066100  0.43946500  1
  O  O16  1  0.78933900  0.56053500  0.41179400  1
  O  O17  1  0.93946500  0.71066100  0.08820600  1
  O  O18  1  0.49958700  0.29333900  0.12457700  1
  O  O19  1  0.37542300  0.20666100  0.00041300  1
  O  O20  1  0.29333900  0.12457700  0.49958700  1
  O  O21  1  0.56053500  0.41179400  0.78933900  1
  O  O22  1  0.43946500  0.58820600  0.21066100  1
  O  O23  1  0.70666100  0.87542300  0.50041300  1
  O  O24  1  0.62457700  0.79333900  0.99958700  1
  O  O25  1  0.50041300  0.70666100  0.87542300  1
  O  O26  1  0.06053500  0.28933900  0.91179400  1
  O  O27  1  0.21066100  0.43946500  0.58820600  1
  O  O28  1  0.41179400  0.78933900  0.56053500  1
  O  O29  1  0.12457700  0.49958700  0.29333900  1
  O  O30  1  0.99958700  0.62457700  0.79333900  1
  O  O31  1  0.28933900  0.91179400  0.06053500  1
  O  O32  1  0.20666100  0.00041300  0.37542300  1
  O  O33  1  0.08820600  0.93946500  0.71066100  1
