# generated using pymatgen
data_Yb5Mg
_symmetry_space_group_name_H-M   'P 1'
_cell_length_a   9.80766024
_cell_length_b   9.80766024
_cell_length_c   6.08778700
_cell_angle_alpha   90.00000000
_cell_angle_beta   90.00000000
_cell_angle_gamma   157.69760637
_symmetry_Int_Tables_number   1
_chemical_formula_structural   Yb5Mg
_chemical_formula_sum   'Yb5 Mg1'
_cell_volume   222.22663795
_cell_formula_units_Z   1
loop_
 _symmetry_equiv_pos_site_id
 _symmetry_equiv_pos_as_xyz
  1  'x, y, z'
loop_
 _atom_site_type_symbol
 _atom_site_label
 _atom_site_symmetry_multiplicity
 _atom_site_fract_x
 _atom_site_fract_y
 _atom_site_fract_z
 _atom_site_occupancy
  Yb  Yb0  1  0.99838300  0.00161700  0.00000000  1
  Yb  Yb1  1  0.32758600  0.67241400  0.00000000  1
  Yb  Yb2  1  0.66754400  0.33245600  0.00000000  1
  Yb  Yb3  1  0.43804200  0.56195800  0.50000000  1
  Yb  Yb4  1  0.12112300  0.87887700  0.50000000  1
  Mg  Mg5  1  0.78065400  0.21934600  0.50000000  1
