# generated using pymatgen
data_Ti2Cr3Sb3O16
_symmetry_space_group_name_H-M   'P 1'
_cell_length_a   6.09588353
_cell_length_b   6.09588353
_cell_length_c   9.10620891
_cell_angle_alpha   89.62686345
_cell_angle_beta   89.62686345
_cell_angle_gamma   60.16578013
_symmetry_Int_Tables_number   1
_chemical_formula_structural   Ti2Cr3Sb3O16
_chemical_formula_sum   'Ti2 Cr3 Sb3 O16'
_cell_volume   293.52989149
_cell_formula_units_Z   1
loop_
 _symmetry_equiv_pos_site_id
 _symmetry_equiv_pos_as_xyz
  1  'x, y, z'
loop_
 _atom_site_type_symbol
 _atom_site_label
 _atom_site_symmetry_multiplicity
 _atom_site_fract_x
 _atom_site_fract_y
 _atom_site_fract_z
 _atom_site_occupancy
  Ti  Ti0  1  0.64964700  0.64964700  0.52359100  1
  Ti  Ti1  1  0.32234300  0.32234300  0.99427300  1
  Cr  Cr2  1  0.33674300  0.83261700  0.79095300  1
  Cr  Cr3  1  0.83261700  0.33674300  0.79095300  1
  Cr  Cr4  1  0.17149400  0.17149400  0.28997900  1
  Sb  Sb5  1  0.83299200  0.83299200  0.78933500  1
  Sb  Sb6  1  0.66702800  0.17089600  0.28763400  1
  Sb  Sb7  1  0.17089600  0.66702800  0.28763400  1
  O  O8  1  0.33659200  0.82828200  0.39970000  1
  O  O9  1  0.52270100  0.52270100  0.66104700  1
  O  O10  1  0.66854200  0.66854200  0.89880400  1
  O  O11  1  0.99974900  0.99974900  0.68911200  1
  O  O12  1  0.00356400  0.00356400  0.17989100  1
  O  O13  1  0.82828200  0.33659200  0.39970000  1
  O  O14  1  0.52564200  0.94877700  0.65572800  1
  O  O15  1  0.94877700  0.52564200  0.65572800  1
  O  O16  1  0.17222300  0.17222300  0.90004400  1
  O  O17  1  0.83565900  0.83565900  0.39840000  1
  O  O18  1  0.05265700  0.47875600  0.16142700  1
  O  O19  1  0.47875600  0.05265700  0.16142700  1
  O  O20  1  0.33575200  0.33575200  0.40591000  1
  O  O21  1  0.16836700  0.65526700  0.90171800  1
  O  O22  1  0.48352300  0.48352300  0.15955300  1
  O  O23  1  0.65526700  0.16836700  0.90171800  1
