# generated using pymatgen
data_NaNiPO4
_symmetry_space_group_name_H-M   'P 1'
_cell_length_a   4.97724300
_cell_length_b   10.24772400
_cell_length_c   6.18648600
_cell_angle_alpha   89.99988852
_cell_angle_beta   90.00002077
_cell_angle_gamma   89.99980135
_symmetry_Int_Tables_number   1
_chemical_formula_structural   NaNiPO4
_chemical_formula_sum   'Na4 Ni4 P4 O16'
_cell_volume   315.54427063
_cell_formula_units_Z   4
loop_
 _symmetry_equiv_pos_site_id
 _symmetry_equiv_pos_as_xyz
  1  'x, y, z'
loop_
 _atom_site_type_symbol
 _atom_site_label
 _atom_site_symmetry_multiplicity
 _atom_site_fract_x
 _atom_site_fract_y
 _atom_site_fract_z
 _atom_site_occupancy
  Na  Na0  1  0.99998800  0.99999900  0.00000000  1
  Na  Na1  1  0.99998800  0.99999900  0.50000000  1
  Na  Na2  1  0.50001600  0.50000000  0.00000400  1
  Na  Na3  1  0.50001700  0.50000000  0.49999600  1
  Ni  Ni4  1  0.99054600  0.28051600  0.25000700  1
  Ni  Ni5  1  0.50947000  0.78052400  0.25000500  1
  Ni  Ni6  1  0.49045500  0.21949600  0.74999400  1
  Ni  Ni7  1  0.00952000  0.71948800  0.74999400  1
  P  P8  1  0.43761500  0.10749600  0.24999900  1
  P  P9  1  0.93760700  0.39250300  0.75000200  1
  P  P10  1  0.06239600  0.60749400  0.24999900  1
  P  P11  1  0.56238300  0.89250500  0.75000100  1
  O  O12  1  0.65714100  0.03715900  0.74999800  1
  O  O13  1  0.15719000  0.46284400  0.25000100  1
  O  O14  1  0.84283500  0.53715400  0.74999900  1
  O  O15  1  0.34282200  0.96284800  0.25000100  1
  O  O16  1  0.74618800  0.11585100  0.25000200  1
  O  O17  1  0.24618700  0.38415200  0.74999800  1
  O  O18  1  0.75382200  0.61585100  0.25000100  1
  O  O19  1  0.25380700  0.88414400  0.74999800  1
  O  O20  1  0.30086300  0.17793800  0.05214900  1
  O  O21  1  0.30086200  0.17793900  0.44784600  1
  O  O22  1  0.80087500  0.32205600  0.55215000  1
  O  O23  1  0.80087700  0.32205600  0.94785500  1
  O  O24  1  0.19913800  0.67793800  0.05214700  1
  O  O25  1  0.19914000  0.67793700  0.44785000  1
  O  O26  1  0.69912600  0.82205800  0.55215300  1
  O  O27  1  0.69912400  0.82205900  0.94785100  1
