# generated using pymatgen
data_Na4Co2C4SO16
_symmetry_space_group_name_H-M   'P 1'
_cell_length_a   9.97822673
_cell_length_b   9.95585090
_cell_length_c   9.82554081
_cell_angle_alpha   60.58211172
_cell_angle_beta   60.35505331
_cell_angle_gamma   59.06283498
_symmetry_Int_Tables_number   1
_chemical_formula_structural   Na4Co2C4SO16
_chemical_formula_sum   'Na8 Co4 C8 S2 O32'
_cell_volume   689.91726211
_cell_formula_units_Z   2
loop_
 _symmetry_equiv_pos_site_id
 _symmetry_equiv_pos_as_xyz
  1  'x, y, z'
loop_
 _atom_site_type_symbol
 _atom_site_label
 _atom_site_symmetry_multiplicity
 _atom_site_fract_x
 _atom_site_fract_y
 _atom_site_fract_z
 _atom_site_occupancy
  Na  Na0  1  0.28727000  0.71273000  0.28727000  1
  Na  Na1  1  0.96225200  0.53774800  0.53774800  1
  Na  Na2  1  0.53774800  0.96225200  0.96225200  1
  Na  Na3  1  0.53727000  0.96273000  0.53727000  1
  Na  Na4  1  0.71273000  0.28727000  0.71273000  1
  Na  Na5  1  0.71225200  0.28774800  0.28774800  1
  Na  Na6  1  0.28774800  0.71225200  0.71225200  1
  Na  Na7  1  0.96273000  0.53727000  0.96273000  1
  Co  Co8  1  0.12500000  0.12500000  0.62500000  1
  Co  Co9  1  0.12500000  0.62500000  0.12500000  1
  Co  Co10  1  0.12500000  0.12500000  0.12500000  1
  Co  Co11  1  0.62500000  0.12500000  0.12500000  1
  C  C12  1  0.26507000  0.90725200  0.91276400  1
  C  C13  1  0.91491500  0.91276400  0.90725200  1
  C  C14  1  0.91276400  0.91491500  0.26507000  1
  C  C15  1  0.90725200  0.26507000  0.91491500  1
  C  C16  1  0.34274800  0.98493000  0.33508500  1
  C  C17  1  0.33723600  0.33508500  0.98493000  1
  C  C18  1  0.33508500  0.33723600  0.34274800  1
  C  C19  1  0.98493000  0.34274800  0.33723600  1
  S  S20  1  0.50000000  0.50000000  0.50000000  1
  S  S21  1  0.75000000  0.75000000  0.75000000  1
  O  O22  1  0.21941200  0.30797900  0.48141700  1
  O  O23  1  0.99119200  0.48141700  0.30797900  1
  O  O24  1  0.27318700  0.93240900  0.02598300  1
  O  O25  1  0.27168200  0.01645800  0.76802500  1
  O  O26  1  0.02598300  0.76842000  0.27318700  1
  O  O27  1  0.56664900  0.31514400  0.55958300  1
  O  O28  1  0.94383400  0.76802500  0.01645800  1
  O  O29  1  0.55958300  0.55862300  0.56664900  1
  O  O30  1  0.55862300  0.55958300  0.31514400  1
  O  O31  1  0.94202100  0.03058800  0.25880800  1
  O  O32  1  0.76802500  0.94383400  0.27168200  1
  O  O33  1  0.31514400  0.56664900  0.55862300  1
  O  O34  1  0.76842000  0.02598300  0.93240900  1
  O  O35  1  0.01645800  0.27168200  0.94383400  1
  O  O36  1  0.93240900  0.27318700  0.76842000  1
  O  O37  1  0.76858300  0.25880800  0.03058800  1
  O  O38  1  0.48141700  0.99119200  0.21941200  1
  O  O39  1  0.31759100  0.97681300  0.48158000  1
  O  O40  1  0.23354200  0.97831800  0.30616600  1
  O  O41  1  0.48158000  0.22401700  0.31759100  1
  O  O42  1  0.93485600  0.68335100  0.69137700  1
  O  O43  1  0.48197500  0.30616600  0.97831800  1
  O  O44  1  0.30797900  0.21941200  0.99119200  1
  O  O45  1  0.69137700  0.69041700  0.93485600  1
  O  O46  1  0.69041700  0.69137700  0.68335100  1
  O  O47  1  0.30616600  0.48197500  0.23354200  1
  O  O48  1  0.68335100  0.93485600  0.69041700  1
  O  O49  1  0.22401700  0.48158000  0.97681300  1
  O  O50  1  0.97831800  0.23354200  0.48197500  1
  O  O51  1  0.97681300  0.31759100  0.22401700  1
  O  O52  1  0.25880800  0.76858300  0.94202100  1
  O  O53  1  0.03058800  0.94202100  0.76858300  1
