# generated using pymatgen
data_Li4MnV3(P2O7)4
_symmetry_space_group_name_H-M   'P 1'
_cell_length_a   9.60425147
_cell_length_b   9.64822939
_cell_length_c   7.05813807
_cell_angle_alpha   99.93165927
_cell_angle_beta   98.82486853
_cell_angle_gamma   119.12948515
_symmetry_Int_Tables_number   1
_chemical_formula_structural   Li4MnV3(P2O7)4
_chemical_formula_sum   'Li4 Mn1 V3 P8 O28'
_cell_volume   540.91405449
_cell_formula_units_Z   1
loop_
 _symmetry_equiv_pos_site_id
 _symmetry_equiv_pos_as_xyz
  1  'x, y, z'
loop_
 _atom_site_type_symbol
 _atom_site_label
 _atom_site_symmetry_multiplicity
 _atom_site_fract_x
 _atom_site_fract_y
 _atom_site_fract_z
 _atom_site_occupancy
  Li  Li0  1  0.15893000  0.01960500  0.67504500  1
  Li  Li1  1  0.73063400  0.09023800  0.32680000  1
  Li  Li2  1  0.23285000  0.59275200  0.32802600  1
  Li  Li3  1  0.65568000  0.51661000  0.67141700  1
  Mn  Mn4  1  0.39319300  0.39175700  0.26711400  1
  V  V5  1  0.85664100  0.35611900  0.72698900  1
  V  V6  1  0.35794400  0.85716500  0.72770100  1
  V  V7  1  0.89345500  0.89305200  0.27247100  1
  P  P8  1  0.11138800  0.29058100  0.52230900  1
  P  P9  1  0.75125500  0.03539600  0.91443900  1
  P  P10  1  0.24928400  0.53768700  0.91221600  1
  P  P11  1  0.46017800  0.14139200  0.48214700  1
  P  P12  1  0.61081100  0.78899800  0.52227200  1
  P  P13  1  0.71479800  0.49904800  0.08738100  1
  P  P14  1  0.21677600  0.00017600  0.08868900  1
  P  P15  1  0.95964400  0.64062800  0.47753900  1
  O  O16  1  0.07511400  0.11308500  0.48355100  1
  O  O17  1  0.35831200  0.03365700  0.60446200  1
  O  O18  1  0.58310000  0.01591800  0.91628000  1
  O  O19  1  0.08022500  0.51763700  0.90966400  1
  O  O20  1  0.22095800  0.37563400  0.75310400  1
  O  O21  1  0.37686200  0.03237000  0.24922600  1
  O  O22  1  0.23445700  0.16720500  0.08564300  1
  O  O23  1  0.21246600  0.38832500  0.39152900  1
  O  O24  1  0.45536700  0.29820400  0.50477700  1
  O  O25  1  0.13685200  0.67600500  0.51510500  1
  O  O26  1  0.63680800  0.17411100  0.51782400  1
  O  O27  1  0.86174500  0.18734900  0.85247000  1
  O  O28  1  0.35954400  0.68583000  0.84373300  1
  O  O29  1  0.21960600  0.91459100  0.88803100  1
  O  O30  1  0.72141200  0.41768400  0.88726500  1
  O  O31  1  0.33196300  0.53866300  0.11383500  1
  O  O32  1  0.83375300  0.03074800  0.11353800  1
  O  O33  1  0.06399400  0.88896700  0.15027300  1
  O  O34  1  0.55914500  0.38321900  0.14287100  1
  O  O35  1  0.57544300  0.61146600  0.47968600  1
  O  O36  1  0.45367000  0.79512300  0.50724200  1
  O  O37  1  0.95273800  0.29465900  0.50631700  1
  O  O38  1  0.85903400  0.53688700  0.60373400  1
  O  O39  1  0.72252400  0.87444800  0.75212900  1
  O  O40  1  0.87451600  0.52827700  0.24709600  1
  O  O41  1  0.73250200  0.66612000  0.08851900  1
  O  O42  1  0.71429400  0.89015200  0.39604400  1
  O  O43  1  0.95456000  0.79805100  0.49349600  1
