# generated using pymatgen
data_Zr2N2O
_symmetry_space_group_name_H-M   'P 1'
_cell_length_a   8.89195700
_cell_length_b   8.87132013
_cell_length_c   8.85125470
_cell_angle_alpha   109.32674432
_cell_angle_beta   109.33020771
_cell_angle_gamma   109.58615696
_symmetry_Int_Tables_number   1
_chemical_formula_structural   Zr2N2O
_chemical_formula_sum   'Zr16 N16 O8'
_cell_volume   538.61336134
_cell_formula_units_Z   8
loop_
 _symmetry_equiv_pos_site_id
 _symmetry_equiv_pos_as_xyz
  1  'x, y, z'
loop_
 _atom_site_type_symbol
 _atom_site_label
 _atom_site_symmetry_multiplicity
 _atom_site_fract_x
 _atom_site_fract_y
 _atom_site_fract_z
 _atom_site_occupancy
  Zr  Zr0  1  0.50013000  0.99984500  0.98765100  1
  Zr  Zr1  1  0.74841100  0.29305400  0.53515900  1
  Zr  Zr2  1  0.21642800  0.96153600  0.24876300  1
  Zr  Zr3  1  0.71910500  0.47122000  0.24766400  1
  Zr  Zr4  1  0.24244600  0.21092300  0.95377900  1
  Zr  Zr5  1  0.01022900  0.51023500  0.00639600  1
  Zr  Zr6  1  0.53504700  0.74954500  0.29374700  1
  Zr  Zr7  1  0.99711000  0.99671400  0.50543000  1
  Zr  Zr8  1  0.50224500  0.49974900  0.50959900  1
  Zr  Zr9  1  0.97047600  0.25938800  0.21284300  1
  Zr  Zr10  1  0.46140100  0.25659300  0.71798800  1
  Zr  Zr11  1  0.02868900  0.73923100  0.77749000  1
  Zr  Zr12  1  0.75243600  0.78279000  0.03418800  1
  Zr  Zr13  1  0.78979400  0.03379300  0.76023100  1
  Zr  Zr14  1  0.28113800  0.53417100  0.74575100  1
  Zr  Zr15  1  0.25172400  0.70662400  0.46624800  1
  N  N16  1  0.72835200  0.99044300  0.95994000  1
  N  N17  1  0.51363000  0.23766400  0.96747900  1
  N  N18  1  0.77026900  0.54225700  0.52802500  1
  N  N19  1  0.76932200  0.73080700  0.26247100  1
  N  N20  1  0.46414100  0.22448700  0.45528600  1
  N  N21  1  0.04929400  0.27555400  0.01393200  1
  N  N22  1  0.95751700  0.73189000  0.99105100  1
  N  N23  1  0.96396000  0.50832500  0.23795400  1
  N  N24  1  0.27542400  0.74249000  0.22642300  1
  N  N25  1  0.53705300  0.77247800  0.54307700  1
  N  N26  1  0.22742500  0.45238100  0.46606500  1
  N  N27  1  0.54600900  0.53444500  0.77589300  1
  N  N28  1  0.98808600  0.95521200  0.72634200  1
  N  N29  1  0.22527700  0.26748400  0.73428200  1
  N  N30  1  0.03015200  0.48400700  0.75818600  1
  N  N31  1  0.26660500  0.77880100  0.73051100  1
  O  O32  1  0.76426500  0.03791700  0.48809300  1
  O  O33  1  0.27495000  0.01205400  0.04759500  1
  O  O34  1  0.73526400  0.22040000  0.27492300  1
  O  O35  1  0.45097500  0.46698200  0.22382400  1
  O  O36  1  0.22749400  0.96089100  0.50372100  1
  O  O37  1  0.72581400  0.25570200  0.76790100  1
  O  O38  1  0.01434600  0.04747900  0.27725500  1
  O  O39  1  0.48756800  0.76444300  0.03684200  1
