# generated using pymatgen
data_TiFe3Sb2(PO4)6
_symmetry_space_group_name_H-M   'P 1'
_cell_length_a   8.90544656
_cell_length_b   8.90544656
_cell_length_c   8.90544704
_cell_angle_alpha   58.80269738
_cell_angle_beta   58.80269738
_cell_angle_gamma   58.80270075
_symmetry_Int_Tables_number   1
_chemical_formula_structural   TiFe3Sb2(PO4)6
_chemical_formula_sum   'Ti1 Fe3 Sb2 P6 O24'
_cell_volume   485.74930168
_cell_formula_units_Z   1
loop_
 _symmetry_equiv_pos_site_id
 _symmetry_equiv_pos_as_xyz
  1  'x, y, z'
loop_
 _atom_site_type_symbol
 _atom_site_label
 _atom_site_symmetry_multiplicity
 _atom_site_fract_x
 _atom_site_fract_y
 _atom_site_fract_z
 _atom_site_occupancy
  Ti  Ti0  1  0.14521100  0.14521100  0.14521100  1
  Fe  Fe1  1  0.84400700  0.84400700  0.84400700  1
  Fe  Fe2  1  0.64905000  0.64905000  0.64905000  1
  Fe  Fe3  1  0.35193500  0.35193500  0.35193500  1
  Sb  Sb4  1  0.98591500  0.98591500  0.98591500  1
  Sb  Sb5  1  0.49908600  0.49908600  0.49908600  1
  P  P6  1  0.04736500  0.75109700  0.45378800  1
  P  P7  1  0.75109700  0.45378800  0.04736500  1
  P  P8  1  0.45378800  0.04736500  0.75109700  1
  P  P9  1  0.53923100  0.96448300  0.24813500  1
  P  P10  1  0.24813500  0.53923100  0.96448300  1
  P  P11  1  0.96448300  0.24813500  0.53923100  1
  O  O12  1  0.47327200  0.89513700  0.70558500  1
  O  O13  1  0.89513700  0.70558500  0.47327200  1
  O  O14  1  0.73397000  0.94173200  0.07780000  1
  O  O15  1  0.70558500  0.47327200  0.89513700  1
  O  O16  1  0.38462700  0.01541100  0.18190500  1
  O  O17  1  0.55528000  0.77195700  0.40663800  1
  O  O18  1  0.07780000  0.73397000  0.94173200  1
  O  O19  1  0.40663800  0.55528000  0.77195700  1
  O  O20  1  0.01069400  0.79883600  0.61534600  1
  O  O21  1  0.77195700  0.40663800  0.55528000  1
  O  O22  1  0.08014100  0.91853500  0.26625300  1
  O  O23  1  0.79883600  0.61534600  0.01069400  1
  O  O24  1  0.18190500  0.38462700  0.01541100  1
  O  O25  1  0.94173200  0.07780000  0.73397000  1
  O  O26  1  0.23926400  0.58317000  0.43574500  1
  O  O27  1  0.01541100  0.18190500  0.38462700  1
  O  O28  1  0.58317000  0.43574500  0.23926400  1
  O  O29  1  0.91853500  0.26625300  0.08014100  1
  O  O30  1  0.43574500  0.23926400  0.58317000  1
  O  O31  1  0.61534600  0.01069400  0.79883600  1
  O  O32  1  0.30158000  0.51109600  0.11672400  1
  O  O33  1  0.26625300  0.08014100  0.91853500  1
  O  O34  1  0.11672400  0.30158000  0.51109600  1
  O  O35  1  0.51109600  0.11672400  0.30158000  1
