# generated using pymatgen
data_Mn3NiO8
_symmetry_space_group_name_H-M   'P 1'
_cell_length_a   8.14197000
_cell_length_b   8.14197000
_cell_length_c   8.14197000
_cell_angle_alpha   90.00000000
_cell_angle_beta   90.00000000
_cell_angle_gamma   90.00000000
_symmetry_Int_Tables_number   1
_chemical_formula_structural   Mn3NiO8
_chemical_formula_sum   'Mn12 Ni4 O32'
_cell_volume   539.74483302
_cell_formula_units_Z   4
loop_
 _symmetry_equiv_pos_site_id
 _symmetry_equiv_pos_as_xyz
  1  'x, y, z'
loop_
 _atom_site_type_symbol
 _atom_site_label
 _atom_site_symmetry_multiplicity
 _atom_site_fract_x
 _atom_site_fract_y
 _atom_site_fract_z
 _atom_site_occupancy
  Mn  Mn0  1  0.12808000  0.12192000  0.62500000  1
  Mn  Mn1  1  0.12500000  0.37192000  0.87808000  1
  Mn  Mn2  1  0.12192000  0.62500000  0.12808000  1
  Mn  Mn3  1  0.37808000  0.37500000  0.62808000  1
  Mn  Mn4  1  0.37500000  0.62808000  0.37808000  1
  Mn  Mn5  1  0.37192000  0.87808000  0.12500000  1
  Mn  Mn6  1  0.62808000  0.37808000  0.37500000  1
  Mn  Mn7  1  0.62500000  0.12808000  0.12192000  1
  Mn  Mn8  1  0.62192000  0.87500000  0.87192000  1
  Mn  Mn9  1  0.87808000  0.12500000  0.37192000  1
  Mn  Mn10  1  0.87500000  0.87192000  0.62192000  1
  Mn  Mn11  1  0.87192000  0.62192000  0.87500000  1
  Ni  Ni12  1  0.12500000  0.87500000  0.37500000  1
  Ni  Ni13  1  0.37500000  0.12500000  0.87500000  1
  Ni  Ni14  1  0.62500000  0.62500000  0.62500000  1
  Ni  Ni15  1  0.87500000  0.37500000  0.12500000  1
  O  O16  1  0.11452500  0.10773800  0.38795200  1
  O  O17  1  0.11204800  0.88547500  0.60773800  1
  O  O18  1  0.10964700  0.60964700  0.89035300  1
  O  O19  1  0.10773800  0.38795200  0.11452500  1
  O  O20  1  0.14226200  0.13547500  0.86204800  1
  O  O21  1  0.14035300  0.35964700  0.64035300  1
  O  O22  1  0.13795200  0.64226200  0.36452500  1
  O  O23  1  0.13547500  0.86204800  0.14226200  1
  O  O24  1  0.36452500  0.13795200  0.64226200  1
  O  O25  1  0.36204800  0.35773800  0.86452500  1
  O  O26  1  0.35964700  0.64035300  0.14035300  1
  O  O27  1  0.35773800  0.86452500  0.36204800  1
  O  O28  1  0.39226200  0.61204800  0.61452500  1
  O  O29  1  0.39035300  0.39035300  0.39035300  1
  O  O30  1  0.38795200  0.11452500  0.10773800  1
  O  O31  1  0.38547500  0.89226200  0.88795200  1
  O  O32  1  0.61452500  0.39226200  0.61204800  1
  O  O33  1  0.61204800  0.61452500  0.39226200  1
  O  O34  1  0.60964700  0.89035300  0.10964700  1
  O  O35  1  0.60773800  0.11204800  0.88547500  1
  O  O36  1  0.64226200  0.36452500  0.13795200  1
  O  O37  1  0.64035300  0.14035300  0.35964700  1
  O  O38  1  0.63795200  0.85773800  0.63547500  1
  O  O39  1  0.63547500  0.63795200  0.85773800  1
  O  O40  1  0.86452500  0.36204800  0.35773800  1
  O  O41  1  0.86204800  0.14226200  0.13547500  1
  O  O42  1  0.85964700  0.85964700  0.85964700  1
  O  O43  1  0.85773800  0.63547500  0.63795200  1
  O  O44  1  0.89226200  0.88795200  0.38547500  1
  O  O45  1  0.89035300  0.10964700  0.60964700  1
  O  O46  1  0.88795200  0.38547500  0.89226200  1
  O  O47  1  0.88547500  0.60773800  0.11204800  1
