# generated using pymatgen
data_V5CuO12
_symmetry_space_group_name_H-M   'P 1'
_cell_length_a   6.77273970
_cell_length_b   6.76721463
_cell_length_c   11.84312723
_cell_angle_alpha   75.32715537
_cell_angle_beta   104.74868699
_cell_angle_gamma   96.17115169
_symmetry_Int_Tables_number   1
_chemical_formula_structural   V5CuO12
_chemical_formula_sum   'V10 Cu2 O24'
_cell_volume   507.26110799
_cell_formula_units_Z   2
loop_
 _symmetry_equiv_pos_site_id
 _symmetry_equiv_pos_as_xyz
  1  'x, y, z'
loop_
 _atom_site_type_symbol
 _atom_site_label
 _atom_site_symmetry_multiplicity
 _atom_site_fract_x
 _atom_site_fract_y
 _atom_site_fract_z
 _atom_site_occupancy
  V  V0  1  0.91795800  0.91841600  0.62465300  1
  V  V1  1  0.20275000  0.61322300  0.37515600  1
  V  V2  1  0.61294700  0.20246600  0.87482800  1
  V  V3  1  0.39064900  0.78682900  0.63171600  1
  V  V4  1  0.78576200  0.39040700  0.61871400  1
  V  V5  1  0.91965500  0.91970800  0.12492400  1
  V  V6  1  0.20247000  0.61659400  0.87441600  1
  V  V7  1  0.61683700  0.20231200  0.37534300  1
  V  V8  1  0.39138300  0.78827900  0.13190800  1
  V  V9  1  0.78817800  0.39133100  0.11814400  1
  Cu  Cu10  1  0.09761300  0.09075500  0.37778900  1
  Cu  Cu11  1  0.09040500  0.09680900  0.87180100  1
  O  O12  1  0.03915800  0.81377100  0.31134900  1
  O  O13  1  0.03500800  0.81527000  0.80643500  1
  O  O14  1  0.81548300  0.03474400  0.44362900  1
  O  O15  1  0.81337900  0.03892700  0.93862500  1
  O  O16  1  0.07928100  0.38401900  0.38009200  1
  O  O17  1  0.07978500  0.38773400  0.88179200  1
  O  O18  1  0.38810400  0.07970700  0.36802600  1
  O  O19  1  0.38402300  0.07893200  0.86981000  1
  O  O20  1  0.19997900  0.95916200  0.08770200  1
  O  O21  1  0.20181900  0.95980800  0.58462200  1
  O  O22  1  0.95927100  0.20004500  0.16223600  1
  O  O23  1  0.95919400  0.20157300  0.66559400  1
  O  O24  1  0.37441100  0.63717400  0.27615300  1
  O  O25  1  0.37466200  0.63721400  0.77722500  1
  O  O26  1  0.63771600  0.37425200  0.47289200  1
  O  O27  1  0.63705300  0.37438000  0.97383000  1
  O  O28  1  0.33787500  0.63325700  0.02579300  1
  O  O29  1  0.33936400  0.62978500  0.52589100  1
  O  O30  1  0.63328800  0.33793700  0.22409800  1
  O  O31  1  0.62873400  0.33938100  0.72390200  1
  O  O32  1  0.63131000  0.90255900  0.14139300  1
  O  O33  1  0.62806100  0.90415700  0.64056100  1
  O  O34  1  0.90252100  0.63131400  0.10867600  1
  O  O35  1  0.90392000  0.62777400  0.61028500  1
