# generated using pymatgen
data_Fe6OF11
_symmetry_space_group_name_H-M   'P 1'
_cell_length_a   10.75082743
_cell_length_b   10.75082743
_cell_length_c   3.18353100
_cell_angle_alpha   90.00000000
_cell_angle_beta   90.00000000
_cell_angle_gamma   142.72599701
_symmetry_Int_Tables_number   1
_chemical_formula_structural   Fe6OF11
_chemical_formula_sum   'Fe6 O1 F11'
_cell_volume   222.84268538
_cell_formula_units_Z   1
loop_
 _symmetry_equiv_pos_site_id
 _symmetry_equiv_pos_as_xyz
  1  'x, y, z'
loop_
 _atom_site_type_symbol
 _atom_site_label
 _atom_site_symmetry_multiplicity
 _atom_site_fract_x
 _atom_site_fract_y
 _atom_site_fract_z
 _atom_site_occupancy
  Fe  Fe0  1  0.00236100  0.99763900  0.00000000  1
  Fe  Fe1  1  0.49567500  0.50432500  0.50000000  1
  Fe  Fe2  1  0.66567100  0.33432900  0.00000000  1
  Fe  Fe3  1  0.83454900  0.16545100  0.50000000  1
  Fe  Fe4  1  0.17064400  0.82935600  0.50000000  1
  Fe  Fe5  1  0.34145900  0.65854100  0.00000000  1
  O  O6  1  0.39640700  0.60359300  0.50000000  1
  F  F7  1  0.70423500  0.69774700  0.00000000  1
  F  F8  1  0.97079400  0.62856900  0.00000000  1
  F  F9  1  0.30225300  0.29576500  0.00000000  1
  F  F10  1  0.59898100  0.40101900  0.50000000  1
  F  F11  1  0.73481900  0.26518100  0.50000000  1
  F  F12  1  0.07110200  0.92889800  0.50000000  1
  F  F13  1  0.37143100  0.02920600  0.00000000  1
  F  F14  1  0.62523000  0.95846500  0.00000000  1
  F  F15  1  0.93368200  0.06631800  0.50000000  1
  F  F16  1  0.27543600  0.72456400  0.50000000  1
  F  F17  1  0.04153500  0.37477000  0.00000000  1
