# generated using pymatgen
data_Li4V2Fe3Sb3O16
_symmetry_space_group_name_H-M   'P 1'
_cell_length_a   6.13542500
_cell_length_b   6.14400535
_cell_length_c   9.77365277
_cell_angle_alpha   90.18595863
_cell_angle_beta   91.11186078
_cell_angle_gamma   119.19892789
_symmetry_Int_Tables_number   1
_chemical_formula_structural   Li4V2Fe3Sb3O16
_chemical_formula_sum   'Li4 V2 Fe3 Sb3 O16'
_cell_volume   321.51801576
_cell_formula_units_Z   1
loop_
 _symmetry_equiv_pos_site_id
 _symmetry_equiv_pos_as_xyz
  1  'x, y, z'
loop_
 _atom_site_type_symbol
 _atom_site_label
 _atom_site_symmetry_multiplicity
 _atom_site_fract_x
 _atom_site_fract_y
 _atom_site_fract_z
 _atom_site_occupancy
  Li  Li0  1  0.32619000  0.65978500  0.88287200  1
  Li  Li1  1  0.97320500  0.98767600  0.98773400  1
  Li  Li2  1  0.98425100  0.99053500  0.50326100  1
  Li  Li3  1  0.64909800  0.32397700  0.40126900  1
  V  V4  1  0.34904400  0.67950800  0.49903100  1
  V  V5  1  0.69427500  0.34480300  0.97585100  1
  Fe  Fe6  1  0.66460600  0.83212000  0.21484400  1
  Fe  Fe7  1  0.83435500  0.66420400  0.71212900  1
  Fe  Fe8  1  0.83302800  0.17135500  0.71294600  1
  Sb  Sb9  1  0.16999900  0.83283100  0.21390200  1
  Sb  Sb10  1  0.17060600  0.33902600  0.21488400  1
  Sb  Sb11  1  0.34294400  0.17073800  0.71413200  1
  O  O12  1  0.18016200  0.85250500  0.59736300  1
  O  O13  1  0.03542700  0.52186900  0.33742700  1
  O  O14  1  0.31479900  0.65570300  0.10064300  1
  O  O15  1  0.01830500  0.01187100  0.31767000  1
  O  O16  1  0.01603000  0.01679000  0.80740500  1
  O  O17  1  0.17145600  0.33051800  0.60049500  1
  O  O18  1  0.46808100  0.96018000  0.33752400  1
  O  O19  1  0.46587900  0.50490000  0.33947400  1
  O  O20  1  0.31747700  0.15716600  0.10270500  1
  O  O21  1  0.66970600  0.84258800  0.59547900  1
  O  O22  1  0.50555700  0.46095500  0.85006000  1
  O  O23  1  0.52003600  0.03506300  0.83983000  1
  O  O24  1  0.65358800  0.31879300  0.60281500  1
  O  O25  1  0.85806900  0.68705700  0.10070900  1
  O  O26  1  0.95767000  0.46889500  0.84419200  1
  O  O27  1  0.85615700  0.17889000  0.10119300  1
