# generated using pymatgen
data_Y2O3
_symmetry_space_group_name_H-M   'P 1'
_cell_length_a   3.42010700
_cell_length_b   9.20334600
_cell_length_c   9.35969418
_cell_angle_alpha   73.41405737
_cell_angle_beta   90.00000000
_cell_angle_gamma   90.00000000
_symmetry_Int_Tables_number   1
_chemical_formula_structural   Y2O3
_chemical_formula_sum   'Y8 O12'
_cell_volume   282.35180668
_cell_formula_units_Z   4
loop_
 _symmetry_equiv_pos_site_id
 _symmetry_equiv_pos_as_xyz
  1  'x, y, z'
loop_
 _atom_site_type_symbol
 _atom_site_label
 _atom_site_symmetry_multiplicity
 _atom_site_fract_x
 _atom_site_fract_y
 _atom_site_fract_z
 _atom_site_occupancy
  Y  Y0  1  0.25000000  0.81970800  0.01180900  1
  Y  Y1  1  0.25000000  0.45145300  0.18400100  1
  Y  Y2  1  0.25000000  0.06086400  0.32908900  1
  Y  Y3  1  0.75000000  0.66585800  0.41301500  1
  Y  Y4  1  0.25000000  0.33414200  0.58698500  1
  Y  Y5  1  0.75000000  0.93913600  0.67091100  1
  Y  Y6  1  0.75000000  0.54854700  0.81599900  1
  Y  Y7  1  0.75000000  0.18029200  0.98819100  1
  O  O8  1  0.25000000  0.03624800  0.10051100  1
  O  O9  1  0.75000000  0.60567000  0.04551700  1
  O  O10  1  0.75000000  0.23555500  0.22188800  1
  O  O11  1  0.25000000  0.68999100  0.25483800  1
  O  O12  1  0.75000000  0.42102100  0.40391400  1
  O  O13  1  0.25000000  0.09454500  0.56713200  1
  O  O14  1  0.75000000  0.90545500  0.43286800  1
  O  O15  1  0.25000000  0.57897900  0.59608600  1
  O  O16  1  0.75000000  0.31000900  0.74516200  1
  O  O17  1  0.25000000  0.76444500  0.77811200  1
  O  O18  1  0.25000000  0.39433000  0.95448300  1
  O  O19  1  0.75000000  0.96375200  0.89948900  1
