# generated using pymatgen
data_Nb(BO2)5
_symmetry_space_group_name_H-M   'P 1'
_cell_length_a   15.10292200
_cell_length_b   7.44391800
_cell_length_c   7.44449209
_cell_angle_alpha   88.43410359
_cell_angle_beta   90.00000000
_cell_angle_gamma   90.00000000
_symmetry_Int_Tables_number   1
_chemical_formula_structural   Nb(BO2)5
_chemical_formula_sum   'Nb4 B20 O40'
_cell_volume   836.63382364
_cell_formula_units_Z   4
loop_
 _symmetry_equiv_pos_site_id
 _symmetry_equiv_pos_as_xyz
  1  'x, y, z'
loop_
 _atom_site_type_symbol
 _atom_site_label
 _atom_site_symmetry_multiplicity
 _atom_site_fract_x
 _atom_site_fract_y
 _atom_site_fract_z
 _atom_site_occupancy
  Nb  Nb0  1  0.87540000  0.46025900  0.14687000  1
  Nb  Nb1  1  0.62460000  0.96025900  0.14687000  1
  Nb  Nb2  1  0.37540000  0.03974100  0.85313000  1
  Nb  Nb3  1  0.12460000  0.53974100  0.85313000  1
  B  B4  1  0.97429600  0.08494600  0.20214700  1
  B  B5  1  0.52570400  0.58494600  0.20214700  1
  B  B6  1  0.22324900  0.47861700  0.22390100  1
  B  B7  1  0.27675100  0.97861700  0.22390100  1
  B  B8  1  0.49673200  0.27624600  0.24433100  1
  B  B9  1  0.00326800  0.77624600  0.24433100  1
  B  B10  1  0.37994900  0.49325500  0.31718000  1
  B  B11  1  0.12005100  0.99325500  0.31718000  1
  B  B12  1  0.74276200  0.49971300  0.46921400  1
  B  B13  1  0.75723800  0.99971300  0.46921400  1
  B  B14  1  0.24276200  0.00028700  0.53078600  1
  B  B15  1  0.25723800  0.50028700  0.53078600  1
  B  B16  1  0.87994900  0.00674500  0.68282000  1
  B  B17  1  0.62005100  0.50674500  0.68282000  1
  B  B18  1  0.99673200  0.22375400  0.75566900  1
  B  B19  1  0.50326800  0.72375400  0.75566900  1
  B  B20  1  0.72324900  0.02138300  0.77609900  1
  B  B21  1  0.77675100  0.52138300  0.77609900  1
  B  B22  1  0.47429600  0.41505400  0.79785300  1
  B  B23  1  0.02570400  0.91505400  0.79785300  1
  O  O24  1  0.15867700  0.47233300  0.08650100  1
  O  O25  1  0.34132300  0.97233300  0.08650100  1
  O  O26  1  0.91325800  0.22115600  0.15056300  1
  O  O27  1  0.58674200  0.72115600  0.15056300  1
  O  O28  1  0.19125800  0.00430000  0.17911100  1
  O  O29  1  0.55089500  0.40980400  0.16982100  1
  O  O30  1  0.30874200  0.50430000  0.17911100  1
  O  O31  1  0.94910500  0.90980400  0.16982100  1
  O  O32  1  0.53053400  0.09961000  0.23024800  1
  O  O33  1  0.96946600  0.59961000  0.23024800  1
  O  O34  1  0.77556000  0.48307400  0.29305500  1
  O  O35  1  0.05217400  0.12937600  0.27554500  1
  O  O36  1  0.72444000  0.98307400  0.29305500  1
  O  O37  1  0.44782600  0.62937600  0.27554500  1
  O  O38  1  0.41777400  0.30743700  0.31821400  1
  O  O39  1  0.08222600  0.80743700  0.31821400  1
  O  O40  1  0.19480200  0.46164700  0.40061900  1
  O  O41  1  0.30519800  0.96164700  0.40061900  1
  O  O42  1  0.65619400  0.47613100  0.50159700  1
  O  O43  1  0.15619400  0.02386900  0.49840300  1
  O  O44  1  0.84380600  0.97613100  0.50159700  1
  O  O45  1  0.34380600  0.52386900  0.49840300  1
  O  O46  1  0.69480200  0.03835300  0.59938100  1
  O  O47  1  0.80519800  0.53835300  0.59938100  1
  O  O48  1  0.91777400  0.19256300  0.68178600  1
  O  O49  1  0.58222600  0.69256300  0.68178600  1
  O  O50  1  0.55217400  0.37062400  0.72445500  1
  O  O51  1  0.27556000  0.01692600  0.70694500  1
  O  O52  1  0.94782600  0.87062400  0.72445500  1
  O  O53  1  0.22444000  0.51692600  0.70694500  1
  O  O54  1  0.03053400  0.40039000  0.76975200  1
  O  O55  1  0.46946600  0.90039000  0.76975200  1
  O  O56  1  0.05089500  0.09019600  0.83017900  1
  O  O57  1  0.69125800  0.49570000  0.82088900  1
  O  O58  1  0.44910500  0.59019600  0.83017900  1
  O  O59  1  0.80874200  0.99570000  0.82088900  1
  O  O60  1  0.41325800  0.27884400  0.84943700  1
  O  O61  1  0.08674200  0.77884400  0.84943700  1
  O  O62  1  0.65867700  0.02766700  0.91349900  1
  O  O63  1  0.84132300  0.52766700  0.91349900  1
