# generated using pymatgen
data_Tm(ClO4)3
_symmetry_space_group_name_H-M   'P 1'
_cell_length_a   9.22392356
_cell_length_b   9.22392356
_cell_length_c   5.67582900
_cell_angle_alpha   90.00000000
_cell_angle_beta   90.00000000
_cell_angle_gamma   119.99999685
_symmetry_Int_Tables_number   1
_chemical_formula_structural   Tm(ClO4)3
_chemical_formula_sum   'Tm2 Cl6 O24'
_cell_volume   418.20703940
_cell_formula_units_Z   2
loop_
 _symmetry_equiv_pos_site_id
 _symmetry_equiv_pos_as_xyz
  1  'x, y, z'
loop_
 _atom_site_type_symbol
 _atom_site_label
 _atom_site_symmetry_multiplicity
 _atom_site_fract_x
 _atom_site_fract_y
 _atom_site_fract_z
 _atom_site_occupancy
  Tm  Tm0  1  0.33333300  0.66666700  0.75000000  1
  Tm  Tm1  1  0.66666700  0.33333300  0.25000000  1
  Cl  Cl2  1  0.09066700  0.70751400  0.25000000  1
  Cl  Cl3  1  0.29248600  0.38315400  0.25000000  1
  Cl  Cl4  1  0.61684600  0.90933300  0.25000000  1
  Cl  Cl5  1  0.38315400  0.09066700  0.75000000  1
  Cl  Cl6  1  0.70751400  0.61684600  0.75000000  1
  Cl  Cl7  1  0.90933300  0.29248600  0.75000000  1
  O  O8  1  0.01995400  0.81289000  0.25000000  1
  O  O9  1  0.03588800  0.47121700  0.75000000  1
  O  O10  1  0.19817600  0.74149700  0.04191400  1
  O  O11  1  0.19817600  0.74149700  0.45808600  1
  O  O12  1  0.43532900  0.96411200  0.75000000  1
  O  O13  1  0.25850300  0.45668000  0.45808600  1
  O  O14  1  0.25850300  0.45668000  0.04191400  1
  O  O15  1  0.18711000  0.20706400  0.25000000  1
  O  O16  1  0.54332000  0.80182400  0.04191400  1
  O  O17  1  0.54332000  0.80182400  0.45808600  1
  O  O18  1  0.20706400  0.01995400  0.75000000  1
  O  O19  1  0.47121700  0.43532900  0.25000000  1
  O  O20  1  0.52878300  0.56467100  0.75000000  1
  O  O21  1  0.79293600  0.98004600  0.25000000  1
  O  O22  1  0.45668000  0.19817600  0.54191400  1
  O  O23  1  0.45668000  0.19817600  0.95808600  1
  O  O24  1  0.81289000  0.79293600  0.75000000  1
  O  O25  1  0.74149700  0.54332000  0.95808600  1
  O  O26  1  0.74149700  0.54332000  0.54191400  1
  O  O27  1  0.56467100  0.03588800  0.25000000  1
  O  O28  1  0.80182400  0.25850300  0.95808600  1
  O  O29  1  0.80182400  0.25850300  0.54191400  1
  O  O30  1  0.96411200  0.52878300  0.25000000  1
  O  O31  1  0.98004600  0.18711000  0.75000000  1
