# generated using pymatgen
data_Ti3V2P6WO24
_symmetry_space_group_name_H-M   'P 1'
_cell_length_a   8.66316667
_cell_length_b   8.66316667
_cell_length_c   8.66316718
_cell_angle_alpha   60.50008230
_cell_angle_beta   60.50008230
_cell_angle_gamma   60.50007767
_symmetry_Int_Tables_number   1
_chemical_formula_structural   Ti3V2P6WO24
_chemical_formula_sum   'Ti3 V2 P6 W1 O24'
_cell_volume   464.93881288
_cell_formula_units_Z   1
loop_
 _symmetry_equiv_pos_site_id
 _symmetry_equiv_pos_as_xyz
  1  'x, y, z'
loop_
 _atom_site_type_symbol
 _atom_site_label
 _atom_site_symmetry_multiplicity
 _atom_site_fract_x
 _atom_site_fract_y
 _atom_site_fract_z
 _atom_site_occupancy
  Ti  Ti0  1  0.64550900  0.64550900  0.64550900  1
  Ti  Ti1  1  0.85577600  0.85577600  0.85577600  1
  Ti  Ti2  1  0.35509900  0.35509900  0.35509900  1
  V  V3  1  0.99666800  0.99666800  0.99666800  1
  V  V4  1  0.50122100  0.50122100  0.50122100  1
  P  P5  1  0.95399300  0.25196000  0.54728900  1
  P  P6  1  0.54728900  0.95399300  0.25196000  1
  P  P7  1  0.25196000  0.54728900  0.95399300  1
  P  P8  1  0.74407000  0.46052900  0.04372400  1
  P  P9  1  0.46052900  0.04372400  0.74407000  1
  P  P10  1  0.04372400  0.74407000  0.46052900  1
  W  W11  1  0.14080200  0.14080200  0.14080200  1
  O  O12  1  0.49953300  0.11661300  0.31408800  1
  O  O13  1  0.31408800  0.49953300  0.11661300  1
  O  O14  1  0.11661300  0.31408800  0.49953300  1
  O  O15  1  0.94069800  0.09001600  0.74074200  1
  O  O16  1  0.98222300  0.19089700  0.39730100  1
  O  O17  1  0.76035900  0.41415600  0.56915200  1
  O  O18  1  0.74074200  0.94069800  0.09001600  1
  O  O19  1  0.56915200  0.76035900  0.41415600  1
  O  O20  1  0.81505900  0.61448300  0.99974100  1
  O  O21  1  0.41415600  0.56915200  0.76035900  1
  O  O22  1  0.89801400  0.26420200  0.05321400  1
  O  O23  1  0.61448300  0.99974100  0.81505900  1
  O  O24  1  0.39730100  0.98222300  0.19089700  1
  O  O25  1  0.09001600  0.74074200  0.94069800  1
  O  O26  1  0.58536100  0.44614100  0.23826800  1
  O  O27  1  0.19089700  0.39730100  0.98222300  1
  O  O28  1  0.44614100  0.23826800  0.58536100  1
  O  O29  1  0.26420200  0.05321400  0.89801400  1
  O  O30  1  0.23826800  0.58536100  0.44614100  1
  O  O31  1  0.99974100  0.81505900  0.61448300  1
  O  O32  1  0.05321400  0.89801400  0.26420200  1
  O  O33  1  0.88674900  0.67431600  0.51202300  1
  O  O34  1  0.67431600  0.51202300  0.88674900  1
  O  O35  1  0.51202300  0.88674900  0.67431600  1
