# generated using pymatgen
data_V3O5F
_symmetry_space_group_name_H-M   'P 1'
_cell_length_a   5.51567600
_cell_length_b   5.52144976
_cell_length_c   7.26034888
_cell_angle_alpha   70.89633226
_cell_angle_beta   71.01897333
_cell_angle_gamma   73.85538789
_symmetry_Int_Tables_number   1
_chemical_formula_structural   V3O5F
_chemical_formula_sum   'V6 O10 F2'
_cell_volume   193.89488686
_cell_formula_units_Z   2
loop_
 _symmetry_equiv_pos_site_id
 _symmetry_equiv_pos_as_xyz
  1  'x, y, z'
loop_
 _atom_site_type_symbol
 _atom_site_label
 _atom_site_symmetry_multiplicity
 _atom_site_fract_x
 _atom_site_fract_y
 _atom_site_fract_z
 _atom_site_occupancy
  V  V0  1  0.31022100  0.32268100  0.18402600  1
  V  V1  1  0.66147000  0.66515100  0.32935800  1
  V  V2  1  0.34621500  0.35649400  0.66378300  1
  V  V3  1  0.67509400  0.69325900  0.81990700  1
  V  V4  1  0.99166400  0.99710800  0.48887200  1
  V  V5  1  0.02414900  0.96627300  0.01542800  1
  O  O6  1  0.37158800  0.97427300  0.32294100  1
  O  O7  1  0.02853300  0.63145000  0.67332400  1
  O  O8  1  0.78324100  0.78247500  0.01931100  1
  O  O9  1  0.41427600  0.42334300  0.38032500  1
  O  O10  1  0.90730800  0.89806800  0.29544400  1
  O  O11  1  0.21989300  0.22448700  0.96386200  1
  O  O12  1  0.56379000  0.57139900  0.63949100  1
  O  O13  1  0.31652100  0.68125000  0.00372600  1
  O  O14  1  0.95953800  0.37203500  0.32958900  1
  O  O15  1  0.62415800  0.04066900  0.67074300  1
  F  F16  1  0.10360000  0.09845500  0.69914700  1
  F  F17  1  0.69874200  0.30113400  0.00072300  1
