# generated using pymatgen
data_Fe5O3F7
_symmetry_space_group_name_H-M   'P 1'
_cell_length_a   15.62487200
_cell_length_b   4.82185300
_cell_length_c   4.82237271
_cell_angle_alpha   88.50490864
_cell_angle_beta   90.00000000
_cell_angle_gamma   90.00000000
_symmetry_Int_Tables_number   1
_chemical_formula_structural   Fe5O3F7
_chemical_formula_sum   'Fe10 O6 F14'
_cell_volume   363.19790332
_cell_formula_units_Z   2
loop_
 _symmetry_equiv_pos_site_id
 _symmetry_equiv_pos_as_xyz
  1  'x, y, z'
loop_
 _atom_site_type_symbol
 _atom_site_label
 _atom_site_symmetry_multiplicity
 _atom_site_fract_x
 _atom_site_fract_y
 _atom_site_fract_z
 _atom_site_occupancy
  Fe  Fe0  1  0.39846600  0.02090900  0.98005700  1
  Fe  Fe1  1  0.60153400  0.02090900  0.98005700  1
  Fe  Fe2  1  0.80718800  0.95944600  0.01970200  1
  Fe  Fe3  1  0.00000000  0.97911500  0.97121200  1
  Fe  Fe4  1  0.19281200  0.95944600  0.01970200  1
  Fe  Fe5  1  0.50000000  0.47692200  0.52351800  1
  Fe  Fe6  1  0.89481500  0.52574900  0.50806700  1
  Fe  Fe7  1  0.69943400  0.49667400  0.49555500  1
  Fe  Fe8  1  0.10518500  0.52574900  0.50806700  1
  Fe  Fe9  1  0.30056600  0.49667400  0.49555500  1
  O  O10  1  0.90026300  0.81621800  0.81733900  1
  O  O11  1  0.09973700  0.81621800  0.81733900  1
  O  O12  1  0.79100700  0.68889400  0.30975000  1
  O  O13  1  0.20899300  0.68889400  0.30975000  1
  O  O14  1  0.39779400  0.32264000  0.67552200  1
  O  O15  1  0.60220600  0.32264000  0.67552200  1
  F  F16  1  0.50000000  0.80382000  0.78672000  1
  F  F17  1  0.70372700  0.79838400  0.80163100  1
  F  F18  1  0.29627300  0.79838400  0.80163100  1
  F  F19  1  0.40233600  0.70183400  0.29698100  1
  F  F20  1  0.59766400  0.70183400  0.29698100  1
  F  F21  1  0.00000000  0.71287100  0.29648700  1
  F  F22  1  0.79194900  0.28617100  0.71581200  1
  F  F23  1  0.00000000  0.30965100  0.69571400  1
  F  F24  1  0.20805100  0.28617100  0.71581200  1
  F  F25  1  0.50000000  0.21405100  0.19617300  1
  F  F26  1  0.90186400  0.19075700  0.19622900  1
  F  F27  1  0.70517800  0.19410800  0.19844200  1
  F  F28  1  0.29482200  0.19410800  0.19844200  1
  F  F29  1  0.09813600  0.19075700  0.19622900  1
