# generated using pymatgen
data_Mn12O7F17
_symmetry_space_group_name_H-M   'P 1'
_cell_length_a   4.78668200
_cell_length_b   5.78182965
_cell_length_c   15.88913849
_cell_angle_alpha   90.19559328
_cell_angle_beta   90.45231973
_cell_angle_gamma   92.73035285
_symmetry_Int_Tables_number   1
_chemical_formula_structural   Mn12O7F17
_chemical_formula_sum   'Mn12 O7 F17'
_cell_volume   439.22824426
_cell_formula_units_Z   1
loop_
 _symmetry_equiv_pos_site_id
 _symmetry_equiv_pos_as_xyz
  1  'x, y, z'
loop_
 _atom_site_type_symbol
 _atom_site_label
 _atom_site_symmetry_multiplicity
 _atom_site_fract_x
 _atom_site_fract_y
 _atom_site_fract_z
 _atom_site_occupancy
  Mn  Mn0  1  0.99667600  0.16379100  0.59272600  1
  Mn  Mn1  1  0.96952700  0.85545800  0.75670300  1
  Mn  Mn2  1  0.00148500  0.15663700  0.91783200  1
  Mn  Mn3  1  0.97157200  0.14248500  0.25331900  1
  Mn  Mn4  1  0.97411100  0.84474000  0.41190800  1
  Mn  Mn5  1  0.99033100  0.83097500  0.09117100  1
  Mn  Mn6  1  0.52630500  0.32768500  0.41026800  1
  Mn  Mn7  1  0.47289500  0.33641500  0.07389200  1
  Mn  Mn8  1  0.51079000  0.32355200  0.73940000  1
  Mn  Mn9  1  0.49252800  0.65831900  0.91240400  1
  Mn  Mn10  1  0.46947100  0.64906000  0.58298800  1
  Mn  Mn11  1  0.52995000  0.66274200  0.25400500  1
  O  O12  1  0.78495100  0.11677700  0.69614200  1
  O  O13  1  0.79394500  0.10069900  0.35981300  1
  O  O14  1  0.77966800  0.88950300  0.86724100  1
  O  O15  1  0.77721300  0.88325500  0.20133500  1
  O  O16  1  0.72785100  0.61555400  0.35663300  1
  O  O17  1  0.26522800  0.39181400  0.96333000  1
  O  O18  1  0.28462000  0.36679100  0.63870200  1
  F  F19  1  0.78475900  0.11875400  0.02639200  1
  F  F20  1  0.75707000  0.90125900  0.53283500  1
  F  F21  1  0.73303100  0.38706200  0.84994100  1
  F  F22  1  0.73877500  0.61429400  0.68818700  1
  F  F23  1  0.73383100  0.39683000  0.52504100  1
  F  F24  1  0.73259300  0.38324800  0.18409000  1
  F  F25  1  0.72560300  0.61457500  0.02084100  1
  F  F26  1  0.27813800  0.61739800  0.79978100  1
  F  F27  1  0.23802000  0.62172200  0.46725300  1
  F  F28  1  0.29745100  0.62742800  0.14650300  1
  F  F29  1  0.26502500  0.38662400  0.29820200  1
  F  F30  1  0.24165300  0.11808000  0.81481000  1
  F  F31  1  0.22084200  0.10770100  0.47790900  1
  F  F32  1  0.22174100  0.87476200  0.64849300  1
  F  F33  1  0.24686300  0.89209000  0.98230100  1
  F  F34  1  0.21134800  0.12789300  0.14812900  1
  F  F35  1  0.25414100  0.89402700  0.30948100  1
