# generated using pymatgen
data_Zn2As2O7
_symmetry_space_group_name_H-M   'P 1'
_cell_length_a   11.15925054
_cell_length_b   11.15925054
_cell_length_c   9.75856257
_cell_angle_alpha   81.08094035
_cell_angle_beta   81.08094035
_cell_angle_gamma   45.23907981
_symmetry_Int_Tables_number   1
_chemical_formula_structural   Zn2As2O7
_chemical_formula_sum   'Zn12 As12 O42'
_cell_volume   850.61249588
_cell_formula_units_Z   6
loop_
 _symmetry_equiv_pos_site_id
 _symmetry_equiv_pos_as_xyz
  1  'x, y, z'
loop_
 _atom_site_type_symbol
 _atom_site_label
 _atom_site_symmetry_multiplicity
 _atom_site_fract_x
 _atom_site_fract_y
 _atom_site_fract_z
 _atom_site_occupancy
  Zn  Zn0  1  0.82950300  0.20165600  0.96190300  1
  Zn  Zn1  1  0.84672200  0.47959500  0.83660200  1
  Zn  Zn2  1  0.49700000  0.87298600  0.79185100  1
  Zn  Zn3  1  0.12701400  0.50300000  0.70814900  1
  Zn  Zn4  1  0.52040500  0.15327800  0.66339800  1
  Zn  Zn5  1  0.79834400  0.17049700  0.53809700  1
  Zn  Zn6  1  0.20165600  0.82950300  0.46190300  1
  Zn  Zn7  1  0.47959500  0.84672200  0.33660200  1
  Zn  Zn8  1  0.87298600  0.49700000  0.29185100  1
  Zn  Zn9  1  0.50300000  0.12701400  0.20814900  1
  Zn  Zn10  1  0.15327800  0.52040500  0.16339800  1
  Zn  Zn11  1  0.17049700  0.79834400  0.03809700  1
  As  As12  1  0.89566100  0.90425200  0.81477300  1
  As  As13  1  0.25989900  0.22268500  0.95975300  1
  As  As14  1  0.41393200  0.45039200  0.86595300  1
  As  As15  1  0.54960800  0.58606800  0.63404700  1
  As  As16  1  0.77731500  0.74010100  0.54024700  1
  As  As17  1  0.09574800  0.10433900  0.68522700  1
  As  As18  1  0.90425200  0.89566100  0.31477300  1
  As  As19  1  0.22268500  0.25989900  0.45975300  1
  As  As20  1  0.45039200  0.41393200  0.36595300  1
  As  As21  1  0.58606800  0.54960800  0.13404700  1
  As  As22  1  0.74010100  0.77731500  0.04024700  1
  As  As23  1  0.10433900  0.09574800  0.18522700  1
  O  O24  1  0.97513000  0.95773100  0.89990100  1
  O  O25  1  0.76685400  0.90848800  0.95218200  1
  O  O26  1  0.69596000  0.71509400  0.92324400  1
  O  O27  1  0.24768900  0.58125500  0.98415200  1
  O  O28  1  0.60108000  0.29567500  0.93757100  1
  O  O29  1  0.93176800  0.25323900  0.79624900  1
  O  O30  1  0.27597600  0.95727700  0.76619100  1
  O  O31  1  0.08138500  0.39252500  0.87583800  1
  O  O32  1  0.62491200  0.63437000  0.73203000  1
  O  O33  1  0.42809300  0.08461100  0.84727700  1
  O  O34  1  0.39882500  0.60117500  0.75000000  1
  O  O35  1  0.91538900  0.57190700  0.65272300  1
  O  O36  1  0.36563000  0.37508800  0.76797000  1
  O  O37  1  0.60747500  0.91861500  0.62416200  1
  O  O38  1  0.04272300  0.72402400  0.73380900  1
  O  O39  1  0.74676100  0.06823200  0.70375100  1
  O  O40  1  0.70432500  0.39892000  0.56242900  1
  O  O41  1  0.95773100  0.97513000  0.39990100  1
  O  O42  1  0.90848800  0.76685400  0.45218200  1
  O  O43  1  0.41874500  0.75231100  0.51584800  1
  O  O44  1  0.71509400  0.69596000  0.42324400  1
  O  O45  1  0.28490600  0.30404000  0.57675600  1
  O  O46  1  0.58125500  0.24768900  0.48415200  1
  O  O47  1  0.09151200  0.23314600  0.54781800  1
  O  O48  1  0.04226900  0.02487000  0.60009900  1
  O  O49  1  0.29567500  0.60108000  0.43757100  1
  O  O50  1  0.25323900  0.93176800  0.29624900  1
  O  O51  1  0.95727700  0.27597600  0.26619100  1
  O  O52  1  0.39252500  0.08138500  0.37583800  1
  O  O53  1  0.63437000  0.62491200  0.23203000  1
  O  O54  1  0.08461100  0.42809300  0.34727700  1
  O  O55  1  0.60117500  0.39882500  0.25000000  1
  O  O56  1  0.57190700  0.91538900  0.15272300  1
  O  O57  1  0.37508800  0.36563000  0.26797000  1
  O  O58  1  0.91861500  0.60747500  0.12416200  1
  O  O59  1  0.72402400  0.04272300  0.23380900  1
  O  O60  1  0.06823200  0.74676100  0.20375100  1
  O  O61  1  0.39892000  0.70432500  0.06242900  1
  O  O62  1  0.75231100  0.41874500  0.01584800  1
  O  O63  1  0.30404000  0.28490600  0.07675600  1
  O  O64  1  0.23314600  0.09151200  0.04781800  1
  O  O65  1  0.02487000  0.04226900  0.10009900  1
