# generated using pymatgen
data_Li3Mn2P4HO14
_symmetry_space_group_name_H-M   'P 1'
_cell_length_a   5.26499880
_cell_length_b   12.83905191
_cell_length_c   9.01470034
_cell_angle_alpha   75.99261910
_cell_angle_beta   92.60155092
_cell_angle_gamma   93.35910531
_symmetry_Int_Tables_number   1
_chemical_formula_structural   Li3Mn2P4HO14
_chemical_formula_sum   'Li6 Mn4 P8 H2 O28'
_cell_volume   589.92982781
_cell_formula_units_Z   2
loop_
 _symmetry_equiv_pos_site_id
 _symmetry_equiv_pos_as_xyz
  1  'x, y, z'
loop_
 _atom_site_type_symbol
 _atom_site_label
 _atom_site_symmetry_multiplicity
 _atom_site_fract_x
 _atom_site_fract_y
 _atom_site_fract_z
 _atom_site_occupancy
  Li  Li0  1  0.24976300  0.49998000  0.24986200  1
  Li  Li1  1  0.74999000  0.50000100  0.75015200  1
  Li  Li2  1  0.78676500  0.99461800  0.61122500  1
  Li  Li3  1  0.28672200  0.99463800  0.11107200  1
  Li  Li4  1  0.21325800  0.00537100  0.38875700  1
  Li  Li5  1  0.71343200  0.00535400  0.88885500  1
  Mn  Mn6  1  0.76516800  0.76442200  0.67923700  1
  Mn  Mn7  1  0.23534000  0.23538500  0.32062400  1
  Mn  Mn8  1  0.26508800  0.76433900  0.17974600  1
  Mn  Mn9  1  0.73541100  0.23564100  0.82055800  1
  P  P10  1  0.25798400  0.62775300  0.84392900  1
  P  P11  1  0.75786700  0.62771600  0.34395800  1
  P  P12  1  0.74195800  0.37228300  0.15606200  1
  P  P13  1  0.24218900  0.37228900  0.65603100  1
  P  P14  1  0.28145900  0.85959900  0.83725200  1
  P  P15  1  0.78141800  0.85962200  0.33723300  1
  P  P16  1  0.71848400  0.14043700  0.16273300  1
  P  P17  1  0.21861600  0.14043500  0.66277700  1
  H  H18  1  0.49987700  0.50000600  0.99998000  1
  H  H19  1  0.99995900  0.50000300  0.50001200  1
  O  O20  1  0.99636700  0.62910100  0.76484000  1
  O  O21  1  0.49617700  0.62906800  0.26496600  1
  O  O22  1  0.00355500  0.37085600  0.23514100  1
  O  O23  1  0.50385900  0.37091200  0.73503700  1
  O  O24  1  0.08084400  0.87388200  0.70706300  1
  O  O25  1  0.58074300  0.87386800  0.20709200  1
  O  O26  1  0.91906400  0.12610800  0.29293400  1
  O  O27  1  0.41933300  0.12619000  0.79289200  1
  O  O28  1  0.21258000  0.90486100  0.97179000  1
  O  O29  1  0.71263000  0.90488100  0.47178700  1
  O  O30  1  0.78730100  0.09512600  0.02822500  1
  O  O31  1  0.28728800  0.09512700  0.52822200  1
  O  O32  1  0.27828200  0.73149200  0.92410800  1
  O  O33  1  0.77827400  0.73150400  0.42409600  1
  O  O34  1  0.72160400  0.26850400  0.07586200  1
  O  O35  1  0.22159300  0.26851400  0.57590000  1
  O  O36  1  0.28881200  0.53270900  0.98281800  1
  O  O37  1  0.78885000  0.53271300  0.48284800  1
  O  O38  1  0.71103800  0.46729200  0.01714500  1
  O  O39  1  0.21112200  0.46731600  0.51716300  1
  O  O40  1  0.44358400  0.10878100  0.21575200  1
  O  O41  1  0.94375600  0.10876500  0.71583800  1
  O  O42  1  0.55635000  0.89122700  0.78425500  1
  O  O43  1  0.05629100  0.89123900  0.28420900  1
  O  O44  1  0.47847300  0.64444500  0.73508400  1
  O  O45  1  0.97818900  0.64444400  0.23499100  1
  O  O46  1  0.52139500  0.35555200  0.26485500  1
  O  O47  1  0.02189800  0.35563300  0.76503200  1
