# generated using pymatgen
data_Te4MoW3S4
_symmetry_space_group_name_H-M   'P 1'
_cell_length_a   3.35848223
_cell_length_b   3.35848223
_cell_length_c   39.99822700
_cell_angle_alpha   90.00000000
_cell_angle_beta   90.00000000
_cell_angle_gamma   120.00000460
_symmetry_Int_Tables_number   1
_chemical_formula_structural   Te4MoW3S4
_chemical_formula_sum   'Te4 Mo1 W3 S4'
_cell_volume   390.71264129
_cell_formula_units_Z   1
loop_
 _symmetry_equiv_pos_site_id
 _symmetry_equiv_pos_as_xyz
  1  'x, y, z'
loop_
 _atom_site_type_symbol
 _atom_site_label
 _atom_site_symmetry_multiplicity
 _atom_site_fract_x
 _atom_site_fract_y
 _atom_site_fract_z
 _atom_site_occupancy
  Te  Te0  1  0.00000000  0.00000000  0.70696800  1
  Te  Te1  1  0.33333300  0.66666700  0.42074000  1
  Te  Te2  1  0.33333300  0.66666700  0.51529800  1
  Te  Te3  1  0.00000000  0.00000000  0.61193100  1
  Mo  Mo4  1  0.00000000  0.00000000  0.46801400  1
  W  W5  1  0.00000000  0.00000000  0.09387100  1
  W  W6  1  0.33333300  0.66666700  0.28156300  1
  W  W7  1  0.33333300  0.66666700  0.65949600  1
  S  S8  1  0.00000000  0.00000000  0.31947200  1
  S  S9  1  0.33333300  0.66666700  0.05596100  1
  S  S10  1  0.33333300  0.66666700  0.13177800  1
  S  S11  1  0.00000000  0.00000000  0.24365700  1
