# generated using pymatgen
data_Dy2Ge2O7
_symmetry_space_group_name_H-M   'P 1'
_cell_length_a   8.11062500
_cell_length_b   5.37250700
_cell_length_c   7.64319289
_cell_angle_alpha   71.08478068
_cell_angle_beta   90.00000000
_cell_angle_gamma   90.00000000
_symmetry_Int_Tables_number   1
_chemical_formula_structural   Dy2Ge2O7
_chemical_formula_sum   'Dy4 Ge4 O14'
_cell_volume   315.06266306
_cell_formula_units_Z   2
loop_
 _symmetry_equiv_pos_site_id
 _symmetry_equiv_pos_as_xyz
  1  'x, y, z'
loop_
 _atom_site_type_symbol
 _atom_site_label
 _atom_site_symmetry_multiplicity
 _atom_site_fract_x
 _atom_site_fract_y
 _atom_site_fract_z
 _atom_site_occupancy
  Dy  Dy0  1  0.50000000  0.00000000  0.00000000  1
  Dy  Dy1  1  0.00000000  0.00000000  0.00000000  1
  Dy  Dy2  1  0.50000000  0.50000000  0.50000000  1
  Dy  Dy3  1  0.00000000  0.50000000  0.50000000  1
  Ge  Ge4  1  0.25000000  0.46287800  0.11322900  1
  Ge  Ge5  1  0.75000000  0.09826800  0.32409200  1
  Ge  Ge6  1  0.25000000  0.90173200  0.67590800  1
  Ge  Ge7  1  0.75000000  0.53712200  0.88677100  1
  O  O8  1  0.75000000  0.23216800  0.07422800  1
  O  O9  1  0.43513100  0.52837400  0.20775500  1
  O  O10  1  0.06486900  0.52837400  0.20775500  1
  O  O11  1  0.25000000  0.17561300  0.05303900  1
  O  O12  1  0.93009200  0.91411400  0.32939400  1
  O  O13  1  0.56990800  0.91411400  0.32939400  1
  O  O14  1  0.75000000  0.32584000  0.44439700  1
  O  O15  1  0.25000000  0.67416000  0.55560300  1
  O  O16  1  0.43009200  0.08588600  0.67060600  1
  O  O17  1  0.06990800  0.08588600  0.67060600  1
  O  O18  1  0.75000000  0.82438700  0.94696100  1
  O  O19  1  0.93513100  0.47162600  0.79224500  1
  O  O20  1  0.56486900  0.47162600  0.79224500  1
  O  O21  1  0.25000000  0.76783200  0.92577200  1
