# generated using pymatgen
data_Dy2WO6
_symmetry_space_group_name_H-M   'P 1'
_cell_length_a   9.89402125
_cell_length_b   9.89402125
_cell_length_c   5.40824738
_cell_angle_alpha   75.81729011
_cell_angle_beta   75.81729011
_cell_angle_gamma   68.40722751
_symmetry_Int_Tables_number   1
_chemical_formula_structural   Dy2WO6
_chemical_formula_sum   'Dy8 W4 O24'
_cell_volume   470.17073954
_cell_formula_units_Z   4
loop_
 _symmetry_equiv_pos_site_id
 _symmetry_equiv_pos_as_xyz
  1  'x, y, z'
loop_
 _atom_site_type_symbol
 _atom_site_label
 _atom_site_symmetry_multiplicity
 _atom_site_fract_x
 _atom_site_fract_y
 _atom_site_fract_z
 _atom_site_occupancy
  Dy  Dy0  1  0.94403300  0.71501200  0.38279800  1
  Dy  Dy1  1  0.71501200  0.94403300  0.88279800  1
  Dy  Dy2  1  0.36603800  0.63396200  0.25000000  1
  Dy  Dy3  1  0.89456800  0.10543200  0.25000000  1
  Dy  Dy4  1  0.10543200  0.89456800  0.75000000  1
  Dy  Dy5  1  0.63396200  0.36603800  0.75000000  1
  Dy  Dy6  1  0.28498800  0.05596700  0.11720200  1
  Dy  Dy7  1  0.05596700  0.28498800  0.61720200  1
  W  W8  1  0.80035900  0.50582600  0.06640300  1
  W  W9  1  0.50582600  0.80035900  0.56640300  1
  W  W10  1  0.49417400  0.19964100  0.43359700  1
  W  W11  1  0.19964100  0.49417400  0.93359700  1
  O  O12  1  0.89262400  0.92452100  0.07818200  1
  O  O13  1  0.92452100  0.89262400  0.57818200  1
  O  O14  1  0.52656900  0.93914800  0.26135800  1
  O  O15  1  0.78430400  0.68363100  0.14714400  1
  O  O16  1  0.93914800  0.52656900  0.76135800  1
  O  O17  1  0.68363100  0.78430400  0.64714400  1
  O  O18  1  0.82395800  0.37977600  0.38513300  1
  O  O19  1  0.37977600  0.82395800  0.88513300  1
  O  O20  1  0.61132800  0.54455000  0.02033100  1
  O  O21  1  0.31207100  0.84027700  0.42102500  1
  O  O22  1  0.54455000  0.61132800  0.52033100  1
  O  O23  1  0.84027700  0.31207100  0.92102500  1
  O  O24  1  0.15972300  0.68792900  0.07897500  1
  O  O25  1  0.45545000  0.38867200  0.47966900  1
  O  O26  1  0.68792900  0.15972300  0.57897500  1
  O  O27  1  0.38867200  0.45545000  0.97966900  1
  O  O28  1  0.62022400  0.17604200  0.11486700  1
  O  O29  1  0.17604200  0.62022400  0.61486700  1
  O  O30  1  0.31636900  0.21569600  0.35285600  1
  O  O31  1  0.06085200  0.47343100  0.23864200  1
  O  O32  1  0.21569600  0.31636900  0.85285600  1
  O  O33  1  0.47343100  0.06085200  0.73864200  1
  O  O34  1  0.07547900  0.10737600  0.42181800  1
  O  O35  1  0.10737600  0.07547900  0.92181800  1
