# generated using pymatgen
data_Mn12O5F19
_symmetry_space_group_name_H-M   'P 1'
_cell_length_a   5.01867400
_cell_length_b   5.60863448
_cell_length_c   15.75024284
_cell_angle_alpha   87.62355544
_cell_angle_beta   88.57017478
_cell_angle_gamma   84.54683584
_symmetry_Int_Tables_number   1
_chemical_formula_structural   Mn12O5F19
_chemical_formula_sum   'Mn12 O5 F19'
_cell_volume   440.85197192
_cell_formula_units_Z   1
loop_
 _symmetry_equiv_pos_site_id
 _symmetry_equiv_pos_as_xyz
  1  'x, y, z'
loop_
 _atom_site_type_symbol
 _atom_site_label
 _atom_site_symmetry_multiplicity
 _atom_site_fract_x
 _atom_site_fract_y
 _atom_site_fract_z
 _atom_site_occupancy
  Mn  Mn0  1  0.98553700  0.06487100  0.00263300  1
  Mn  Mn1  1  0.98648700  0.43869600  0.84701700  1
  Mn  Mn2  1  0.03576500  0.09164800  0.66080800  1
  Mn  Mn3  1  0.99997900  0.44248500  0.49585100  1
  Mn  Mn4  1  0.94696300  0.01671600  0.33437900  1
  Mn  Mn5  1  0.00814000  0.46039400  0.17672500  1
  Mn  Mn6  1  0.50031300  0.95148100  0.82145200  1
  Mn  Mn7  1  0.49188000  0.56937300  0.00022800  1
  Mn  Mn8  1  0.52635300  0.55874500  0.34555900  1
  Mn  Mn9  1  0.49848800  0.93674700  0.49864600  1
  Mn  Mn10  1  0.48804600  0.60329600  0.67061300  1
  Mn  Mn11  1  0.45573800  0.93839200  0.15345200  1
  O  O12  1  0.27558800  0.85711500  0.71924000  1
  O  O13  1  0.21310900  0.14878100  0.55236600  1
  O  O14  1  0.24890000  0.82254400  0.04999000  1
  O  O15  1  0.74821500  0.70614800  0.44179100  1
  O  O16  1  0.76714800  0.34049300  0.95340000  1
  F  F17  1  0.22280500  0.12878000  0.90068000  1
  F  F18  1  0.27006700  0.86009300  0.40113200  1
  F  F19  1  0.21517100  0.14787700  0.23474800  1
  F  F20  1  0.30445300  0.62361700  0.88913400  1
  F  F21  1  0.26931700  0.34947000  0.73613000  1
  F  F22  1  0.20172000  0.36437100  0.38723700  1
  F  F23  1  0.26424600  0.31824700  0.06939300  1
  F  F24  1  0.27771600  0.66096900  0.23413500  1
  F  F25  1  0.28442200  0.63887600  0.56124100  1
  F  F26  1  0.71500700  0.63170700  0.09842500  1
  F  F27  1  0.74012600  0.64804500  0.76589300  1
  F  F28  1  0.77848100  0.38625400  0.61484000  1
  F  F29  1  0.72804100  0.30706900  0.26875400  1
  F  F30  1  0.71832300  0.88872800  0.60605600  1
  F  F31  1  0.74965100  0.84067100  0.92895200  1
  F  F32  1  0.75226000  0.79378600  0.25719500  1
  F  F33  1  0.72253500  0.20306600  0.44084100  1
  F  F34  1  0.79597600  0.11389600  0.11137100  1
  F  F35  1  0.81303100  0.14655600  0.76969200  1
