# generated using pymatgen
data_V2OF5
_symmetry_space_group_name_H-M   'P 1'
_cell_length_a   5.27511800
_cell_length_b   5.43831721
_cell_length_c   17.36666380
_cell_angle_alpha   88.88090488
_cell_angle_beta   98.17072592
_cell_angle_gamma   118.78310590
_symmetry_Int_Tables_number   1
_chemical_formula_structural   V2OF5
_chemical_formula_sum   'V8 O4 F20'
_cell_volume   431.53649248
_cell_formula_units_Z   4
loop_
 _symmetry_equiv_pos_site_id
 _symmetry_equiv_pos_as_xyz
  1  'x, y, z'
loop_
 _atom_site_type_symbol
 _atom_site_label
 _atom_site_symmetry_multiplicity
 _atom_site_fract_x
 _atom_site_fract_y
 _atom_site_fract_z
 _atom_site_occupancy
  V  V0  1  0.24526000  0.62266800  0.87617300  1
  V  V1  1  0.24866500  0.12361100  0.37549600  1
  V  V2  1  0.50075500  0.25271800  0.74828200  1
  V  V3  1  0.50518500  0.74308300  0.24305500  1
  V  V4  1  0.73469100  0.84299300  0.62902100  1
  V  V5  1  0.74802500  0.39070000  0.12505900  1
  V  V6  1  0.99945000  0.03414500  0.99502500  1
  V  V7  1  0.00574300  0.47595900  0.49402900  1
  O  O8  1  0.04252300  0.30740500  0.94155400  1
  O  O9  1  0.08090400  0.32953000  0.42290100  1
  O  O10  1  0.55712700  0.56832500  0.68377500  1
  O  O11  1  0.58020900  0.59612600  0.17037800  1
  F  F12  1  0.06815100  0.83591800  0.91269600  1
  F  F13  1  0.02188300  0.79884400  0.43605800  1
  F  F14  1  0.46896900  0.94085000  0.81173400  1
  F  F15  1  0.07261800  0.03786300  0.71144100  1
  F  F16  1  0.07700100  0.54221900  0.21254400  1
  F  F17  1  0.57433800  0.79788700  0.96298000  1
  F  F18  1  0.43127100  0.42132900  0.83748500  1
  F  F19  1  0.41966100  0.90733000  0.33202900  1
  F  F20  1  0.42365100  0.71322000  0.53845300  1
  F  F21  1  0.47678600  0.44656500  0.31523600  1
  F  F22  1  0.56904200  0.07162200  0.66210500  1
  F  F23  1  0.57695800  0.27906100  0.46295100  1
  F  F24  1  0.42106900  0.20972200  0.03851500  1
  F  F25  1  0.92826600  0.66417400  0.58131000  1
  F  F26  1  0.92977500  0.45510000  0.78845900  1
  F  F27  1  0.92206500  0.97438000  0.28853300  1
  F  F28  1  0.51983700  0.06618800  0.18723400  1
  F  F29  1  0.96589200  0.70257300  0.05970500  1
  F  F30  1  0.96285000  0.18126200  0.56782300  1
  F  F31  1  0.92137700  0.16662700  0.08796000  1
