# generated using pymatgen
data_MnOF
_symmetry_space_group_name_H-M   'P 1'
_cell_length_a   4.59094900
_cell_length_b   5.71134771
_cell_length_c   10.36107978
_cell_angle_alpha   89.84943197
_cell_angle_beta   89.38437156
_cell_angle_gamma   89.78634972
_symmetry_Int_Tables_number   1
_chemical_formula_structural   MnOF
_chemical_formula_sum   'Mn8 O8 F8'
_cell_volume   271.65427455
_cell_formula_units_Z   8
loop_
 _symmetry_equiv_pos_site_id
 _symmetry_equiv_pos_as_xyz
  1  'x, y, z'
loop_
 _atom_site_type_symbol
 _atom_site_label
 _atom_site_symmetry_multiplicity
 _atom_site_fract_x
 _atom_site_fract_y
 _atom_site_fract_z
 _atom_site_occupancy
  Mn  Mn0  1  0.02972200  0.16661200  0.61644500  1
  Mn  Mn1  1  0.00259300  0.84778300  0.36415100  1
  Mn  Mn2  1  0.00321300  0.14995400  0.11327400  1
  Mn  Mn3  1  0.03838300  0.86235600  0.86438400  1
  Mn  Mn4  1  0.50089000  0.34512800  0.88401500  1
  Mn  Mn5  1  0.50735500  0.34499400  0.38738200  1
  Mn  Mn6  1  0.51152900  0.64766600  0.13889300  1
  Mn  Mn7  1  0.49472600  0.63850200  0.63204700  1
  O  O8  1  0.22048000  0.11216200  0.45250300  1
  O  O9  1  0.22578200  0.11491400  0.95241600  1
  O  O10  1  0.21633500  0.88216600  0.20120400  1
  O  O11  1  0.23596700  0.89305400  0.70214200  1
  O  O12  1  0.28558800  0.40415500  0.72769200  1
  O  O13  1  0.71963600  0.37697700  0.04562400  1
  O  O14  1  0.71830500  0.61455000  0.29820600  1
  O  O15  1  0.72681400  0.38334500  0.54538600  1
  F  F16  1  0.25533700  0.37605100  0.22906600  1
  F  F17  1  0.23946500  0.60959200  0.46777900  1
  F  F18  1  0.26993400  0.61973500  0.97909600  1
  F  F19  1  0.75900700  0.62089200  0.80375300  1
  F  F20  1  0.75142300  0.11410100  0.27122200  1
  F  F21  1  0.76453900  0.87593200  0.01640100  1
  F  F22  1  0.77273100  0.12898600  0.77470600  1
  F  F23  1  0.75024300  0.87039100  0.53221700  1
