# generated using pymatgen
data_HfNbO4
_symmetry_space_group_name_H-M   'P 1'
_cell_length_a   6.30440928
_cell_length_b   6.30440928
_cell_length_c   5.11509584
_cell_angle_alpha   67.93581760
_cell_angle_beta   67.93581760
_cell_angle_gamma   112.88076397
_symmetry_Int_Tables_number   1
_chemical_formula_structural   HfNbO4
_chemical_formula_sum   'Hf2 Nb2 O8'
_cell_volume   137.41714146
_cell_formula_units_Z   2
loop_
 _symmetry_equiv_pos_site_id
 _symmetry_equiv_pos_as_xyz
  1  'x, y, z'
loop_
 _atom_site_type_symbol
 _atom_site_label
 _atom_site_symmetry_multiplicity
 _atom_site_fract_x
 _atom_site_fract_y
 _atom_site_fract_z
 _atom_site_occupancy
  Hf  Hf0  1  0.61833400  0.38166600  0.75000000  1
  Hf  Hf1  1  0.38166600  0.61833400  0.25000000  1
  Nb  Nb2  1  0.14528500  0.85471500  0.75000000  1
  Nb  Nb3  1  0.85471500  0.14528500  0.25000000  1
  O  O4  1  0.98800100  0.54800400  0.24644700  1
  O  O5  1  0.54800400  0.98800100  0.74644700  1
  O  O6  1  0.24245300  0.31378300  0.14548200  1
  O  O7  1  0.31378300  0.24245300  0.64548200  1
  O  O8  1  0.68621700  0.75754700  0.35451800  1
  O  O9  1  0.75754700  0.68621700  0.85451800  1
  O  O10  1  0.45199600  0.01199900  0.25355300  1
  O  O11  1  0.01199900  0.45199600  0.75355300  1
