# generated using pymatgen
data_CaTiF5
_symmetry_space_group_name_H-M   'P 1'
_cell_length_a   5.67608590
_cell_length_b   5.67608590
_cell_length_c   7.76591910
_cell_angle_alpha   70.14364089
_cell_angle_beta   70.14364089
_cell_angle_gamma   72.16072337
_symmetry_Int_Tables_number   1
_chemical_formula_structural   CaTiF5
_chemical_formula_sum   'Ca2 Ti2 F10'
_cell_volume   216.11662041
_cell_formula_units_Z   2
loop_
 _symmetry_equiv_pos_site_id
 _symmetry_equiv_pos_as_xyz
  1  'x, y, z'
loop_
 _atom_site_type_symbol
 _atom_site_label
 _atom_site_symmetry_multiplicity
 _atom_site_fract_x
 _atom_site_fract_y
 _atom_site_fract_z
 _atom_site_occupancy
  Ca  Ca0  1  0.54077500  0.45922500  0.75000000  1
  Ca  Ca1  1  0.45922500  0.54077500  0.25000000  1
  Ti  Ti2  1  0.00000000  0.00000000  0.00000000  1
  Ti  Ti3  1  0.00000000  0.00000000  0.50000000  1
  F  F4  1  0.24865800  0.20819400  0.88178200  1
  F  F5  1  0.79180600  0.75134200  0.61821800  1
  F  F6  1  0.75134200  0.79180600  0.11821800  1
  F  F7  1  0.20819400  0.24865800  0.38178200  1
  F  F8  1  0.90447400  0.09552600  0.75000000  1
  F  F9  1  0.09552600  0.90447400  0.25000000  1
  F  F10  1  0.68820300  0.28983900  0.46914400  1
  F  F11  1  0.71016100  0.31179700  0.03085600  1
  F  F12  1  0.31179700  0.71016100  0.53085600  1
  F  F13  1  0.28983900  0.68820300  0.96914400  1
