# generated using pymatgen
data_NaCr4O12
_symmetry_space_group_name_H-M   'P 1'
_cell_length_a   16.06108244
_cell_length_b   16.06108244
_cell_length_c   16.06108244
_cell_angle_alpha   148.26256768
_cell_angle_beta   148.26256768
_cell_angle_gamma   45.49791200
_symmetry_Int_Tables_number   1
_chemical_formula_structural   NaCr4O12
_chemical_formula_sum   'Na4 Cr16 O48'
_cell_volume   1142.66399983
_cell_formula_units_Z   4
loop_
 _symmetry_equiv_pos_site_id
 _symmetry_equiv_pos_as_xyz
  1  'x, y, z'
loop_
 _atom_site_type_symbol
 _atom_site_label
 _atom_site_symmetry_multiplicity
 _atom_site_fract_x
 _atom_site_fract_y
 _atom_site_fract_z
 _atom_site_occupancy
  Na  Na0  1  0.00000000  0.50000000  0.50000000  1
  Na  Na1  1  0.25000000  0.25000000  0.00000000  1
  Na  Na2  1  0.50000000  0.00000000  0.50000000  1
  Na  Na3  1  0.75000000  0.75000000  0.00000000  1
  Cr  Cr4  1  0.03736000  0.81677800  0.50672100  1
  Cr  Cr5  1  0.28063900  0.28736000  0.72058200  1
  Cr  Cr6  1  0.96936100  0.18994300  0.50672100  1
  Cr  Cr7  1  0.53736000  0.03063900  0.22058200  1
  Cr  Cr8  1  0.43994300  0.71936100  0.00672100  1
  Cr  Cr9  1  0.81005700  0.31677800  0.77941800  1
  Cr  Cr10  1  0.68322200  0.46264000  0.49327900  1
  Cr  Cr11  1  0.56677800  0.56005700  0.27941800  1
  Cr  Cr12  1  0.18322200  0.68994300  0.22058200  1
  Cr  Cr13  1  0.06677800  0.78736000  0.00672100  1
  Cr  Cr14  1  0.93994300  0.93322200  0.72058200  1
  Cr  Cr15  1  0.31005700  0.53063900  0.49327900  1
  Cr  Cr16  1  0.21264000  0.21936100  0.27941800  1
  Cr  Cr17  1  0.78063900  0.06005700  0.99327900  1
  Cr  Cr18  1  0.46936100  0.96264000  0.77941800  1
  Cr  Cr19  1  0.71264000  0.43322200  0.99327900  1
  O  O20  1  0.86922100  0.01645300  0.26963600  1
  O  O21  1  0.64393000  0.95688000  0.17616000  1
  O  O22  1  0.94544700  0.87500000  0.57044700  1
  O  O23  1  0.14393000  0.96777000  0.68705000  1
  O  O24  1  0.36922100  0.09958600  0.85276800  1
  O  O25  1  0.12500000  0.19544700  0.57044700  1
  O  O26  1  0.04312000  0.21928000  0.68705000  1
  O  O27  1  0.20688000  0.39393000  0.67616000  1
  O  O28  1  0.40041400  0.13077900  0.14723200  1
  O  O29  1  0.84958600  0.49681800  0.23036400  1
  O  O30  1  0.83886500  0.33886500  0.50000000  1
  O  O31  1  0.58886500  0.58886500  0.00000000  1
  O  O32  1  0.41113500  0.41113500  0.00000000  1
  O  O33  1  0.66113400  0.16113400  0.50000000  1
  O  O34  1  0.26645300  0.61922100  0.76963600  1
  O  O35  1  0.98354700  0.25318200  0.85276800  1
  O  O36  1  0.71777000  0.53072000  0.32384000  1
  O  O37  1  0.53223000  0.35607000  0.31295000  1
  O  O38  1  0.62500000  0.55455300  0.42955300  1
  O  O39  1  0.24681800  0.51645300  0.14723200  1
  O  O40  1  0.00318200  0.65041400  0.76963600  1
  O  O41  1  0.28072000  0.45688000  0.31295000  1
  O  O42  1  0.96928000  0.78223000  0.67616000  1
  O  O43  1  0.30455300  0.37500000  0.42955300  1
  O  O44  1  0.44544700  0.87500000  0.07044700  1
  O  O45  1  0.78072000  0.46777000  0.82384000  1
  O  O46  1  0.46928000  0.79312000  0.18705000  1
  O  O47  1  0.74681800  0.59958600  0.73036400  1
  O  O48  1  0.50318200  0.73354700  0.35276800  1
  O  O49  1  0.12500000  0.69544700  0.07044700  1
  O  O50  1  0.21777000  0.89393000  0.18705000  1
  O  O51  1  0.03223000  0.71928000  0.17616000  1
  O  O52  1  0.76645300  0.99681800  0.64723200  1
  O  O53  1  0.48354700  0.63077900  0.73036400  1
  O  O54  1  0.08886500  0.08886500  0.00000000  1
  O  O55  1  0.91113400  0.91113400  0.00000000  1
  O  O56  1  0.16113500  0.66113500  0.50000000  1
  O  O57  1  0.33886500  0.83886500  0.50000000  1
  O  O58  1  0.90041400  0.75318200  0.26963600  1
  O  O59  1  0.34958600  0.11922100  0.35276800  1
  O  O60  1  0.54312000  0.85607000  0.82384000  1
  O  O61  1  0.70688000  0.03072000  0.81295000  1
  O  O62  1  0.62500000  0.05455300  0.92955300  1
  O  O63  1  0.38077900  0.15041400  0.64723200  1
  O  O64  1  0.60607000  0.28223000  0.81295000  1
  O  O65  1  0.80455300  0.37500000  0.92955300  1
  O  O66  1  0.10607000  0.29312000  0.32384000  1
  O  O67  1  0.88077900  0.23354700  0.23036400  1
