# generated using pymatgen
data_Mn12O5F19
_symmetry_space_group_name_H-M   'P 1'
_cell_length_a   4.88063500
_cell_length_b   5.85260567
_cell_length_c   15.95973202
_cell_angle_alpha   88.65378130
_cell_angle_beta   89.69124949
_cell_angle_gamma   88.93676780
_symmetry_Int_Tables_number   1
_chemical_formula_structural   Mn12O5F19
_chemical_formula_sum   'Mn12 O5 F19'
_cell_volume   455.67078724
_cell_formula_units_Z   1
loop_
 _symmetry_equiv_pos_site_id
 _symmetry_equiv_pos_as_xyz
  1  'x, y, z'
loop_
 _atom_site_type_symbol
 _atom_site_label
 _atom_site_symmetry_multiplicity
 _atom_site_fract_x
 _atom_site_fract_y
 _atom_site_fract_z
 _atom_site_occupancy
  Mn  Mn0  1  0.03064600  0.18847800  0.42227800  1
  Mn  Mn1  1  0.99171400  0.85025000  0.24963400  1
  Mn  Mn2  1  0.97205500  0.16347800  0.08567700  1
  Mn  Mn3  1  0.02559700  0.15101600  0.74455900  1
  Mn  Mn4  1  0.00348000  0.84766900  0.58560500  1
  Mn  Mn5  1  0.01259500  0.84847700  0.90914400  1
  Mn  Mn6  1  0.47466000  0.32501400  0.58554000  1
  Mn  Mn7  1  0.51789500  0.33558900  0.92374100  1
  Mn  Mn8  1  0.51701700  0.32065300  0.24545600  1
  Mn  Mn9  1  0.51384600  0.64749600  0.08110200  1
  Mn  Mn10  1  0.49777400  0.64468500  0.41971600  1
  Mn  Mn11  1  0.47990600  0.67389600  0.75420300  1
  O  O12  1  0.20734000  0.10625100  0.63782500  1
  O  O13  1  0.21648500  0.90229400  0.80359600  1
  O  O14  1  0.29893400  0.40215400  0.47606800  1
  O  O15  1  0.71946800  0.37416100  0.03320100  1
  O  O16  1  0.78638100  0.10688500  0.18918300  1
  F  F17  1  0.23503100  0.10348600  0.30788300  1
  F  F18  1  0.20366300  0.12720900  0.97820900  1
  F  F19  1  0.23098400  0.89219800  0.13058200  1
  F  F20  1  0.23566800  0.88604900  0.47227200  1
  F  F21  1  0.26169800  0.39477400  0.14138400  1
  F  F22  1  0.26749400  0.60963200  0.30428700  1
  F  F23  1  0.25822400  0.60490500  0.64445800  1
  F  F24  1  0.27572700  0.39018500  0.81291900  1
  F  F25  1  0.27414100  0.62199700  0.97052000  1
  F  F26  1  0.73095000  0.61618500  0.19531800  1
  F  F27  1  0.73610700  0.39323400  0.35838600  1
  F  F28  1  0.73938000  0.61493400  0.53366200  1
  F  F29  1  0.73346000  0.61576000  0.86088600  1
  F  F30  1  0.72251000  0.36990800  0.69460600  1
  F  F31  1  0.76637800  0.10971600  0.52467000  1
  F  F32  1  0.75858800  0.87794200  0.36548600  1
  F  F33  1  0.76942100  0.87706900  0.01506400  1
  F  F34  1  0.78238600  0.12662100  0.85205000  1
  F  F35  1  0.75239000  0.87975000  0.69083400  1
