data_image0
_chemical_formula_structural       Ni3Sn4
_chemical_formula_sum              "Ni3 Sn4"
_cell_length_a       4.08221
_cell_length_b       5.26287
_cell_length_c       6.46817
_cell_angle_alpha    104.342
_cell_angle_beta     108.395
_cell_angle_gamma    90

_space_group_name_H-M_alt    "P 1"
_space_group_IT_number       1

loop_
  _space_group_symop_operation_xyz
  'x, y, z'

loop_
  _atom_site_type_symbol
  _atom_site_label
  _atom_site_symmetry_multiplicity
  _atom_site_fract_x
  _atom_site_fract_y
  _atom_site_fract_z
  _atom_site_occupancy
  Ni  Ni1       1.0  0.00000  0.00000  0.00000  1.0000
  Ni  Ni2       1.0  0.21600  0.33600  0.43200  1.0000
  Ni  Ni3       1.0  0.78400  0.66400  0.56800  1.0000
  Sn  Sn1       1.0  0.57100  0.31200  0.14300  1.0000
  Sn  Sn2       1.0  0.17200  0.81200  0.34300  1.0000
  Sn  Sn3       1.0  0.82800  0.18800  0.65700  1.0000
  Sn  Sn4       1.0  0.42900  0.68800  0.85700  1.0000
