# generated using pymatgen
data_Fe4O5F3
_symmetry_space_group_name_H-M   'P 1'
_cell_length_a   4.75713970
_cell_length_b   4.75713970
_cell_length_c   6.04836700
_cell_angle_alpha   90.00000000
_cell_angle_beta   90.00000000
_cell_angle_gamma   95.23139781
_symmetry_Int_Tables_number   1
_chemical_formula_structural   Fe4O5F3
_chemical_formula_sum   'Fe4 O5 F3'
_cell_volume   136.30668302
_cell_formula_units_Z   1
loop_
 _symmetry_equiv_pos_site_id
 _symmetry_equiv_pos_as_xyz
  1  'x, y, z'
loop_
 _atom_site_type_symbol
 _atom_site_label
 _atom_site_symmetry_multiplicity
 _atom_site_fract_x
 _atom_site_fract_y
 _atom_site_fract_z
 _atom_site_occupancy
  Fe  Fe0  1  0.99049100  0.00950900  0.74289400  1
  Fe  Fe1  1  0.99049100  0.00950900  0.25710600  1
  Fe  Fe2  1  0.52931700  0.47068300  0.50000000  1
  Fe  Fe3  1  0.49387100  0.50612900  0.00000000  1
  O  O4  1  0.81197400  0.18802600  0.50000000  1
  O  O5  1  0.30578500  0.30631100  0.76164800  1
  O  O6  1  0.30578500  0.30631100  0.23835200  1
  O  O7  1  0.69368900  0.69421500  0.76164800  1
  O  O8  1  0.69368900  0.69421500  0.23835200  1
  F  F9  1  0.80488200  0.19511800  0.00000000  1
  F  F10  1  0.19351200  0.80648800  0.50000000  1
  F  F11  1  0.18651600  0.81348400  0.00000000  1
