# generated using pymatgen
data_KBiO3
_symmetry_space_group_name_H-M   'P 1'
_cell_length_a   8.77023083
_cell_length_b   8.77023083
_cell_length_c   10.18497380
_cell_angle_alpha   55.71659593
_cell_angle_beta   55.71659593
_cell_angle_gamma   71.83168375
_symmetry_Int_Tables_number   1
_chemical_formula_structural   KBiO3
_chemical_formula_sum   'K6 Bi6 O18'
_cell_volume   534.81426347
_cell_formula_units_Z   6
loop_
 _symmetry_equiv_pos_site_id
 _symmetry_equiv_pos_as_xyz
  1  'x, y, z'
loop_
 _atom_site_type_symbol
 _atom_site_label
 _atom_site_symmetry_multiplicity
 _atom_site_fract_x
 _atom_site_fract_y
 _atom_site_fract_z
 _atom_site_occupancy
  K  K0  1  0.50000000  0.00000000  0.00000000  1
  K  K1  1  0.68025900  0.01200800  0.30890700  1
  K  K2  1  0.01200800  0.68025900  0.30890700  1
  K  K3  1  0.00000000  0.50000000  0.00000000  1
  K  K4  1  0.31974100  0.98799200  0.69109300  1
  K  K5  1  0.98799200  0.31974100  0.69109300  1
  Bi  Bi6  1  0.34113900  0.65886100  0.50000000  1
  Bi  Bi7  1  0.50006700  0.50006700  0.15974000  1
  Bi  Bi8  1  0.84101800  0.84101800  0.66089900  1
  Bi  Bi9  1  0.15898200  0.15898200  0.33910100  1
  Bi  Bi10  1  0.65886100  0.34113900  0.50000000  1
  Bi  Bi11  1  0.49993300  0.49993300  0.84026000  1
  O  O12  1  0.37684600  0.95175900  0.33991400  1
  O  O13  1  0.00537100  0.00537100  0.63547700  1
  O  O14  1  0.99462900  0.99462900  0.36452300  1
  O  O15  1  0.36040400  0.63959600  0.00000000  1
  O  O16  1  0.63959600  0.36040400  0.00000000  1
  O  O17  1  0.33280100  0.66192700  0.28921100  1
  O  O18  1  0.66192700  0.33280100  0.28921100  1
  O  O19  1  0.04824100  0.62315400  0.66008600  1
  O  O20  1  0.28588200  0.28588200  0.04924800  1
  O  O21  1  0.28720400  0.28720400  0.37993700  1
  O  O22  1  0.71279600  0.71279600  0.62006300  1
  O  O23  1  0.71411800  0.71411800  0.95075200  1
  O  O24  1  0.95175900  0.37684600  0.33991400  1
  O  O25  1  0.64001600  0.64001600  0.36393600  1
  O  O26  1  0.66719900  0.33807300  0.71078900  1
  O  O27  1  0.33807300  0.66719900  0.71078900  1
  O  O28  1  0.35998400  0.35998400  0.63606400  1
  O  O29  1  0.62315400  0.04824100  0.66008600  1
