# generated using pymatgen
data_Fe32O35
_symmetry_space_group_name_H-M   'P 1'
_cell_length_a   3.09952100
_cell_length_b   13.41148027
_cell_length_c   18.49732032
_cell_angle_alpha   105.17248826
_cell_angle_beta   94.59936236
_cell_angle_gamma   96.60591632
_symmetry_Int_Tables_number   1
_chemical_formula_structural   Fe32O35
_chemical_formula_sum   'Fe32 O35'
_cell_volume   732.29379488
_cell_formula_units_Z   1
loop_
 _symmetry_equiv_pos_site_id
 _symmetry_equiv_pos_as_xyz
  1  'x, y, z'
loop_
 _atom_site_type_symbol
 _atom_site_label
 _atom_site_symmetry_multiplicity
 _atom_site_fract_x
 _atom_site_fract_y
 _atom_site_fract_z
 _atom_site_occupancy
  Fe  Fe0  1  0.00794200  0.01392900  0.00083400  1
  Fe  Fe1  1  0.22208900  0.30158000  0.13266400  1
  Fe  Fe2  1  0.19816000  0.38746300  0.00140900  1
  Fe  Fe3  1  0.85712400  0.42810800  0.28182100  1
  Fe  Fe4  1  0.79303700  0.59889100  0.00174600  1
  Fe  Fe5  1  0.83061300  0.51372800  0.14343600  1
  Fe  Fe6  1  0.46691300  0.64738400  0.28610500  1
  Fe  Fe7  1  0.48453400  0.54366000  0.42482000  1
  Fe  Fe8  1  0.44470000  0.72623800  0.15292900  1
  Fe  Fe9  1  0.39922400  0.80053000  0.00150400  1
  Fe  Fe10  1  0.10493000  0.64520700  0.57191500  1
  Fe  Fe11  1  0.02347700  0.91678900  0.14090500  1
  Fe  Fe12  1  0.08409200  0.74359900  0.43182200  1
  Fe  Fe13  1  0.62534700  0.11398800  0.14687400  1
  Fe  Fe14  1  0.70588100  0.85513000  0.56945300  1
  Fe  Fe15  1  0.67068800  0.93163000  0.41801000  1
  Fe  Fe16  1  0.65298900  0.01420800  0.28437400  1
  Fe  Fe17  1  0.25537700  0.22966400  0.28692300  1
  Fe  Fe18  1  0.36116700  0.88389700  0.85783000  1
  Fe  Fe19  1  0.31729200  0.05749000  0.56904800  1
  Fe  Fe20  1  0.28404200  0.14305700  0.42869000  1
  Fe  Fe21  1  0.75011600  0.77289900  0.71469700  1
  Fe  Fe22  1  0.94250100  0.16997200  0.71210300  1
  Fe  Fe23  1  0.91441500  0.27246600  0.57228300  1
  Fe  Fe24  1  0.89353000  0.34907300  0.43698700  1
  Fe  Fe25  1  0.97795300  0.09184100  0.86605700  1
  Fe  Fe26  1  0.33851900  0.97324400  0.71398000  1
  Fe  Fe27  1  0.54923600  0.36923700  0.71366500  1
  Fe  Fe28  1  0.56766000  0.28730100  0.85575200  1
  Fe  Fe29  1  0.17916100  0.48879700  0.85700400  1
  Fe  Fe30  1  0.77466100  0.68658000  0.85805900  1
  Fe  Fe31  1  0.12901700  0.56317200  0.70506800  1
  O  O32  1  0.10127500  0.14582900  0.07955400  1
  O  O33  1  0.74815100  0.27847600  0.21624900  1
  O  O34  1  0.72360100  0.36884400  0.07716100  1
  O  O35  1  0.37574100  0.38956800  0.35898100  1
  O  O36  1  0.34529000  0.47803400  0.20919300  1
  O  O37  1  0.31481700  0.54996700  0.07403500  1
  O  O38  1  0.99214600  0.50968100  0.48414100  1
  O  O39  1  0.97376300  0.57688300  0.35735600  1
  O  O40  1  0.93431700  0.65889500  0.20714200  1
  O  O41  1  0.91876900  0.75132700  0.06732700  1
  O  O42  1  0.58028700  0.69113900  0.49942200  1
  O  O43  1  0.58223000  0.77693100  0.37020300  1
  O  O44  1  0.52865100  0.95960800  0.06173300  1
  O  O45  1  0.52277400  0.88057100  0.20033200  1
  O  O46  1  0.21403600  0.80462700  0.64152900  1
  O  O47  1  0.18997500  0.90532200  0.50514500  1
  O  O48  1  0.17955500  0.99874200  0.36336200  1
  O  O49  1  0.15945200  0.07840100  0.21767000  1
  O  O50  1  0.83692300  0.93592400  0.78886600  1
  O  O51  1  0.84426200  0.00949700  0.64570000  1
  O  O52  1  0.77431600  0.18415200  0.36353300  1
  O  O53  1  0.79560400  0.10523700  0.49537300  1
  O  O54  1  0.40304400  0.20800800  0.64219200  1
  O  O55  1  0.47743100  0.13737300  0.78801500  1
  O  O56  1  0.38856500  0.28847700  0.49461700  1
  O  O57  1  0.48164700  0.03845000  0.93397700  1
  O  O58  1  0.05304800  0.41289800  0.65506600  1
  O  O59  1  0.08210600  0.25247500  0.91412300  1
  O  O60  1  0.04070800  0.32846900  0.78925900  1
  O  O61  1  0.63578300  0.53269200  0.78160600  1
  O  O62  1  0.62984000  0.60991800  0.65055800  1
  O  O63  1  0.69817400  0.44207400  0.92421200  1
  O  O64  1  0.27222600  0.72092900  0.78185700  1
  O  O65  1  0.26691000  0.64507600  0.92699200  1
  O  O66  1  0.88447400  0.84996300  0.92984600  1
