# generated using pymatgen
data_La16Mn15O48
_symmetry_space_group_name_H-M   'P 1'
_cell_length_a   7.89078500
_cell_length_b   7.90047593
_cell_length_c   15.78023689
_cell_angle_alpha   90.05485689
_cell_angle_beta   90.14931915
_cell_angle_gamma   90.09955091
_symmetry_Int_Tables_number   1
_chemical_formula_structural   La16Mn15O48
_chemical_formula_sum   'La16 Mn15 O48'
_cell_volume   983.74978736
_cell_formula_units_Z   1
loop_
 _symmetry_equiv_pos_site_id
 _symmetry_equiv_pos_as_xyz
  1  'x, y, z'
loop_
 _atom_site_type_symbol
 _atom_site_label
 _atom_site_symmetry_multiplicity
 _atom_site_fract_x
 _atom_site_fract_y
 _atom_site_fract_z
 _atom_site_occupancy
  La  La0  1  0.27542200  0.75327400  0.88161200  1
  La  La1  1  0.26529100  0.76032700  0.37457700  1
  La  La2  1  0.73470900  0.23967300  0.62542300  1
  La  La3  1  0.72457800  0.24672600  0.11838800  1
  La  La4  1  0.74214600  0.73418500  0.62596200  1
  La  La5  1  0.24888300  0.23958800  0.12039100  1
  La  La6  1  0.23995700  0.23213100  0.62683900  1
  La  La7  1  0.72482800  0.71521300  0.11653400  1
  La  La8  1  0.76004300  0.76786900  0.37316100  1
  La  La9  1  0.27517200  0.28478700  0.88346600  1
  La  La10  1  0.25785400  0.26581500  0.37403800  1
  La  La11  1  0.75111700  0.76041200  0.87960900  1
  La  La12  1  0.76806700  0.25748100  0.37254300  1
  La  La13  1  0.75831500  0.26872100  0.87964400  1
  La  La14  1  0.23193300  0.74251900  0.62745700  1
  La  La15  1  0.24168500  0.73127900  0.12035600  1
  Mn  Mn16  1  0.50000000  0.00000000  0.00000000  1
  Mn  Mn17  1  0.50000000  0.00000000  0.50000000  1
  Mn  Mn18  1  0.50051100  0.00121300  0.75071100  1
  Mn  Mn19  1  0.49948900  0.99878700  0.24928900  1
  Mn  Mn20  1  0.00000000  0.00000000  0.00000000  1
  Mn  Mn21  1  0.99988800  0.99956800  0.24637400  1
  Mn  Mn22  1  0.50066400  0.50090700  0.74825700  1
  Mn  Mn23  1  0.00000000  0.00000000  0.50000000  1
  Mn  Mn24  1  0.00011200  0.00043200  0.75362600  1
  Mn  Mn25  1  0.50000000  0.50000000  0.50000000  1
  Mn  Mn26  1  0.49933600  0.49909300  0.25174300  1
  Mn  Mn27  1  0.00038000  0.49835100  0.75078400  1
  Mn  Mn28  1  0.00000000  0.50000000  0.50000000  1
  Mn  Mn29  1  0.00000000  0.50000000  0.00000000  1
  Mn  Mn30  1  0.99962000  0.50164900  0.24921600  1
  O  O31  1  0.52139000  0.74945000  0.27434300  1
  O  O32  1  0.52392600  0.75150600  0.76948400  1
  O  O33  1  0.52459900  0.76645400  0.98046900  1
  O  O34  1  0.52373900  0.75182900  0.47837200  1
  O  O35  1  0.54175900  0.96291300  0.12495500  1
  O  O36  1  0.54435500  0.96751000  0.62531900  1
  O  O37  1  0.45824100  0.03708700  0.87504500  1
  O  O38  1  0.45564500  0.03249000  0.37468100  1
  O  O39  1  0.74912500  0.47808400  0.72548100  1
  O  O40  1  0.74916800  0.47753300  0.52150700  1
  O  O41  1  0.24794900  0.97133800  0.01936200  1
  O  O42  1  0.24931500  0.97561100  0.22840000  1
  O  O43  1  0.76664500  0.46955300  0.01968800  1
  O  O44  1  0.74843300  0.47492600  0.22987100  1
  O  O45  1  0.24941800  0.97629100  0.52086600  1
  O  O46  1  0.24934900  0.97768200  0.72867000  1
  O  O47  1  0.47540100  0.23354600  0.01953100  1
  O  O48  1  0.47607400  0.24849400  0.23051600  1
  O  O49  1  0.47861000  0.25055000  0.72565700  1
  O  O50  1  0.47626100  0.24817100  0.52162800  1
  O  O51  1  0.03160300  0.95783000  0.37338000  1
  O  O52  1  0.53347200  0.46133800  0.86387200  1
  O  O53  1  0.53436400  0.45210000  0.37288000  1
  O  O54  1  0.03022700  0.94696700  0.87662000  1
  O  O55  1  0.46652800  0.53866200  0.13612800  1
  O  O56  1  0.96977300  0.05303300  0.12338000  1
  O  O57  1  0.46563600  0.54790000  0.62712000  1
  O  O58  1  0.96839700  0.04217000  0.62662000  1
  O  O59  1  0.03043300  0.24927600  0.97966800  1
  O  O60  1  0.02520400  0.25042300  0.77222600  1
  O  O61  1  0.02278700  0.25114800  0.27163400  1
  O  O62  1  0.02266200  0.24974600  0.47941700  1
  O  O63  1  0.25156700  0.52507400  0.77012900  1
  O  O64  1  0.25087500  0.52191600  0.27451900  1
  O  O65  1  0.25083200  0.52246700  0.47849300  1
  O  O66  1  0.23335500  0.53044700  0.98031200  1
  O  O67  1  0.75065100  0.02231800  0.27133000  1
  O  O68  1  0.75205100  0.02866200  0.98063800  1
  O  O69  1  0.75058200  0.02370900  0.47913400  1
  O  O70  1  0.75068500  0.02438900  0.77160000  1
  O  O71  1  0.04924300  0.47048700  0.12508000  1
  O  O72  1  0.04428300  0.46702500  0.62531100  1
  O  O73  1  0.95571700  0.53297500  0.37468900  1
  O  O74  1  0.95075700  0.52951300  0.87492000  1
  O  O75  1  0.96956700  0.75072400  0.02033200  1
  O  O76  1  0.97479600  0.74957700  0.22777400  1
  O  O77  1  0.97721300  0.74885200  0.72836600  1
  O  O78  1  0.97733800  0.75025400  0.52058300  1
