# generated using pymatgen
data_RbSn3
_symmetry_space_group_name_H-M   'P 1'
_cell_length_a   7.95689817
_cell_length_b   7.95689817
_cell_length_c   5.50370300
_cell_angle_alpha   90.00000000
_cell_angle_beta   90.00000000
_cell_angle_gamma   120.00000142
_symmetry_Int_Tables_number   1
_chemical_formula_structural   RbSn3
_chemical_formula_sum   'Rb2 Sn6'
_cell_volume   301.76802153
_cell_formula_units_Z   2
loop_
 _symmetry_equiv_pos_site_id
 _symmetry_equiv_pos_as_xyz
  1  'x, y, z'
loop_
 _atom_site_type_symbol
 _atom_site_label
 _atom_site_symmetry_multiplicity
 _atom_site_fract_x
 _atom_site_fract_y
 _atom_site_fract_z
 _atom_site_occupancy
  Rb  Rb0  1  0.33333300  0.66666700  0.75000000  1
  Rb  Rb1  1  0.66666700  0.33333300  0.25000000  1
  Sn  Sn2  1  0.12879900  0.25759700  0.25000000  1
  Sn  Sn3  1  0.74240300  0.87120100  0.25000000  1
  Sn  Sn4  1  0.12879900  0.87120100  0.25000000  1
  Sn  Sn5  1  0.87120100  0.74240300  0.75000000  1
  Sn  Sn6  1  0.25759700  0.12879900  0.75000000  1
  Sn  Sn7  1  0.87120100  0.12879900  0.75000000  1
