# generated using pymatgen
data_Mn3VNi2(PO4)6
_symmetry_space_group_name_H-M   'P 1'
_cell_length_a   8.47032864
_cell_length_b   8.58563098
_cell_length_c   8.58563214
_cell_angle_alpha   60.00000310
_cell_angle_beta   59.54866958
_cell_angle_gamma   59.54866465
_symmetry_Int_Tables_number   1
_chemical_formula_structural   Mn3VNi2(PO4)6
_chemical_formula_sum   'Mn3 V1 Ni2 P6 O24'
_cell_volume   438.46317413
_cell_formula_units_Z   1
loop_
 _symmetry_equiv_pos_site_id
 _symmetry_equiv_pos_as_xyz
  1  'x, y, z'
loop_
 _atom_site_type_symbol
 _atom_site_label
 _atom_site_symmetry_multiplicity
 _atom_site_fract_x
 _atom_site_fract_y
 _atom_site_fract_z
 _atom_site_occupancy
  Mn  Mn0  1  0.07442800  0.64185700  0.64185700  1
  Mn  Mn1  1  0.42757200  0.85747600  0.85747600  1
  Mn  Mn2  1  0.92704600  0.35765200  0.35765200  1
  V  V3  1  0.57311900  0.14229400  0.14229400  1
  Ni  Ni4  1  0.00011900  0.99996000  0.99996000  1
  Ni  Ni5  1  0.50183100  0.49939000  0.49939000  1
  P  P6  1  0.25003400  0.24908700  0.54406200  1
  P  P7  1  0.25003400  0.95681700  0.24908700  1
  P  P8  1  0.25003400  0.54406200  0.95681700  1
  P  P9  1  0.74980600  0.45798600  0.04324100  1
  P  P10  1  0.74980600  0.04324100  0.74896600  1
  P  P11  1  0.74980600  0.74896600  0.45798600  1
  O  O12  1  0.06282800  0.11493200  0.31027200  1
  O  O13  1  0.06282800  0.51196800  0.11493200  1
  O  O14  1  0.06282800  0.31027200  0.51196800  1
  O  O15  1  0.22859800  0.08652100  0.74244200  1
  O  O16  1  0.43412600  0.18079600  0.38348200  1
  O  O17  1  0.27993500  0.40938600  0.55159000  1
  O  O18  1  0.22859800  0.94243900  0.08652100  1
  O  O19  1  0.27993500  0.75908900  0.40938600  1
  O  O20  1  0.56292400  0.61721000  0.00954700  1
  O  O21  1  0.27993500  0.55159000  0.75908900  1
  O  O22  1  0.76709000  0.25823400  0.06096300  1
  O  O23  1  0.56292400  0.00954700  0.81031800  1
  O  O24  1  0.43412600  0.00159500  0.18079600  1
  O  O25  1  0.22859800  0.74244200  0.94243900  1
  O  O26  1  0.72567800  0.44117800  0.24340300  1
  O  O27  1  0.43412600  0.38348200  0.00159500  1
  O  O28  1  0.72567800  0.24340300  0.58974100  1
  O  O29  1  0.76709000  0.06096300  0.91371300  1
  O  O30  1  0.72567800  0.58974100  0.44117800  1
  O  O31  1  0.56292400  0.81031800  0.61721000  1
  O  O32  1  0.76709000  0.91371300  0.25823400  1
  O  O33  1  0.93761000  0.68857000  0.48789100  1
  O  O34  1  0.93761000  0.48789100  0.88592900  1
  O  O35  1  0.93761000  0.88592900  0.68857000  1
