# generated using pymatgen
data_Sm3Y5O12
_symmetry_space_group_name_H-M   'P 1'
_cell_length_a   9.37116431
_cell_length_b   9.37116431
_cell_length_c   9.37116431
_cell_angle_alpha   109.49091684
_cell_angle_beta   109.48533126
_cell_angle_gamma   109.43741914
_symmetry_Int_Tables_number   1
_chemical_formula_structural   Sm3Y5O12
_chemical_formula_sum   'Sm6 Y10 O24'
_cell_volume   633.51755381
_cell_formula_units_Z   2
loop_
 _symmetry_equiv_pos_site_id
 _symmetry_equiv_pos_as_xyz
  1  'x, y, z'
loop_
 _atom_site_type_symbol
 _atom_site_label
 _atom_site_symmetry_multiplicity
 _atom_site_fract_x
 _atom_site_fract_y
 _atom_site_fract_z
 _atom_site_occupancy
  Sm  Sm0  1  0.00210500  0.00280900  0.00129300  1
  Sm  Sm1  1  0.50151600  0.00081200  0.49870700  1
  Sm  Sm2  1  0.49789500  0.49918800  0.00070400  1
  Sm  Sm3  1  0.99848400  0.49719100  0.49929600  1
  Sm  Sm4  1  0.46916800  0.71916800  0.75000000  1
  Sm  Sm5  1  0.03083200  0.78083200  0.25000000  1
  Y  Y6  1  0.96844600  0.21844600  0.75000000  1
  Y  Y7  1  0.71846700  0.75000000  0.46846700  1
  Y  Y8  1  0.78153300  0.25000000  0.03153300  1
  Y  Y9  1  0.25000000  0.03258400  0.78258500  1
  Y  Y10  1  0.25000000  0.53008700  0.28008700  1
  Y  Y11  1  0.53155400  0.28155400  0.25000000  1
  Y  Y12  1  0.75000000  0.46741500  0.71741500  1
  Y  Y13  1  0.75000000  0.96991300  0.21991300  1
  Y  Y14  1  0.28250400  0.25000000  0.53250400  1
  Y  Y15  1  0.21749600  0.75000000  0.96749600  1
  O  O16  1  0.45711600  0.48612800  0.23121300  1
  O  O17  1  0.04288400  0.27409700  0.02901200  1
  O  O18  1  0.02991800  0.04506200  0.27490300  1
  O  O19  1  0.73149200  0.24324100  0.77341100  1
  O  O20  1  0.22984200  0.45493800  0.48485600  1
  O  O21  1  0.53017000  0.25675900  0.98825100  1
  O  O22  1  0.75491500  0.22590300  0.26878700  1
  O  O23  1  0.74508500  0.01387200  0.47098800  1
  O  O24  1  0.98761700  0.52555600  0.25673600  1
  O  O25  1  0.51238300  0.76911900  0.53793800  1
  O  O26  1  0.22585400  0.26864000  0.75647200  1
  O  O27  1  0.27414600  0.03061800  0.04278500  1
  O  O28  1  0.73118000  0.97444400  0.96206200  1
  O  O29  1  0.01216800  0.46938200  0.74352800  1
  O  O30  1  0.76882000  0.73088100  0.24326400  1
  O  O31  1  0.48783200  0.23136000  0.45721500  1
  O  O32  1  0.26177100  0.99170300  0.53430900  1
  O  O33  1  0.23822900  0.77253700  0.72993200  1
  O  O34  1  0.47008200  0.74498500  0.01514400  1
  O  O35  1  0.76850800  0.54191900  0.51174900  1
  O  O36  1  0.27015800  0.75501500  0.22509700  1
  O  O37  1  0.96983000  0.95808100  0.72658900  1
  O  O38  1  0.95739400  0.72746300  0.96569100  1
  O  O39  1  0.54260600  0.50829700  0.77006800  1
