# generated using pymatgen
data_Yb3Sn
_symmetry_space_group_name_H-M   'P 1'
_cell_length_a   7.03791956
_cell_length_b   7.03791956
_cell_length_c   5.59862500
_cell_angle_alpha   90.00000000
_cell_angle_beta   90.00000000
_cell_angle_gamma   119.99999585
_symmetry_Int_Tables_number   1
_chemical_formula_structural   Yb3Sn
_chemical_formula_sum   'Yb6 Sn2'
_cell_volume   240.15997312
_cell_formula_units_Z   2
loop_
 _symmetry_equiv_pos_site_id
 _symmetry_equiv_pos_as_xyz
  1  'x, y, z'
loop_
 _atom_site_type_symbol
 _atom_site_label
 _atom_site_symmetry_multiplicity
 _atom_site_fract_x
 _atom_site_fract_y
 _atom_site_fract_z
 _atom_site_occupancy
  Yb  Yb0  1  0.17306600  0.34613200  0.25000000  1
  Yb  Yb1  1  0.65386800  0.82693400  0.25000000  1
  Yb  Yb2  1  0.17306600  0.82693400  0.25000000  1
  Yb  Yb3  1  0.82693400  0.65386800  0.75000000  1
  Yb  Yb4  1  0.34613200  0.17306600  0.75000000  1
  Yb  Yb5  1  0.82693400  0.17306600  0.75000000  1
  Sn  Sn6  1  0.33333300  0.66666700  0.75000000  1
  Sn  Sn7  1  0.66666700  0.33333300  0.25000000  1
