data_image0
_chemical_formula_structural       Fe2K2S4
_chemical_formula_sum              "Fe2 K2 S4"
_cell_length_a       5.37218
_cell_length_b       6.58169
_cell_length_c       6.58169
_cell_angle_alpha    116.095
_cell_angle_beta     101.78
_cell_angle_gamma    101.78

_space_group_name_H-M_alt    "P 1"
_space_group_IT_number       1

loop_
  _space_group_symop_operation_xyz
  'x, y, z'

loop_
  _atom_site_type_symbol
  _atom_site_label
  _atom_site_symmetry_multiplicity
  _atom_site_fract_x
  _atom_site_fract_y
  _atom_site_fract_z
  _atom_site_occupancy
  Fe  Fe1       1.0  0.75000  0.99700  0.00267  1.0000
  Fe  Fe2       1.0  0.25000  0.00267  0.99700  1.0000
  K   K1        1.0  0.25000  0.64300  0.35700  1.0000
  K   K2        1.0  0.75000  0.35700  0.64300  1.0000
  S   S1        1.0  0.60000  0.29900  0.08500  1.0000
  S   S2        1.0  0.09990  0.08500  0.29900  1.0000
  S   S3        1.0  0.90000  0.91500  0.70100  1.0000
  S   S4        1.0  0.40000  0.70100  0.91500  1.0000
