# generated using pymatgen
data_SmMgF4
_symmetry_space_group_name_H-M   'P 1'
_cell_length_a   8.05607386
_cell_length_b   8.05607386
_cell_length_c   5.79968400
_cell_angle_alpha   90.00000000
_cell_angle_beta   90.00000000
_cell_angle_gamma   152.51158472
_symmetry_Int_Tables_number   1
_chemical_formula_structural   SmMgF4
_chemical_formula_sum   'Sm2 Mg2 F8'
_cell_volume   173.73530685
_cell_formula_units_Z   2
loop_
 _symmetry_equiv_pos_site_id
 _symmetry_equiv_pos_as_xyz
  1  'x, y, z'
loop_
 _atom_site_type_symbol
 _atom_site_label
 _atom_site_symmetry_multiplicity
 _atom_site_fract_x
 _atom_site_fract_y
 _atom_site_fract_z
 _atom_site_occupancy
  Sm  Sm0  1  0.67855000  0.32145000  0.75000000  1
  Sm  Sm1  1  0.32145000  0.67855000  0.25000000  1
  Mg  Mg2  1  0.07967000  0.92033000  0.25000000  1
  Mg  Mg3  1  0.92033000  0.07967000  0.75000000  1
  F  F4  1  0.00000000  0.00000000  0.00000000  1
  F  F5  1  0.00000000  0.00000000  0.50000000  1
  F  F6  1  0.19265700  0.80734300  0.48946600  1
  F  F7  1  0.80734300  0.19265700  0.51053400  1
  F  F8  1  0.38952400  0.61047600  0.75000000  1
  F  F9  1  0.61047600  0.38952400  0.25000000  1
  F  F10  1  0.19265700  0.80734300  0.01053400  1
  F  F11  1  0.80734300  0.19265700  0.98946600  1
