# generated using pymatgen
data_Yb3H
_symmetry_space_group_name_H-M   'P 1'
_cell_length_a   7.08339970
_cell_length_b   7.08339970
_cell_length_c   5.99149800
_cell_angle_alpha   90.00000000
_cell_angle_beta   90.00000000
_cell_angle_gamma   119.99999721
_symmetry_Int_Tables_number   1
_chemical_formula_structural   Yb3H
_chemical_formula_sum   'Yb6 H2'
_cell_volume   260.34519114
_cell_formula_units_Z   2
loop_
 _symmetry_equiv_pos_site_id
 _symmetry_equiv_pos_as_xyz
  1  'x, y, z'
loop_
 _atom_site_type_symbol
 _atom_site_label
 _atom_site_symmetry_multiplicity
 _atom_site_fract_x
 _atom_site_fract_y
 _atom_site_fract_z
 _atom_site_occupancy
  Yb  Yb0  1  0.16749500  0.33499000  0.25000000  1
  Yb  Yb1  1  0.66501000  0.83250500  0.25000000  1
  Yb  Yb2  1  0.16749500  0.83250500  0.25000000  1
  Yb  Yb3  1  0.83250500  0.66501000  0.75000000  1
  Yb  Yb4  1  0.33499000  0.16749500  0.75000000  1
  Yb  Yb5  1  0.83250500  0.16749500  0.75000000  1
  H  H6  1  0.33333300  0.66666700  0.75000000  1
  H  H7  1  0.66666700  0.33333300  0.25000000  1
