# generated using pymatgen
data_Zr9V4S
_symmetry_space_group_name_H-M   'P 1'
_cell_length_a   8.65631998
_cell_length_b   8.65631998
_cell_length_c   8.53839600
_cell_angle_alpha   90.00000000
_cell_angle_beta   90.00000000
_cell_angle_gamma   119.99999985
_symmetry_Int_Tables_number   1
_chemical_formula_structural   Zr9V4S
_chemical_formula_sum   'Zr18 V8 S2'
_cell_volume   554.08134539
_cell_formula_units_Z   2
loop_
 _symmetry_equiv_pos_site_id
 _symmetry_equiv_pos_as_xyz
  1  'x, y, z'
loop_
 _atom_site_type_symbol
 _atom_site_label
 _atom_site_symmetry_multiplicity
 _atom_site_fract_x
 _atom_site_fract_y
 _atom_site_fract_z
 _atom_site_occupancy
  Zr  Zr0  1  0.19553000  0.39105900  0.94876800  1
  Zr  Zr1  1  0.19553000  0.80447000  0.94876800  1
  Zr  Zr2  1  0.45800600  0.91601300  0.25000000  1
  Zr  Zr3  1  0.54199400  0.45800600  0.75000000  1
  Zr  Zr4  1  0.91601300  0.45800600  0.75000000  1
  Zr  Zr5  1  0.08398700  0.54199400  0.25000000  1
  Zr  Zr6  1  0.45800600  0.54199400  0.25000000  1
  Zr  Zr7  1  0.54199400  0.08398700  0.75000000  1
  Zr  Zr8  1  0.60894100  0.80447000  0.94876800  1
  Zr  Zr9  1  0.39105900  0.19553000  0.44876800  1
  Zr  Zr10  1  0.80447000  0.60894100  0.05123200  1
  Zr  Zr11  1  0.80447000  0.19553000  0.44876800  1
  Zr  Zr12  1  0.80447000  0.60894100  0.44876800  1
  Zr  Zr13  1  0.19553000  0.80447000  0.55123200  1
  Zr  Zr14  1  0.60894100  0.80447000  0.55123200  1
  Zr  Zr15  1  0.39105900  0.19553000  0.05123200  1
  Zr  Zr16  1  0.80447000  0.19553000  0.05123200  1
  Zr  Zr17  1  0.19553000  0.39105900  0.55123200  1
  V  V18  1  0.00000000  0.00000000  0.50000000  1
  V  V19  1  0.00000000  0.00000000  0.00000000  1
  V  V20  1  0.89612600  0.79225300  0.75000000  1
  V  V21  1  0.10387400  0.89612600  0.25000000  1
  V  V22  1  0.79225300  0.89612600  0.25000000  1
  V  V23  1  0.20774700  0.10387400  0.75000000  1
  V  V24  1  0.89612600  0.10387400  0.75000000  1
  V  V25  1  0.10387400  0.20774700  0.25000000  1
  S  S26  1  0.66666700  0.33333300  0.25000000  1
  S  S27  1  0.33333300  0.66666700  0.75000000  1
