data_image0
_chemical_formula_structural       Ir2Si6
_chemical_formula_sum              "Ir2 Si6"
_cell_length_a       4.35916
_cell_length_b       4.35909
_cell_length_c       7.44704
_cell_angle_alpha    90
_cell_angle_beta     90
_cell_angle_gamma    120.001

_space_group_name_H-M_alt    "P 1"
_space_group_IT_number       1

loop_
  _space_group_symop_operation_xyz
  'x, y, z'

loop_
  _atom_site_type_symbol
  _atom_site_label
  _atom_site_symmetry_multiplicity
  _atom_site_fract_x
  _atom_site_fract_y
  _atom_site_fract_z
  _atom_site_occupancy
  Ir  Ir1       1.0  0.33300  0.66700  0.25000  1.0000
  Ir  Ir2       1.0  0.66700  0.33300  0.75000  1.0000
  Si  Si1       1.0  0.66700  0.33300  0.08470  1.0000
  Si  Si2       1.0  0.00000  0.00000  0.25000  1.0000
  Si  Si3       1.0  0.66700  0.33300  0.41500  1.0000
  Si  Si4       1.0  0.33300  0.66700  0.58500  1.0000
  Si  Si5       1.0  0.00001  0.00001  0.75000  1.0000
  Si  Si6       1.0  0.33300  0.66700  0.91500  1.0000
