# generated using pymatgen
data_K4Ba(SiO3)3
_symmetry_space_group_name_H-M   'P 1'
_cell_length_a   7.27235106
_cell_length_b   7.27235106
_cell_length_c   11.30352600
_cell_angle_alpha   90.00000000
_cell_angle_beta   90.00000000
_cell_angle_gamma   113.10978002
_symmetry_Int_Tables_number   1
_chemical_formula_structural   K4Ba(SiO3)3
_chemical_formula_sum   'K8 Ba2 Si6 O18'
_cell_volume   549.83899451
_cell_formula_units_Z   2
loop_
 _symmetry_equiv_pos_site_id
 _symmetry_equiv_pos_as_xyz
  1  'x, y, z'
loop_
 _atom_site_type_symbol
 _atom_site_label
 _atom_site_symmetry_multiplicity
 _atom_site_fract_x
 _atom_site_fract_y
 _atom_site_fract_z
 _atom_site_occupancy
  K  K0  1  0.28188400  0.80801000  0.75000000  1
  K  K1  1  0.19199000  0.71811600  0.25000000  1
  K  K2  1  0.97721000  0.02279000  0.00000000  1
  K  K3  1  0.97721000  0.02279000  0.50000000  1
  K  K4  1  0.48175300  0.51824700  0.00000000  1
  K  K5  1  0.48175300  0.51824700  0.50000000  1
  K  K6  1  0.28440700  0.30098500  0.75000000  1
  K  K7  1  0.69901500  0.71559300  0.25000000  1
  Ba  Ba8  1  0.76850600  0.22489700  0.75000000  1
  Ba  Ba9  1  0.77510300  0.23149400  0.25000000  1
  Si  Si10  1  0.81306000  0.73646900  0.75000000  1
  Si  Si11  1  0.26353100  0.18694000  0.25000000  1
  Si  Si12  1  0.00491500  0.57646500  0.97794200  1
  Si  Si13  1  0.42353500  0.99508500  0.02205800  1
  Si  Si14  1  0.00491500  0.57646500  0.52205800  1
  Si  Si15  1  0.42353500  0.99508500  0.47794200  1
  O  O16  1  0.57479500  0.67390500  0.75000000  1
  O  O17  1  0.32609500  0.42520500  0.25000000  1
  O  O18  1  0.95217100  0.97296600  0.75000000  1
  O  O19  1  0.02703400  0.04782900  0.25000000  1
  O  O20  1  0.87587400  0.62955300  0.86745700  1
  O  O21  1  0.37044700  0.12412600  0.13254300  1
  O  O22  1  0.87587400  0.62955300  0.63254300  1
  O  O23  1  0.37044700  0.12412600  0.36745700  1
  O  O24  1  0.87215900  0.53659400  0.09706300  1
  O  O25  1  0.46340600  0.12784100  0.90293700  1
  O  O26  1  0.87215900  0.53659400  0.40293700  1
  O  O27  1  0.46340600  0.12784100  0.59706300  1
  O  O28  1  0.21217900  0.78782100  0.00000000  1
  O  O29  1  0.21217900  0.78782100  0.50000000  1
  O  O30  1  0.06825100  0.40182800  0.92635700  1
  O  O31  1  0.59817200  0.93174900  0.07364300  1
  O  O32  1  0.06825100  0.40182800  0.57364300  1
  O  O33  1  0.59817200  0.93174900  0.42635700  1
