# generated using pymatgen
data_Tm3Si
_symmetry_space_group_name_H-M   'P 1'
_cell_length_a   6.51818183
_cell_length_b   6.51818183
_cell_length_c   5.16177100
_cell_angle_alpha   90.00000000
_cell_angle_beta   90.00000000
_cell_angle_gamma   119.99999826
_symmetry_Int_Tables_number   1
_chemical_formula_structural   Tm3Si
_chemical_formula_sum   'Tm6 Si2'
_cell_volume   189.92507868
_cell_formula_units_Z   2
loop_
 _symmetry_equiv_pos_site_id
 _symmetry_equiv_pos_as_xyz
  1  'x, y, z'
loop_
 _atom_site_type_symbol
 _atom_site_label
 _atom_site_symmetry_multiplicity
 _atom_site_fract_x
 _atom_site_fract_y
 _atom_site_fract_z
 _atom_site_occupancy
  Tm  Tm0  1  0.17444200  0.34888500  0.25000000  1
  Tm  Tm1  1  0.65111500  0.82555800  0.25000000  1
  Tm  Tm2  1  0.17444200  0.82555800  0.25000000  1
  Tm  Tm3  1  0.82555800  0.65111500  0.75000000  1
  Tm  Tm4  1  0.34888500  0.17444200  0.75000000  1
  Tm  Tm5  1  0.82555800  0.17444200  0.75000000  1
  Si  Si6  1  0.33333300  0.66666700  0.75000000  1
  Si  Si7  1  0.66666700  0.33333300  0.25000000  1
