# generated using pymatgen
data_TiPd
_symmetry_space_group_name_H-M   'P 1'
_cell_length_a   4.58896300
_cell_length_b   2.80946500
_cell_length_c   4.91534492
_cell_angle_alpha   87.94835343
_cell_angle_beta   90.00000000
_cell_angle_gamma   90.00000000
_symmetry_Int_Tables_number   1
_chemical_formula_structural   TiPd
_chemical_formula_sum   'Ti2 Pd2'
_cell_volume   63.33061310
_cell_formula_units_Z   2
loop_
 _symmetry_equiv_pos_site_id
 _symmetry_equiv_pos_as_xyz
  1  'x, y, z'
loop_
 _atom_site_type_symbol
 _atom_site_label
 _atom_site_symmetry_multiplicity
 _atom_site_fract_x
 _atom_site_fract_y
 _atom_site_fract_z
 _atom_site_occupancy
  Ti  Ti0  1  0.25000000  0.96790200  0.29823100  1
  Ti  Ti1  1  0.75000000  0.03209800  0.70176900  1
  Pd  Pd2  1  0.25000000  0.50443700  0.81249000  1
  Pd  Pd3  1  0.75000000  0.49556300  0.18751000  1
