# generated using pymatgen
data_AsAu3
_symmetry_space_group_name_H-M   'P 1'
_cell_length_a   5.95898491
_cell_length_b   5.95898491
_cell_length_c   4.80890700
_cell_angle_alpha   90.00000000
_cell_angle_beta   90.00000000
_cell_angle_gamma   119.99998792
_symmetry_Int_Tables_number   1
_chemical_formula_structural   AsAu3
_chemical_formula_sum   'As2 Au6'
_cell_volume   147.88415168
_cell_formula_units_Z   2
loop_
 _symmetry_equiv_pos_site_id
 _symmetry_equiv_pos_as_xyz
  1  'x, y, z'
loop_
 _atom_site_type_symbol
 _atom_site_label
 _atom_site_symmetry_multiplicity
 _atom_site_fract_x
 _atom_site_fract_y
 _atom_site_fract_z
 _atom_site_occupancy
  As  As0  1  0.33333300  0.66666700  0.75000000  1
  As  As1  1  0.66666700  0.33333300  0.25000000  1
  Au  Au2  1  0.16683200  0.33366400  0.25000000  1
  Au  Au3  1  0.66633600  0.83316800  0.25000000  1
  Au  Au4  1  0.16683200  0.83316800  0.25000000  1
  Au  Au5  1  0.83316800  0.66633600  0.75000000  1
  Au  Au6  1  0.33366400  0.16683200  0.75000000  1
  Au  Au7  1  0.83316800  0.16683200  0.75000000  1
