# generated using pymatgen
data_MgIn5
_symmetry_space_group_name_H-M   'P 1'
_cell_length_a   9.08603115
_cell_length_b   9.08603115
_cell_length_c   5.51027900
_cell_angle_alpha   90.00000000
_cell_angle_beta   90.00000000
_cell_angle_gamma   159.10199739
_symmetry_Int_Tables_number   1
_chemical_formula_structural   MgIn5
_chemical_formula_sum   'Mg1 In5'
_cell_volume   162.26757830
_cell_formula_units_Z   1
loop_
 _symmetry_equiv_pos_site_id
 _symmetry_equiv_pos_as_xyz
  1  'x, y, z'
loop_
 _atom_site_type_symbol
 _atom_site_label
 _atom_site_symmetry_multiplicity
 _atom_site_fract_x
 _atom_site_fract_y
 _atom_site_fract_z
 _atom_site_occupancy
  Mg  Mg0  1  0.22200100  0.77799900  0.50000000  1
  In  In1  1  0.99962300  0.00037700  0.00000000  1
  In  In2  1  0.66944700  0.33055300  0.00000000  1
  In  In3  1  0.33184900  0.66815100  0.00000000  1
  In  In4  1  0.55919000  0.44081000  0.50000000  1
  In  In5  1  0.88573900  0.11426100  0.50000000  1
