# generated using pymatgen
data_H4C2O
_symmetry_space_group_name_H-M   'P 1'
_cell_length_a   4.54885300
_cell_length_b   5.35150378
_cell_length_c   19.19558230
_cell_angle_alpha   86.69905006
_cell_angle_beta   87.45244874
_cell_angle_gamma   81.49752772
_symmetry_Int_Tables_number   1
_chemical_formula_structural   H4C2O
_chemical_formula_sum   'H28 C14 O7'
_cell_volume   461.07387354
_cell_formula_units_Z   7
loop_
 _symmetry_equiv_pos_site_id
 _symmetry_equiv_pos_as_xyz
  1  'x, y, z'
loop_
 _atom_site_type_symbol
 _atom_site_label
 _atom_site_symmetry_multiplicity
 _atom_site_fract_x
 _atom_site_fract_y
 _atom_site_fract_z
 _atom_site_occupancy
  H  H0  1  0.72720700  0.07876900  0.40777700  1
  H  H1  1  0.55592200  0.18603300  0.52675800  1
  H  H2  1  0.16021600  0.77034700  0.12011500  1
  H  H3  1  0.12880100  0.92060600  0.71658300  1
  H  H4  1  0.87791200  0.15583300  0.62745700  1
  H  H5  1  0.11822900  0.01619300  0.39398000  1
  H  H6  1  0.82384400  0.75217100  0.73938300  1
  H  H7  1  0.80950000  0.86906900  0.16256500  1
  H  H8  1  0.76921500  0.49567700  0.45721300  1
  H  H9  1  0.43836800  0.50724300  0.68293800  1
  H  H10  1  0.20379500  0.05353700  0.83017100  1
  H  H11  1  0.55529200  0.00381500  0.64494800  1
  H  H12  1  0.16221800  0.42794300  0.45081000  1
  H  H13  1  0.68748800  0.69542400  0.05897600  1
  H  H14  1  0.53448600  0.95651700  0.87626800  1
  H  H15  1  0.36515900  0.61225900  0.35739700  1
  H  H16  1  0.98874900  0.96400700  0.93884100  1
  H  H17  1  0.27352800  0.97496800  0.99883900  1
  H  H18  1  0.06423900  0.85807700  0.26387800  1
  H  H19  1  0.41822400  0.70051600  0.23401900  1
  H  H20  1  0.64873600  0.45409600  0.12536800  1
  H  H21  1  0.72634500  0.38203400  0.97953000  1
  H  H22  1  0.71814400  0.36641400  0.84209200  1
  H  H23  1  0.64216600  0.20320000  0.76778400  1
  H  H24  1  0.13961100  0.34480800  0.71579200  1
  H  H25  1  0.74106200  0.12676200  0.04321000  1
  H  H26  1  0.59068900  0.85141200  0.52422900  1
  H  H27  1  0.35052100  0.32655800  0.31525100  1
  C  C28  1  0.76967100  0.99232000  0.61466500  1
  C  C29  1  0.87918100  0.25131000  0.01273900  1
  C  C30  1  0.94102300  0.11303300  0.42787900  1
  C  C31  1  0.37580000  0.12490600  0.85945900  1
  C  C32  1  0.24748300  0.51508600  0.72095000  1
  C  C33  1  0.53940700  0.30432900  0.81335200  1
  C  C34  1  0.95618000  0.39720300  0.42620600  1
  C  C35  1  0.19473800  0.67015900  0.25499400  1
  C  C36  1  0.96455900  0.70049200  0.14659800  1
  C  C37  1  0.10414700  0.09374600  0.96686700  1
  C  C38  1  0.22875500  0.51805800  0.32373100  1
  C  C39  1  0.70796900  0.00824000  0.53762800  1
  C  C40  1  0.02702700  0.75201700  0.70529900  1
  C  C41  1  0.81248000  0.55833700  0.09636800  1
  O  O42  1  0.02518300  0.38861400  0.05882400  1
  O  O43  1  0.94175000  0.50964400  0.35695100  1
  O  O44  1  0.34710800  0.52785300  0.78984900  1
  O  O45  1  0.95601100  0.76160600  0.63366000  1
  O  O46  1  0.98089000  0.00391500  0.49729600  1
  O  O47  1  0.04959500  0.54110000  0.20657600  1
  O  O48  1  0.24208500  0.25563200  0.91795100  1
