# generated using pymatgen
data_B2(CN2)3
_symmetry_space_group_name_H-M   'P 1'
_cell_length_a   7.16882285
_cell_length_b   7.16882285
_cell_length_c   7.16882295
_cell_angle_alpha   71.66410497
_cell_angle_beta   71.66410497
_cell_angle_gamma   71.66410547
_symmetry_Int_Tables_number   1
_chemical_formula_structural   B2(CN2)3
_chemical_formula_sum   'B4 C6 N12'
_cell_volume   322.31428431
_cell_formula_units_Z   2
loop_
 _symmetry_equiv_pos_site_id
 _symmetry_equiv_pos_as_xyz
  1  'x, y, z'
loop_
 _atom_site_type_symbol
 _atom_site_label
 _atom_site_symmetry_multiplicity
 _atom_site_fract_x
 _atom_site_fract_y
 _atom_site_fract_z
 _atom_site_occupancy
  B  B0  1  0.09945200  0.09945200  0.09945200  1
  B  B1  1  0.90054800  0.90054800  0.90054800  1
  B  B2  1  0.40054800  0.40054800  0.40054800  1
  B  B3  1  0.59945200  0.59945200  0.59945200  1
  C  C4  1  0.17536100  0.75000000  0.32463900  1
  C  C5  1  0.82463900  0.25000000  0.67536100  1
  C  C6  1  0.25000000  0.67536100  0.82463900  1
  C  C7  1  0.67536100  0.82463900  0.25000000  1
  C  C8  1  0.32463900  0.17536100  0.75000000  1
  C  C9  1  0.75000000  0.32463900  0.17536100  1
  N  N10  1  0.90336700  0.07086600  0.72954400  1
  N  N11  1  0.42913400  0.59663300  0.77045600  1
  N  N12  1  0.72954400  0.90336700  0.07086600  1
  N  N13  1  0.57086600  0.40336700  0.22954400  1
  N  N14  1  0.09663300  0.92913400  0.27045600  1
  N  N15  1  0.22954400  0.57086600  0.40336700  1
  N  N16  1  0.92913400  0.27045600  0.09663300  1
  N  N17  1  0.27045600  0.09663300  0.92913400  1
  N  N18  1  0.07086600  0.72954400  0.90336700  1
  N  N19  1  0.40336700  0.22954400  0.57086600  1
  N  N20  1  0.59663300  0.77045600  0.42913400  1
  N  N21  1  0.77045600  0.42913400  0.59663300  1
