# generated using pymatgen
data_Ba2PrRuO6
_symmetry_space_group_name_H-M   'P 1'
_cell_length_a   6.07038600
_cell_length_b   6.07343900
_cell_length_c   10.57444383
_cell_angle_alpha   55.01964159
_cell_angle_beta   90.00000000
_cell_angle_gamma   90.00000000
_symmetry_Int_Tables_number   1
_chemical_formula_structural   Ba2PrRuO6
_chemical_formula_sum   'Ba4 Pr2 Ru2 O12'
_cell_volume   319.43113511
_cell_formula_units_Z   2
loop_
 _symmetry_equiv_pos_site_id
 _symmetry_equiv_pos_as_xyz
  1  'x, y, z'
loop_
 _atom_site_type_symbol
 _atom_site_label
 _atom_site_symmetry_multiplicity
 _atom_site_fract_x
 _atom_site_fract_y
 _atom_site_fract_z
 _atom_site_occupancy
  Ba  Ba0  1  0.49568100  0.25073300  0.74988700  1
  Ba  Ba1  1  0.99568100  0.74926700  0.75011300  1
  Ba  Ba2  1  0.50431900  0.74926700  0.25011300  1
  Ba  Ba3  1  0.00431900  0.25073300  0.24988700  1
  Pr  Pr4  1  0.50000000  0.00000000  0.50000000  1
  Pr  Pr5  1  0.00000000  0.00000000  0.00000000  1
  Ru  Ru6  1  0.50000000  0.50000000  0.00000000  1
  Ru  Ru7  1  0.00000000  0.50000000  0.50000000  1
  O  O8  1  0.26159800  0.70258100  0.49390500  1
  O  O9  1  0.76159800  0.29741900  0.00609500  1
  O  O10  1  0.73840200  0.29741900  0.50609500  1
  O  O11  1  0.23840200  0.70258100  0.99390500  1
  O  O12  1  0.80332700  0.76803000  0.49330300  1
  O  O13  1  0.30332700  0.23197000  0.00669700  1
  O  O14  1  0.19667300  0.23197000  0.50669700  1
  O  O15  1  0.69667300  0.76803000  0.99330300  1
  O  O16  1  0.00128700  0.28351600  0.72987200  1
  O  O17  1  0.50128700  0.71648400  0.77012800  1
  O  O18  1  0.99871300  0.71648400  0.27012800  1
  O  O19  1  0.49871300  0.28351600  0.22987200  1
