# generated using pymatgen
data_GeH6CI3N
_symmetry_space_group_name_H-M   'P 1'
_cell_length_a   8.61863000
_cell_length_b   8.62627161
_cell_length_c   12.38091004
_cell_angle_alpha   89.63467383
_cell_angle_beta   89.62787523
_cell_angle_gamma   89.91447745
_symmetry_Int_Tables_number   1
_chemical_formula_structural   GeH6CI3N
_chemical_formula_sum   'Ge4 H24 C4 I12 N4'
_cell_volume   920.44000844
_cell_formula_units_Z   4
loop_
 _symmetry_equiv_pos_site_id
 _symmetry_equiv_pos_as_xyz
  1  'x, y, z'
loop_
 _atom_site_type_symbol
 _atom_site_label
 _atom_site_symmetry_multiplicity
 _atom_site_fract_x
 _atom_site_fract_y
 _atom_site_fract_z
 _atom_site_occupancy
  Ge  Ge0  1  0.99620400  0.99753900  0.02027700  1
  Ge  Ge1  1  0.50334100  0.50174800  0.52027000  1
  Ge  Ge2  1  0.99679400  0.00225400  0.52025100  1
  Ge  Ge3  1  0.49568400  0.49720500  0.02027400  1
  H  H4  1  0.58301100  0.08080300  0.70217700  1
  H  H5  1  0.37972300  0.03603900  0.70565400  1
  H  H6  1  0.60539100  0.96780400  0.88305300  1
  H  H7  1  0.41930700  0.91752600  0.88475200  1
  H  H8  1  0.46603400  0.10440800  0.88569600  1
  H  H9  1  0.07907100  0.58472400  0.70044800  1
  H  H10  1  0.87819600  0.52992800  0.70519800  1
  H  H11  1  0.10939200  0.47713400  0.88096200  1
  H  H12  1  0.92545400  0.41716100  0.88604200  1
  H  H13  1  0.96472000  0.60618900  0.88360800  1
  H  H14  1  0.11598200  0.50985400  0.20146300  1
  H  H15  1  0.92992800  0.60410100  0.20451200  1
  H  H16  1  0.06776000  0.40991900  0.38242300  1
  H  H17  1  0.89059600  0.48889300  0.38560300  1
  H  H18  1  0.04772400  0.60162400  0.38354100  1
  H  H19  1  0.57836400  0.08482500  0.20117900  1
  H  H20  1  0.37890500  0.02477400  0.20544700  1
  H  H21  1  0.60907900  0.98060100  0.38295100  1
  H  H22  1  0.42633500  0.91695900  0.38729400  1
  H  H23  1  0.46179700  0.10653500  0.38313200  1
  H  H24  1  0.94188500  0.39644700  0.20406800  1
  H  H25  1  0.02591500  0.38351800  0.70367900  1
  H  H26  1  0.52031200  0.88248600  0.70383500  1
  H  H27  1  0.53034100  0.88226200  0.20535000  1
  C  C28  1  0.49629600  0.99745700  0.23242100  1
  C  C29  1  0.99512900  0.49935300  0.73157300  1
  C  C30  1  0.99693000  0.50228600  0.23184000  1
  C  C31  1  0.49536700  0.99999900  0.73236900  1
  I  I32  1  0.99901900  0.99998800  0.24289000  1
  I  I33  1  0.49830700  0.49946100  0.74275600  1
  I  I34  1  0.99863700  0.99931300  0.74273300  1
  I  I35  1  0.50118000  0.49946200  0.24282200  1
  I  I36  1  0.75870000  0.25602700  0.00939000  1
  I  I37  1  0.25491100  0.75475700  0.50862500  1
  I  I38  1  0.75084200  0.76347400  0.00804700  1
  I  I39  1  0.24251400  0.25503100  0.50793700  1
  I  I40  1  0.24661700  0.74428500  0.00804100  1
  I  I41  1  0.74362300  0.24336900  0.50942600  1
  I  I42  1  0.26335700  0.25088000  0.00923000  1
  I  I43  1  0.75543400  0.74210300  0.50898200  1
  N  N44  1  0.49922800  0.00093500  0.35288200  1
  N  N45  1  0.99961200  0.50064200  0.85197000  1
  N  N46  1  0.00024600  0.50097300  0.35225600  1
  N  N47  1  0.49747400  0.99816500  0.85282900  1
