# generated using pymatgen
data_MgFe3P3O13
_symmetry_space_group_name_H-M   'P 1'
_cell_length_a   6.34089600
_cell_length_b   7.64587200
_cell_length_c   10.12453249
_cell_angle_alpha   79.78670122
_cell_angle_beta   90.00000000
_cell_angle_gamma   90.00000000
_symmetry_Int_Tables_number   1
_chemical_formula_structural   MgFe3P3O13
_chemical_formula_sum   'Mg2 Fe6 P6 O26'
_cell_volume   483.07649346
_cell_formula_units_Z   2
loop_
 _symmetry_equiv_pos_site_id
 _symmetry_equiv_pos_as_xyz
  1  'x, y, z'
loop_
 _atom_site_type_symbol
 _atom_site_label
 _atom_site_symmetry_multiplicity
 _atom_site_fract_x
 _atom_site_fract_y
 _atom_site_fract_z
 _atom_site_occupancy
  Mg  Mg0  1  0.75000000  0.37375000  0.17763100  1
  Mg  Mg1  1  0.25000000  0.62625000  0.82236900  1
  Fe  Fe2  1  0.25000000  0.64651200  0.20804400  1
  Fe  Fe3  1  0.75000000  0.35348800  0.79195600  1
  Fe  Fe4  1  0.25000000  0.21704700  0.43258200  1
  Fe  Fe5  1  0.50000000  0.00000000  0.00000000  1
  Fe  Fe6  1  0.75000000  0.78295300  0.56741800  1
  Fe  Fe7  1  0.00000000  0.00000000  0.00000000  1
  P  P8  1  0.25000000  0.78393900  0.49873700  1
  P  P9  1  0.75000000  0.21606100  0.50126300  1
  P  P10  1  0.25000000  0.27338500  0.75973200  1
  P  P11  1  0.75000000  0.72661500  0.24026800  1
  P  P12  1  0.75000000  0.68030100  0.89004700  1
  P  P13  1  0.25000000  0.31969900  0.10995300  1
  O  O14  1  0.75000000  0.62885200  0.74775400  1
  O  O15  1  0.56039000  0.25157400  0.40296700  1
  O  O16  1  0.25000000  0.22172200  0.62198900  1
  O  O17  1  0.54218000  0.78525200  0.90167000  1
  O  O18  1  0.75000000  0.34618100  0.60087900  1
  O  O19  1  0.75000000  0.12182500  0.90382200  1
  O  O20  1  0.25000000  0.65381900  0.39912100  1
  O  O21  1  0.04218000  0.21474800  0.09833000  1
  O  O22  1  0.25000000  0.97445900  0.41620800  1
  O  O23  1  0.75000000  0.02554100  0.58379200  1
  O  O24  1  0.06283800  0.39281200  0.78593900  1
  O  O25  1  0.25000000  0.87817500  0.09617800  1
  O  O26  1  0.56283800  0.60718800  0.21406100  1
  O  O27  1  0.75000000  0.49362700  0.97878600  1
  O  O28  1  0.75000000  0.77827800  0.37801100  1
  O  O29  1  0.45782000  0.21474800  0.09833000  1
  O  O30  1  0.93961000  0.25157400  0.40296700  1
  O  O31  1  0.43961000  0.74842600  0.59703300  1
  O  O32  1  0.43716200  0.39281200  0.78593900  1
  O  O33  1  0.25000000  0.37114800  0.25224600  1
  O  O34  1  0.75000000  0.90108500  0.13116900  1
  O  O35  1  0.25000000  0.09891500  0.86883100  1
  O  O36  1  0.93716200  0.60718800  0.21406100  1
  O  O37  1  0.95782000  0.78525200  0.90167000  1
  O  O38  1  0.06039000  0.74842600  0.59703300  1
  O  O39  1  0.25000000  0.50637300  0.02121400  1
