# generated using pymatgen
data_ZnCr2(PO4)2
_symmetry_space_group_name_H-M   'P 1'
_cell_length_a   9.39165489
_cell_length_b   9.39165489
_cell_length_c   16.31060915
_cell_angle_alpha   60.27277824
_cell_angle_beta   60.27277824
_cell_angle_gamma   31.55553043
_symmetry_Int_Tables_number   1
_chemical_formula_structural   ZnCr2(PO4)2
_chemical_formula_sum   'Zn4 Cr8 P8 O32'
_cell_volume   645.23203394
_cell_formula_units_Z   4
loop_
 _symmetry_equiv_pos_site_id
 _symmetry_equiv_pos_as_xyz
  1  'x, y, z'
loop_
 _atom_site_type_symbol
 _atom_site_label
 _atom_site_symmetry_multiplicity
 _atom_site_fract_x
 _atom_site_fract_y
 _atom_site_fract_z
 _atom_site_occupancy
  Zn  Zn0  1  0.16393100  0.57134000  0.12615500  1
  Zn  Zn1  1  0.42866000  0.83606900  0.37384500  1
  Zn  Zn2  1  0.57134000  0.16393100  0.62615500  1
  Zn  Zn3  1  0.83606900  0.42866000  0.87384500  1
  Cr  Cr4  1  0.36295800  0.84339700  0.02928500  1
  Cr  Cr5  1  0.15660300  0.63704200  0.47071500  1
  Cr  Cr6  1  0.63704200  0.15660300  0.97071500  1
  Cr  Cr7  1  0.00000000  0.50000000  0.00000000  1
  Cr  Cr8  1  0.84339700  0.36295800  0.52928500  1
  Cr  Cr9  1  0.69049900  0.30950100  0.75000000  1
  Cr  Cr10  1  0.30950100  0.69049900  0.25000000  1
  Cr  Cr11  1  0.50000000  0.00000000  0.50000000  1
  P  P12  1  0.49005500  0.93395500  0.14234600  1
  P  P13  1  0.80247600  0.22972200  0.39342300  1
  P  P14  1  0.50994500  0.06604500  0.85765400  1
  P  P15  1  0.22972200  0.80247600  0.89342300  1
  P  P16  1  0.93395500  0.49005500  0.64234600  1
  P  P17  1  0.06604500  0.50994500  0.35765400  1
  P  P18  1  0.19752400  0.77027800  0.60657700  1
  P  P19  1  0.77027800  0.19752400  0.10657700  1
  O  O20  1  0.19491800  0.29828900  0.89333700  1
  O  O21  1  0.60859700  0.21858100  0.08366600  1
  O  O22  1  0.29828900  0.19491800  0.39333700  1
  O  O23  1  0.66331200  0.18057900  0.48017100  1
  O  O24  1  0.64909700  0.80317000  0.93806400  1
  O  O25  1  0.67000100  0.39701900  0.30575400  1
  O  O26  1  0.81942100  0.33668800  0.01982900  1
  O  O27  1  0.92698800  0.11746000  0.87844600  1
  O  O28  1  0.33668800  0.81942100  0.51982900  1
  O  O29  1  0.78141900  0.39140300  0.41633400  1
  O  O30  1  0.61777900  0.13284800  0.85708900  1
  O  O31  1  0.99328700  0.41036100  0.73824500  1
  O  O32  1  0.39140300  0.78141900  0.91633400  1
  O  O33  1  0.11746000  0.92698800  0.37844600  1
  O  O34  1  0.80508200  0.70171100  0.10666300  1
  O  O35  1  0.38222100  0.86715200  0.14291100  1
  O  O36  1  0.41036100  0.99328700  0.23824500  1
  O  O37  1  0.18057900  0.66331200  0.98017100  1
  O  O38  1  0.13284800  0.61777900  0.35708900  1
  O  O39  1  0.00671300  0.58963900  0.26175500  1
  O  O40  1  0.88254000  0.07301200  0.62155400  1
  O  O41  1  0.80317000  0.64909700  0.43806400  1
  O  O42  1  0.07301200  0.88254000  0.12155400  1
  O  O43  1  0.39701900  0.67000100  0.80575400  1
  O  O44  1  0.21858100  0.60859700  0.58366600  1
  O  O45  1  0.70171100  0.80508200  0.60666300  1
  O  O46  1  0.58963900  0.00671300  0.76175500  1
  O  O47  1  0.19683000  0.35090300  0.56193600  1
  O  O48  1  0.35090300  0.19683000  0.06193600  1
  O  O49  1  0.60298100  0.32999900  0.19424600  1
  O  O50  1  0.32999900  0.60298100  0.69424600  1
  O  O51  1  0.86715200  0.38222100  0.64291100  1
