# generated using pymatgen
data_TaCuO4
_symmetry_space_group_name_H-M   'P 1'
_cell_length_a   8.99845300
_cell_length_b   6.50200300
_cell_length_c   11.73662357
_cell_angle_alpha   88.17357751
_cell_angle_beta   90.00000000
_cell_angle_gamma   90.00000000
_symmetry_Int_Tables_number   1
_chemical_formula_structural   TaCuO4
_chemical_formula_sum   'Ta8 Cu8 O32'
_cell_volume   686.33714312
_cell_formula_units_Z   8
loop_
 _symmetry_equiv_pos_site_id
 _symmetry_equiv_pos_as_xyz
  1  'x, y, z'
loop_
 _atom_site_type_symbol
 _atom_site_label
 _atom_site_symmetry_multiplicity
 _atom_site_fract_x
 _atom_site_fract_y
 _atom_site_fract_z
 _atom_site_occupancy
  Ta  Ta0  1  0.57632000  0.91079700  0.87385000  1
  Ta  Ta1  1  0.92368000  0.91079700  0.37385000  1
  Ta  Ta2  1  0.89531900  0.39219400  0.14359300  1
  Ta  Ta3  1  0.07632000  0.08920300  0.62615000  1
  Ta  Ta4  1  0.10468100  0.60780600  0.85640700  1
  Ta  Ta5  1  0.39531900  0.60780600  0.35640700  1
  Ta  Ta6  1  0.60468100  0.39219400  0.64359300  1
  Ta  Ta7  1  0.42368000  0.08920300  0.12615000  1
  Cu  Cu8  1  0.88644200  0.17824200  0.88998500  1
  Cu  Cu9  1  0.95647000  0.62737900  0.61031900  1
  Cu  Cu10  1  0.04353000  0.37262100  0.38968100  1
  Cu  Cu11  1  0.11355800  0.82175800  0.11001500  1
  Cu  Cu12  1  0.61355800  0.17824200  0.38998500  1
  Cu  Cu13  1  0.54353000  0.62737900  0.11031900  1
  Cu  Cu14  1  0.38644200  0.82175800  0.61001500  1
  Cu  Cu15  1  0.45647000  0.37262100  0.88968100  1
  O  O16  1  0.71448400  0.93090100  0.37187800  1
  O  O17  1  0.01476300  0.36143100  0.58743600  1
  O  O18  1  0.34550000  0.81188900  0.45769900  1
  O  O19  1  0.84550000  0.18811100  0.04230100  1
  O  O20  1  0.78551600  0.93090100  0.87187800  1
  O  O21  1  0.28551600  0.06909900  0.62812200  1
  O  O22  1  0.92466400  0.89938100  0.56687600  1
  O  O23  1  0.07047600  0.54235200  0.11516900  1
  O  O24  1  0.42952400  0.54235200  0.61516900  1
  O  O25  1  0.11611900  0.72217600  0.70189100  1
  O  O26  1  0.61611900  0.27782400  0.79810900  1
  O  O27  1  0.92952400  0.45764800  0.88483100  1
  O  O28  1  0.07533600  0.10061900  0.43312400  1
  O  O29  1  0.48468300  0.11811700  0.27545400  1
  O  O30  1  0.75127500  0.58066200  0.62562500  1
  O  O31  1  0.74872500  0.58066200  0.12562500  1
  O  O32  1  0.98468300  0.88188300  0.22454600  1
  O  O33  1  0.57047600  0.45764800  0.38483100  1
  O  O34  1  0.51531700  0.88188300  0.72454600  1
  O  O35  1  0.65450000  0.18811100  0.54230100  1
  O  O36  1  0.48523700  0.36143100  0.08743600  1
  O  O37  1  0.88388100  0.27782400  0.29810900  1
  O  O38  1  0.21448400  0.06909900  0.12812200  1
  O  O39  1  0.57533600  0.89938100  0.06687600  1
  O  O40  1  0.15450000  0.81188900  0.95769900  1
  O  O41  1  0.25127500  0.41933800  0.87437500  1
  O  O42  1  0.98523700  0.63856900  0.41256400  1
  O  O43  1  0.51476300  0.63856900  0.91256400  1
  O  O44  1  0.42466400  0.10061900  0.93312400  1
  O  O45  1  0.24872500  0.41933800  0.37437500  1
  O  O46  1  0.38388100  0.72217600  0.20189100  1
  O  O47  1  0.01531700  0.11811700  0.77545400  1
