# generated using pymatgen
data_BaCaVF7
_symmetry_space_group_name_H-M   'P 1'
_cell_length_a   10.68065400
_cell_length_b   5.77525900
_cell_length_c   10.01309151
_cell_angle_alpha   88.05236444
_cell_angle_beta   90.00000000
_cell_angle_gamma   90.00000000
_symmetry_Int_Tables_number   1
_chemical_formula_structural   BaCaVF7
_chemical_formula_sum   'Ba4 Ca4 V4 F28'
_cell_volume   617.28615304
_cell_formula_units_Z   4
loop_
 _symmetry_equiv_pos_site_id
 _symmetry_equiv_pos_as_xyz
  1  'x, y, z'
loop_
 _atom_site_type_symbol
 _atom_site_label
 _atom_site_symmetry_multiplicity
 _atom_site_fract_x
 _atom_site_fract_y
 _atom_site_fract_z
 _atom_site_occupancy
  Ba  Ba0  1  0.33424700  0.73468200  0.50706400  1
  Ba  Ba1  1  0.83424700  0.26531800  0.99293600  1
  Ba  Ba2  1  0.66575300  0.26531800  0.49293600  1
  Ba  Ba3  1  0.16575300  0.73468200  0.00706400  1
  Ca  Ca4  1  0.41152000  0.29020200  0.82649200  1
  Ca  Ca5  1  0.91152000  0.70979800  0.67350800  1
  Ca  Ca6  1  0.08848000  0.29020200  0.32649200  1
  Ca  Ca7  1  0.58848000  0.70979800  0.17350800  1
  V  V8  1  0.62411600  0.80778300  0.80595500  1
  V  V9  1  0.37588400  0.19221700  0.19404500  1
  V  V10  1  0.87588400  0.80778300  0.30595500  1
  V  V11  1  0.12411600  0.19221700  0.69404500  1
  F  F12  1  0.41395300  0.90238600  0.10443300  1
  F  F13  1  0.03344300  0.65441200  0.37073500  1
  F  F14  1  0.70998400  0.53285500  0.73579700  1
  F  F15  1  0.29001600  0.46714500  0.26420300  1
  F  F16  1  0.46172900  0.08106300  0.35601900  1
  F  F17  1  0.79579100  0.71050500  0.47863700  1
  F  F18  1  0.77613900  0.99028400  0.74044500  1
  F  F19  1  0.96172900  0.91893700  0.14398100  1
  F  F20  1  0.46655700  0.65441200  0.87073500  1
  F  F21  1  0.20998400  0.46714500  0.76420300  1
  F  F22  1  0.08604700  0.90238600  0.60443300  1
  F  F23  1  0.58604700  0.09761400  0.89556700  1
  F  F24  1  0.27613900  0.00971600  0.75955500  1
  F  F25  1  0.96255200  0.60035600  0.87790400  1
  F  F26  1  0.53827100  0.91893700  0.64398100  1
  F  F27  1  0.03827100  0.08106300  0.85601900  1
  F  F28  1  0.22386100  0.00971600  0.25955500  1
  F  F29  1  0.91395300  0.09761400  0.39556700  1
  F  F30  1  0.46255200  0.39964400  0.62209600  1
  F  F31  1  0.96655700  0.34558800  0.62926500  1
  F  F32  1  0.03744800  0.39964400  0.12209600  1
  F  F33  1  0.72386100  0.99028400  0.24044500  1
  F  F34  1  0.53744800  0.60035600  0.37790400  1
  F  F35  1  0.29579100  0.28949500  0.02136300  1
  F  F36  1  0.20420900  0.28949500  0.52136300  1
  F  F37  1  0.70420900  0.71050500  0.97863700  1
  F  F38  1  0.53344300  0.34558800  0.12926500  1
  F  F39  1  0.79001600  0.53285500  0.23579700  1
