# generated using pymatgen
data_YbGd3
_symmetry_space_group_name_H-M   'P 1'
_cell_length_a   6.86984896
_cell_length_b   6.86984896
_cell_length_c   5.36213000
_cell_angle_alpha   90.00000000
_cell_angle_beta   90.00000000
_cell_angle_gamma   120.00000927
_symmetry_Int_Tables_number   1
_chemical_formula_structural   YbGd3
_chemical_formula_sum   'Yb2 Gd6'
_cell_volume   219.16051279
_cell_formula_units_Z   2
loop_
 _symmetry_equiv_pos_site_id
 _symmetry_equiv_pos_as_xyz
  1  'x, y, z'
loop_
 _atom_site_type_symbol
 _atom_site_label
 _atom_site_symmetry_multiplicity
 _atom_site_fract_x
 _atom_site_fract_y
 _atom_site_fract_z
 _atom_site_occupancy
  Yb  Yb0  1  0.33333300  0.66666700  0.75000000  1
  Yb  Yb1  1  0.66666700  0.33333300  0.25000000  1
  Gd  Gd2  1  0.16391200  0.32782400  0.25000000  1
  Gd  Gd3  1  0.67217600  0.83608800  0.25000000  1
  Gd  Gd4  1  0.16391200  0.83608800  0.25000000  1
  Gd  Gd5  1  0.83608800  0.67217600  0.75000000  1
  Gd  Gd6  1  0.32782400  0.16391200  0.75000000  1
  Gd  Gd7  1  0.83608800  0.16391200  0.75000000  1
