# generated using pymatgen
data_BaCaNiF7
_symmetry_space_group_name_H-M   'P 1'
_cell_length_a   10.59476800
_cell_length_b   5.69964700
_cell_length_c   9.92422346
_cell_angle_alpha   88.22881938
_cell_angle_beta   90.00000000
_cell_angle_gamma   90.00000000
_symmetry_Int_Tables_number   1
_chemical_formula_structural   BaCaNiF7
_chemical_formula_sum   'Ba4 Ca4 Ni4 F28'
_cell_volume   599.00218128
_cell_formula_units_Z   4
loop_
 _symmetry_equiv_pos_site_id
 _symmetry_equiv_pos_as_xyz
  1  'x, y, z'
loop_
 _atom_site_type_symbol
 _atom_site_label
 _atom_site_symmetry_multiplicity
 _atom_site_fract_x
 _atom_site_fract_y
 _atom_site_fract_z
 _atom_site_occupancy
  Ba  Ba0  1  0.33332500  0.73787400  0.50723100  1
  Ba  Ba1  1  0.83332500  0.26212600  0.99276900  1
  Ba  Ba2  1  0.66667500  0.26212600  0.49276900  1
  Ba  Ba3  1  0.16667500  0.73787400  0.00723100  1
  Ca  Ca4  1  0.40799900  0.29160600  0.82207500  1
  Ca  Ca5  1  0.90799900  0.70839400  0.67792500  1
  Ca  Ca6  1  0.09200100  0.29160600  0.32207500  1
  Ca  Ca7  1  0.59200100  0.70839400  0.17792500  1
  Ni  Ni8  1  0.62228500  0.80874000  0.80762500  1
  Ni  Ni9  1  0.37771500  0.19126000  0.19237500  1
  Ni  Ni10  1  0.87771500  0.80874000  0.30762500  1
  Ni  Ni11  1  0.12228500  0.19126000  0.69237500  1
  F  F12  1  0.42112300  0.90661500  0.10821600  1
  F  F13  1  0.03242000  0.65695300  0.36765100  1
  F  F14  1  0.70235200  0.53749800  0.73734500  1
  F  F15  1  0.29764800  0.46250200  0.26265500  1
  F  F16  1  0.45637800  0.09292700  0.35355500  1
  F  F17  1  0.79893800  0.72045600  0.47660600  1
  F  F18  1  0.77328400  0.99148500  0.74764700  1
  F  F19  1  0.95637800  0.90707300  0.14644500  1
  F  F20  1  0.46758000  0.65695300  0.86765100  1
  F  F21  1  0.20235200  0.46250200  0.76265500  1
  F  F22  1  0.07887700  0.90661500  0.60821600  1
  F  F23  1  0.57887700  0.09338500  0.89178400  1
  F  F24  1  0.27328400  0.00851500  0.75235300  1
  F  F25  1  0.95713400  0.61380600  0.88517000  1
  F  F26  1  0.54362200  0.90707300  0.64644500  1
  F  F27  1  0.04362200  0.09292700  0.85355500  1
  F  F28  1  0.22671600  0.00851500  0.25235300  1
  F  F29  1  0.92112300  0.09338500  0.39178400  1
  F  F30  1  0.45713400  0.38619400  0.61483000  1
  F  F31  1  0.96758000  0.34304700  0.63234900  1
  F  F32  1  0.04286600  0.38619400  0.11483000  1
  F  F33  1  0.72671600  0.99148500  0.24764700  1
  F  F34  1  0.54286600  0.61380600  0.38517000  1
  F  F35  1  0.29893800  0.27954400  0.02339400  1
  F  F36  1  0.20106200  0.27954400  0.52339400  1
  F  F37  1  0.70106200  0.72045600  0.97660600  1
  F  F38  1  0.53242000  0.34304700  0.13234900  1
  F  F39  1  0.79764800  0.53749800  0.23734500  1
