# generated using pymatgen
data_BaMgNiF7
_symmetry_space_group_name_H-M   'P 1'
_cell_length_a   9.91852500
_cell_length_b   5.61792900
_cell_length_c   9.61638740
_cell_angle_alpha   86.84177256
_cell_angle_beta   90.00000000
_cell_angle_gamma   90.00000000
_symmetry_Int_Tables_number   1
_chemical_formula_structural   BaMgNiF7
_chemical_formula_sum   'Ba4 Mg4 Ni4 F28'
_cell_volume   535.02636049
_cell_formula_units_Z   4
loop_
 _symmetry_equiv_pos_site_id
 _symmetry_equiv_pos_as_xyz
  1  'x, y, z'
loop_
 _atom_site_type_symbol
 _atom_site_label
 _atom_site_symmetry_multiplicity
 _atom_site_fract_x
 _atom_site_fract_y
 _atom_site_fract_z
 _atom_site_occupancy
  Ba  Ba0  1  0.31903500  0.73628400  0.50080700  1
  Ba  Ba1  1  0.81903500  0.26371600  0.99919300  1
  Ba  Ba2  1  0.68096500  0.26371600  0.49919300  1
  Ba  Ba3  1  0.18096500  0.73628400  0.00080700  1
  Mg  Mg4  1  0.39671800  0.30169900  0.81108600  1
  Mg  Mg5  1  0.89671800  0.69830100  0.68891400  1
  Mg  Mg6  1  0.10328200  0.30169900  0.31108600  1
  Mg  Mg7  1  0.60328200  0.69830100  0.18891400  1
  Ni  Ni8  1  0.61313100  0.80558400  0.81138500  1
  Ni  Ni9  1  0.38686900  0.19441600  0.18861500  1
  Ni  Ni10  1  0.88686900  0.80558400  0.31138500  1
  Ni  Ni11  1  0.11313100  0.19441600  0.68861500  1
  F  F12  1  0.44680200  0.89117300  0.12674200  1
  F  F13  1  0.04713700  0.62840200  0.36680300  1
  F  F14  1  0.71139900  0.53081400  0.74987300  1
  F  F15  1  0.28860100  0.46918600  0.25012700  1
  F  F16  1  0.45549800  0.11707100  0.36395600  1
  F  F17  1  0.81300800  0.74395000  0.49508700  1
  F  F18  1  0.77937900  0.97567000  0.75117400  1
  F  F19  1  0.95549800  0.88292900  0.13604400  1
  F  F20  1  0.45286300  0.62840200  0.86680300  1
  F  F21  1  0.21139900  0.46918600  0.75012700  1
  F  F22  1  0.05319800  0.89117300  0.62674200  1
  F  F23  1  0.55319800  0.10882700  0.87325800  1
  F  F24  1  0.27937900  0.02433000  0.74882600  1
  F  F25  1  0.95707200  0.62107800  0.87618200  1
  F  F26  1  0.54450200  0.88292900  0.63604400  1
  F  F27  1  0.04450200  0.11707100  0.86395600  1
  F  F28  1  0.22062100  0.02433000  0.24882600  1
  F  F29  1  0.94680200  0.10882700  0.37325800  1
  F  F30  1  0.45707200  0.37892200  0.62381800  1
  F  F31  1  0.95286300  0.37159800  0.63319700  1
  F  F32  1  0.04292800  0.37892200  0.12381800  1
  F  F33  1  0.72062100  0.97567000  0.25117400  1
  F  F34  1  0.54292800  0.62107800  0.37618200  1
  F  F35  1  0.31300800  0.25605000  0.00491300  1
  F  F36  1  0.18699200  0.25605000  0.50491300  1
  F  F37  1  0.68699200  0.74395000  0.99508700  1
  F  F38  1  0.54713700  0.37159800  0.13319700  1
  F  F39  1  0.78860100  0.53081400  0.24987300  1
