# generated using pymatgen
data_BaZnWF7
_symmetry_space_group_name_H-M   'P 1'
_cell_length_a   10.32691100
_cell_length_b   5.82437200
_cell_length_c   9.99559688
_cell_angle_alpha   87.43676371
_cell_angle_beta   90.00000000
_cell_angle_gamma   90.00000000
_symmetry_Int_Tables_number   1
_chemical_formula_structural   BaZnWF7
_chemical_formula_sum   'Ba4 Zn4 W4 F28'
_cell_volume   600.61134425
_cell_formula_units_Z   4
loop_
 _symmetry_equiv_pos_site_id
 _symmetry_equiv_pos_as_xyz
  1  'x, y, z'
loop_
 _atom_site_type_symbol
 _atom_site_label
 _atom_site_symmetry_multiplicity
 _atom_site_fract_x
 _atom_site_fract_y
 _atom_site_fract_z
 _atom_site_occupancy
  Ba  Ba0  1  0.32688100  0.73553800  0.49621900  1
  Ba  Ba1  1  0.82688100  0.26446200  0.00378100  1
  Ba  Ba2  1  0.67311900  0.26446200  0.50378100  1
  Ba  Ba3  1  0.17311900  0.73553800  0.99621900  1
  Zn  Zn4  1  0.39667300  0.31218900  0.81075900  1
  Zn  Zn5  1  0.89667300  0.68781100  0.68924100  1
  Zn  Zn6  1  0.10332700  0.31218900  0.31075900  1
  Zn  Zn7  1  0.60332700  0.68781100  0.18924100  1
  W  W8  1  0.61159500  0.80478600  0.81611100  1
  W  W9  1  0.38840500  0.19521400  0.18388900  1
  W  W10  1  0.88840500  0.80478600  0.31611100  1
  W  W11  1  0.11159500  0.19521400  0.68388900  1
  F  F12  1  0.44973700  0.87033900  0.12039800  1
  F  F13  1  0.06038000  0.63120700  0.37654500  1
  F  F14  1  0.71170400  0.50916000  0.75215700  1
  F  F15  1  0.28829600  0.49084000  0.24784300  1
  F  F16  1  0.46025700  0.10139200  0.37474400  1
  F  F17  1  0.80174000  0.73593100  0.50776500  1
  F  F18  1  0.78483100  0.97334300  0.75096900  1
  F  F19  1  0.96025700  0.89860800  0.12525600  1
  F  F20  1  0.43962000  0.63120700  0.87654500  1
  F  F21  1  0.21170400  0.49084000  0.74784300  1
  F  F22  1  0.05026300  0.87033900  0.62039800  1
  F  F23  1  0.55026300  0.12966100  0.87960200  1
  F  F24  1  0.28483100  0.02665700  0.74903100  1
  F  F25  1  0.95778400  0.60060900  0.87048000  1
  F  F26  1  0.53974300  0.89860800  0.62525600  1
  F  F27  1  0.03974300  0.10139200  0.87474400  1
  F  F28  1  0.21516900  0.02665700  0.24903100  1
  F  F29  1  0.94973700  0.12966100  0.37960200  1
  F  F30  1  0.45778400  0.39939100  0.62952000  1
  F  F31  1  0.93962000  0.36879300  0.62345500  1
  F  F32  1  0.04221600  0.39939100  0.12952000  1
  F  F33  1  0.71516900  0.97334300  0.25096900  1
  F  F34  1  0.54221600  0.60060900  0.37048000  1
  F  F35  1  0.30174000  0.26406900  0.99223500  1
  F  F36  1  0.19826000  0.26406900  0.49223500  1
  F  F37  1  0.69826000  0.73593100  0.00776500  1
  F  F38  1  0.56038000  0.36879300  0.12345500  1
  F  F39  1  0.78829600  0.50916000  0.25215700  1
