# generated using pymatgen
data_CaCr3P3O13
_symmetry_space_group_name_H-M   'P 1'
_cell_length_a   6.36789400
_cell_length_b   7.58275300
_cell_length_c   10.34038798
_cell_angle_alpha   79.75459078
_cell_angle_beta   90.00000000
_cell_angle_gamma   90.00000000
_symmetry_Int_Tables_number   1
_chemical_formula_structural   CaCr3P3O13
_chemical_formula_sum   'Ca2 Cr6 P6 O26'
_cell_volume   491.33637855
_cell_formula_units_Z   2
loop_
 _symmetry_equiv_pos_site_id
 _symmetry_equiv_pos_as_xyz
  1  'x, y, z'
loop_
 _atom_site_type_symbol
 _atom_site_label
 _atom_site_symmetry_multiplicity
 _atom_site_fract_x
 _atom_site_fract_y
 _atom_site_fract_z
 _atom_site_occupancy
  Ca  Ca0  1  0.75000000  0.34215800  0.19540700  1
  Ca  Ca1  1  0.25000000  0.65784200  0.80459300  1
  Cr  Cr2  1  0.25000000  0.64131700  0.20031200  1
  Cr  Cr3  1  0.75000000  0.35868300  0.79968800  1
  Cr  Cr4  1  0.25000000  0.22468900  0.43950200  1
  Cr  Cr5  1  0.50000000  0.00000000  0.00000000  1
  Cr  Cr6  1  0.75000000  0.77531100  0.56049800  1
  Cr  Cr7  1  0.00000000  0.00000000  0.00000000  1
  P  P8  1  0.25000000  0.79031700  0.48573300  1
  P  P9  1  0.75000000  0.20968300  0.51426700  1
  P  P10  1  0.25000000  0.25975200  0.76404600  1
  P  P11  1  0.75000000  0.74024800  0.23595400  1
  P  P12  1  0.75000000  0.68648100  0.88688400  1
  P  P13  1  0.25000000  0.31351900  0.11311600  1
  O  O14  1  0.75000000  0.64378800  0.74342900  1
  O  O15  1  0.56068600  0.24805800  0.41698500  1
  O  O16  1  0.25000000  0.20300800  0.63053300  1
  O  O17  1  0.54705200  0.79046900  0.90515000  1
  O  O18  1  0.75000000  0.34009100  0.61166700  1
  O  O19  1  0.75000000  0.12278400  0.90526100  1
  O  O20  1  0.25000000  0.65990900  0.38833300  1
  O  O21  1  0.04705200  0.20953100  0.09485000  1
  O  O22  1  0.25000000  0.98353700  0.40747600  1
  O  O23  1  0.75000000  0.01646300  0.59252400  1
  O  O24  1  0.06212300  0.37850100  0.78859000  1
  O  O25  1  0.25000000  0.87721600  0.09473900  1
  O  O26  1  0.56212300  0.62149900  0.21141000  1
  O  O27  1  0.75000000  0.49209300  0.96515700  1
  O  O28  1  0.75000000  0.79699200  0.36946700  1
  O  O29  1  0.45294800  0.20953100  0.09485000  1
  O  O30  1  0.93931400  0.24805800  0.41698500  1
  O  O31  1  0.43931400  0.75194200  0.58301500  1
  O  O32  1  0.43787700  0.37850100  0.78859000  1
  O  O33  1  0.25000000  0.35621200  0.25657100  1
  O  O34  1  0.75000000  0.91614700  0.12685200  1
  O  O35  1  0.25000000  0.08385300  0.87314800  1
  O  O36  1  0.93787700  0.62149900  0.21141000  1
  O  O37  1  0.95294800  0.79046900  0.90515000  1
  O  O38  1  0.06068600  0.75194200  0.58301500  1
  O  O39  1  0.25000000  0.50790700  0.03484300  1
