# generated using pymatgen
data_Mn2Zn(PO4)2
_symmetry_space_group_name_H-M   'P 1'
_cell_length_a   8.64910266
_cell_length_b   8.64910266
_cell_length_c   17.44914105
_cell_angle_alpha   63.78635333
_cell_angle_beta   63.78635333
_cell_angle_gamma   33.52587268
_symmetry_Int_Tables_number   1
_chemical_formula_structural   Mn2Zn(PO4)2
_chemical_formula_sum   'Mn8 Zn4 P8 O32'
_cell_volume   639.64521881
_cell_formula_units_Z   4
loop_
 _symmetry_equiv_pos_site_id
 _symmetry_equiv_pos_as_xyz
  1  'x, y, z'
loop_
 _atom_site_type_symbol
 _atom_site_label
 _atom_site_symmetry_multiplicity
 _atom_site_fract_x
 _atom_site_fract_y
 _atom_site_fract_z
 _atom_site_occupancy
  Mn  Mn0  1  0.57555100  0.68563700  0.03215000  1
  Mn  Mn1  1  0.31436300  0.42444900  0.46785000  1
  Mn  Mn2  1  0.42444900  0.31436300  0.96785000  1
  Mn  Mn3  1  0.00000000  0.00000000  0.00000000  1
  Mn  Mn4  1  0.68563700  0.57555100  0.53215000  1
  Mn  Mn5  1  0.66848300  0.33151700  0.75000000  1
  Mn  Mn6  1  0.33151700  0.66848300  0.25000000  1
  Mn  Mn7  1  0.00000000  0.00000000  0.50000000  1
  Zn  Zn8  1  0.70881800  0.80872700  0.15792500  1
  Zn  Zn9  1  0.19127300  0.29118200  0.34207500  1
  Zn  Zn10  1  0.80872700  0.70881800  0.65792500  1
  Zn  Zn11  1  0.29118200  0.19127300  0.84207500  1
  P  P12  1  0.36430000  0.43155700  0.13627700  1
  P  P13  1  0.80204900  0.88393500  0.38199400  1
  P  P14  1  0.63570000  0.56844300  0.86372300  1
  P  P15  1  0.88393500  0.80204900  0.88199400  1
  P  P16  1  0.43155700  0.36430000  0.63627700  1
  P  P17  1  0.56844300  0.63570000  0.36372300  1
  P  P18  1  0.19795100  0.11606500  0.61800600  1
  P  P19  1  0.11606500  0.19795100  0.11800600  1
  O  O20  1  0.94020700  0.30290000  0.88982300  1
  O  O21  1  0.37449000  0.12040600  0.08467100  1
  O  O22  1  0.30290000  0.94020700  0.38982300  1
  O  O23  1  0.89864900  0.87388700  0.44345700  1
  O  O24  1  0.42456800  0.73559500  0.94230800  1
  O  O25  1  0.94568100  0.85840300  0.28927600  1
  O  O26  1  0.12611300  0.10135100  0.05654300  1
  O  O27  1  0.16864700  0.47134200  0.88995400  1
  O  O28  1  0.10135100  0.12611300  0.55654300  1
  O  O29  1  0.87959400  0.62551000  0.41532900  1
  O  O30  1  0.55009900  0.47468700  0.85561000  1
  O  O31  1  0.24417000  0.38598100  0.71784700  1
  O  O32  1  0.62551000  0.87959400  0.91532900  1
  O  O33  1  0.47134200  0.16864700  0.38995400  1
  O  O34  1  0.05979300  0.69710000  0.11017700  1
  O  O35  1  0.44990100  0.52531300  0.14439000  1
  O  O36  1  0.38598100  0.24417000  0.21784700  1
  O  O37  1  0.87388700  0.89864900  0.94345700  1
  O  O38  1  0.47468700  0.55009900  0.35561000  1
  O  O39  1  0.75583000  0.61401900  0.28215300  1
  O  O40  1  0.52865800  0.83135300  0.61004600  1
  O  O41  1  0.73559500  0.42456800  0.44230800  1
  O  O42  1  0.83135300  0.52865800  0.11004600  1
  O  O43  1  0.85840300  0.94568100  0.78927600  1
  O  O44  1  0.12040600  0.37449000  0.58467100  1
  O  O45  1  0.69710000  0.05979300  0.61017700  1
  O  O46  1  0.61401900  0.75583000  0.78215300  1
  O  O47  1  0.26440500  0.57543200  0.55769200  1
  O  O48  1  0.57543200  0.26440500  0.05769200  1
  O  O49  1  0.14159700  0.05431900  0.21072400  1
  O  O50  1  0.05431900  0.14159700  0.71072400  1
  O  O51  1  0.52531300  0.44990100  0.64439000  1
