# generated using pymatgen
data_Mn3ZnP3O13
_symmetry_space_group_name_H-M   'P 1'
_cell_length_a   6.16683800
_cell_length_b   7.76305600
_cell_length_c   10.32883496
_cell_angle_alpha   80.01439341
_cell_angle_beta   90.00000000
_cell_angle_gamma   90.00000000
_symmetry_Int_Tables_number   1
_chemical_formula_structural   Mn3ZnP3O13
_chemical_formula_sum   'Mn6 Zn2 P6 O26'
_cell_volume   486.98690045
_cell_formula_units_Z   2
loop_
 _symmetry_equiv_pos_site_id
 _symmetry_equiv_pos_as_xyz
  1  'x, y, z'
loop_
 _atom_site_type_symbol
 _atom_site_label
 _atom_site_symmetry_multiplicity
 _atom_site_fract_x
 _atom_site_fract_y
 _atom_site_fract_z
 _atom_site_occupancy
  Mn  Mn0  1  0.25000000  0.65118500  0.21047100  1
  Mn  Mn1  1  0.75000000  0.34881500  0.78952900  1
  Mn  Mn2  1  0.25000000  0.22780400  0.43174800  1
  Mn  Mn3  1  0.50000000  0.00000000  0.00000000  1
  Mn  Mn4  1  0.75000000  0.77219600  0.56825200  1
  Mn  Mn5  1  0.00000000  0.00000000  0.00000000  1
  Zn  Zn6  1  0.75000000  0.36569100  0.15718700  1
  Zn  Zn7  1  0.25000000  0.63430900  0.84281300  1
  P  P8  1  0.25000000  0.79035600  0.49185100  1
  P  P9  1  0.75000000  0.20964400  0.50814900  1
  P  P10  1  0.25000000  0.26569400  0.76108300  1
  P  P11  1  0.75000000  0.73430600  0.23891700  1
  P  P12  1  0.75000000  0.67532800  0.88280900  1
  P  P13  1  0.25000000  0.32467200  0.11719100  1
  O  O14  1  0.75000000  0.62321500  0.74383200  1
  O  O15  1  0.55692900  0.24970200  0.40891400  1
  O  O16  1  0.25000000  0.21976400  0.62518900  1
  O  O17  1  0.53582400  0.77880200  0.89559100  1
  O  O18  1  0.75000000  0.34542400  0.60119000  1
  O  O19  1  0.75000000  0.11684300  0.90628500  1
  O  O20  1  0.25000000  0.65457600  0.39881000  1
  O  O21  1  0.03582400  0.22119800  0.10440900  1
  O  O22  1  0.25000000  0.97508300  0.41347000  1
  O  O23  1  0.75000000  0.02491700  0.58653000  1
  O  O24  1  0.05848200  0.38389800  0.79116100  1
  O  O25  1  0.25000000  0.88315700  0.09371500  1
  O  O26  1  0.55848200  0.61610200  0.20883900  1
  O  O27  1  0.75000000  0.49328600  0.97142100  1
  O  O28  1  0.75000000  0.78023600  0.37481100  1
  O  O29  1  0.46417600  0.22119800  0.10440900  1
  O  O30  1  0.94307100  0.24970200  0.40891400  1
  O  O31  1  0.44307100  0.75029800  0.59108600  1
  O  O32  1  0.44151800  0.38389800  0.79116100  1
  O  O33  1  0.25000000  0.37678500  0.25616800  1
  O  O34  1  0.75000000  0.90423200  0.13182300  1
  O  O35  1  0.25000000  0.09576800  0.86817700  1
  O  O36  1  0.94151800  0.61610200  0.20883900  1
  O  O37  1  0.96417600  0.77880200  0.89559100  1
  O  O38  1  0.05692900  0.75029800  0.59108600  1
  O  O39  1  0.25000000  0.50671400  0.02857900  1
