# generated using pymatgen
data_H6CIN
_symmetry_space_group_name_H-M   'P 1'
_cell_length_a   5.17999100
_cell_length_b   5.18384300
_cell_length_c   9.17215341
_cell_angle_alpha   89.87913857
_cell_angle_beta   90.00000000
_cell_angle_gamma   90.00000000
_symmetry_Int_Tables_number   1
_chemical_formula_structural   H6CIN
_chemical_formula_sum   'H12 C2 I2 N2'
_cell_volume   246.29250085
_cell_formula_units_Z   2
loop_
 _symmetry_equiv_pos_site_id
 _symmetry_equiv_pos_as_xyz
  1  'x, y, z'
loop_
 _atom_site_type_symbol
 _atom_site_label
 _atom_site_symmetry_multiplicity
 _atom_site_fract_x
 _atom_site_fract_y
 _atom_site_fract_z
 _atom_site_occupancy
  H  H0  1  0.25000000  0.93620000  0.16215200  1
  H  H1  1  0.41131000  0.65479500  0.16304300  1
  H  H2  1  0.08869000  0.65479500  0.16304300  1
  H  H3  1  0.42323500  0.84985900  0.40301200  1
  H  H4  1  0.25000000  0.54985600  0.40316900  1
  H  H5  1  0.07676500  0.84985900  0.40301200  1
  H  H6  1  0.75000000  0.06380000  0.83784800  1
  H  H7  1  0.58869000  0.34520500  0.83695700  1
  H  H8  1  0.91131000  0.34520500  0.83695700  1
  H  H9  1  0.57676500  0.15014100  0.59698800  1
  H  H10  1  0.75000000  0.45014400  0.59683100  1
  H  H11  1  0.92323500  0.15014100  0.59698800  1
  C  C12  1  0.25000000  0.74972200  0.36532300  1
  C  C13  1  0.75000000  0.25027800  0.63467700  1
  I  I14  1  0.25000000  0.74603100  0.81056000  1
  I  I15  1  0.75000000  0.25396900  0.18944000  1
  N  N16  1  0.25000000  0.75024400  0.20303800  1
  N  N17  1  0.75000000  0.24975600  0.79696200  1
