# generated using pymatgen
data_TiAu
_symmetry_space_group_name_H-M   'P 1'
_cell_length_a   3.01303400
_cell_length_b   4.63862600
_cell_length_c   4.93573700
_cell_angle_alpha   90.00000000
_cell_angle_beta   90.00000000
_cell_angle_gamma   90.00000000
_symmetry_Int_Tables_number   1
_chemical_formula_structural   TiAu
_chemical_formula_sum   'Ti2 Au2'
_cell_volume   68.98352786
_cell_formula_units_Z   2
loop_
 _symmetry_equiv_pos_site_id
 _symmetry_equiv_pos_as_xyz
  1  'x, y, z'
loop_
 _atom_site_type_symbol
 _atom_site_label
 _atom_site_symmetry_multiplicity
 _atom_site_fract_x
 _atom_site_fract_y
 _atom_site_fract_z
 _atom_site_occupancy
  Ti  Ti0  1  0.00000000  0.75000000  0.31297200  1
  Ti  Ti1  1  0.00000000  0.25000000  0.68702800  1
  Au  Au2  1  0.50000000  0.75000000  0.81880500  1
  Au  Au3  1  0.50000000  0.25000000  0.18119500  1
