# generated using pymatgen
data_Fe2P2O9
_symmetry_space_group_name_H-M   'P 1'
_cell_length_a   6.43118419
_cell_length_b   7.82219671
_cell_length_c   14.10661021
_cell_angle_alpha   90.04429155
_cell_angle_beta   90.00134844
_cell_angle_gamma   89.97288967
_symmetry_Int_Tables_number   1
_chemical_formula_structural   Fe2P2O9
_chemical_formula_sum   'Fe8 P8 O36'
_cell_volume   709.64666993
_cell_formula_units_Z   4
loop_
 _symmetry_equiv_pos_site_id
 _symmetry_equiv_pos_as_xyz
  1  'x, y, z'
loop_
 _atom_site_type_symbol
 _atom_site_label
 _atom_site_symmetry_multiplicity
 _atom_site_fract_x
 _atom_site_fract_y
 _atom_site_fract_z
 _atom_site_occupancy
  Fe  Fe0  1  0.75053200  0.34487900  0.87872300  1
  Fe  Fe1  1  0.24942100  0.65500100  0.12100300  1
  Fe  Fe2  1  0.24955800  0.84380600  0.62182300  1
  Fe  Fe3  1  0.75043500  0.15606000  0.37834300  1
  Fe  Fe4  1  0.49997000  0.99997700  0.99980800  1
  Fe  Fe5  1  0.49998900  0.49980900  0.50031300  1
  Fe  Fe6  1  0.00003000  0.49980600  0.50031300  1
  Fe  Fe7  1  0.00003800  0.99999100  0.99984200  1
  P  P8  1  0.25029300  0.35061200  0.93952200  1
  P  P9  1  0.74968400  0.64948900  0.05988000  1
  P  P10  1  0.74968700  0.85182600  0.55965800  1
  P  P11  1  0.25031900  0.14803800  0.44064700  1
  P  P12  1  0.74989300  0.39462600  0.68924200  1
  P  P13  1  0.75007500  0.10629500  0.18861500  1
  P  P14  1  0.24995100  0.89390500  0.81107300  1
  P  P15  1  0.25010900  0.60543300  0.31127500  1
  O  O16  1  0.05270800  0.58849100  0.37241600  1
  O  O17  1  0.55239200  0.41121400  0.62816300  1
  O  O18  1  0.94773300  0.08911300  0.12763500  1
  O  O19  1  0.44748100  0.91079600  0.87205600  1
  O  O20  1  0.94745200  0.41162300  0.62826600  1
  O  O21  1  0.44743600  0.58897200  0.37253100  1
  O  O22  1  0.05228300  0.91122500  0.87199600  1
  O  O23  1  0.55261500  0.08943500  0.12755300  1
  O  O24  1  0.25001700  0.33198400  0.48586600  1
  O  O25  1  0.75001400  0.66737100  0.51506400  1
  O  O26  1  0.75007800  0.83306000  0.01443500  1
  O  O27  1  0.25001000  0.16709600  0.98508100  1
  O  O28  1  0.75073500  0.14051600  0.95484400  1
  O  O29  1  0.24923100  0.85981400  0.04498600  1
  O  O30  1  0.24953500  0.63948300  0.54588100  1
  O  O31  1  0.75045400  0.35985900  0.45501300  1
  O  O32  1  0.75033000  0.22748100  0.74991300  1
  O  O33  1  0.24962600  0.77219900  0.25026900  1
  O  O34  1  0.24961200  0.72655700  0.75037700  1
  O  O35  1  0.75037600  0.27341600  0.24949100  1
  O  O36  1  0.44430400  0.13190000  0.37866600  1
  O  O37  1  0.94345500  0.86919000  0.62172500  1
  O  O38  1  0.55556800  0.63421400  0.12176000  1
  O  O39  1  0.05672100  0.36640400  0.87727300  1
  O  O40  1  0.55572500  0.86862500  0.62155300  1
  O  O41  1  0.05652000  0.13136800  0.37849600  1
  O  O42  1  0.44420500  0.36564300  0.87754600  1
  O  O43  1  0.94339700  0.63326000  0.12206900  1
  O  O44  1  0.74983800  0.51133600  0.98327000  1
  O  O45  1  0.24990100  0.02233100  0.72591200  1
  O  O46  1  0.25044700  0.47697100  0.22603200  1
  O  O47  1  0.74960600  0.52339900  0.77436100  1
  O  O48  1  0.74984600  0.98863700  0.48248700  1
  O  O49  1  0.25016100  0.01024100  0.51725700  1
  O  O50  1  0.25007800  0.48929300  0.01589200  1
  O  O51  1  0.75014100  0.97793200  0.27378500  1
