data_image0
_chemical_formula_structural       B8H24Mg4
_chemical_formula_sum              "B8 H24 Mg4"
_cell_length_a       8.11616
_cell_length_b       7.91122
_cell_length_c       5.01985
_cell_angle_alpha    90.0019
_cell_angle_beta     77.6449
_cell_angle_gamma    90.0007

_space_group_name_H-M_alt    "P 1"
_space_group_IT_number       1

loop_
  _space_group_symop_operation_xyz
  'x, y, z'

loop_
  _atom_site_type_symbol
  _atom_site_label
  _atom_site_symmetry_multiplicity
  _atom_site_fract_x
  _atom_site_fract_y
  _atom_site_fract_z
  _atom_site_occupancy
  B   B1        1.0  0.57000  0.01450  0.11000  1.0000
  B   B2        1.0  0.06940  0.76300  0.11000  1.0000
  B   B3        1.0  0.93100  0.26300  0.14000  1.0000
  B   B4        1.0  0.43100  0.51400  0.14000  1.0000
  B   B5        1.0  0.32400  0.38900  0.42000  1.0000
  B   B6        1.0  0.82400  0.38900  0.42000  1.0000
  B   B7        1.0  0.67600  0.88900  0.83000  1.0000
  B   B8        1.0  0.17600  0.88900  0.83000  1.0000
  H   H1        1.0  0.52600  0.14600  0.01210  1.0000
  H   H2        1.0  0.02600  0.63100  0.01220  1.0000
  H   H3        1.0  0.97400  0.13100  0.23800  1.0000
  H   H4        1.0  0.47400  0.64600  0.23800  1.0000
  H   H5        1.0  0.44100  0.96200  0.26800  1.0000
  H   H6        1.0  0.94100  0.81600  0.26800  1.0000
  H   H7        1.0  0.65800  0.04200  0.27800  1.0000
  H   H8        1.0  0.15800  0.73600  0.27800  1.0000
  H   H9        1.0  0.24000  0.27300  0.35400  1.0000
  H   H10       1.0  0.74000  0.50500  0.35400  1.0000
  H   H11       1.0  0.40600  0.32200  0.57200  1.0000
  H   H12       1.0  0.90600  0.45600  0.57200  1.0000
  H   H13       1.0  0.72900  0.29500  0.57900  1.0000
  H   H14       1.0  0.22900  0.48300  0.57900  1.0000
  H   H15       1.0  0.77100  0.98300  0.67100  1.0000
  H   H16       1.0  0.27100  0.79400  0.67100  1.0000
  H   H17       1.0  0.09430  0.95600  0.67800  1.0000
  H   H18       1.0  0.59400  0.82200  0.67800  1.0000
  H   H19       1.0  0.26000  0.00503  0.89600  1.0000
  H   H20       1.0  0.76000  0.77300  0.89600  1.0000
  H   H21       1.0  0.84200  0.23600  0.97200  1.0000
  H   H22       1.0  0.34200  0.54200  0.97200  1.0000
  H   H23       1.0  0.55900  0.46200  0.98200  1.0000
  H   H24       1.0  0.05890  0.31600  0.98200  1.0000
  Mg  Mg1       1.0  0.60500  0.30100  0.25900  1.0000
  Mg  Mg2       1.0  0.10500  0.47700  0.25900  1.0000
  Mg  Mg3       1.0  0.89500  0.97700  0.99000  1.0000
  Mg  Mg4       1.0  0.39500  0.80100  0.99100  1.0000
