# generated using pymatgen
data_WO2
_symmetry_space_group_name_H-M   'P 1'
_cell_length_a   6.73226106
_cell_length_b   6.73226106
_cell_length_c   6.73225997
_cell_angle_alpha   52.82496840
_cell_angle_beta   52.82496840
_cell_angle_gamma   52.82496942
_symmetry_Int_Tables_number   1
_chemical_formula_structural   WO2
_chemical_formula_sum   'W4 O8'
_cell_volume   179.45297084
_cell_formula_units_Z   4
loop_
 _symmetry_equiv_pos_site_id
 _symmetry_equiv_pos_as_xyz
  1  'x, y, z'
loop_
 _atom_site_type_symbol
 _atom_site_label
 _atom_site_symmetry_multiplicity
 _atom_site_fract_x
 _atom_site_fract_y
 _atom_site_fract_z
 _atom_site_occupancy
  W  W0  1  0.24990200  0.24990200  0.24990200  1
  W  W1  1  0.61317300  0.13594600  0.61317300  1
  W  W2  1  0.61317300  0.61317300  0.13594600  1
  W  W3  1  0.13594600  0.61317300  0.61317300  1
  O  O4  1  0.86145100  0.36489000  0.36489000  1
  O  O5  1  0.36489000  0.36489000  0.86145100  1
  O  O6  1  0.36489000  0.86145100  0.36489000  1
  O  O7  1  0.36572100  0.36572100  0.36572100  1
  O  O8  1  0.85110900  0.85110900  0.85110900  1
  O  O9  1  0.89540700  0.41148200  0.89540700  1
  O  O10  1  0.89540700  0.89540700  0.41148200  1
  O  O11  1  0.41148200  0.89540700  0.89540700  1
