# generated using pymatgen
data_FeO2
_symmetry_space_group_name_H-M   'P 1'
_cell_length_a   5.95989211
_cell_length_b   5.95989211
_cell_length_c   14.36318500
_cell_angle_alpha   90.00000000
_cell_angle_beta   90.00000000
_cell_angle_gamma   120.00000119
_symmetry_Int_Tables_number   1
_chemical_formula_structural   FeO2
_chemical_formula_sum   'Fe12 O24'
_cell_volume   441.83302700
_cell_formula_units_Z   12
loop_
 _symmetry_equiv_pos_site_id
 _symmetry_equiv_pos_as_xyz
  1  'x, y, z'
loop_
 _atom_site_type_symbol
 _atom_site_label
 _atom_site_symmetry_multiplicity
 _atom_site_fract_x
 _atom_site_fract_y
 _atom_site_fract_z
 _atom_site_occupancy
  Fe  Fe0  1  0.99063900  0.49531900  0.16743700  1
  Fe  Fe1  1  0.50468100  0.00936100  0.16743700  1
  Fe  Fe2  1  0.65646100  0.82823000  0.49933900  1
  Fe  Fe3  1  0.50468100  0.49531900  0.16743700  1
  Fe  Fe4  1  0.17177000  0.34353900  0.49933900  1
  Fe  Fe5  1  0.00000000  0.00000000  0.66622600  1
  Fe  Fe6  1  0.00000000  0.00000000  0.28225200  1
  Fe  Fe7  1  0.33524300  0.16762200  0.83454100  1
  Fe  Fe8  1  0.17177000  0.82823000  0.49933900  1
  Fe  Fe9  1  0.83237800  0.66475700  0.83454100  1
  Fe  Fe10  1  0.83237800  0.16762200  0.83454100  1
  Fe  Fe11  1  0.33333300  0.66666700  0.95522500  1
  O  O12  1  0.36827800  0.18413900  0.09985700  1
  O  O13  1  0.66666700  0.33333300  0.24473800  1
  O  O14  1  0.81586100  0.63172200  0.09985700  1
  O  O15  1  0.81586100  0.18413900  0.09985700  1
  O  O16  1  0.02574000  0.51287000  0.43756100  1
  O  O17  1  0.17474500  0.82525500  0.23722200  1
  O  O18  1  0.33333300  0.66666700  0.57667500  1
  O  O19  1  0.17474500  0.34949000  0.23722200  1
  O  O20  1  0.33333300  0.66666700  0.08973300  1
  O  O21  1  0.48713000  0.97426000  0.43756100  1
  O  O22  1  0.48713000  0.51287000  0.43756100  1
  O  O23  1  0.65051000  0.82525500  0.23722200  1
  O  O24  1  0.71345300  0.85672700  0.74689600  1
  O  O25  1  0.85825600  0.14174400  0.57652200  1
  O  O26  1  0.85825600  0.71651300  0.57652200  1
  O  O27  1  0.00000000  0.00000000  0.90272900  1
  O  O28  1  0.00000000  0.00000000  0.41826300  1
  O  O29  1  0.14327300  0.28654700  0.74689600  1
  O  O30  1  0.14327300  0.85672700  0.74689600  1
  O  O31  1  0.28348700  0.14174400  0.57652200  1
  O  O32  1  0.50036500  0.49963500  0.90327100  1
  O  O33  1  0.50036500  0.00072900  0.90327100  1
  O  O34  1  0.66666700  0.33333300  0.76694500  1
  O  O35  1  0.99927100  0.49963500  0.90327100  1
