# generated using pymatgen
data_Ba2Mn2TlO7
_symmetry_space_group_name_H-M   'P 1'
_cell_length_a   3.77790200
_cell_length_b   3.77790200
_cell_length_c   14.13712200
_cell_angle_alpha   90.00000000
_cell_angle_beta   90.00000000
_cell_angle_gamma   90.00000000
_symmetry_Int_Tables_number   1
_chemical_formula_structural   Ba2Mn2TlO7
_chemical_formula_sum   'Ba2 Mn2 Tl1 O7'
_cell_volume   201.77268902
_cell_formula_units_Z   1
loop_
 _symmetry_equiv_pos_site_id
 _symmetry_equiv_pos_as_xyz
  1  'x, y, z'
loop_
 _atom_site_type_symbol
 _atom_site_label
 _atom_site_symmetry_multiplicity
 _atom_site_fract_x
 _atom_site_fract_y
 _atom_site_fract_z
 _atom_site_occupancy
  Ba  Ba0  1  0.50000000  0.50000000  0.69968000  1
  Ba  Ba1  1  0.50000000  0.50000000  0.30032000  1
  Mn  Mn2  1  0.00000000  0.00000000  0.87133400  1
  Mn  Mn3  1  0.00000000  0.00000000  0.12866600  1
  Tl  Tl4  1  0.00000000  0.00000000  0.50000000  1
  O  O5  1  0.50000000  0.50000000  0.50000000  1
  O  O6  1  0.00000000  0.50000000  0.85112900  1
  O  O7  1  0.50000000  0.00000000  0.85112900  1
  O  O8  1  0.00000000  0.50000000  0.14887100  1
  O  O9  1  0.50000000  0.00000000  0.14887100  1
  O  O10  1  0.00000000  0.00000000  0.64769200  1
  O  O11  1  0.00000000  0.00000000  0.35230800  1
