# generated using pymatgen
data_V3Se2ClO8
_symmetry_space_group_name_H-M   'P 1'
_cell_length_a   6.71510200
_cell_length_b   7.91606842
_cell_length_c   9.92606171
_cell_angle_alpha   90.11109193
_cell_angle_beta   91.31044546
_cell_angle_gamma   90.60575909
_symmetry_Int_Tables_number   1
_chemical_formula_structural   V3Se2ClO8
_chemical_formula_sum   'V6 Se4 Cl2 O16'
_cell_volume   527.47297784
_cell_formula_units_Z   2
loop_
 _symmetry_equiv_pos_site_id
 _symmetry_equiv_pos_as_xyz
  1  'x, y, z'
loop_
 _atom_site_type_symbol
 _atom_site_label
 _atom_site_symmetry_multiplicity
 _atom_site_fract_x
 _atom_site_fract_y
 _atom_site_fract_z
 _atom_site_occupancy
  V  V0  1  0.50000000  0.00000000  0.00000000  1
  V  V1  1  0.50000000  0.00000000  0.50000000  1
  V  V2  1  0.00000000  0.00000000  0.00000000  1
  V  V3  1  0.27839300  0.18888900  0.25079300  1
  V  V4  1  0.72160700  0.81111100  0.74920700  1
  V  V5  1  0.00000000  0.00000000  0.50000000  1
  Se  Se6  1  0.25115200  0.35472600  0.94570700  1
  Se  Se7  1  0.74884800  0.64527400  0.05429300  1
  Se  Se8  1  0.25414500  0.35743900  0.55182900  1
  Se  Se9  1  0.74585500  0.64256100  0.44817100  1
  Cl  Cl10  1  0.63721600  0.12912900  0.26544700  1
  Cl  Cl11  1  0.36278400  0.87087100  0.73455300  1
  O  O12  1  0.74700100  0.97314300  0.89995900  1
  O  O13  1  0.75880200  0.62185300  0.88237300  1
  O  O14  1  0.24760100  0.38135800  0.37932200  1
  O  O15  1  0.45590200  0.23149700  0.92305800  1
  O  O16  1  0.54505700  0.77011000  0.41929200  1
  O  O17  1  0.95391300  0.77714000  0.42697100  1
  O  O18  1  0.25299900  0.02685700  0.10004100  1
  O  O19  1  0.04781700  0.21489900  0.91648400  1
  O  O20  1  0.04608700  0.22286000  0.57302900  1
  O  O21  1  0.95218300  0.78510100  0.08351600  1
  O  O22  1  0.75382400  0.97308500  0.60170500  1
  O  O23  1  0.24617600  0.02691500  0.39829500  1
  O  O24  1  0.54409800  0.76850300  0.07694200  1
  O  O25  1  0.45494300  0.22989000  0.58070800  1
  O  O26  1  0.24119800  0.37814700  0.11762700  1
  O  O27  1  0.75239900  0.61864200  0.62067800  1
