# generated using pymatgen
data_Sb3Se2ClO8
_symmetry_space_group_name_H-M   'P 1'
_cell_length_a   7.25222800
_cell_length_b   7.94417400
_cell_length_c   10.64922600
_cell_angle_alpha   90.00000000
_cell_angle_beta   90.00000000
_cell_angle_gamma   90.00000000
_symmetry_Int_Tables_number   1
_chemical_formula_structural   Sb3Se2ClO8
_chemical_formula_sum   'Sb6 Se4 Cl2 O16'
_cell_volume   613.53344349
_cell_formula_units_Z   2
loop_
 _symmetry_equiv_pos_site_id
 _symmetry_equiv_pos_as_xyz
  1  'x, y, z'
loop_
 _atom_site_type_symbol
 _atom_site_label
 _atom_site_symmetry_multiplicity
 _atom_site_fract_x
 _atom_site_fract_y
 _atom_site_fract_z
 _atom_site_occupancy
  Sb  Sb0  1  0.25000000  0.00000000  0.75000000  1
  Sb  Sb1  1  0.25000000  0.00000000  0.25000000  1
  Sb  Sb2  1  0.75000000  0.00000000  0.75000000  1
  Sb  Sb3  1  0.50000000  0.76658400  0.50000000  1
  Sb  Sb4  1  0.00000000  0.23341600  0.00000000  1
  Sb  Sb5  1  0.75000000  0.00000000  0.25000000  1
  Se  Se6  1  0.50000000  0.61806000  0.80833400  1
  Se  Se7  1  0.00000000  0.38194000  0.69166600  1
  Se  Se8  1  0.50000000  0.61806000  0.19166600  1
  Se  Se9  1  0.00000000  0.38194000  0.30833400  1
  Cl  Cl10  1  0.00000000  0.87469400  0.50000000  1
  Cl  Cl11  1  0.50000000  0.12530600  0.00000000  1
  O  O12  1  0.00000000  0.03352100  0.85898100  1
  O  O13  1  0.00000000  0.42223200  0.85339300  1
  O  O14  1  0.50000000  0.57776800  0.35339300  1
  O  O15  1  0.30938400  0.74937000  0.82692700  1
  O  O16  1  0.19061600  0.25063000  0.32692700  1
  O  O17  1  0.80938400  0.25063000  0.32692700  1
  O  O18  1  0.50000000  0.96647900  0.64101900  1
  O  O19  1  0.69061600  0.74937000  0.82692700  1
  O  O20  1  0.69061600  0.74937000  0.17307300  1
  O  O21  1  0.80938400  0.25063000  0.67307300  1
  O  O22  1  0.00000000  0.03352100  0.14101900  1
  O  O23  1  0.50000000  0.96647900  0.35898100  1
  O  O24  1  0.19061600  0.25063000  0.67307300  1
  O  O25  1  0.30938400  0.74937000  0.17307300  1
  O  O26  1  0.50000000  0.57776800  0.64660700  1
  O  O27  1  0.00000000  0.42223200  0.14660700  1
