# generated using pymatgen
data_MgSnF4
_symmetry_space_group_name_H-M   'P 1'
_cell_length_a   7.13862067
_cell_length_b   7.13862067
_cell_length_c   5.08475360
_cell_angle_alpha   72.69187798
_cell_angle_beta   72.69187798
_cell_angle_gamma   45.58924295
_symmetry_Int_Tables_number   1
_chemical_formula_structural   MgSnF4
_chemical_formula_sum   'Mg2 Sn2 F8'
_cell_volume   175.19562456
_cell_formula_units_Z   2
loop_
 _symmetry_equiv_pos_site_id
 _symmetry_equiv_pos_as_xyz
  1  'x, y, z'
loop_
 _atom_site_type_symbol
 _atom_site_label
 _atom_site_symmetry_multiplicity
 _atom_site_fract_x
 _atom_site_fract_y
 _atom_site_fract_z
 _atom_site_occupancy
  Mg  Mg0  1  0.31312500  0.68687500  0.50000000  1
  Mg  Mg1  1  0.84724400  0.15275600  0.00000000  1
  Sn  Sn2  1  0.92797900  0.48032700  0.27852100  1
  Sn  Sn3  1  0.51967300  0.07202100  0.72147900  1
  F  F4  1  0.01016900  0.26487700  0.68663100  1
  F  F5  1  0.25300700  0.45027200  0.47042400  1
  F  F6  1  0.00326300  0.86435900  0.78851800  1
  F  F7  1  0.53388600  0.36066200  0.79171100  1
  F  F8  1  0.63933800  0.46611400  0.20828900  1
  F  F9  1  0.13564100  0.99673700  0.21148200  1
  F  F10  1  0.54972800  0.74699300  0.52957600  1
  F  F11  1  0.73512300  0.98983100  0.31336900  1
