# generated using pymatgen
data_V2ZnO4
_symmetry_space_group_name_H-M   'P 1'
_cell_length_a   2.97277200
_cell_length_b   9.26554400
_cell_length_c   10.50269600
_cell_angle_alpha   90.00000000
_cell_angle_beta   90.00000000
_cell_angle_gamma   90.00000000
_symmetry_Int_Tables_number   1
_chemical_formula_structural   V2ZnO4
_chemical_formula_sum   'V8 Zn4 O16'
_cell_volume   289.28993213
_cell_formula_units_Z   4
loop_
 _symmetry_equiv_pos_site_id
 _symmetry_equiv_pos_as_xyz
  1  'x, y, z'
loop_
 _atom_site_type_symbol
 _atom_site_label
 _atom_site_symmetry_multiplicity
 _atom_site_fract_x
 _atom_site_fract_y
 _atom_site_fract_z
 _atom_site_occupancy
  V  V0  1  0.25000000  0.43697000  0.37918500  1
  V  V1  1  0.75000000  0.56303000  0.62081500  1
  V  V2  1  0.25000000  0.93697000  0.12081500  1
  V  V3  1  0.75000000  0.06303000  0.87918500  1
  V  V4  1  0.25000000  0.40772200  0.89745600  1
  V  V5  1  0.75000000  0.59227800  0.10254400  1
  V  V6  1  0.25000000  0.90772200  0.60254400  1
  V  V7  1  0.75000000  0.09227800  0.39745600  1
  Zn  Zn8  1  0.25000000  0.24698200  0.14585100  1
  Zn  Zn9  1  0.75000000  0.75301800  0.85414900  1
  Zn  Zn10  1  0.25000000  0.74698200  0.35414900  1
  Zn  Zn11  1  0.75000000  0.25301800  0.64585100  1
  O  O12  1  0.25000000  0.20176500  0.82295500  1
  O  O13  1  0.75000000  0.79823500  0.17704500  1
  O  O14  1  0.25000000  0.70176500  0.67704500  1
  O  O15  1  0.75000000  0.29823500  0.32295500  1
  O  O16  1  0.25000000  0.12179800  0.53743400  1
  O  O17  1  0.75000000  0.87820200  0.46256600  1
  O  O18  1  0.25000000  0.62179800  0.96256600  1
  O  O19  1  0.75000000  0.37820200  0.03743400  1
  O  O20  1  0.25000000  0.04475600  0.28224300  1
  O  O21  1  0.75000000  0.95524400  0.71775700  1
  O  O22  1  0.25000000  0.54475600  0.21775700  1
  O  O23  1  0.75000000  0.45524400  0.78224300  1
  O  O24  1  0.25000000  0.41010700  0.57017100  1
  O  O25  1  0.75000000  0.58989300  0.42982900  1
  O  O26  1  0.25000000  0.91010700  0.92982900  1
  O  O27  1  0.75000000  0.08989300  0.07017100  1
