# generated using pymatgen
data_SnN
_symmetry_space_group_name_H-M   'P 1'
_cell_length_a   3.51222151
_cell_length_b   3.51222151
_cell_length_c   5.55524566
_cell_angle_alpha   87.35617473
_cell_angle_beta   87.35617473
_cell_angle_gamma   74.31801795
_symmetry_Int_Tables_number   1
_chemical_formula_structural   SnN
_chemical_formula_sum   'Sn2 N2'
_cell_volume   65.86641565
_cell_formula_units_Z   2
loop_
 _symmetry_equiv_pos_site_id
 _symmetry_equiv_pos_as_xyz
  1  'x, y, z'
loop_
 _atom_site_type_symbol
 _atom_site_label
 _atom_site_symmetry_multiplicity
 _atom_site_fract_x
 _atom_site_fract_y
 _atom_site_fract_z
 _atom_site_occupancy
  Sn  Sn0  1  0.59294300  0.59294300  0.94336400  1
  Sn  Sn1  1  0.16340700  0.16340700  0.45107200  1
  N  N2  1  0.53811900  0.53811900  0.54874400  1
  N  N3  1  0.21282700  0.21282700  0.05671200  1
