# generated using pymatgen
data_Ba2Ca3Tl2Cr4O12
_symmetry_space_group_name_H-M   'P 1'
_cell_length_a   3.95706257
_cell_length_b   3.95706222
_cell_length_c   22.38064946
_cell_angle_alpha   95.07177245
_cell_angle_beta   95.07177264
_cell_angle_gamma   89.99999047
_symmetry_Int_Tables_number   1
_chemical_formula_structural   Ba2Ca3Tl2Cr4O12
_chemical_formula_sum   'Ba2 Ca3 Tl2 Cr4 O12'
_cell_volume   347.69430862
_cell_formula_units_Z   1
loop_
 _symmetry_equiv_pos_site_id
 _symmetry_equiv_pos_as_xyz
  1  'x, y, z'
loop_
 _atom_site_type_symbol
 _atom_site_label
 _atom_site_symmetry_multiplicity
 _atom_site_fract_x
 _atom_site_fract_y
 _atom_site_fract_z
 _atom_site_occupancy
  Ba  Ba0  1  0.16081800  0.16081800  0.32163400  1
  Ba  Ba1  1  0.83918200  0.83918200  0.67836600  1
  Ca  Ca2  1  0.07708900  0.07708900  0.15417700  1
  Ca  Ca3  1  0.92291100  0.92291100  0.84582300  1
  Ca  Ca4  1  0.00000000  0.00000000  0.00000000  1
  Tl  Tl5  1  0.72417000  0.72417000  0.44833900  1
  Tl  Tl6  1  0.27583000  0.27583000  0.55166100  1
  Cr  Cr7  1  0.53776700  0.53776700  0.07553400  1
  Cr  Cr8  1  0.38461400  0.38461400  0.76922700  1
  Cr  Cr9  1  0.61538600  0.61538600  0.23077300  1
  Cr  Cr10  1  0.46223300  0.46223300  0.92446600  1
  O  O11  1  0.39282800  0.89282800  0.78565600  1
  O  O12  1  0.53532100  0.03532100  0.07064300  1
  O  O13  1  0.22165200  0.22165200  0.44330400  1
  O  O14  1  0.96467900  0.46467900  0.92935700  1
  O  O15  1  0.77834800  0.77834800  0.55669600  1
  O  O16  1  0.10717200  0.60717200  0.21434400  1
  O  O17  1  0.60717200  0.10717200  0.21434400  1
  O  O18  1  0.34135200  0.34135200  0.68270500  1
  O  O19  1  0.89282800  0.39282800  0.78565600  1
  O  O20  1  0.03532100  0.53532100  0.07064300  1
  O  O21  1  0.46467900  0.96467900  0.92935700  1
  O  O22  1  0.65864800  0.65864800  0.31729500  1
