# generated using pymatgen
data_Mn13Si2(SbO14)2
_symmetry_space_group_name_H-M   'P 1'
_cell_length_a   5.58741782
_cell_length_b   8.84550615
_cell_length_c   11.75375360
_cell_angle_alpha   87.52253614
_cell_angle_beta   76.10954976
_cell_angle_gamma   79.00803492
_symmetry_Int_Tables_number   1
_chemical_formula_structural   Mn13Si2(SbO14)2
_chemical_formula_sum   'Mn13 Si2 Sb2 O28'
_cell_volume   553.57642804
_cell_formula_units_Z   1
loop_
 _symmetry_equiv_pos_site_id
 _symmetry_equiv_pos_as_xyz
  1  'x, y, z'
loop_
 _atom_site_type_symbol
 _atom_site_label
 _atom_site_symmetry_multiplicity
 _atom_site_fract_x
 _atom_site_fract_y
 _atom_site_fract_z
 _atom_site_occupancy
  Mn  Mn0  1  0.95883700  0.63055300  0.68356600  1
  Mn  Mn1  1  0.64900700  0.35353000  0.14846900  1
  Mn  Mn2  1  0.35725700  0.36567800  0.68332800  1
  Mn  Mn3  1  0.03570400  0.36820000  0.31908300  1
  Mn  Mn4  1  0.35552100  0.64555200  0.85067900  1
  Mn  Mn5  1  0.28599300  0.99814700  0.42845600  1
  Mn  Mn6  1  0.20389300  0.64361200  0.14896800  1
  Mn  Mn7  1  0.00100800  0.99945100  0.00090100  1
  Mn  Mn8  1  0.42390500  0.00095700  0.14864800  1
  Mn  Mn9  1  0.79425300  0.35366000  0.85371200  1
  Mn  Mn10  1  0.63615100  0.63255800  0.31498900  1
  Mn  Mn11  1  0.57848300  0.99877200  0.85158000  1
  Mn  Mn12  1  0.71401100  0.00066100  0.57130600  1
  Si  Si13  1  0.23359800  0.31719200  0.00042900  1
  Si  Si14  1  0.77114200  0.68243200  0.00049000  1
  Sb  Sb15  1  0.85359600  0.99982800  0.29227300  1
  Sb  Sb16  1  0.14873900  0.99749400  0.70829400  1
  O  O17  1  0.70362400  0.40675100  0.30026500  1
  O  O18  1  0.19167100  0.35948400  0.42677000  1
  O  O19  1  0.93621900  0.34875700  0.00093700  1
  O  O20  1  0.31751700  0.12644200  0.00058800  1
  O  O21  1  0.82053100  0.63912900  0.57030000  1
  O  O22  1  0.29083100  0.59050600  0.70080000  1
  O  O23  1  0.00238800  0.09858800  0.57764800  1
  O  O24  1  0.00804600  0.89755900  0.41962600  1
  O  O25  1  0.68717900  0.87257000  0.00022400  1
  O  O26  1  0.11854500  0.88390300  0.16025600  1
  O  O27  1  0.28531000  0.38597500  0.11998900  1
  O  O28  1  0.98494300  0.59304900  0.29878600  1
  O  O29  1  0.43029800  0.89552300  0.58052400  1
  O  O30  1  0.72263100  0.11386700  0.15940600  1
  O  O31  1  0.60001900  0.61517900  0.12134200  1
  O  O32  1  0.06941600  0.64972400  0.99896300  1
  O  O33  1  0.28405500  0.88573900  0.84154400  1
  O  O34  1  0.88020800  0.11367800  0.83975000  1
  O  O35  1  0.57520500  0.09963400  0.42289200  1
  O  O36  1  0.11435600  0.13693200  0.28919500  1
  O  O37  1  0.88407000  0.86209300  0.71119400  1
  O  O38  1  0.40236800  0.38418300  0.87938500  1
  O  O39  1  0.40661700  0.13486100  0.71085900  1
  O  O40  1  0.61078700  0.35462600  0.56967500  1
  O  O41  1  0.72000000  0.61332100  0.88093200  1
  O  O42  1  0.58575500  0.86649900  0.28979400  1
  O  O43  1  0.00639300  0.40553900  0.70338800  1
  O  O44  1  0.38094800  0.64153900  0.42730500  1
