# generated using pymatgen
data_Ba2AlFe3O7
_symmetry_space_group_name_H-M   'P 1'
_cell_length_a   3.68197700
_cell_length_b   4.49308028
_cell_length_c   11.07459704
_cell_angle_alpha   87.03438270
_cell_angle_beta   87.52638517
_cell_angle_gamma   88.64668247
_symmetry_Int_Tables_number   1
_chemical_formula_structural   Ba2AlFe3O7
_chemical_formula_sum   'Ba2 Al1 Fe3 O7'
_cell_volume   182.75384706
_cell_formula_units_Z   1
loop_
 _symmetry_equiv_pos_site_id
 _symmetry_equiv_pos_as_xyz
  1  'x, y, z'
loop_
 _atom_site_type_symbol
 _atom_site_label
 _atom_site_symmetry_multiplicity
 _atom_site_fract_x
 _atom_site_fract_y
 _atom_site_fract_z
 _atom_site_occupancy
  Ba  Ba0  1  0.48530700  0.47858300  0.18316700  1
  Ba  Ba1  1  0.51444100  0.52185900  0.81659500  1
  Al  Al2  1  0.50600100  0.50122100  0.50124800  1
  Fe  Fe3  1  0.95930500  0.96010400  0.36519900  1
  Fe  Fe4  1  0.04453100  0.04051800  0.63245200  1
  Fe  Fe5  1  0.99961000  0.00034400  0.00034500  1
  O  O6  1  0.00026200  0.49973400  0.00147400  1
  O  O7  1  0.46083800  0.81887700  0.39279200  1
  O  O8  1  0.54024600  0.18288000  0.60714700  1
  O  O9  1  0.89602600  0.37498400  0.39514600  1
  O  O10  1  0.09631000  0.62193200  0.60016500  1
  O  O11  1  0.00069900  0.97387900  0.18114000  1
  O  O12  1  0.99642300  0.02508600  0.82313200  1
