# generated using pymatgen
data_MgBiPO6
_symmetry_space_group_name_H-M   'P 1'
_cell_length_a   5.32498400
_cell_length_b   6.56298800
_cell_length_c   7.84901141
_cell_angle_alpha   68.88248853
_cell_angle_beta   90.00000000
_cell_angle_gamma   90.00000000
_symmetry_Int_Tables_number   1
_chemical_formula_structural   MgBiPO6
_chemical_formula_sum   'Mg2 Bi2 P2 O12'
_cell_volume   255.88430648
_cell_formula_units_Z   2
loop_
 _symmetry_equiv_pos_site_id
 _symmetry_equiv_pos_as_xyz
  1  'x, y, z'
loop_
 _atom_site_type_symbol
 _atom_site_label
 _atom_site_symmetry_multiplicity
 _atom_site_fract_x
 _atom_site_fract_y
 _atom_site_fract_z
 _atom_site_occupancy
  Mg  Mg0  1  0.25000000  0.85253600  0.91637100  1
  Mg  Mg1  1  0.75000000  0.14746400  0.08362900  1
  Bi  Bi2  1  0.75000000  0.80298100  0.54237100  1
  Bi  Bi3  1  0.25000000  0.19701900  0.45762900  1
  P  P4  1  0.25000000  0.37266300  0.82383700  1
  P  P5  1  0.75000000  0.62733700  0.17616300  1
  O  O6  1  0.98021000  0.03035600  0.32178800  1
  O  O7  1  0.51927800  0.77869600  0.11006000  1
  O  O8  1  0.25000000  0.55705800  0.89767900  1
  O  O9  1  0.75000000  0.44294200  0.10232100  1
  O  O10  1  0.51979000  0.03035600  0.32178800  1
  O  O11  1  0.25000000  0.47420100  0.61053400  1
  O  O12  1  0.01979000  0.96964400  0.67821200  1
  O  O13  1  0.48021000  0.96964400  0.67821200  1
  O  O14  1  0.01927800  0.22130400  0.88994000  1
  O  O15  1  0.75000000  0.52579900  0.38946600  1
  O  O16  1  0.98072200  0.77869600  0.11006000  1
  O  O17  1  0.48072200  0.22130400  0.88994000  1
