# generated using pymatgen
data_MgFeO2
_symmetry_space_group_name_H-M   'P 1'
_cell_length_a   8.25117204
_cell_length_b   8.25117204
_cell_length_c   9.89114400
_cell_angle_alpha   53.28246667
_cell_angle_beta   53.28246667
_cell_angle_gamma   21.65278833
_symmetry_Int_Tables_number   1
_chemical_formula_structural   MgFeO2
_chemical_formula_sum   'Mg4 Fe4 O8'
_cell_volume   197.13885724
_cell_formula_units_Z   4
loop_
 _symmetry_equiv_pos_site_id
 _symmetry_equiv_pos_as_xyz
  1  'x, y, z'
loop_
 _atom_site_type_symbol
 _atom_site_label
 _atom_site_symmetry_multiplicity
 _atom_site_fract_x
 _atom_site_fract_y
 _atom_site_fract_z
 _atom_site_occupancy
  Mg  Mg0  1  0.31767400  0.31767400  0.23685400  1
  Mg  Mg1  1  0.68232600  0.68232600  0.76314600  1
  Mg  Mg2  1  0.04794400  0.04794400  0.11557700  1
  Mg  Mg3  1  0.95205600  0.95205600  0.88442300  1
  Fe  Fe4  1  0.59015600  0.59015600  0.56150300  1
  Fe  Fe5  1  0.18017300  0.18017300  0.17578100  1
  Fe  Fe6  1  0.81982700  0.81982700  0.82421900  1
  Fe  Fe7  1  0.40984400  0.40984400  0.43849700  1
  O  O8  1  0.83468400  0.83468400  0.59485500  1
  O  O9  1  0.43803300  0.43803300  0.76677600  1
  O  O10  1  0.56196700  0.56196700  0.23322400  1
  O  O11  1  0.16531600  0.16531600  0.40514500  1
  O  O12  1  0.09713300  0.09713300  0.77445500  1
  O  O13  1  0.79781300  0.79781300  0.08061200  1
  O  O14  1  0.90286700  0.90286700  0.22554500  1
  O  O15  1  0.20218700  0.20218700  0.91938800  1
