# generated using pymatgen
data_Zn(NiO2)2
_symmetry_space_group_name_H-M   'P 1'
_cell_length_a   7.14272845
_cell_length_b   7.14272845
_cell_length_c   9.23065503
_cell_angle_alpha   50.74815626
_cell_angle_beta   50.74815626
_cell_angle_gamma   23.98562017
_symmetry_Int_Tables_number   1
_chemical_formula_structural   Zn(NiO2)2
_chemical_formula_sum   'Zn2 Ni4 O8'
_cell_volume   145.99450969
_cell_formula_units_Z   2
loop_
 _symmetry_equiv_pos_site_id
 _symmetry_equiv_pos_as_xyz
  1  'x, y, z'
loop_
 _atom_site_type_symbol
 _atom_site_label
 _atom_site_symmetry_multiplicity
 _atom_site_fract_x
 _atom_site_fract_y
 _atom_site_fract_z
 _atom_site_occupancy
  Zn  Zn0  1  0.66789500  0.66789500  0.32221300  1
  Zn  Zn1  1  0.33210500  0.33210500  0.67778700  1
  Ni  Ni2  1  0.36137800  0.36137800  0.96291700  1
  Ni  Ni3  1  0.85910500  0.85910500  0.30993900  1
  Ni  Ni4  1  0.14089500  0.14089500  0.69006100  1
  Ni  Ni5  1  0.63862200  0.63862200  0.03708300  1
  O  O6  1  0.13570000  0.13570000  0.90760700  1
  O  O7  1  0.53057300  0.53057300  0.75247700  1
  O  O8  1  0.46942700  0.46942700  0.24752300  1
  O  O9  1  0.86430000  0.86430000  0.09239300  1
  O  O10  1  0.82559200  0.82559200  0.84303400  1
  O  O11  1  0.20676600  0.20676600  0.42820700  1
  O  O12  1  0.17440800  0.17440800  0.15696600  1
  O  O13  1  0.79323400  0.79323400  0.57179300  1
