# generated using pymatgen
data_W3O8
_symmetry_space_group_name_H-M   'P 1'
_cell_length_a   6.52019669
_cell_length_b   6.52019669
_cell_length_c   5.13190204
_cell_angle_alpha   71.20168318
_cell_angle_beta   71.20168318
_cell_angle_gamma   55.84579458
_symmetry_Int_Tables_number   1
_chemical_formula_structural   W3O8
_chemical_formula_sum   'W3 O8'
_cell_volume   168.10938475
_cell_formula_units_Z   1
loop_
 _symmetry_equiv_pos_site_id
 _symmetry_equiv_pos_as_xyz
  1  'x, y, z'
loop_
 _atom_site_type_symbol
 _atom_site_label
 _atom_site_symmetry_multiplicity
 _atom_site_fract_x
 _atom_site_fract_y
 _atom_site_fract_z
 _atom_site_occupancy
  W  W0  1  0.00000000  0.00000000  0.50000000  1
  W  W1  1  0.71255300  0.28744700  0.00000000  1
  W  W2  1  0.28744700  0.71255300  0.00000000  1
  O  O3  1  0.38249600  0.38249600  0.94406500  1
  O  O4  1  0.61750400  0.61750400  0.05593500  1
  O  O5  1  0.90429200  0.90429200  0.90402300  1
  O  O6  1  0.09570800  0.09570800  0.09597700  1
  O  O7  1  0.32124000  0.86633300  0.60642300  1
  O  O8  1  0.86633300  0.32124000  0.60642300  1
  O  O9  1  0.13366700  0.67876000  0.39357700  1
  O  O10  1  0.67876000  0.13366700  0.39357700  1
