# generated using pymatgen
data_Sr2YSn2O7
_symmetry_space_group_name_H-M   'P 1'
_cell_length_a   14.40198524
_cell_length_b   14.40198524
_cell_length_c   14.40198524
_cell_angle_alpha   158.02919015
_cell_angle_beta   157.22117709
_cell_angle_gamma   31.85560350
_symmetry_Int_Tables_number   1
_chemical_formula_structural   Sr2YSn2O7
_chemical_formula_sum   'Sr4 Y2 Sn4 O14'
_cell_volume   432.38368341
_cell_formula_units_Z   2
loop_
 _symmetry_equiv_pos_site_id
 _symmetry_equiv_pos_as_xyz
  1  'x, y, z'
loop_
 _atom_site_type_symbol
 _atom_site_label
 _atom_site_symmetry_multiplicity
 _atom_site_fract_x
 _atom_site_fract_y
 _atom_site_fract_z
 _atom_site_occupancy
  Sr  Sr0  1  0.81082500  0.72407300  0.91377700  1
  Sr  Sr1  1  0.18970400  0.27592700  0.08675200  1
  Sr  Sr2  1  0.68970400  0.60295200  0.91377700  1
  Sr  Sr3  1  0.31082500  0.39704800  0.08675200  1
  Y  Y4  1  0.51724900  0.50000000  0.01724900  1
  Y  Y5  1  0.01724900  0.00000000  0.01724900  1
  Sn  Sn6  1  0.43711100  0.92198200  0.52008300  1
  Sn  Sn7  1  0.59810200  0.07801800  0.51513000  1
  Sn  Sn8  1  0.09810200  0.58297200  0.52008300  1
  Sn  Sn9  1  0.93711100  0.41702800  0.51513000  1
  O  O10  1  0.00628700  0.51237500  0.01866300  1
  O  O11  1  0.50628700  0.48762500  0.49391200  1
  O  O12  1  0.21636700  0.19892300  0.51594200  1
  O  O13  1  0.31701900  0.80107700  0.01744400  1
  O  O14  1  0.81701900  0.79957500  0.51594200  1
  O  O15  1  0.71636700  0.20042500  0.01744400  1
  O  O16  1  0.71650200  0.69897200  0.51873200  1
  O  O17  1  0.81976000  0.30102800  0.01753000  1
  O  O18  1  0.31976000  0.30223000  0.51873200  1
  O  O19  1  0.21650200  0.69777000  0.01753000  1
  O  O20  1  0.87116300  0.35366900  0.52834400  1
  O  O21  1  0.17467600  0.64633100  0.51749500  1
  O  O22  1  0.67467600  0.15718100  0.52834400  1
  O  O23  1  0.37116300  0.84281900  0.51749500  1
