# generated using pymatgen
data_ZrI4
_symmetry_space_group_name_H-M   'P 1'
_cell_length_a   8.03151554
_cell_length_b   8.18471467
_cell_length_c   16.94127582
_cell_angle_alpha   90.27327426
_cell_angle_beta   95.21683355
_cell_angle_gamma   91.07595314
_symmetry_Int_Tables_number   1
_chemical_formula_structural   ZrI4
_chemical_formula_sum   'Zr4 I16'
_cell_volume   1108.81397015
_cell_formula_units_Z   4
loop_
 _symmetry_equiv_pos_site_id
 _symmetry_equiv_pos_as_xyz
  1  'x, y, z'
loop_
 _atom_site_type_symbol
 _atom_site_label
 _atom_site_symmetry_multiplicity
 _atom_site_fract_x
 _atom_site_fract_y
 _atom_site_fract_z
 _atom_site_occupancy
  Zr  Zr0  1  0.38448300  0.16124100  0.30674600  1
  Zr  Zr1  1  0.61551900  0.83876000  0.69325400  1
  Zr  Zr2  1  0.13519800  0.87639200  0.10886100  1
  Zr  Zr3  1  0.86480200  0.12360900  0.89113900  1
  I  I4  1  0.33143200  0.64998000  0.70030800  1
  I  I5  1  0.66856800  0.35002000  0.29969200  1
  I  I6  1  0.82660200  0.08290700  0.05912300  1
  I  I7  1  0.17339800  0.91709300  0.94087700  1
  I  I8  1  0.07030400  0.94308400  0.27157500  1
  I  I9  1  0.92969500  0.05691600  0.72842600  1
  I  I10  1  0.31348200  0.21082300  0.13774700  1
  I  I11  1  0.68651800  0.78917600  0.86225300  1
  I  I12  1  0.93677900  0.60176300  0.10566800  1
  I  I13  1  0.06322100  0.39823600  0.89433200  1
  I  I14  1  0.21978600  0.34544500  0.40666500  1
  I  I15  1  0.78021300  0.65455400  0.59333500  1
  I  I16  1  0.52784500  0.89785000  0.38073300  1
  I  I17  1  0.47215600  0.10215000  0.61926700  1
  I  I18  1  0.43705800  0.72703600  0.13103600  1
  I  I19  1  0.56294200  0.27296200  0.86896400  1
