# generated using pymatgen
data_Ca(NiS2)4
_symmetry_space_group_name_H-M   'P 1'
_cell_length_a   7.52435278
_cell_length_b   7.52435278
_cell_length_c   7.52435233
_cell_angle_alpha   53.10873331
_cell_angle_beta   53.10873331
_cell_angle_gamma   53.10873686
_symmetry_Int_Tables_number   1
_chemical_formula_structural   Ca(NiS2)4
_chemical_formula_sum   'Ca1 Ni4 S8'
_cell_volume   252.58853068
_cell_formula_units_Z   1
loop_
 _symmetry_equiv_pos_site_id
 _symmetry_equiv_pos_as_xyz
  1  'x, y, z'
loop_
 _atom_site_type_symbol
 _atom_site_label
 _atom_site_symmetry_multiplicity
 _atom_site_fract_x
 _atom_site_fract_y
 _atom_site_fract_z
 _atom_site_occupancy
  Ca  Ca0  1  0.50000000  0.50000000  0.50000000  1
  Ni  Ni1  1  0.00000000  0.50000000  0.50000000  1
  Ni  Ni2  1  0.50000000  0.00000000  0.50000000  1
  Ni  Ni3  1  0.50000000  0.50000000  0.00000000  1
  Ni  Ni4  1  0.00000000  0.00000000  0.00000000  1
  S  S5  1  0.27430700  0.77009500  0.77009500  1
  S  S6  1  0.22990500  0.22990500  0.72569300  1
  S  S7  1  0.72569300  0.22990500  0.22990500  1
  S  S8  1  0.22990500  0.72569300  0.22990500  1
  S  S9  1  0.27147300  0.27147300  0.27147300  1
  S  S10  1  0.72852700  0.72852700  0.72852700  1
  S  S11  1  0.77009500  0.27430700  0.77009500  1
  S  S12  1  0.77009500  0.77009500  0.27430700  1
