# generated using pymatgen
data_CaNiO2
_symmetry_space_group_name_H-M   'P 1'
_cell_length_a   3.16846300
_cell_length_b   8.17190074
_cell_length_c   8.93616114
_cell_angle_alpha   111.02658341
_cell_angle_beta   99.97209618
_cell_angle_gamma   89.16022460
_symmetry_Int_Tables_number   1
_chemical_formula_structural   CaNiO2
_chemical_formula_sum   'Ca4 Ni4 O8'
_cell_volume   212.42509858
_cell_formula_units_Z   4
loop_
 _symmetry_equiv_pos_site_id
 _symmetry_equiv_pos_as_xyz
  1  'x, y, z'
loop_
 _atom_site_type_symbol
 _atom_site_label
 _atom_site_symmetry_multiplicity
 _atom_site_fract_x
 _atom_site_fract_y
 _atom_site_fract_z
 _atom_site_occupancy
  Ca  Ca0  1  0.68735000  0.14488300  0.36571600  1
  Ca  Ca1  1  0.31265000  0.85511700  0.63428400  1
  Ca  Ca2  1  0.99421900  0.70259500  0.97930400  1
  Ca  Ca3  1  0.00578100  0.29740500  0.02069600  1
  Ni  Ni4  1  0.37768600  0.25317800  0.71655500  1
  Ni  Ni5  1  0.82606100  0.52509800  0.64897200  1
  Ni  Ni6  1  0.17393900  0.47490200  0.35102800  1
  Ni  Ni7  1  0.62231400  0.74682200  0.28344500  1
  O  O8  1  0.09280100  0.58501900  0.17779700  1
  O  O9  1  0.60341800  0.28885000  0.19571700  1
  O  O10  1  0.39658200  0.71115000  0.80428300  1
  O  O11  1  0.90719900  0.41498100  0.82220300  1
  O  O12  1  0.83987600  0.07457800  0.71572400  1
  O  O13  1  0.26415400  0.35356300  0.52508700  1
  O  O14  1  0.16012400  0.92542200  0.28427600  1
  O  O15  1  0.73584600  0.64643700  0.47491300  1
