# generated using pymatgen
data_MgBiF5
_symmetry_space_group_name_H-M   'P 1'
_cell_length_a   10.46169600
_cell_length_b   5.38973100
_cell_length_c   8.42431203
_cell_angle_alpha   76.48716886
_cell_angle_beta   90.00000000
_cell_angle_gamma   90.00000000
_symmetry_Int_Tables_number   1
_chemical_formula_structural   MgBiF5
_chemical_formula_sum   'Mg4 Bi4 F20'
_cell_volume   461.86152513
_cell_formula_units_Z   4
loop_
 _symmetry_equiv_pos_site_id
 _symmetry_equiv_pos_as_xyz
  1  'x, y, z'
loop_
 _atom_site_type_symbol
 _atom_site_label
 _atom_site_symmetry_multiplicity
 _atom_site_fract_x
 _atom_site_fract_y
 _atom_site_fract_z
 _atom_site_occupancy
  Mg  Mg0  1  0.01080100  0.51834200  0.80244700  1
  Mg  Mg1  1  0.51080100  0.48165800  0.69755300  1
  Mg  Mg2  1  0.98919900  0.48165800  0.19755300  1
  Mg  Mg3  1  0.48919900  0.51834200  0.30244700  1
  Bi  Bi4  1  0.76676800  0.09577400  0.60632700  1
  Bi  Bi5  1  0.26676800  0.90422600  0.89367300  1
  Bi  Bi6  1  0.23323200  0.90422600  0.39367300  1
  Bi  Bi7  1  0.73323200  0.09577400  0.10632700  1
  F  F8  1  0.90416400  0.39362000  0.64315700  1
  F  F9  1  0.40416400  0.60638000  0.85684300  1
  F  F10  1  0.09583600  0.60638000  0.35684300  1
  F  F11  1  0.59583600  0.39362000  0.14315700  1
  F  F12  1  0.59741100  0.36467200  0.50274200  1
  F  F13  1  0.09741100  0.63532800  0.99725800  1
  F  F14  1  0.40258900  0.63532800  0.49725800  1
  F  F15  1  0.90258900  0.36467200  0.00274200  1
  F  F16  1  0.41297100  0.16009900  0.75221400  1
  F  F17  1  0.91297100  0.83990100  0.74778600  1
  F  F18  1  0.58702900  0.83990100  0.24778600  1
  F  F19  1  0.08702900  0.16009900  0.25221400  1
  F  F20  1  0.13491300  0.24237400  0.82300600  1
  F  F21  1  0.63491300  0.75762600  0.67699400  1
  F  F22  1  0.86508700  0.75762600  0.17699400  1
  F  F23  1  0.36508700  0.24237400  0.32300600  1
  F  F24  1  0.66890100  0.21767300  0.81773000  1
  F  F25  1  0.16890100  0.78232700  0.68227000  1
  F  F26  1  0.33109900  0.78232700  0.18227000  1
  F  F27  1  0.83109900  0.21767300  0.31773000  1
