# generated using pymatgen
data_Ti4ZnO6
_symmetry_space_group_name_H-M   'P 1'
_cell_length_a   5.15774806
_cell_length_b   5.15774806
_cell_length_c   15.10189300
_cell_angle_alpha   90.00000000
_cell_angle_beta   90.00000000
_cell_angle_gamma   146.75869906
_symmetry_Int_Tables_number   1
_chemical_formula_structural   Ti4ZnO6
_chemical_formula_sum   'Ti8 Zn2 O12'
_cell_volume   220.22363795
_cell_formula_units_Z   2
loop_
 _symmetry_equiv_pos_site_id
 _symmetry_equiv_pos_as_xyz
  1  'x, y, z'
loop_
 _atom_site_type_symbol
 _atom_site_label
 _atom_site_symmetry_multiplicity
 _atom_site_fract_x
 _atom_site_fract_y
 _atom_site_fract_z
 _atom_site_occupancy
  Ti  Ti0  1  0.14656700  0.85343300  0.03973400  1
  Ti  Ti1  1  0.59865800  0.40134200  0.62969600  1
  Ti  Ti2  1  0.85343300  0.14656700  0.96026600  1
  Ti  Ti3  1  0.40134200  0.59865800  0.37030400  1
  Ti  Ti4  1  0.14656700  0.85343300  0.46026600  1
  Ti  Ti5  1  0.85343300  0.14656700  0.53973400  1
  Ti  Ti6  1  0.40134200  0.59865800  0.12969600  1
  Ti  Ti7  1  0.59865800  0.40134200  0.87030400  1
  Zn  Zn8  1  0.34312500  0.65687500  0.75000000  1
  Zn  Zn9  1  0.65687500  0.34312500  0.25000000  1
  O  O10  1  0.50000000  0.50000000  0.50000000  1
  O  O11  1  0.50000000  0.50000000  0.00000000  1
  O  O12  1  0.95824200  0.04175800  0.84064100  1
  O  O13  1  0.04175800  0.95824200  0.15935900  1
  O  O14  1  0.04175800  0.95824200  0.34064100  1
  O  O15  1  0.95824200  0.04175800  0.65935900  1
  O  O16  1  0.23410100  0.76589900  0.90612700  1
  O  O17  1  0.76589900  0.23410100  0.09387300  1
  O  O18  1  0.76589900  0.23410100  0.40612700  1
  O  O19  1  0.23410100  0.76589900  0.59387300  1
  O  O20  1  0.69043500  0.30956500  0.75000000  1
  O  O21  1  0.30956500  0.69043500  0.25000000  1
