# generated using pymatgen
data_V5ZnO7
_symmetry_space_group_name_H-M   'P 1'
_cell_length_a   5.32135027
_cell_length_b   5.32135027
_cell_length_c   18.48765100
_cell_angle_alpha   90.00000000
_cell_angle_beta   90.00000000
_cell_angle_gamma   147.70691543
_symmetry_Int_Tables_number   1
_chemical_formula_structural   V5ZnO7
_chemical_formula_sum   'V10 Zn2 O14'
_cell_volume   279.68567464
_cell_formula_units_Z   2
loop_
 _symmetry_equiv_pos_site_id
 _symmetry_equiv_pos_as_xyz
  1  'x, y, z'
loop_
 _atom_site_type_symbol
 _atom_site_label
 _atom_site_symmetry_multiplicity
 _atom_site_fract_x
 _atom_site_fract_y
 _atom_site_fract_z
 _atom_site_occupancy
  V  V0  1  0.72699500  0.27300500  0.57752900  1
  V  V1  1  0.53697400  0.46302600  0.15555300  1
  V  V2  1  0.00000000  0.00000000  0.50000000  1
  V  V3  1  0.00000000  0.00000000  0.00000000  1
  V  V4  1  0.46302600  0.53697400  0.84444700  1
  V  V5  1  0.27300500  0.72699500  0.42247100  1
  V  V6  1  0.27300500  0.72699500  0.07752900  1
  V  V7  1  0.72699500  0.27300500  0.92247100  1
  V  V8  1  0.46302600  0.53697400  0.65555300  1
  V  V9  1  0.53697400  0.46302600  0.34444700  1
  Zn  Zn10  1  0.20866500  0.79133500  0.75000000  1
  Zn  Zn11  1  0.79133500  0.20866500  0.25000000  1
  O  O12  1  0.36214200  0.63785800  0.96421500  1
  O  O13  1  0.63785800  0.36214200  0.03578500  1
  O  O14  1  0.63785800  0.36214200  0.46421500  1
  O  O15  1  0.36214200  0.63785800  0.53578500  1
  O  O16  1  0.82748100  0.17251900  0.82499800  1
  O  O17  1  0.17251900  0.82748100  0.17500200  1
  O  O18  1  0.17251900  0.82748100  0.32499800  1
  O  O19  1  0.82748100  0.17251900  0.67500200  1
  O  O20  1  0.08321500  0.91678500  0.89460200  1
  O  O21  1  0.91678500  0.08321500  0.10539800  1
  O  O22  1  0.91678500  0.08321500  0.39460200  1
  O  O23  1  0.08321500  0.91678500  0.60539800  1
  O  O24  1  0.57099300  0.42900700  0.75000000  1
  O  O25  1  0.42900700  0.57099300  0.25000000  1
