# generated using pymatgen
data_Zn(Mo4O5)2
_symmetry_space_group_name_H-M   'P 1'
_cell_length_a   13.70295462
_cell_length_b   13.70295462
_cell_length_c   13.70295462
_cell_angle_alpha   152.79369944
_cell_angle_beta   152.79369944
_cell_angle_gamma   38.85535652
_symmetry_Int_Tables_number   1
_chemical_formula_structural   Zn(Mo4O5)2
_chemical_formula_sum   'Zn2 Mo16 O20'
_cell_volume   536.90957722
_cell_formula_units_Z   2
loop_
 _symmetry_equiv_pos_site_id
 _symmetry_equiv_pos_as_xyz
  1  'x, y, z'
loop_
 _atom_site_type_symbol
 _atom_site_label
 _atom_site_symmetry_multiplicity
 _atom_site_fract_x
 _atom_site_fract_y
 _atom_site_fract_z
 _atom_site_occupancy
  Zn  Zn0  1  0.25000000  0.75000000  0.50000000  1
  Zn  Zn1  1  0.50000000  0.50000000  0.00000000  1
  Mo  Mo2  1  0.79236000  0.54894200  0.75658200  1
  Mo  Mo3  1  0.29894200  0.04236000  0.25658200  1
  Mo  Mo4  1  0.78577800  0.04236000  0.74341800  1
  Mo  Mo5  1  0.79236000  0.03577800  0.24341800  1
  Mo  Mo6  1  0.95764000  0.70105800  0.74341800  1
  Mo  Mo7  1  0.45105800  0.20764000  0.24341800  1
  Mo  Mo8  1  0.96422200  0.20764000  0.75658200  1
  Mo  Mo9  1  0.95764000  0.21422200  0.25658200  1
  Mo  Mo10  1  0.12361300  0.39005700  0.26644400  1
  Mo  Mo11  1  0.14005700  0.37361300  0.76644400  1
  Mo  Mo12  1  0.60717000  0.37361300  0.23355600  1
  Mo  Mo13  1  0.12361300  0.85717000  0.73355600  1
  Mo  Mo14  1  0.62638700  0.39283000  0.76644400  1
  Mo  Mo15  1  0.14283000  0.87638700  0.26644400  1
  Mo  Mo16  1  0.60994300  0.87638700  0.73355600  1
  Mo  Mo17  1  0.62638700  0.85994300  0.23355600  1
  O  O18  1  0.37500000  0.62500000  0.25000000  1
  O  O19  1  0.20618400  0.97175400  0.76556900  1
  O  O20  1  0.04048200  0.82312600  0.78264400  1
  O  O21  1  0.57312600  0.29048200  0.28264400  1
  O  O22  1  0.00783800  0.29048200  0.71735600  1
  O  O23  1  0.04048200  0.25783800  0.21735600  1
  O  O24  1  0.70951800  0.42687400  0.71735600  1
  O  O25  1  0.17687400  0.95951800  0.21735600  1
  O  O26  1  0.74216200  0.95951800  0.78264400  1
  O  O27  1  0.70951800  0.99216200  0.28264400  1
  O  O28  1  0.72175400  0.45618400  0.26556900  1
  O  O29  1  0.55938500  0.79381600  0.76556900  1
  O  O30  1  0.02824600  0.79381600  0.23443100  1
  O  O31  1  0.54381600  0.27824600  0.73443100  1
  O  O32  1  0.20618400  0.44061500  0.23443100  1
  O  O33  1  0.19061500  0.45618400  0.73443100  1
  O  O34  1  0.37500000  0.12500000  0.75000000  1
  O  O35  1  0.87500000  0.62500000  0.25000000  1
  O  O36  1  0.37500000  0.62500000  0.75000000  1
  O  O37  1  0.54381600  0.80938500  0.26556900  1
