# generated using pymatgen
data_MgCuF4
_symmetry_space_group_name_H-M   'P 1'
_cell_length_a   6.18570230
_cell_length_b   6.18570230
_cell_length_c   6.18570230
_cell_angle_alpha   131.31399231
_cell_angle_beta   131.31399231
_cell_angle_gamma   71.31468360
_symmetry_Int_Tables_number   1
_chemical_formula_structural   MgCuF4
_chemical_formula_sum   'Mg2 Cu2 F8'
_cell_volume   130.69901134
_cell_formula_units_Z   2
loop_
 _symmetry_equiv_pos_site_id
 _symmetry_equiv_pos_as_xyz
  1  'x, y, z'
loop_
 _atom_site_type_symbol
 _atom_site_label
 _atom_site_symmetry_multiplicity
 _atom_site_fract_x
 _atom_site_fract_y
 _atom_site_fract_z
 _atom_site_occupancy
  Mg  Mg0  1  0.25000000  0.25000000  0.00000000  1
  Mg  Mg1  1  0.75000000  0.75000000  0.00000000  1
  Cu  Cu2  1  0.50000000  0.00000000  0.50000000  1
  Cu  Cu3  1  0.00000000  0.50000000  0.50000000  1
  F  F4  1  0.44840600  0.94840600  0.12381500  1
  F  F5  1  0.17540900  0.67540900  0.12381500  1
  F  F6  1  0.55159400  0.05159400  0.87618500  1
  F  F7  1  0.05159400  0.17540900  0.50000000  1
  F  F8  1  0.82459100  0.32459100  0.87618500  1
  F  F9  1  0.32459100  0.44840600  0.50000000  1
  F  F10  1  0.94840600  0.82459100  0.50000000  1
  F  F11  1  0.67540900  0.55159400  0.50000000  1
