# generated using pymatgen
data_TiZnO2
_symmetry_space_group_name_H-M   'P 1'
_cell_length_a   7.79128857
_cell_length_b   7.79128857
_cell_length_c   10.85877069
_cell_angle_alpha   51.72676736
_cell_angle_beta   51.72676736
_cell_angle_gamma   21.40450270
_symmetry_Int_Tables_number   1
_chemical_formula_structural   TiZnO2
_chemical_formula_sum   'Ti4 Zn4 O8'
_cell_volume   186.74796113
_cell_formula_units_Z   4
loop_
 _symmetry_equiv_pos_site_id
 _symmetry_equiv_pos_as_xyz
  1  'x, y, z'
loop_
 _atom_site_type_symbol
 _atom_site_label
 _atom_site_symmetry_multiplicity
 _atom_site_fract_x
 _atom_site_fract_y
 _atom_site_fract_z
 _atom_site_occupancy
  Ti  Ti0  1  0.43570200  0.43570200  0.41354300  1
  Ti  Ti1  1  0.84564900  0.84564900  0.72542900  1
  Ti  Ti2  1  0.16043300  0.16043300  0.24843000  1
  Ti  Ti3  1  0.56717600  0.56717600  0.56069500  1
  Zn  Zn4  1  0.64318300  0.64318300  0.76520800  1
  Zn  Zn5  1  0.37824800  0.37824800  0.18364400  1
  Zn  Zn6  1  0.93507600  0.93507600  0.91966300  1
  Zn  Zn7  1  0.07178900  0.07178900  0.05501400  1
  O  O8  1  0.16862400  0.16862400  0.41658300  1
  O  O9  1  0.60006500  0.60006500  0.18769800  1
  O  O10  1  0.40507500  0.40507500  0.78652500  1
  O  O11  1  0.83240200  0.83240200  0.56052000  1
  O  O12  1  0.91988500  0.91988500  0.27973400  1
  O  O13  1  0.21533500  0.21533500  0.83164700  1
  O  O14  1  0.08519600  0.08519600  0.69644500  1
  O  O15  1  0.78807000  0.78807000  0.14360700  1
