# generated using pymatgen
data_Ca(SbO2)2
_symmetry_space_group_name_H-M   'P 1'
_cell_length_a   3.64039500
_cell_length_b   10.80968500
_cell_length_c   11.16435200
_cell_angle_alpha   90.00000000
_cell_angle_beta   90.00000000
_cell_angle_gamma   90.00000000
_symmetry_Int_Tables_number   1
_chemical_formula_structural   Ca(SbO2)2
_chemical_formula_sum   'Ca4 Sb8 O16'
_cell_volume   439.33425703
_cell_formula_units_Z   4
loop_
 _symmetry_equiv_pos_site_id
 _symmetry_equiv_pos_as_xyz
  1  'x, y, z'
loop_
 _atom_site_type_symbol
 _atom_site_label
 _atom_site_symmetry_multiplicity
 _atom_site_fract_x
 _atom_site_fract_y
 _atom_site_fract_z
 _atom_site_occupancy
  Ca  Ca0  1  0.39180600  0.75000000  0.86432400  1
  Ca  Ca1  1  0.39180600  0.25000000  0.63567600  1
  Ca  Ca2  1  0.60819400  0.75000000  0.36432400  1
  Ca  Ca3  1  0.60819400  0.25000000  0.13567600  1
  Sb  Sb4  1  0.84524600  0.57799500  0.61966600  1
  Sb  Sb5  1  0.84524600  0.07799500  0.88033400  1
  Sb  Sb6  1  0.15475400  0.07799500  0.38033400  1
  Sb  Sb7  1  0.84524600  0.42200500  0.88033400  1
  Sb  Sb8  1  0.15475400  0.42200500  0.38033400  1
  Sb  Sb9  1  0.84524600  0.92200500  0.61966600  1
  Sb  Sb10  1  0.15475400  0.92200500  0.11966600  1
  Sb  Sb11  1  0.15475400  0.57799500  0.11966600  1
  O  O12  1  0.09557000  0.88251100  0.46044500  1
  O  O13  1  0.90443000  0.11748900  0.53955500  1
  O  O14  1  0.18240700  0.00000000  0.75000000  1
  O  O15  1  0.90443000  0.88251100  0.96044500  1
  O  O16  1  0.90443000  0.61748900  0.96044500  1
  O  O17  1  0.99475900  0.25000000  0.79836900  1
  O  O18  1  0.09557000  0.11748900  0.03955500  1
  O  O19  1  0.00524100  0.25000000  0.29836900  1
  O  O20  1  0.18240700  0.50000000  0.75000000  1
  O  O21  1  0.81759300  0.00000000  0.25000000  1
  O  O22  1  0.09557000  0.61748900  0.46044500  1
  O  O23  1  0.00524100  0.75000000  0.20163100  1
  O  O24  1  0.99475900  0.75000000  0.70163100  1
  O  O25  1  0.81759300  0.50000000  0.25000000  1
  O  O26  1  0.09557000  0.38251100  0.03955500  1
  O  O27  1  0.90443000  0.38251100  0.53955500  1
