# generated using pymatgen
data_AlSbO3
_symmetry_space_group_name_H-M   'P 1'
_cell_length_a   5.67946391
_cell_length_b   5.67946391
_cell_length_c   13.10194900
_cell_angle_alpha   90.00000000
_cell_angle_beta   90.00000000
_cell_angle_gamma   119.99999895
_symmetry_Int_Tables_number   1
_chemical_formula_structural   AlSbO3
_chemical_formula_sum   'Al6 Sb6 O18'
_cell_volume   366.00012121
_cell_formula_units_Z   6
loop_
 _symmetry_equiv_pos_site_id
 _symmetry_equiv_pos_as_xyz
  1  'x, y, z'
loop_
 _atom_site_type_symbol
 _atom_site_label
 _atom_site_symmetry_multiplicity
 _atom_site_fract_x
 _atom_site_fract_y
 _atom_site_fract_z
 _atom_site_occupancy
  Al  Al0  1  0.66666700  0.33333300  0.26609400  1
  Al  Al1  1  0.33333300  0.66666700  0.76609400  1
  Al  Al2  1  0.66666700  0.33333300  0.76609400  1
  Al  Al3  1  0.33333300  0.66666700  0.26609400  1
  Al  Al4  1  0.00000000  0.00000000  0.72990200  1
  Al  Al5  1  0.00000000  0.00000000  0.22990200  1
  Sb  Sb6  1  0.70323200  0.00000000  0.48394600  1
  Sb  Sb7  1  0.70323200  0.70323200  0.98394600  1
  Sb  Sb8  1  0.00000000  0.29676800  0.98394600  1
  Sb  Sb9  1  0.00000000  0.70323200  0.48394600  1
  Sb  Sb10  1  0.29676800  0.29676800  0.48394600  1
  Sb  Sb11  1  0.29676800  0.00000000  0.98394600  1
  O  O12  1  0.66666700  0.33333300  0.02714100  1
  O  O13  1  0.33333300  0.66666700  0.52714100  1
  O  O14  1  0.66666700  0.33333300  0.52714100  1
  O  O15  1  0.33333300  0.66666700  0.02714100  1
  O  O16  1  0.00000000  0.00000000  0.86428900  1
  O  O17  1  0.00000000  0.00000000  0.36428900  1
  O  O18  1  0.47346100  0.00000000  0.85179000  1
  O  O19  1  0.47346100  0.47346100  0.35179000  1
  O  O20  1  0.00000000  0.52653900  0.35179000  1
  O  O21  1  0.00000000  0.47346100  0.85179000  1
  O  O22  1  0.52653900  0.52653900  0.85179000  1
  O  O23  1  0.52653900  0.00000000  0.35179000  1
  O  O24  1  0.31561200  0.00000000  0.19571000  1
  O  O25  1  0.31561200  0.31561200  0.69571000  1
  O  O26  1  0.00000000  0.68438800  0.69571000  1
  O  O27  1  0.00000000  0.31561200  0.19571000  1
  O  O28  1  0.68438800  0.68438800  0.19571000  1
  O  O29  1  0.68438800  0.00000000  0.69571000  1
