# generated using pymatgen
data_Mg2Ta2WO8
_symmetry_space_group_name_H-M   'P 1'
_cell_length_a   5.27165500
_cell_length_b   6.00661148
_cell_length_c   10.17137977
_cell_angle_alpha   105.85345075
_cell_angle_beta   91.49110982
_cell_angle_gamma   91.22485429
_symmetry_Int_Tables_number   1
_chemical_formula_structural   Mg2Ta2WO8
_chemical_formula_sum   'Mg4 Ta4 W2 O16'
_cell_volume   309.58315270
_cell_formula_units_Z   2
loop_
 _symmetry_equiv_pos_site_id
 _symmetry_equiv_pos_as_xyz
  1  'x, y, z'
loop_
 _atom_site_type_symbol
 _atom_site_label
 _atom_site_symmetry_multiplicity
 _atom_site_fract_x
 _atom_site_fract_y
 _atom_site_fract_z
 _atom_site_occupancy
  Mg  Mg0  1  0.23521100  0.86777900  0.44269100  1
  Mg  Mg1  1  0.24222500  0.42755400  0.54756200  1
  Mg  Mg2  1  0.74415700  0.13716000  0.53734000  1
  Mg  Mg3  1  0.72402100  0.58897300  0.44601900  1
  Ta  Ta4  1  0.25048200  0.03672200  0.75855300  1
  Ta  Ta5  1  0.22036100  0.25439100  0.24854700  1
  Ta  Ta6  1  0.77814700  0.99247100  0.23535800  1
  Ta  Ta7  1  0.75039800  0.71948300  0.76309100  1
  W  W8  1  0.26953800  0.64068100  0.00253600  1
  W  W9  1  0.75862800  0.34792500  0.00634400  1
  O  O10  1  0.92581100  0.03740600  0.85813900  1
  O  O11  1  0.57905300  0.18473100  0.14667400  1
  O  O12  1  0.10594700  0.92398200  0.13422100  1
  O  O13  1  0.42504700  0.81060400  0.85466100  1
  O  O14  1  0.41066700  0.30404000  0.87924700  1
  O  O15  1  0.11172900  0.42621400  0.12161400  1
  O  O16  1  0.62213300  0.68227500  0.11409100  1
  O  O17  1  0.90920200  0.56031400  0.87838600  1
  O  O18  1  0.54534600  0.92486300  0.63517700  1
  O  O19  1  0.93473800  0.30574700  0.39266800  1
  O  O20  1  0.61123300  0.45880300  0.62084700  1
  O  O21  1  0.86763700  0.85362900  0.38892400  1
  O  O22  1  0.36231900  0.55382900  0.39243000  1
  O  O23  1  0.11531900  0.16489600  0.61879200  1
  O  O24  1  0.04394700  0.71994500  0.63907000  1
  O  O25  1  0.43295600  0.09542900  0.37427500  1
