# generated using pymatgen
data_Ti2Zn3O7
_symmetry_space_group_name_H-M   'P 1'
_cell_length_a   9.54689300
_cell_length_b   9.54689300
_cell_length_c   5.24991600
_cell_angle_alpha   90.00000000
_cell_angle_beta   90.00000000
_cell_angle_gamma   148.05375606
_symmetry_Int_Tables_number   1
_chemical_formula_structural   Ti2Zn3O7
_chemical_formula_sum   'Ti4 Zn6 O14'
_cell_volume   253.18234185
_cell_formula_units_Z   2
loop_
 _symmetry_equiv_pos_site_id
 _symmetry_equiv_pos_as_xyz
  1  'x, y, z'
loop_
 _atom_site_type_symbol
 _atom_site_label
 _atom_site_symmetry_multiplicity
 _atom_site_fract_x
 _atom_site_fract_y
 _atom_site_fract_z
 _atom_site_occupancy
  Ti  Ti0  1  0.14997100  0.35693700  0.24786700  1
  Ti  Ti1  1  0.85002900  0.64306300  0.74786700  1
  Ti  Ti2  1  0.64306300  0.85002900  0.74786700  1
  Ti  Ti3  1  0.35693700  0.14997100  0.24786700  1
  Zn  Zn4  1  0.74337300  0.74337300  0.28202500  1
  Zn  Zn5  1  0.25662700  0.25662700  0.78202500  1
  Zn  Zn6  1  0.97645400  0.58058700  0.20139500  1
  Zn  Zn7  1  0.02354600  0.41941300  0.70139500  1
  Zn  Zn8  1  0.58058700  0.97645400  0.20139500  1
  Zn  Zn9  1  0.41941300  0.02354600  0.70139500  1
  O  O10  1  0.35097600  0.94126200  0.30873900  1
  O  O11  1  0.64902400  0.05873800  0.80873900  1
  O  O12  1  0.05873800  0.64902400  0.80873900  1
  O  O13  1  0.94126200  0.35097600  0.30873900  1
  O  O14  1  0.55231600  0.29552600  0.92657100  1
  O  O15  1  0.44768400  0.70447400  0.42657100  1
  O  O16  1  0.70447400  0.44768400  0.42657100  1
  O  O17  1  0.29552600  0.55231600  0.92657100  1
  O  O18  1  0.00266600  0.84495000  0.07103100  1
  O  O19  1  0.99733400  0.15505000  0.57103100  1
  O  O20  1  0.36322000  0.36322000  0.18676800  1
  O  O21  1  0.63678000  0.63678000  0.68676800  1
  O  O22  1  0.84495000  0.00266600  0.07103100  1
  O  O23  1  0.15505000  0.99733400  0.57103100  1
