data_image0
_chemical_formula_structural       F16K4O4V4
_chemical_formula_sum              "F16 K4 O4 V4"
_cell_length_a       5.00917
_cell_length_b       12.6071
_cell_length_c       5.11608
_cell_angle_alpha    90
_cell_angle_beta     95.3906
_cell_angle_gamma    90

_space_group_name_H-M_alt    "P 1"
_space_group_IT_number       1

loop_
  _space_group_symop_operation_xyz
  'x, y, z'

loop_
  _atom_site_type_symbol
  _atom_site_label
  _atom_site_symmetry_multiplicity
  _atom_site_fract_x
  _atom_site_fract_y
  _atom_site_fract_z
  _atom_site_occupancy
  F   F1        1.0  0.50800  0.22900  0.10400  1.0000
  F   F2        1.0  0.49200  0.72900  0.39600  1.0000
  F   F3        1.0  0.49200  0.77100  0.89600  1.0000
  F   F4        1.0  0.50800  0.27100  0.60400  1.0000
  F   F5        1.0  0.27800  0.07370  0.32300  1.0000
  F   F6        1.0  0.72200  0.57400  0.17700  1.0000
  F   F7        1.0  0.72200  0.92600  0.67700  1.0000
  F   F8        1.0  0.27800  0.42600  0.82300  1.0000
  F   F9        1.0  0.88300  0.09520  0.99300  1.0000
  F   F10       1.0  0.11700  0.59500  0.50700  1.0000
  F   F11       1.0  0.11700  0.90500  0.00699  1.0000
  F   F12       1.0  0.88300  0.40500  0.49300  1.0000
  F   F13       1.0  0.06280  0.24400  0.77600  1.0000
  F   F14       1.0  0.93700  0.74400  0.72400  1.0000
  F   F15       1.0  0.93700  0.75600  0.22400  1.0000
  F   F16       1.0  0.06280  0.25600  0.27600  1.0000
  K   K1        1.0  0.77000  0.39000  0.98400  1.0000
  K   K2        1.0  0.23000  0.89000  0.51600  1.0000
  K   K3        1.0  0.23000  0.61000  0.01590  1.0000
  K   K4        1.0  0.77000  0.11000  0.48400  1.0000
  O   O1        1.0  0.35500  0.06700  0.81400  1.0000
  O   O2        1.0  0.64500  0.56700  0.68600  1.0000
  O   O3        1.0  0.64500  0.93300  0.18600  1.0000
  O   O4        1.0  0.35500  0.43300  0.31400  1.0000
  V   V1        1.0  0.22500  0.14400  0.01350  1.0000
  V   V2        1.0  0.77500  0.64400  0.48700  1.0000
  V   V3        1.0  0.77500  0.85600  0.98700  1.0000
  V   V4        1.0  0.22500  0.35600  0.51300  1.0000
