# generated using pymatgen
data_Sr2AlCr2GaO7
_symmetry_space_group_name_H-M   'P 1'
_cell_length_a   5.47014000
_cell_length_b   5.87849489
_cell_length_c   11.50581908
_cell_angle_alpha   99.07677442
_cell_angle_beta   103.16192896
_cell_angle_gamma   89.92610069
_symmetry_Int_Tables_number   1
_chemical_formula_structural   Sr2AlCr2GaO7
_chemical_formula_sum   'Sr4 Al2 Cr4 Ga2 O14'
_cell_volume   355.52188556
_cell_formula_units_Z   2
loop_
 _symmetry_equiv_pos_site_id
 _symmetry_equiv_pos_as_xyz
  1  'x, y, z'
loop_
 _atom_site_type_symbol
 _atom_site_label
 _atom_site_symmetry_multiplicity
 _atom_site_fract_x
 _atom_site_fract_y
 _atom_site_fract_z
 _atom_site_occupancy
  Sr  Sr0  1  0.14311500  0.21892400  0.29820800  1
  Sr  Sr1  1  0.82589800  0.78668200  0.69681200  1
  Sr  Sr2  1  0.65581900  0.66380800  0.29599200  1
  Sr  Sr3  1  0.32807000  0.34470700  0.69181200  1
  Al  Al4  1  0.51618500  0.40605600  0.99163700  1
  Al  Al5  1  0.97687000  0.93363700  0.00077000  1
  Cr  Cr6  1  0.42621500  0.87481200  0.87928100  1
  Cr  Cr7  1  0.07741400  0.62833300  0.14021700  1
  Cr  Cr8  1  0.93873700  0.37672000  0.87797100  1
  Cr  Cr9  1  0.57120600  0.12603100  0.14549600  1
  Ga  Ga10  1  0.21345100  0.82478900  0.49884000  1
  Ga  Ga11  1  0.71467500  0.18139000  0.49934400  1
  O  O12  1  0.81925000  0.35184100  0.10194500  1
  O  O13  1  0.86899400  0.89083600  0.49846800  1
  O  O14  1  0.37092000  0.43147100  0.12010000  1
  O  O15  1  0.84175900  0.35789300  0.64906800  1
  O  O16  1  0.76414000  0.05888800  0.88567600  1
  O  O17  1  0.27600000  0.20317000  0.88694500  1
  O  O18  1  0.36845200  0.11498200  0.49566000  1
  O  O19  1  0.10007300  0.71117100  0.89662000  1
  O  O20  1  0.60491800  0.55527500  0.88340600  1
  O  O21  1  0.34285700  0.74713000  0.64954300  1
  O  O22  1  0.20383500  0.64551700  0.35025300  1
  O  O23  1  0.70970800  0.26633600  0.35064800  1
  O  O24  1  0.79184100  0.85627800  0.10933500  1
  O  O25  1  0.25204000  0.94488200  0.12895000  1
