# generated using pymatgen
data_CaBi2O5
_symmetry_space_group_name_H-M   'P 1'
_cell_length_a   3.96805200
_cell_length_b   5.37073600
_cell_length_c   13.68384500
_cell_angle_alpha   90.00000000
_cell_angle_beta   90.00000000
_cell_angle_gamma   90.00000000
_symmetry_Int_Tables_number   1
_chemical_formula_structural   CaBi2O5
_chemical_formula_sum   'Ca2 Bi4 O10'
_cell_volume   291.62134323
_cell_formula_units_Z   2
loop_
 _symmetry_equiv_pos_site_id
 _symmetry_equiv_pos_as_xyz
  1  'x, y, z'
loop_
 _atom_site_type_symbol
 _atom_site_label
 _atom_site_symmetry_multiplicity
 _atom_site_fract_x
 _atom_site_fract_y
 _atom_site_fract_z
 _atom_site_occupancy
  Ca  Ca0  1  0.00000000  0.62616900  0.50000000  1
  Ca  Ca1  1  0.50000000  0.37383100  0.00000000  1
  Bi  Bi2  1  0.50000000  0.09458700  0.64397600  1
  Bi  Bi3  1  0.00000000  0.90541300  0.85602400  1
  Bi  Bi4  1  0.00000000  0.90541300  0.14397600  1
  Bi  Bi5  1  0.50000000  0.09458700  0.35602400  1
  O  O6  1  0.00000000  0.07981500  0.00000000  1
  O  O7  1  0.50000000  0.92018500  0.50000000  1
  O  O8  1  0.00000000  0.93172600  0.66904500  1
  O  O9  1  0.50000000  0.06827400  0.83095500  1
  O  O10  1  0.00000000  0.93172600  0.33095500  1
  O  O11  1  0.50000000  0.06827400  0.16904500  1
  O  O12  1  0.50000000  0.45967600  0.39866400  1
  O  O13  1  0.00000000  0.54032400  0.10133600  1
  O  O14  1  0.00000000  0.54032400  0.89866400  1
  O  O15  1  0.50000000  0.45967600  0.60133600  1
