# generated using pymatgen
data_Zn3Fe2O7
_symmetry_space_group_name_H-M   'P 1'
_cell_length_a   9.42436042
_cell_length_b   9.42436042
_cell_length_c   5.22334700
_cell_angle_alpha   90.00000000
_cell_angle_beta   90.00000000
_cell_angle_gamma   147.29934041
_symmetry_Int_Tables_number   1
_chemical_formula_structural   Zn3Fe2O7
_chemical_formula_sum   'Zn6 Fe4 O14'
_cell_volume   250.63829834
_cell_formula_units_Z   2
loop_
 _symmetry_equiv_pos_site_id
 _symmetry_equiv_pos_as_xyz
  1  'x, y, z'
loop_
 _atom_site_type_symbol
 _atom_site_label
 _atom_site_symmetry_multiplicity
 _atom_site_fract_x
 _atom_site_fract_y
 _atom_site_fract_z
 _atom_site_occupancy
  Zn  Zn0  1  0.74234900  0.74234900  0.27689800  1
  Zn  Zn1  1  0.25765100  0.25765100  0.77689800  1
  Zn  Zn2  1  0.97276300  0.57951300  0.20088600  1
  Zn  Zn3  1  0.02723700  0.42048700  0.70088600  1
  Zn  Zn4  1  0.57951300  0.97276300  0.20088600  1
  Zn  Zn5  1  0.42048700  0.02723700  0.70088600  1
  Fe  Fe6  1  0.14883900  0.35540200  0.24601600  1
  Fe  Fe7  1  0.85116100  0.64459800  0.74601600  1
  Fe  Fe8  1  0.64459800  0.85116100  0.74601600  1
  Fe  Fe9  1  0.35540200  0.14883900  0.24601600  1
  O  O10  1  0.34680800  0.93620400  0.31669400  1
  O  O11  1  0.65319200  0.06379600  0.81669400  1
  O  O12  1  0.06379600  0.65319200  0.81669400  1
  O  O13  1  0.93620400  0.34680800  0.31669400  1
  O  O14  1  0.55863500  0.29179000  0.94262000  1
  O  O15  1  0.44136500  0.70821000  0.44262000  1
  O  O16  1  0.70821000  0.44136500  0.44262000  1
  O  O17  1  0.29179000  0.55863500  0.94262000  1
  O  O18  1  0.99420200  0.83709800  0.06365300  1
  O  O19  1  0.00579800  0.16290200  0.56365300  1
  O  O20  1  0.36426400  0.36426400  0.16336100  1
  O  O21  1  0.63573600  0.63573600  0.66336100  1
  O  O22  1  0.83709800  0.99420200  0.06365300  1
  O  O23  1  0.16290200  0.00579800  0.56365300  1
