# generated using pymatgen
data_ZnBiSbO5
_symmetry_space_group_name_H-M   'P 1'
_cell_length_a   5.26863700
_cell_length_b   10.60573200
_cell_length_c   16.32214200
_cell_angle_alpha   90.00000000
_cell_angle_beta   90.00000000
_cell_angle_gamma   90.00000000
_symmetry_Int_Tables_number   1
_chemical_formula_structural   ZnBiSbO5
_chemical_formula_sum   'Zn8 Bi8 Sb8 O40'
_cell_volume   912.04460323
_cell_formula_units_Z   8
loop_
 _symmetry_equiv_pos_site_id
 _symmetry_equiv_pos_as_xyz
  1  'x, y, z'
loop_
 _atom_site_type_symbol
 _atom_site_label
 _atom_site_symmetry_multiplicity
 _atom_site_fract_x
 _atom_site_fract_y
 _atom_site_fract_z
 _atom_site_occupancy
  Zn  Zn0  1  0.54831000  0.40275500  0.56573500  1
  Zn  Zn1  1  0.04831000  0.09724500  0.56573500  1
  Zn  Zn2  1  0.04831000  0.59724500  0.93426500  1
  Zn  Zn3  1  0.95169000  0.40275500  0.06573500  1
  Zn  Zn4  1  0.45169000  0.09724500  0.06573500  1
  Zn  Zn5  1  0.95169000  0.90275500  0.43426500  1
  Zn  Zn6  1  0.45169000  0.59724500  0.43426500  1
  Zn  Zn7  1  0.54831000  0.90275500  0.93426500  1
  Bi  Bi8  1  0.04990100  0.85666200  0.78063900  1
  Bi  Bi9  1  0.95009900  0.14333800  0.21936100  1
  Bi  Bi10  1  0.45009900  0.35666300  0.21936100  1
  Bi  Bi11  1  0.95009900  0.64333800  0.28063900  1
  Bi  Bi12  1  0.54990100  0.14333800  0.71936100  1
  Bi  Bi13  1  0.54990100  0.64333800  0.78063900  1
  Bi  Bi14  1  0.45009900  0.85666200  0.28063900  1
  Bi  Bi15  1  0.04990100  0.35666300  0.71936100  1
  Sb  Sb16  1  0.97889900  0.36295500  0.40981200  1
  Sb  Sb17  1  0.52110100  0.86295500  0.59018800  1
  Sb  Sb18  1  0.02110100  0.63704500  0.59018800  1
  Sb  Sb19  1  0.47889900  0.13704500  0.40981200  1
  Sb  Sb20  1  0.02110100  0.13704500  0.90981200  1
  Sb  Sb21  1  0.97889900  0.86295500  0.09018800  1
  Sb  Sb22  1  0.52110100  0.36295500  0.90981200  1
  Sb  Sb23  1  0.47889900  0.63704500  0.09018800  1
  O  O24  1  0.83740000  0.32175300  0.30240100  1
  O  O25  1  0.26123600  0.02983400  0.96651100  1
  O  O26  1  0.23876400  0.52983400  0.03348900  1
  O  O27  1  0.37642900  0.79030600  0.85533400  1
  O  O28  1  0.12357100  0.29030600  0.14466600  1
  O  O29  1  0.83740000  0.82175300  0.19759900  1
  O  O30  1  0.12357100  0.79030600  0.35533400  1
  O  O31  1  0.66260000  0.82175300  0.69759900  1
  O  O32  1  0.26123600  0.52983400  0.53348900  1
  O  O33  1  0.16260000  0.67824700  0.69759900  1
  O  O34  1  0.66260000  0.32175300  0.80240100  1
  O  O35  1  0.78833300  0.21081100  0.45886000  1
  O  O36  1  0.76123600  0.97016600  0.53348900  1
  O  O37  1  0.62357100  0.70969400  0.35533400  1
  O  O38  1  0.18350400  0.00251100  0.13825900  1
  O  O39  1  0.76123600  0.47016600  0.96651100  1
  O  O40  1  0.16260000  0.17824700  0.80240100  1
  O  O41  1  0.87642900  0.20969400  0.64466600  1
  O  O42  1  0.28833300  0.78918900  0.04114000  1
  O  O43  1  0.23876400  0.02983400  0.46651100  1
  O  O44  1  0.21166700  0.78918900  0.54114000  1
  O  O45  1  0.81649600  0.99748900  0.86174100  1
  O  O46  1  0.62357100  0.20969400  0.14466600  1
  O  O47  1  0.68350400  0.99748900  0.36174100  1
  O  O48  1  0.21166700  0.28918900  0.95886000  1
  O  O49  1  0.28833300  0.28918900  0.45886000  1
  O  O50  1  0.73876400  0.47016600  0.46651100  1
  O  O51  1  0.73876400  0.97016600  0.03348900  1
  O  O52  1  0.68350400  0.49748900  0.13825900  1
  O  O53  1  0.71166700  0.71081100  0.54114000  1
  O  O54  1  0.71166700  0.21081100  0.95886000  1
  O  O55  1  0.78833300  0.71081100  0.04114000  1
  O  O56  1  0.81649600  0.49748900  0.63825900  1
  O  O57  1  0.87642900  0.70969400  0.85533400  1
  O  O58  1  0.37642900  0.29030600  0.64466600  1
  O  O59  1  0.18350400  0.50251100  0.36174100  1
  O  O60  1  0.31649600  0.50251100  0.86174100  1
  O  O61  1  0.33740000  0.17824700  0.30240100  1
  O  O62  1  0.31649600  0.00251100  0.63825900  1
  O  O63  1  0.33740000  0.67824700  0.19759900  1
