# generated using pymatgen
data_Mo3O8
_symmetry_space_group_name_H-M   'P 1'
_cell_length_a   6.50880103
_cell_length_b   6.50880103
_cell_length_c   5.06517070
_cell_angle_alpha   71.21906846
_cell_angle_beta   71.21906846
_cell_angle_gamma   55.66453754
_symmetry_Int_Tables_number   1
_chemical_formula_structural   Mo3O8
_chemical_formula_sum   'Mo3 O8'
_cell_volume   165.03191526
_cell_formula_units_Z   1
loop_
 _symmetry_equiv_pos_site_id
 _symmetry_equiv_pos_as_xyz
  1  'x, y, z'
loop_
 _atom_site_type_symbol
 _atom_site_label
 _atom_site_symmetry_multiplicity
 _atom_site_fract_x
 _atom_site_fract_y
 _atom_site_fract_z
 _atom_site_occupancy
  Mo  Mo0  1  0.00000000  0.00000000  0.50000000  1
  Mo  Mo1  1  0.71022000  0.28978000  0.00000000  1
  Mo  Mo2  1  0.28978000  0.71022000  0.00000000  1
  O  O3  1  0.38359700  0.38359700  0.94283600  1
  O  O4  1  0.61640300  0.61640300  0.05716400  1
  O  O5  1  0.90344500  0.90344500  0.90276100  1
  O  O6  1  0.09655500  0.09655500  0.09723900  1
  O  O7  1  0.32307700  0.86547400  0.60706800  1
  O  O8  1  0.86547400  0.32307700  0.60706800  1
  O  O9  1  0.13452600  0.67692300  0.39293200  1
  O  O10  1  0.67692300  0.13452600  0.39293200  1
