# generated using pymatgen
data_SrSn(PO4)2
_symmetry_space_group_name_H-M   'P 1'
_cell_length_a   5.69344499
_cell_length_b   7.04855782
_cell_length_c   9.28743014
_cell_angle_alpha   110.70439776
_cell_angle_beta   100.56013408
_cell_angle_gamma   98.08234405
_symmetry_Int_Tables_number   1
_chemical_formula_structural   SrSn(PO4)2
_chemical_formula_sum   'Sr2 Sn2 P4 O16'
_cell_volume   334.07599957
_cell_formula_units_Z   2
loop_
 _symmetry_equiv_pos_site_id
 _symmetry_equiv_pos_as_xyz
  1  'x, y, z'
loop_
 _atom_site_type_symbol
 _atom_site_label
 _atom_site_symmetry_multiplicity
 _atom_site_fract_x
 _atom_site_fract_y
 _atom_site_fract_z
 _atom_site_occupancy
  Sr  Sr0  1  0.24361000  0.76320100  0.03065300  1
  Sr  Sr1  1  0.75639000  0.23679900  0.96934700  1
  Sn  Sn2  1  0.67204600  0.82406000  0.54945800  1
  Sn  Sn3  1  0.32795400  0.17594000  0.45054200  1
  P  P4  1  0.39309700  0.43036900  0.22771500  1
  P  P5  1  0.60690300  0.56963100  0.77228500  1
  P  P6  1  0.83935300  0.03387200  0.30180900  1
  P  P7  1  0.16064700  0.96612800  0.69819100  1
  O  O8  1  0.82584000  0.56167000  0.89050100  1
  O  O9  1  0.63386200  0.47485300  0.18701300  1
  O  O10  1  0.65320400  0.79008100  0.75657900  1
  O  O11  1  0.95628100  0.09752100  0.69720400  1
  O  O12  1  0.36613800  0.52514700  0.81298700  1
  O  O13  1  0.01297400  0.74599600  0.57384800  1
  O  O14  1  0.98702600  0.25400400  0.42615200  1
  O  O15  1  0.28421500  0.99144700  0.86422300  1
  O  O16  1  0.34679600  0.20991900  0.24342100  1
  O  O17  1  0.71578500  0.00855300  0.13577700  1
  O  O18  1  0.17416000  0.43833000  0.10949900  1
  O  O19  1  0.39803500  0.59192600  0.39991100  1
  O  O20  1  0.60196500  0.40807400  0.60008900  1
  O  O21  1  0.62133900  0.96323200  0.37734200  1
  O  O22  1  0.04371900  0.90247900  0.30279600  1
  O  O23  1  0.37866100  0.03676800  0.62265800  1
