# generated using pymatgen
data_Zn2W2O5
_symmetry_space_group_name_H-M   'P 1'
_cell_length_a   3.38655700
_cell_length_b   5.09757700
_cell_length_c   13.95676300
_cell_angle_alpha   90.00000000
_cell_angle_beta   90.00000000
_cell_angle_gamma   90.00000000
_symmetry_Int_Tables_number   1
_chemical_formula_structural   Zn2W2O5
_chemical_formula_sum   'Zn4 W4 O10'
_cell_volume   240.93888052
_cell_formula_units_Z   2
loop_
 _symmetry_equiv_pos_site_id
 _symmetry_equiv_pos_as_xyz
  1  'x, y, z'
loop_
 _atom_site_type_symbol
 _atom_site_label
 _atom_site_symmetry_multiplicity
 _atom_site_fract_x
 _atom_site_fract_y
 _atom_site_fract_z
 _atom_site_occupancy
  Zn  Zn0  1  0.50000000  0.17787700  0.83595600  1
  Zn  Zn1  1  0.50000000  0.82212300  0.16404400  1
  Zn  Zn2  1  0.50000000  0.67787700  0.66404400  1
  Zn  Zn3  1  0.50000000  0.32212300  0.33595600  1
  W  W4  1  0.00000000  0.16738700  0.57598700  1
  W  W5  1  0.00000000  0.83261300  0.42401300  1
  W  W6  1  0.00000000  0.33261300  0.07598700  1
  W  W7  1  0.00000000  0.66738700  0.92401300  1
  O  O8  1  0.00000000  0.50000000  0.50000000  1
  O  O9  1  0.00000000  0.14059000  0.32978500  1
  O  O10  1  0.00000000  0.64059000  0.17021500  1
  O  O11  1  0.00000000  0.35941000  0.82978500  1
  O  O12  1  0.50000000  0.20895600  0.14402100  1
  O  O13  1  0.50000000  0.79104400  0.85597900  1
  O  O14  1  0.00000000  0.85941000  0.67021500  1
  O  O15  1  0.50000000  0.29104400  0.64402100  1
  O  O16  1  0.00000000  0.00000000  0.00000000  1
  O  O17  1  0.50000000  0.70895600  0.35597900  1
