# generated using pymatgen
data_Ti5(TeO6)3
_symmetry_space_group_name_H-M   'P 1'
_cell_length_a   8.63296424
_cell_length_b   8.63296424
_cell_length_c   10.52060098
_cell_angle_alpha   85.19293422
_cell_angle_beta   85.19293422
_cell_angle_gamma   62.24000278
_symmetry_Int_Tables_number   1
_chemical_formula_structural   Ti5(TeO6)3
_chemical_formula_sum   'Ti10 Te6 O36'
_cell_volume   690.50527904
_cell_formula_units_Z   2
loop_
 _symmetry_equiv_pos_site_id
 _symmetry_equiv_pos_as_xyz
  1  'x, y, z'
loop_
 _atom_site_type_symbol
 _atom_site_label
 _atom_site_symmetry_multiplicity
 _atom_site_fract_x
 _atom_site_fract_y
 _atom_site_fract_z
 _atom_site_occupancy
  Ti  Ti0  1  0.50487600  0.80936800  0.00131900  1
  Ti  Ti1  1  0.19230300  0.11402000  0.49193400  1
  Ti  Ti2  1  0.35369100  0.34468800  0.28828800  1
  Ti  Ti3  1  0.71522900  0.97135900  0.79243400  1
  Ti  Ti4  1  0.65531200  0.64630900  0.71171200  1
  Ti  Ti5  1  0.01961800  0.98038200  0.00000000  1
  Ti  Ti6  1  0.38620600  0.61379400  0.50000000  1
  Ti  Ti7  1  0.02864100  0.28477100  0.20756600  1
  Ti  Ti8  1  0.88598000  0.80769700  0.50806600  1
  Ti  Ti9  1  0.19063200  0.49512400  0.99868100  1
  Te  Te10  1  0.86592300  0.45448900  0.93620300  1
  Te  Te11  1  0.19190500  0.80907900  0.25279900  1
  Te  Te12  1  0.19092100  0.80809500  0.74720100  1
  Te  Te13  1  0.86425200  0.47921700  0.45417900  1
  Te  Te14  1  0.52078300  0.13574800  0.54582100  1
  Te  Te15  1  0.54551100  0.13407700  0.06379700  1
  O  O16  1  0.10958700  0.44032800  0.86993800  1
  O  O17  1  0.42782400  0.75062100  0.79623500  1
  O  O18  1  0.61950500  0.56690200  0.53804300  1
  O  O19  1  0.11552500  0.74362400  0.42648600  1
  O  O20  1  0.24937900  0.57217600  0.20376500  1
  O  O21  1  0.25637600  0.88447500  0.57351400  1
  O  O22  1  0.81611400  0.39209500  0.30897600  1
  O  O23  1  0.11283800  0.02070000  0.83305800  1
  O  O24  1  0.29118000  0.59020900  0.66454600  1
  O  O25  1  0.41739300  0.10002500  0.39883000  1
  O  O26  1  0.63530800  0.57433100  0.03280900  1
  O  O27  1  0.98221000  0.49077400  0.10095100  1
  O  O28  1  0.95626200  0.86149600  0.68797600  1
  O  O29  1  0.75213500  0.71324700  0.84774900  1
  O  O30  1  0.42566900  0.36469200  0.96719100  1
  O  O31  1  0.56833300  0.25428200  0.22142800  1
  O  O32  1  0.75010000  0.04048000  0.45516600  1
  O  O33  1  0.28675300  0.24786500  0.15225100  1
  O  O34  1  0.43309800  0.38049500  0.46195700  1
  O  O35  1  0.95952000  0.24990000  0.54483400  1
  O  O36  1  0.81817000  0.70764500  0.38169300  1
  O  O37  1  0.64124700  0.89093700  0.62630000  1
  O  O38  1  0.97930000  0.88716200  0.16694200  1
  O  O39  1  0.74571800  0.43166700  0.77857200  1
  O  O40  1  0.81115900  0.02580700  0.92392700  1
  O  O41  1  0.13861800  0.72725000  0.91964600  1
  O  O42  1  0.50922600  0.01779000  0.89904900  1
  O  O43  1  0.60790500  0.18388600  0.69102400  1
  O  O44  1  0.13850400  0.04373800  0.31202400  1
  O  O45  1  0.10906300  0.35875300  0.37370000  1
  O  O46  1  0.29235500  0.18183000  0.61830700  1
  O  O47  1  0.27275000  0.86138200  0.08035400  1
  O  O48  1  0.40979100  0.70882000  0.33545400  1
  O  O49  1  0.89997500  0.58260700  0.60117000  1
  O  O50  1  0.97419300  0.18884100  0.07607300  1
  O  O51  1  0.55967200  0.89041300  0.13006200  1
