# generated using pymatgen
data_CaSnP2O7
_symmetry_space_group_name_H-M   'P 1'
_cell_length_a   6.87417000
_cell_length_b   6.94663719
_cell_length_c   7.03304787
_cell_angle_alpha   85.81097296
_cell_angle_beta   65.11894987
_cell_angle_gamma   84.58094732
_symmetry_Int_Tables_number   1
_chemical_formula_structural   CaSnP2O7
_chemical_formula_sum   'Ca2 Sn2 P4 O14'
_cell_volume   303.10453422
_cell_formula_units_Z   2
loop_
 _symmetry_equiv_pos_site_id
 _symmetry_equiv_pos_as_xyz
  1  'x, y, z'
loop_
 _atom_site_type_symbol
 _atom_site_label
 _atom_site_symmetry_multiplicity
 _atom_site_fract_x
 _atom_site_fract_y
 _atom_site_fract_z
 _atom_site_occupancy
  Ca  Ca0  1  0.73029500  0.13783100  0.83659500  1
  Ca  Ca1  1  0.26970500  0.86216900  0.16340500  1
  Sn  Sn2  1  0.88845400  0.33605800  0.25359100  1
  Sn  Sn3  1  0.11154600  0.66394200  0.74640900  1
  P  P4  1  0.76423400  0.84650200  0.25936000  1
  P  P5  1  0.23576600  0.15349800  0.74064000  1
  P  P6  1  0.35359200  0.34931200  0.30599000  1
  P  P7  1  0.64640800  0.65068800  0.69401000  1
  O  O8  1  0.37632400  0.27064000  0.52567800  1
  O  O9  1  0.62367600  0.72936000  0.47432200  1
  O  O10  1  0.87416100  0.00612400  0.31181200  1
  O  O11  1  0.12583900  0.99387600  0.68818800  1
  O  O12  1  0.74578200  0.44313400  0.65604700  1
  O  O13  1  0.25421800  0.55686600  0.34395300  1
  O  O14  1  0.41543800  0.66836000  0.86207600  1
  O  O15  1  0.58456200  0.33164000  0.13792400  1
  O  O16  1  0.39160800  0.08505700  0.83718400  1
  O  O17  1  0.60839200  0.91494300  0.16281600  1
  O  O18  1  0.04604000  0.29188300  0.88284900  1
  O  O19  1  0.95396000  0.70811700  0.11715100  1
  O  O20  1  0.79037600  0.79026600  0.72647100  1
  O  O21  1  0.20962400  0.20973400  0.27352900  1
