# generated using pymatgen
data_Ca(SnO2)2
_symmetry_space_group_name_H-M   'P 1'
_cell_length_a   6.69902347
_cell_length_b   6.69902347
_cell_length_c   24.56450117
_cell_angle_alpha   78.53809891
_cell_angle_beta   78.53809891
_cell_angle_gamma   57.36949239
_symmetry_Int_Tables_number   1
_chemical_formula_structural   Ca(SnO2)2
_chemical_formula_sum   'Ca8 Sn16 O32'
_cell_volume   904.25445713
_cell_formula_units_Z   8
loop_
 _symmetry_equiv_pos_site_id
 _symmetry_equiv_pos_as_xyz
  1  'x, y, z'
loop_
 _atom_site_type_symbol
 _atom_site_label
 _atom_site_symmetry_multiplicity
 _atom_site_fract_x
 _atom_site_fract_y
 _atom_site_fract_z
 _atom_site_occupancy
  Ca  Ca0  1  0.65564100  0.65564100  0.03202600  1
  Ca  Ca1  1  0.12584600  0.12584600  0.12490500  1
  Ca  Ca2  1  0.90015800  0.90015800  0.28016200  1
  Ca  Ca3  1  0.36822300  0.36822300  0.37728600  1
  Ca  Ca4  1  0.62493100  0.62493100  0.62578800  1
  Ca  Ca5  1  0.49854000  0.49854000  0.50103300  1
  Ca  Ca6  1  0.88164000  0.88164000  0.87330700  1
  Ca  Ca7  1  0.75337700  0.75337700  0.75006500  1
  Sn  Sn8  1  0.62384300  0.12591900  0.12641900  1
  Sn  Sn9  1  0.24345300  0.24345300  0.26018500  1
  Sn  Sn10  1  0.12591900  0.62384300  0.12641900  1
  Sn  Sn11  1  0.15232500  0.15232500  0.53408500  1
  Sn  Sn12  1  0.86661100  0.37052500  0.37621000  1
  Sn  Sn13  1  0.59495800  0.59495800  0.21273100  1
  Sn  Sn14  1  0.40593700  0.40593700  0.78568900  1
  Sn  Sn15  1  0.37052500  0.86661100  0.37621000  1
  Sn  Sn16  1  0.12483600  0.62513800  0.62532200  1
  Sn  Sn17  1  0.84284600  0.84284600  0.46808700  1
  Sn  Sn18  1  0.62513800  0.12483600  0.62532200  1
  Sn  Sn19  1  0.88024400  0.38151400  0.87558800  1
  Sn  Sn20  1  0.38151400  0.88024400  0.87558800  1
  Sn  Sn21  1  0.09870200  0.09870200  0.71753100  1
  Sn  Sn22  1  0.00038100  0.00038100  0.00910700  1
  Sn  Sn23  1  0.35060100  0.35060100  0.96171600  1
  O  O24  1  0.27326900  0.80858500  0.07015800  1
  O  O25  1  0.92458500  0.92458500  0.17560600  1
  O  O26  1  0.80858500  0.27326900  0.07015800  1
  O  O27  1  0.82883300  0.82883300  0.07495100  1
  O  O28  1  0.43778100  0.43778100  0.17001400  1
  O  O29  1  0.52138600  0.05115500  0.31993300  1
  O  O30  1  0.46152600  0.94164900  0.17312800  1
  O  O31  1  0.16942700  0.16942700  0.41853800  1
  O  O32  1  0.05115500  0.52138600  0.31993300  1
  O  O33  1  0.32248700  0.32248700  0.08429300  1
  O  O34  1  0.06634500  0.06634500  0.32523900  1
  O  O35  1  0.94164900  0.46152600  0.17312800  1
  O  O36  1  0.78800700  0.30038400  0.56890900  1
  O  O37  1  0.67014400  0.67014400  0.42358200  1
  O  O38  1  0.69567800  0.20708500  0.43198900  1
  O  O39  1  0.42823000  0.42823000  0.66842600  1
  O  O40  1  0.30038400  0.78800700  0.56890900  1
  O  O41  1  0.56449100  0.56449100  0.33367800  1
  O  O42  1  0.32746300  0.32746300  0.57656400  1
  O  O43  1  0.20708500  0.69567800  0.43198900  1
  O  O44  1  0.92379500  0.92379500  0.67275000  1
  O  O45  1  0.03959700  0.55757600  0.81844300  1
  O  O46  1  0.95061900  0.46261600  0.68074300  1
  O  O47  1  0.68234900  0.68234900  0.92566900  1
  O  O48  1  0.55757600  0.03959700  0.81844300  1
  O  O49  1  0.82225900  0.82225900  0.58124800  1
  O  O50  1  0.59032400  0.59032400  0.82690300  1
  O  O51  1  0.46261600  0.95061900  0.68074300  1
  O  O52  1  0.19296600  0.19296600  0.91846900  1
  O  O53  1  0.21393200  0.69959500  0.92246800  1
  O  O54  1  0.07961900  0.07961900  0.83174200  1
  O  O55  1  0.69959500  0.21393200  0.92246800  1
