# generated using pymatgen
data_Ca2YAgO5
_symmetry_space_group_name_H-M   'P 1'
_cell_length_a   5.80271099
_cell_length_b   5.95880673
_cell_length_c   8.83219716
_cell_angle_alpha   109.62842327
_cell_angle_beta   109.83452317
_cell_angle_gamma   90.05154598
_symmetry_Int_Tables_number   1
_chemical_formula_structural   Ca2YAgO5
_chemical_formula_sum   'Ca4 Y2 Ag2 O10'
_cell_volume   268.29858733
_cell_formula_units_Z   2
loop_
 _symmetry_equiv_pos_site_id
 _symmetry_equiv_pos_as_xyz
  1  'x, y, z'
loop_
 _atom_site_type_symbol
 _atom_site_label
 _atom_site_symmetry_multiplicity
 _atom_site_fract_x
 _atom_site_fract_y
 _atom_site_fract_z
 _atom_site_occupancy
  Ca  Ca0  1  0.13524959  0.63502755  0.21337961  1
  Ca  Ca1  1  0.42831101  0.92516222  0.79045593  1
  Ca  Ca2  1  0.93079236  0.36787854  0.79038528  1
  Ca  Ca3  1  0.63284973  0.08037129  0.21336919  1
  Y  Y4  1  0.30708983  0.29924224  0.50190344  1
  Y  Y5  1  0.80790284  0.70574714  0.50319462  1
  Ag  Ag6  1  0.49542722  0.50303479  0.00174196  1
  Ag  Ag7  1  0.99348716  0.00062428  0.00150314  1
  O  O8  1  0.68536514  0.35599994  0.50045612  1
  O  O9  1  0.18603145  0.64741439  0.50129585  1
  O  O10  1  0.55623680  0.75937816  0.28253342  1
  O  O11  1  0.27421910  0.24218321  0.71936089  1
  O  O12  1  0.05621449  0.02490198  0.28016866  1
  O  O13  1  0.77769204  0.97977215  0.72204184  1
  O  O14  1  0.22307487  0.73430976  0.93086259  1
  O  O15  1  0.27917508  0.27783841  0.06985464  1
  O  O16  1  0.78063363  0.29424042  0.07101166  1
  O  O17  1  0.72193869  0.69794553  0.92798014  1
