# generated using pymatgen
data_Ca2YSnO5
_symmetry_space_group_name_H-M   'P 1'
_cell_length_a   5.97216400
_cell_length_b   6.04101985
_cell_length_c   8.72158981
_cell_angle_alpha   109.78557973
_cell_angle_beta   108.77942377
_cell_angle_gamma   89.36001362
_symmetry_Int_Tables_number   1
_chemical_formula_structural   Ca2YSnO5
_chemical_formula_sum   'Ca4 Y2 Sn2 O10'
_cell_volume   278.62541209
_cell_formula_units_Z   2
loop_
 _symmetry_equiv_pos_site_id
 _symmetry_equiv_pos_as_xyz
  1  'x, y, z'
loop_
 _atom_site_type_symbol
 _atom_site_label
 _atom_site_symmetry_multiplicity
 _atom_site_fract_x
 _atom_site_fract_y
 _atom_site_fract_z
 _atom_site_occupancy
  Ca  Ca0  1  0.37197900  0.81871100  0.74728500  1
  Ca  Ca1  1  0.12701400  0.55128000  0.24558300  1
  Ca  Ca2  1  0.63778100  0.08910300  0.23899000  1
  Ca  Ca3  1  0.86320300  0.31826800  0.75278600  1
  Y  Y4  1  0.72295000  0.63907200  0.45602200  1
  Y  Y5  1  0.27980900  0.19214000  0.53418800  1
  Sn  Sn6  1  0.50634600  0.51854300  0.99876800  1
  Sn  Sn7  1  0.98973000  0.96639600  0.97014300  1
  O  O8  1  0.58819100  0.32468000  0.50402700  1
  O  O9  1  0.38803400  0.81945300  0.48636300  1
  O  O10  1  0.22346400  0.45833600  0.76095700  1
  O  O11  1  0.78978200  0.73659900  0.24497200  1
  O  O12  1  0.97934900  0.91731600  0.70385500  1
  O  O13  1  0.98998400  0.34909500  0.38489500  1
  O  O14  1  0.30622100  0.81305800  0.06550000  1
  O  O15  1  0.72413000  0.67943000  0.89289800  1
  O  O16  1  0.58227200  0.19601000  0.84872700  1
  O  O17  1  0.43651300  0.38680500  0.16763300  1
