# generated using pymatgen
data_Mg3Fe2(GeO4)3
_symmetry_space_group_name_H-M   'P 1'
_cell_length_a   10.48803356
_cell_length_b   10.48803356
_cell_length_c   10.48803356
_cell_angle_alpha   109.47122063
_cell_angle_beta   109.47122063
_cell_angle_gamma   109.47122063
_symmetry_Int_Tables_number   1
_chemical_formula_structural   Mg3Fe2(GeO4)3
_chemical_formula_sum   'Mg12 Fe8 Ge12 O48'
_cell_volume   888.09681900
_cell_formula_units_Z   4
loop_
 _symmetry_equiv_pos_site_id
 _symmetry_equiv_pos_as_xyz
  1  'x, y, z'
loop_
 _atom_site_type_symbol
 _atom_site_label
 _atom_site_symmetry_multiplicity
 _atom_site_fract_x
 _atom_site_fract_y
 _atom_site_fract_z
 _atom_site_occupancy
  Mg  Mg0  1  0.25000000  0.87500000  0.62500000  1
  Mg  Mg1  1  0.75000000  0.62500000  0.87500000  1
  Mg  Mg2  1  0.62500000  0.87500000  0.75000000  1
  Mg  Mg3  1  0.87500000  0.62500000  0.25000000  1
  Mg  Mg4  1  0.62500000  0.25000000  0.87500000  1
  Mg  Mg5  1  0.87500000  0.75000000  0.62500000  1
  Mg  Mg6  1  0.75000000  0.12500000  0.37500000  1
  Mg  Mg7  1  0.25000000  0.37500000  0.12500000  1
  Mg  Mg8  1  0.37500000  0.12500000  0.25000000  1
  Mg  Mg9  1  0.12500000  0.37500000  0.75000000  1
  Mg  Mg10  1  0.37500000  0.75000000  0.12500000  1
  Mg  Mg11  1  0.12500000  0.25000000  0.37500000  1
  Fe  Fe12  1  0.50000000  0.50000000  0.50000000  1
  Fe  Fe13  1  0.50000000  0.00000000  0.50000000  1
  Fe  Fe14  1  0.00000000  0.50000000  0.50000000  1
  Fe  Fe15  1  0.50000000  0.50000000  0.00000000  1
  Fe  Fe16  1  0.00000000  0.00000000  0.50000000  1
  Fe  Fe17  1  0.00000000  0.50000000  0.00000000  1
  Fe  Fe18  1  0.50000000  0.00000000  0.00000000  1
  Fe  Fe19  1  0.00000000  0.00000000  0.00000000  1
  Ge  Ge20  1  0.12500000  0.75000000  0.87500000  1
  Ge  Ge21  1  0.87500000  0.25000000  0.12500000  1
  Ge  Ge22  1  0.62500000  0.37500000  0.25000000  1
  Ge  Ge23  1  0.75000000  0.87500000  0.12500000  1
  Ge  Ge24  1  0.87500000  0.12500000  0.75000000  1
  Ge  Ge25  1  0.25000000  0.62500000  0.37500000  1
  Ge  Ge26  1  0.75000000  0.37500000  0.62500000  1
  Ge  Ge27  1  0.25000000  0.12500000  0.87500000  1
  Ge  Ge28  1  0.12500000  0.87500000  0.25000000  1
  Ge  Ge29  1  0.37500000  0.62500000  0.75000000  1
  Ge  Ge30  1  0.62500000  0.75000000  0.37500000  1
  Ge  Ge31  1  0.37500000  0.25000000  0.62500000  1
  O  O32  1  0.41701000  0.81734100  0.78956400  1
  O  O33  1  0.87255400  0.40033000  0.08299000  1
  O  O34  1  0.09967000  0.97222400  0.68265900  1
  O  O35  1  0.52777600  0.62744600  0.71043600  1
  O  O36  1  0.68265900  0.08299000  0.71043600  1
  O  O37  1  0.62744600  0.71043600  0.52777600  1
  O  O38  1  0.62744600  0.41701000  0.09967000  1
  O  O39  1  0.71043600  0.52777600  0.62744600  1
  O  O40  1  0.81734100  0.52777600  0.40033000  1
  O  O41  1  0.97222400  0.78956400  0.87255400  1
  O  O42  1  0.78956400  0.87255400  0.97222400  1
  O  O43  1  0.71043600  0.68265900  0.08299000  1
  O  O44  1  0.41701000  0.09967000  0.62744600  1
  O  O45  1  0.40033000  0.81734100  0.52777600  1
  O  O46  1  0.08299000  0.71043600  0.68265900  1
  O  O47  1  0.09967000  0.62744600  0.41701000  1
  O  O48  1  0.52777600  0.40033000  0.81734100  1
  O  O49  1  0.08299000  0.87255400  0.40033000  1
  O  O50  1  0.97222400  0.68265900  0.09967000  1
  O  O51  1  0.18265900  0.47222400  0.59967000  1
  O  O52  1  0.68265900  0.09967000  0.97222400  1
  O  O53  1  0.78956400  0.41701000  0.81734100  1
  O  O54  1  0.40033000  0.08299000  0.87255400  1
  O  O55  1  0.87255400  0.97222400  0.78956400  1
  O  O56  1  0.58299000  0.18265900  0.21043600  1
  O  O57  1  0.12744600  0.59967000  0.91701000  1
  O  O58  1  0.90033000  0.02777600  0.31734100  1
  O  O59  1  0.47222400  0.37255400  0.28956400  1
  O  O60  1  0.31734100  0.91701000  0.28956400  1
  O  O61  1  0.37255400  0.28956400  0.47222400  1
  O  O62  1  0.37255400  0.58299000  0.90033000  1
  O  O63  1  0.28956400  0.47222400  0.37255400  1
  O  O64  1  0.12744600  0.02777600  0.21043600  1
  O  O65  1  0.59967000  0.91701000  0.12744600  1
  O  O66  1  0.21043600  0.58299000  0.18265900  1
  O  O67  1  0.18265900  0.21043600  0.58299000  1
  O  O68  1  0.31734100  0.90033000  0.02777600  1
  O  O69  1  0.02777600  0.31734100  0.90033000  1
  O  O70  1  0.91701000  0.12744600  0.59967000  1
  O  O71  1  0.47222400  0.59967000  0.18265900  1
  O  O72  1  0.90033000  0.37255400  0.58299000  1
  O  O73  1  0.91701000  0.28956400  0.31734100  1
  O  O74  1  0.59967000  0.18265900  0.47222400  1
  O  O75  1  0.58299000  0.90033000  0.37255400  1
  O  O76  1  0.28956400  0.31734100  0.91701000  1
  O  O77  1  0.21043600  0.12744600  0.02777600  1
  O  O78  1  0.02777600  0.21043600  0.12744600  1
  O  O79  1  0.81734100  0.78956400  0.41701000  1
