# generated using pymatgen
data_BaAlVCuO5
_symmetry_space_group_name_H-M   'P 1'
_cell_length_a   3.69254600
_cell_length_b   3.81708500
_cell_length_c   8.07729500
_cell_angle_alpha   90.00000000
_cell_angle_beta   90.00000000
_cell_angle_gamma   90.00000000
_symmetry_Int_Tables_number   1
_chemical_formula_structural   BaAlVCuO5
_chemical_formula_sum   'Ba1 Al1 V1 Cu1 O5'
_cell_volume   113.84755021
_cell_formula_units_Z   1
loop_
 _symmetry_equiv_pos_site_id
 _symmetry_equiv_pos_as_xyz
  1  'x, y, z'
loop_
 _atom_site_type_symbol
 _atom_site_label
 _atom_site_symmetry_multiplicity
 _atom_site_fract_x
 _atom_site_fract_y
 _atom_site_fract_z
 _atom_site_occupancy
  Ba  Ba0  1  0.50000000  0.00000000  0.96952800  1
  Al  Al1  1  0.50000000  0.00000000  0.53479900  1
  V  V2  1  0.00000000  0.50000000  0.31204400  1
  Cu  Cu3  1  0.00000000  0.50000000  0.71457600  1
  O  O4  1  0.00000000  0.00000000  0.39560900  1
  O  O5  1  0.50000000  0.50000000  0.39664600  1
  O  O6  1  0.00000000  0.00000000  0.70337800  1
  O  O7  1  0.50000000  0.50000000  0.70228600  1
  O  O8  1  0.00000000  0.50000000  0.08321900  1
