# generated using pymatgen
data_Cs3ZnBr5
_symmetry_space_group_name_H-M   'P 1'
_cell_length_a   10.44902557
_cell_length_b   10.44902557
_cell_length_c   10.44902557
_cell_angle_alpha   123.22366788
_cell_angle_beta   123.22366788
_cell_angle_gamma   84.50161709
_symmetry_Int_Tables_number   1
_chemical_formula_structural   Cs3ZnBr5
_chemical_formula_sum   'Cs6 Zn2 Br10'
_cell_volume   763.55011462
_cell_formula_units_Z   2
loop_
 _symmetry_equiv_pos_site_id
 _symmetry_equiv_pos_as_xyz
  1  'x, y, z'
loop_
 _atom_site_type_symbol
 _atom_site_label
 _atom_site_symmetry_multiplicity
 _atom_site_fract_x
 _atom_site_fract_y
 _atom_site_fract_z
 _atom_site_occupancy
  Cs  Cs0  1  0.16466800  0.33533200  0.50000000  1
  Cs  Cs1  1  0.83533200  0.66466800  0.50000000  1
  Cs  Cs2  1  0.66466800  0.16466800  0.82933500  1
  Cs  Cs3  1  0.33533200  0.83533200  0.17066500  1
  Cs  Cs4  1  0.75000000  0.75000000  0.00000000  1
  Cs  Cs5  1  0.25000000  0.25000000  0.00000000  1
  Zn  Zn6  1  0.75000000  0.25000000  0.50000000  1
  Zn  Zn7  1  0.25000000  0.75000000  0.50000000  1
  Br  Br8  1  0.00000000  0.00000000  0.00000000  1
  Br  Br9  1  0.50000000  0.50000000  0.00000000  1
  Br  Br10  1  0.20504700  0.98276400  0.50000000  1
  Br  Br11  1  0.48276400  0.70504700  0.50000000  1
  Br  Br12  1  0.70504700  0.20504700  0.22228300  1
  Br  Br13  1  0.98276400  0.48276400  0.77771700  1
  Br  Br14  1  0.79495300  0.01723600  0.50000000  1
  Br  Br15  1  0.51723600  0.29495300  0.50000000  1
  Br  Br16  1  0.29495300  0.79495300  0.77771700  1
  Br  Br17  1  0.01723600  0.51723600  0.22228300  1
