# generated using pymatgen
data_Ca(WO2)2
_symmetry_space_group_name_H-M   'P 1'
_cell_length_a   3.28420800
_cell_length_b   9.60282200
_cell_length_c   11.47242200
_cell_angle_alpha   90.00000000
_cell_angle_beta   90.00000000
_cell_angle_gamma   90.00000000
_symmetry_Int_Tables_number   1
_chemical_formula_structural   Ca(WO2)2
_chemical_formula_sum   'Ca4 W8 O16'
_cell_volume   361.81339988
_cell_formula_units_Z   4
loop_
 _symmetry_equiv_pos_site_id
 _symmetry_equiv_pos_as_xyz
  1  'x, y, z'
loop_
 _atom_site_type_symbol
 _atom_site_label
 _atom_site_symmetry_multiplicity
 _atom_site_fract_x
 _atom_site_fract_y
 _atom_site_fract_z
 _atom_site_occupancy
  Ca  Ca0  1  0.75000000  0.23861700  0.34503100  1
  Ca  Ca1  1  0.25000000  0.76138300  0.65496900  1
  Ca  Ca2  1  0.75000000  0.73861700  0.15496900  1
  Ca  Ca3  1  0.25000000  0.26138300  0.84503100  1
  W  W4  1  0.25000000  0.41105300  0.10157100  1
  W  W5  1  0.75000000  0.08894700  0.60157100  1
  W  W6  1  0.25000000  0.91105300  0.39842900  1
  W  W7  1  0.75000000  0.58894700  0.89842900  1
  W  W8  1  0.75000000  0.55865600  0.38272900  1
  W  W9  1  0.25000000  0.44134400  0.61727100  1
  W  W10  1  0.75000000  0.05865600  0.11727100  1
  W  W11  1  0.25000000  0.94134400  0.88272900  1
  O  O12  1  0.25000000  0.91499200  0.07436700  1
  O  O13  1  0.75000000  0.08500800  0.92563300  1
  O  O14  1  0.25000000  0.41499200  0.42563300  1
  O  O15  1  0.75000000  0.58500800  0.57436700  1
  O  O16  1  0.25000000  0.03389100  0.71231100  1
  O  O17  1  0.75000000  0.96610900  0.28768900  1
  O  O18  1  0.25000000  0.53389100  0.78768900  1
  O  O19  1  0.75000000  0.46610900  0.21231100  1
  O  O20  1  0.25000000  0.62202300  0.02765800  1
  O  O21  1  0.75000000  0.37797700  0.97234200  1
  O  O22  1  0.25000000  0.12202300  0.47234200  1
  O  O23  1  0.75000000  0.87797700  0.52765800  1
  O  O24  1  0.75000000  0.80222300  0.82324200  1
  O  O25  1  0.25000000  0.19777700  0.17675800  1
  O  O26  1  0.25000000  0.69777700  0.32324200  1
  O  O27  1  0.75000000  0.30222300  0.67675800  1
