# generated using pymatgen
data_Zn2SnWO6
_symmetry_space_group_name_H-M   'P 1'
_cell_length_a   5.66445400
_cell_length_b   5.77026896
_cell_length_c   5.77565770
_cell_angle_alpha   89.50050731
_cell_angle_beta   114.13578115
_cell_angle_gamma   114.22032437
_symmetry_Int_Tables_number   1
_chemical_formula_structural   Zn2SnWO6
_chemical_formula_sum   'Zn2 Sn1 W1 O6'
_cell_volume   154.21669908
_cell_formula_units_Z   1
loop_
 _symmetry_equiv_pos_site_id
 _symmetry_equiv_pos_as_xyz
  1  'x, y, z'
loop_
 _atom_site_type_symbol
 _atom_site_label
 _atom_site_symmetry_multiplicity
 _atom_site_fract_x
 _atom_site_fract_y
 _atom_site_fract_z
 _atom_site_occupancy
  Zn  Zn0  1  0.66462000  0.39898900  0.78083600  1
  Zn  Zn1  1  0.67144400  0.85490700  0.43939500  1
  Sn  Sn2  1  0.03945200  0.52038500  0.48321200  1
  W  W3  1  0.99849600  0.99155200  0.00453400  1
  O  O4  1  0.99800800  0.66989100  0.12300600  1
  O  O5  1  0.78451200  0.14844400  0.74507100  1
  O  O6  1  0.34762900  0.24322800  0.19180000  1
  O  O7  1  0.79846900  0.01056400  0.19597100  1
  O  O8  1  0.05658900  0.88242800  0.72200700  1
  O  O9  1  0.47896700  0.60884100  0.62241700  1
