# generated using pymatgen
data_CaTaBiO5
_symmetry_space_group_name_H-M   'P 1'
_cell_length_a   5.63017100
_cell_length_b   11.51552600
_cell_length_c   16.53440800
_cell_angle_alpha   90.00000000
_cell_angle_beta   90.00000000
_cell_angle_gamma   90.00000000
_symmetry_Int_Tables_number   1
_chemical_formula_structural   CaTaBiO5
_chemical_formula_sum   'Ca8 Ta8 Bi8 O40'
_cell_volume   1071.99810019
_cell_formula_units_Z   8
loop_
 _symmetry_equiv_pos_site_id
 _symmetry_equiv_pos_as_xyz
  1  'x, y, z'
loop_
 _atom_site_type_symbol
 _atom_site_label
 _atom_site_symmetry_multiplicity
 _atom_site_fract_x
 _atom_site_fract_y
 _atom_site_fract_z
 _atom_site_occupancy
  Ca  Ca0  1  0.50171000  0.36001800  0.55090800  1
  Ca  Ca1  1  0.00171000  0.13998200  0.55090800  1
  Ca  Ca2  1  0.00171000  0.63998200  0.94909200  1
  Ca  Ca3  1  0.99829000  0.36001800  0.05090800  1
  Ca  Ca4  1  0.49829000  0.13998200  0.05090800  1
  Ca  Ca5  1  0.99829000  0.86001800  0.44909200  1
  Ca  Ca6  1  0.49829000  0.63998200  0.44909200  1
  Ca  Ca7  1  0.50171000  0.86001800  0.94909200  1
  Ta  Ta8  1  0.98799700  0.39939700  0.40291000  1
  Ta  Ta9  1  0.51200300  0.89939700  0.59709000  1
  Ta  Ta10  1  0.01200300  0.60060300  0.59709000  1
  Ta  Ta11  1  0.48799700  0.10060300  0.40291000  1
  Ta  Ta12  1  0.01200300  0.10060300  0.90291000  1
  Ta  Ta13  1  0.98799700  0.89939700  0.09709000  1
  Ta  Ta14  1  0.51200300  0.39939700  0.90291000  1
  Ta  Ta15  1  0.48799700  0.60060300  0.09709000  1
  Bi  Bi16  1  0.94629000  0.84158900  0.77428200  1
  Bi  Bi17  1  0.05371000  0.15841100  0.22571800  1
  Bi  Bi18  1  0.55371000  0.34158900  0.22571800  1
  Bi  Bi19  1  0.05371000  0.65841100  0.27428200  1
  Bi  Bi20  1  0.44629000  0.15841100  0.72571800  1
  Bi  Bi21  1  0.44629000  0.65841100  0.77428200  1
  Bi  Bi22  1  0.55371000  0.84158900  0.27428200  1
  Bi  Bi23  1  0.94629000  0.34158900  0.72571800  1
  O  O24  1  0.92927100  0.32026000  0.30384500  1
  O  O25  1  0.29799100  0.04472200  0.94202600  1
  O  O26  1  0.20200900  0.54472200  0.05797400  1
  O  O27  1  0.24266200  0.77309600  0.84762400  1
  O  O28  1  0.25733800  0.27309600  0.15237600  1
  O  O29  1  0.92927100  0.82026000  0.19615500  1
  O  O30  1  0.25733800  0.77309600  0.34762400  1
  O  O31  1  0.57072900  0.82026000  0.69615500  1
  O  O32  1  0.29799100  0.54472200  0.55797400  1
  O  O33  1  0.07072900  0.67974000  0.69615500  1
  O  O34  1  0.57072900  0.32026000  0.80384500  1
  O  O35  1  0.64853300  0.19202400  0.47724200  1
  O  O36  1  0.79799100  0.95527800  0.55797400  1
  O  O37  1  0.75733800  0.72690400  0.34762400  1
  O  O38  1  0.17456400  0.02936000  0.12584500  1
  O  O39  1  0.79799100  0.45527800  0.94202600  1
  O  O40  1  0.07072900  0.17974000  0.80384500  1
  O  O41  1  0.74266200  0.22690400  0.65237600  1
  O  O42  1  0.14853300  0.80797600  0.02275800  1
  O  O43  1  0.20200900  0.04472200  0.44202600  1
  O  O44  1  0.35146700  0.80797600  0.52275800  1
  O  O45  1  0.82543600  0.97064000  0.87415500  1
  O  O46  1  0.75733800  0.22690400  0.15237600  1
  O  O47  1  0.67456400  0.97064000  0.37415500  1
  O  O48  1  0.35146700  0.30797600  0.97724200  1
  O  O49  1  0.14853300  0.30797600  0.47724200  1
  O  O50  1  0.70200900  0.45527800  0.44202600  1
  O  O51  1  0.70200900  0.95527800  0.05797400  1
  O  O52  1  0.67456400  0.47064000  0.12584500  1
  O  O53  1  0.85146700  0.69202400  0.52275800  1
  O  O54  1  0.85146700  0.19202400  0.97724200  1
  O  O55  1  0.64853300  0.69202400  0.02275800  1
  O  O56  1  0.82543600  0.47064000  0.62584500  1
  O  O57  1  0.74266200  0.72690400  0.84762400  1
  O  O58  1  0.24266200  0.27309600  0.65237600  1
  O  O59  1  0.17456400  0.52936000  0.37415500  1
  O  O60  1  0.32543600  0.52936000  0.87415500  1
  O  O61  1  0.42927100  0.17974000  0.30384500  1
  O  O62  1  0.32543600  0.02936000  0.62584500  1
  O  O63  1  0.42927100  0.67974000  0.19615500  1
