# generated using pymatgen
data_ZnBiWO5
_symmetry_space_group_name_H-M   'P 1'
_cell_length_a   5.47619300
_cell_length_b   10.89349200
_cell_length_c   16.42524500
_cell_angle_alpha   90.00000000
_cell_angle_beta   90.00000000
_cell_angle_gamma   90.00000000
_symmetry_Int_Tables_number   1
_chemical_formula_structural   ZnBiWO5
_chemical_formula_sum   'Zn8 Bi8 W8 O40'
_cell_volume   979.84576709
_cell_formula_units_Z   8
loop_
 _symmetry_equiv_pos_site_id
 _symmetry_equiv_pos_as_xyz
  1  'x, y, z'
loop_
 _atom_site_type_symbol
 _atom_site_label
 _atom_site_symmetry_multiplicity
 _atom_site_fract_x
 _atom_site_fract_y
 _atom_site_fract_z
 _atom_site_occupancy
  Zn  Zn0  1  0.46252100  0.37402600  0.53951100  1
  Zn  Zn1  1  0.96252100  0.12597400  0.53951100  1
  Zn  Zn2  1  0.96252100  0.62597400  0.96048900  1
  Zn  Zn3  1  0.03747900  0.37402600  0.03951100  1
  Zn  Zn4  1  0.53747900  0.12597400  0.03951100  1
  Zn  Zn5  1  0.03747900  0.87402600  0.46048900  1
  Zn  Zn6  1  0.53747900  0.62597400  0.46048900  1
  Zn  Zn7  1  0.46252100  0.87402600  0.96048900  1
  Bi  Bi8  1  0.03365900  0.85716400  0.79154600  1
  Bi  Bi9  1  0.96634100  0.14283600  0.20845400  1
  Bi  Bi10  1  0.46634100  0.35716400  0.20845400  1
  Bi  Bi11  1  0.96634100  0.64283600  0.29154600  1
  Bi  Bi12  1  0.53365900  0.14283600  0.70845400  1
  Bi  Bi13  1  0.53365900  0.64283600  0.79154600  1
  Bi  Bi14  1  0.46634100  0.85716400  0.29154600  1
  Bi  Bi15  1  0.03365900  0.35716400  0.70845400  1
  W  W16  1  0.93151300  0.35852200  0.40675600  1
  W  W17  1  0.56848700  0.85852200  0.59324400  1
  W  W18  1  0.06848700  0.64147800  0.59324400  1
  W  W19  1  0.43151300  0.14147800  0.40675600  1
  W  W20  1  0.06848700  0.14147800  0.90675600  1
  W  W21  1  0.93151300  0.85852200  0.09324400  1
  W  W22  1  0.56848700  0.35852200  0.90675600  1
  W  W23  1  0.43151300  0.64147800  0.09324400  1
  O  O24  1  0.80744000  0.31036100  0.30690900  1
  O  O25  1  0.29888400  0.04222600  0.96403400  1
  O  O26  1  0.20111600  0.54222600  0.03596600  1
  O  O27  1  0.37262700  0.79780600  0.85505400  1
  O  O28  1  0.12737300  0.29780600  0.14494600  1
  O  O29  1  0.80744000  0.81036100  0.19309100  1
  O  O30  1  0.12737300  0.79780600  0.35505400  1
  O  O31  1  0.69256000  0.81036100  0.69309100  1
  O  O32  1  0.29888400  0.54222600  0.53596600  1
  O  O33  1  0.19256000  0.68963900  0.69309100  1
  O  O34  1  0.69256000  0.31036100  0.80690900  1
  O  O35  1  0.70656400  0.21567800  0.46747200  1
  O  O36  1  0.79888400  0.95777400  0.53596600  1
  O  O37  1  0.62737300  0.70219400  0.35505400  1
  O  O38  1  0.12689700  0.99605500  0.13323200  1
  O  O39  1  0.79888400  0.45777400  0.96403400  1
  O  O40  1  0.19256000  0.18963900  0.80690900  1
  O  O41  1  0.87262700  0.20219400  0.64494600  1
  O  O42  1  0.20656400  0.78432200  0.03252800  1
  O  O43  1  0.20111600  0.04222600  0.46403400  1
  O  O44  1  0.29343600  0.78432200  0.53252800  1
  O  O45  1  0.87310300  0.00394500  0.86676800  1
  O  O46  1  0.62737300  0.20219400  0.14494600  1
  O  O47  1  0.62689700  0.00394500  0.36676800  1
  O  O48  1  0.29343600  0.28432200  0.96747200  1
  O  O49  1  0.20656400  0.28432200  0.46747200  1
  O  O50  1  0.70111600  0.45777400  0.46403400  1
  O  O51  1  0.70111600  0.95777400  0.03596600  1
  O  O52  1  0.62689700  0.50394500  0.13323200  1
  O  O53  1  0.79343600  0.71567800  0.53252800  1
  O  O54  1  0.79343600  0.21567800  0.96747200  1
  O  O55  1  0.70656400  0.71567800  0.03252800  1
  O  O56  1  0.87310300  0.50394500  0.63323200  1
  O  O57  1  0.87262700  0.70219400  0.85505400  1
  O  O58  1  0.37262700  0.29780600  0.64494600  1
  O  O59  1  0.12689700  0.49605500  0.36676800  1
  O  O60  1  0.37310300  0.49605500  0.86676800  1
  O  O61  1  0.30744000  0.18963900  0.30690900  1
  O  O62  1  0.37310300  0.99605500  0.63323200  1
  O  O63  1  0.30744000  0.68963900  0.19309100  1
