# generated using pymatgen
data_CaVO2
_symmetry_space_group_name_H-M   'P 1'
_cell_length_a   3.18327000
_cell_length_b   8.79236744
_cell_length_c   8.93061892
_cell_angle_alpha   85.09000593
_cell_angle_beta   79.81455804
_cell_angle_gamma   79.74445739
_symmetry_Int_Tables_number   1
_chemical_formula_structural   CaVO2
_chemical_formula_sum   'Ca4 V4 O8'
_cell_volume   241.70676412
_cell_formula_units_Z   4
loop_
 _symmetry_equiv_pos_site_id
 _symmetry_equiv_pos_as_xyz
  1  'x, y, z'
loop_
 _atom_site_type_symbol
 _atom_site_label
 _atom_site_symmetry_multiplicity
 _atom_site_fract_x
 _atom_site_fract_y
 _atom_site_fract_z
 _atom_site_occupancy
  Ca  Ca0  1  0.90210600  0.26175600  0.92747900  1
  Ca  Ca1  1  0.09789400  0.73824400  0.07252100  1
  Ca  Ca2  1  0.30604300  0.08129500  0.30180800  1
  Ca  Ca3  1  0.69395700  0.91870500  0.69819200  1
  V  V4  1  0.32435100  0.59924200  0.75327900  1
  V  V5  1  0.06728600  0.25567800  0.60030900  1
  V  V6  1  0.93271400  0.74432200  0.39969100  1
  V  V7  1  0.67564900  0.40075800  0.24672100  1
  O  O8  1  0.09119200  0.55220500  0.26857100  1
  O  O9  1  0.32780700  0.78239200  0.56893800  1
  O  O10  1  0.67219300  0.21760800  0.43106200  1
  O  O11  1  0.90880800  0.44779500  0.73142900  1
  O  O12  1  0.69692300  0.73242400  0.87868800  1
  O  O13  1  0.53213300  0.16565700  0.75901300  1
  O  O14  1  0.30307700  0.26757600  0.12131200  1
  O  O15  1  0.46786700  0.83434300  0.24098700  1
