# generated using pymatgen
data_CsP(HO2)2
_symmetry_space_group_name_H-M   'P 1'
_cell_length_a   6.46474500
_cell_length_b   4.95059900
_cell_length_c   8.07599113
_cell_angle_alpha   71.87486036
_cell_angle_beta   90.00000000
_cell_angle_gamma   90.00000000
_symmetry_Int_Tables_number   1
_chemical_formula_structural   CsP(HO2)2
_chemical_formula_sum   'Cs2 P2 H4 O8'
_cell_volume   245.64162513
_cell_formula_units_Z   2
loop_
 _symmetry_equiv_pos_site_id
 _symmetry_equiv_pos_as_xyz
  1  'x, y, z'
loop_
 _atom_site_type_symbol
 _atom_site_label
 _atom_site_symmetry_multiplicity
 _atom_site_fract_x
 _atom_site_fract_y
 _atom_site_fract_z
 _atom_site_occupancy
  Cs  Cs0  1  0.77880700  0.73640400  0.73388500  1
  Cs  Cs1  1  0.27880700  0.26359600  0.26611500  1
  P  P2  1  0.77059400  0.79596200  0.23793600  1
  P  P3  1  0.27059400  0.20403800  0.76206400  1
  H  H4  1  0.00185000  0.98813100  0.00885800  1
  H  H5  1  0.50185000  0.01186900  0.99114200  1
  H  H6  1  0.78913000  0.32290800  0.35179000  1
  H  H7  1  0.28913000  0.67709200  0.64821000  1
  O  O8  1  0.96453800  0.80621400  0.11513100  1
  O  O9  1  0.46453800  0.19378600  0.88486900  1
  O  O10  1  0.56882900  0.78422400  0.14009600  1
  O  O11  1  0.06882900  0.21577600  0.85990400  1
  O  O12  1  0.27947800  0.97535500  0.67426800  1
  O  O13  1  0.77947800  0.02464500  0.32573200  1
  O  O14  1  0.80327400  0.50086900  0.38826800  1
  O  O15  1  0.30327400  0.49913100  0.61173200  1
