# generated using pymatgen
data_TaAsO5
_symmetry_space_group_name_H-M   'P 1'
_cell_length_a   6.30291700
_cell_length_b   7.74070200
_cell_length_c   8.37916000
_cell_angle_alpha   90.00000000
_cell_angle_beta   90.00000000
_cell_angle_gamma   90.00000000
_symmetry_Int_Tables_number   1
_chemical_formula_structural   TaAsO5
_chemical_formula_sum   'Ta4 As4 O20'
_cell_volume   408.81085591
_cell_formula_units_Z   4
loop_
 _symmetry_equiv_pos_site_id
 _symmetry_equiv_pos_as_xyz
  1  'x, y, z'
loop_
 _atom_site_type_symbol
 _atom_site_label
 _atom_site_symmetry_multiplicity
 _atom_site_fract_x
 _atom_site_fract_y
 _atom_site_fract_z
 _atom_site_occupancy
  Ta  Ta0  1  0.24931300  0.75257800  0.99627400  1
  Ta  Ta1  1  0.25068700  0.24742200  0.49627400  1
  Ta  Ta2  1  0.75068700  0.25257800  0.50372600  1
  Ta  Ta3  1  0.74931300  0.74742200  0.00372600  1
  As  As4  1  0.48646400  0.13539500  0.83554500  1
  As  As5  1  0.01353600  0.86460500  0.33554500  1
  As  As6  1  0.51353600  0.63539500  0.66445500  1
  As  As7  1  0.98646400  0.36460500  0.16445500  1
  O  O8  1  0.99153100  0.86440900  0.91696200  1
  O  O9  1  0.50846900  0.13559100  0.41696200  1
  O  O10  1  0.00846900  0.36440900  0.58303800  1
  O  O11  1  0.49153100  0.63559100  0.08303800  1
  O  O12  1  0.50513900  0.91915100  0.92840700  1
  O  O13  1  0.99486100  0.08084900  0.42840700  1
  O  O14  1  0.49486100  0.41915100  0.57159300  1
  O  O15  1  0.00513900  0.58084900  0.07159300  1
  O  O16  1  0.45129500  0.28864300  0.96727600  1
  O  O17  1  0.04870500  0.71135700  0.46727600  1
  O  O18  1  0.54870500  0.78864300  0.53272400  1
  O  O19  1  0.95129500  0.21135700  0.03272400  1
  O  O20  1  0.71248900  0.14519600  0.71566500  1
  O  O21  1  0.78751100  0.85480400  0.21566500  1
  O  O22  1  0.28751100  0.64519600  0.78433500  1
  O  O23  1  0.21248900  0.35480400  0.28433500  1
  O  O24  1  0.28122400  0.11150800  0.69752800  1
  O  O25  1  0.21877600  0.88849200  0.19752800  1
  O  O26  1  0.71877600  0.61150800  0.80247200  1
  O  O27  1  0.78122400  0.38849200  0.30247200  1
