# generated using pymatgen
data_Cr(SiO3)2
_symmetry_space_group_name_H-M   'P 1'
_cell_length_a   5.10079400
_cell_length_b   10.71666700
_cell_length_c   18.42517800
_cell_angle_alpha   90.00000000
_cell_angle_beta   90.00000000
_cell_angle_gamma   90.00000000
_symmetry_Int_Tables_number   1
_chemical_formula_structural   Cr(SiO3)2
_chemical_formula_sum   'Cr8 Si16 O48'
_cell_volume   1007.18491537
_cell_formula_units_Z   8
loop_
 _symmetry_equiv_pos_site_id
 _symmetry_equiv_pos_as_xyz
  1  'x, y, z'
loop_
 _atom_site_type_symbol
 _atom_site_label
 _atom_site_symmetry_multiplicity
 _atom_site_fract_x
 _atom_site_fract_y
 _atom_site_fract_z
 _atom_site_occupancy
  Cr  Cr0  1  0.43814900  0.54451900  0.37324900  1
  Cr  Cr1  1  0.56185100  0.45548100  0.62675100  1
  Cr  Cr2  1  0.93814900  0.45548100  0.12675100  1
  Cr  Cr3  1  0.06185100  0.54451900  0.87324900  1
  Cr  Cr4  1  0.43814900  0.04451900  0.12675100  1
  Cr  Cr5  1  0.56185100  0.95548100  0.87324900  1
  Cr  Cr6  1  0.93814900  0.95548100  0.37324900  1
  Cr  Cr7  1  0.06185100  0.04451900  0.62675100  1
  Si  Si8  1  0.62496600  0.16844200  0.27639600  1
  Si  Si9  1  0.76954800  0.33025700  0.97383900  1
  Si  Si10  1  0.73045200  0.33025700  0.47383900  1
  Si  Si11  1  0.87503400  0.66844200  0.72360400  1
  Si  Si12  1  0.12496600  0.83155800  0.22360400  1
  Si  Si13  1  0.37503400  0.33155800  0.77639600  1
  Si  Si14  1  0.26954800  0.16974300  0.97383900  1
  Si  Si15  1  0.76954800  0.83025700  0.52616100  1
  Si  Si16  1  0.73045200  0.83025700  0.02616100  1
  Si  Si17  1  0.87503400  0.16844200  0.77639600  1
  Si  Si18  1  0.37503400  0.83155800  0.72360400  1
  Si  Si19  1  0.62496600  0.66844200  0.22360400  1
  Si  Si20  1  0.23045200  0.66974300  0.02616100  1
  Si  Si21  1  0.12496600  0.33155800  0.27639600  1
  Si  Si22  1  0.23045200  0.16974300  0.47383900  1
  Si  Si23  1  0.26954800  0.66974300  0.52616100  1
  O  O24  1  0.80316300  0.04374900  0.82367900  1
  O  O25  1  0.33371700  0.54700200  0.57498300  1
  O  O26  1  0.19683700  0.95625100  0.17632100  1
  O  O27  1  0.77221600  0.86160700  0.43886400  1
  O  O28  1  0.27221600  0.63839300  0.43886400  1
  O  O29  1  0.97271200  0.71693600  0.54503700  1
  O  O30  1  0.86604100  0.13347500  0.68948300  1
  O  O31  1  0.13395900  0.36652500  0.18948300  1
  O  O32  1  0.77221600  0.36160700  0.06113600  1
  O  O33  1  0.86604100  0.63347500  0.81051700  1
  O  O34  1  0.30316300  0.95625100  0.67632100  1
  O  O35  1  0.72778400  0.86160700  0.93886400  1
  O  O36  1  0.66628300  0.45299800  0.42501700  1
  O  O37  1  0.36604100  0.36652500  0.68948300  1
  O  O38  1  0.69683700  0.54374900  0.17632100  1
  O  O39  1  0.33371700  0.04700200  0.92501700  1
  O  O40  1  0.30316300  0.45625100  0.82367900  1
  O  O41  1  0.16883800  0.21945000  0.79512200  1
  O  O42  1  0.33116200  0.21945000  0.29512200  1
  O  O43  1  0.52728800  0.21693600  0.45496300  1
  O  O44  1  0.72778400  0.36160700  0.56113600  1
  O  O45  1  0.63395900  0.13347500  0.18948300  1
  O  O46  1  0.83371700  0.95299800  0.57498300  1
  O  O47  1  0.16883800  0.71945000  0.70487800  1
  O  O48  1  0.22778400  0.63839300  0.93886400  1
  O  O49  1  0.63395900  0.63347500  0.31051700  1
  O  O50  1  0.66628300  0.95299800  0.07498300  1
  O  O51  1  0.27221600  0.13839300  0.06113600  1
  O  O52  1  0.16628300  0.04700200  0.42501700  1
  O  O53  1  0.66883800  0.28055000  0.79512200  1
  O  O54  1  0.19683700  0.45625100  0.32367900  1
  O  O55  1  0.83116200  0.28055000  0.29512200  1
  O  O56  1  0.83116200  0.78055000  0.20487800  1
  O  O57  1  0.83371700  0.45299800  0.92501700  1
  O  O58  1  0.22778400  0.13839300  0.56113600  1
  O  O59  1  0.16628300  0.54700200  0.07498300  1
  O  O60  1  0.33116200  0.71945000  0.20487800  1
  O  O61  1  0.02728800  0.28306400  0.45496300  1
  O  O62  1  0.47271200  0.28306400  0.95496300  1
  O  O63  1  0.66883800  0.78055000  0.70487800  1
  O  O64  1  0.47271200  0.78306400  0.54503700  1
  O  O65  1  0.52728800  0.71693600  0.04503700  1
  O  O66  1  0.02728800  0.78306400  0.04503700  1
  O  O67  1  0.36604100  0.86652500  0.81051700  1
  O  O68  1  0.69683700  0.04374900  0.32367900  1
  O  O69  1  0.97271200  0.21693600  0.95496300  1
  O  O70  1  0.13395900  0.86652500  0.31051700  1
  O  O71  1  0.80316300  0.54374900  0.67632100  1
