# generated using pymatgen
data_MgFeAsO5
_symmetry_space_group_name_H-M   'P 1'
_cell_length_a   6.14053900
_cell_length_b   8.11970600
_cell_length_c   8.50679600
_cell_angle_alpha   90.00000000
_cell_angle_beta   90.00000000
_cell_angle_gamma   90.00000000
_symmetry_Int_Tables_number   1
_chemical_formula_structural   MgFeAsO5
_chemical_formula_sum   'Mg4 Fe4 As4 O20'
_cell_volume   424.14350086
_cell_formula_units_Z   4
loop_
 _symmetry_equiv_pos_site_id
 _symmetry_equiv_pos_as_xyz
  1  'x, y, z'
loop_
 _atom_site_type_symbol
 _atom_site_label
 _atom_site_symmetry_multiplicity
 _atom_site_fract_x
 _atom_site_fract_y
 _atom_site_fract_z
 _atom_site_occupancy
  Mg  Mg0  1  0.10918900  0.84418300  0.68207900  1
  Mg  Mg1  1  0.39081100  0.15581700  0.18207900  1
  Mg  Mg2  1  0.89081100  0.34418300  0.81792100  1
  Mg  Mg3  1  0.60918900  0.65581700  0.31792100  1
  Fe  Fe4  1  0.25919500  0.75203500  0.00507500  1
  Fe  Fe5  1  0.24080500  0.24796500  0.50507500  1
  Fe  Fe6  1  0.74080500  0.25203500  0.49492500  1
  Fe  Fe7  1  0.75919500  0.74796500  0.99492500  1
  As  As8  1  0.47930100  0.09292000  0.82138900  1
  As  As9  1  0.02069900  0.90708000  0.32138900  1
  As  As10  1  0.52069900  0.59292000  0.67861100  1
  As  As11  1  0.97930100  0.40708000  0.17861100  1
  O  O12  1  0.51465900  0.90407000  0.91475700  1
  O  O13  1  0.98534100  0.09593000  0.41475700  1
  O  O14  1  0.48534100  0.40407000  0.58524300  1
  O  O15  1  0.01465900  0.59593000  0.08524300  1
  O  O16  1  0.41152600  0.23045600  0.96270900  1
  O  O17  1  0.08847400  0.76954400  0.46270900  1
  O  O18  1  0.58847400  0.73045600  0.53729100  1
  O  O19  1  0.91152600  0.26954400  0.03729100  1
  O  O20  1  0.71477600  0.15164900  0.72670700  1
  O  O21  1  0.78522400  0.84835100  0.22670700  1
  O  O22  1  0.28522400  0.65164900  0.77329300  1
  O  O23  1  0.21477600  0.34835100  0.27329300  1
  O  O24  1  0.27182600  0.06733300  0.68557300  1
  O  O25  1  0.22817400  0.93266700  0.18557300  1
  O  O26  1  0.72817400  0.56733300  0.81442700  1
  O  O27  1  0.77182600  0.43266700  0.31442700  1
  O  O28  1  0.00290600  0.85071200  0.89919400  1
  O  O29  1  0.49709400  0.14928800  0.39919400  1
  O  O30  1  0.99709400  0.35071200  0.60080600  1
  O  O31  1  0.50290600  0.64928800  0.10080600  1
