# generated using pymatgen
data_VZnAsO5
_symmetry_space_group_name_H-M   'P 1'
_cell_length_a   6.22604400
_cell_length_b   8.20291700
_cell_length_c   8.36207800
_cell_angle_alpha   90.00000000
_cell_angle_beta   90.00000000
_cell_angle_gamma   90.00000000
_symmetry_Int_Tables_number   1
_chemical_formula_structural   VZnAsO5
_chemical_formula_sum   'V4 Zn4 As4 O20'
_cell_volume   427.06572438
_cell_formula_units_Z   4
loop_
 _symmetry_equiv_pos_site_id
 _symmetry_equiv_pos_as_xyz
  1  'x, y, z'
loop_
 _atom_site_type_symbol
 _atom_site_label
 _atom_site_symmetry_multiplicity
 _atom_site_fract_x
 _atom_site_fract_y
 _atom_site_fract_z
 _atom_site_occupancy
  V  V0  1  0.26014800  0.75478800  0.00553900  1
  V  V1  1  0.23985200  0.24521200  0.50553900  1
  V  V2  1  0.73985200  0.25478800  0.49446100  1
  V  V3  1  0.76014800  0.74521200  0.99446100  1
  Zn  Zn4  1  0.08958300  0.85607000  0.68301300  1
  Zn  Zn5  1  0.41041700  0.14393000  0.18301300  1
  Zn  Zn6  1  0.91041700  0.35607000  0.81698700  1
  Zn  Zn7  1  0.58958300  0.64393000  0.31698700  1
  As  As8  1  0.49527400  0.08269300  0.81617200  1
  As  As9  1  0.00472600  0.91730700  0.31617200  1
  As  As10  1  0.50472600  0.58269300  0.68382800  1
  As  As11  1  0.99527400  0.41730700  0.18382800  1
  O  O12  1  0.51188600  0.88849100  0.89626900  1
  O  O13  1  0.98811400  0.11150900  0.39626900  1
  O  O14  1  0.48811400  0.38849100  0.60373100  1
  O  O15  1  0.01188600  0.61150900  0.10373100  1
  O  O16  1  0.45506700  0.21704600  0.96973300  1
  O  O17  1  0.04493300  0.78295400  0.46973300  1
  O  O18  1  0.54493300  0.71704600  0.53026700  1
  O  O19  1  0.95506700  0.28295400  0.03026700  1
  O  O20  1  0.72986800  0.12895300  0.71696600  1
  O  O21  1  0.77013200  0.87104700  0.21696600  1
  O  O22  1  0.27013200  0.62895300  0.78303400  1
  O  O23  1  0.22986800  0.37104700  0.28303400  1
  O  O24  1  0.27346200  0.07562000  0.68826400  1
  O  O25  1  0.22653800  0.92438000  0.18826400  1
  O  O26  1  0.72653800  0.57562000  0.81173600  1
  O  O27  1  0.77346200  0.42438000  0.31173600  1
  O  O28  1  0.00485400  0.85430700  0.90018000  1
  O  O29  1  0.49514600  0.14569300  0.40018000  1
  O  O30  1  0.99514600  0.35430700  0.59982000  1
  O  O31  1  0.50485400  0.64569300  0.09982000  1
