# generated using pymatgen
data_ZnFeO2
_symmetry_space_group_name_H-M   'P 1'
_cell_length_a   7.96882009
_cell_length_b   7.96882009
_cell_length_c   9.79652213
_cell_angle_alpha   53.20252783
_cell_angle_beta   53.20252783
_cell_angle_gamma   21.58214057
_symmetry_Int_Tables_number   1
_chemical_formula_structural   ZnFeO2
_chemical_formula_sum   'Zn4 Fe4 O8'
_cell_volume   181.36539385
_cell_formula_units_Z   4
loop_
 _symmetry_equiv_pos_site_id
 _symmetry_equiv_pos_as_xyz
  1  'x, y, z'
loop_
 _atom_site_type_symbol
 _atom_site_label
 _atom_site_symmetry_multiplicity
 _atom_site_fract_x
 _atom_site_fract_y
 _atom_site_fract_z
 _atom_site_occupancy
  Zn  Zn0  1  0.68606700  0.68606700  0.29471000  1
  Zn  Zn1  1  0.31393300  0.31393300  0.70529000  1
  Zn  Zn2  1  0.98651100  0.98651100  0.39259300  1
  Zn  Zn3  1  0.01348900  0.01348900  0.60740700  1
  Fe  Fe4  1  0.37305100  0.37305100  0.95193000  1
  Fe  Fe5  1  0.84519700  0.84519700  0.32271600  1
  Fe  Fe6  1  0.15480300  0.15480300  0.67728400  1
  Fe  Fe7  1  0.62694900  0.62694900  0.04807000  1
  O  O8  1  0.14432200  0.14432200  0.90101600  1
  O  O9  1  0.52662600  0.52662600  0.74669600  1
  O  O10  1  0.47337400  0.47337400  0.25330400  1
  O  O11  1  0.85567800  0.85567800  0.09898400  1
  O  O12  1  0.83607700  0.83607700  0.84261100  1
  O  O13  1  0.20667000  0.20667000  0.42270800  1
  O  O14  1  0.16392300  0.16392300  0.15738900  1
  O  O15  1  0.79333000  0.79333000  0.57729200  1
