# generated using pymatgen
data_MgMo2O5
_symmetry_space_group_name_H-M   'P 1'
_cell_length_a   3.23808700
_cell_length_b   5.16402479
_cell_length_c   12.34482236
_cell_angle_alpha   94.64182546
_cell_angle_beta   90.54624054
_cell_angle_gamma   90.85784472
_symmetry_Int_Tables_number   1
_chemical_formula_structural   MgMo2O5
_chemical_formula_sum   'Mg2 Mo4 O10'
_cell_volume   205.71262973
_cell_formula_units_Z   2
loop_
 _symmetry_equiv_pos_site_id
 _symmetry_equiv_pos_as_xyz
  1  'x, y, z'
loop_
 _atom_site_type_symbol
 _atom_site_label
 _atom_site_symmetry_multiplicity
 _atom_site_fract_x
 _atom_site_fract_y
 _atom_site_fract_z
 _atom_site_occupancy
  Mg  Mg0  1  0.80535800  0.88682100  0.22612700  1
  Mg  Mg1  1  0.26575600  0.13338400  0.76168700  1
  Mo  Mo2  1  0.28709800  0.40157000  0.09978700  1
  Mo  Mo3  1  0.75665100  0.61190000  0.89513300  1
  Mo  Mo4  1  0.78575600  0.59292800  0.60378200  1
  Mo  Mo5  1  0.26838300  0.41634200  0.38876200  1
  O  O6  1  0.77003400  0.37525200  0.75050600  1
  O  O7  1  0.29956600  0.62328900  0.24790100  1
  O  O8  1  0.78401400  0.65603700  0.06520200  1
  O  O9  1  0.25648500  0.36266200  0.93414700  1
  O  O10  1  0.77463400  0.66005400  0.44598600  1
  O  O11  1  0.28233500  0.34909100  0.55127800  1
  O  O12  1  0.79787900  0.19106100  0.34033400  1
  O  O13  1  0.25496300  0.82318800  0.65230900  1
  O  O14  1  0.30032600  0.84063600  0.86688500  1
  O  O15  1  0.30882700  0.08300100  0.15363000  1
