# generated using pymatgen
data_YW3O8
_symmetry_space_group_name_H-M   'P 1'
_cell_length_a   5.23113400
_cell_length_b   5.79978945
_cell_length_c   6.27334458
_cell_angle_alpha   113.21133505
_cell_angle_beta   111.14779033
_cell_angle_gamma   86.20038285
_symmetry_Int_Tables_number   1
_chemical_formula_structural   YW3O8
_chemical_formula_sum   'Y1 W3 O8'
_cell_volume   162.50232226
_cell_formula_units_Z   1
loop_
 _symmetry_equiv_pos_site_id
 _symmetry_equiv_pos_as_xyz
  1  'x, y, z'
loop_
 _atom_site_type_symbol
 _atom_site_label
 _atom_site_symmetry_multiplicity
 _atom_site_fract_x
 _atom_site_fract_y
 _atom_site_fract_z
 _atom_site_occupancy
  Y  Y0  1  0.00000000  0.50000000  0.50000000  1
  W  W1  1  0.50000000  0.00000000  0.50000000  1
  W  W2  1  0.76344000  0.83295200  0.01375800  1
  W  W3  1  0.23656000  0.16704800  0.98624200  1
  O  O4  1  0.79251700  0.53647300  0.77056600  1
  O  O5  1  0.72943300  0.76403200  0.29452400  1
  O  O6  1  0.84116000  0.01595400  0.80162900  1
  O  O7  1  0.66319900  0.18994100  0.18432800  1
  O  O8  1  0.27056700  0.23596800  0.70547600  1
  O  O9  1  0.20748300  0.46352700  0.22943400  1
  O  O10  1  0.15884000  0.98404600  0.19837100  1
  O  O11  1  0.33680100  0.81005900  0.81567200  1
