# generated using pymatgen
data_YTa(WO4)2
_symmetry_space_group_name_H-M   'P 1'
_cell_length_a   5.11245400
_cell_length_b   5.60490292
_cell_length_c   6.17543237
_cell_angle_alpha   104.46868141
_cell_angle_beta   90.82656100
_cell_angle_gamma   105.51147682
_symmetry_Int_Tables_number   1
_chemical_formula_structural   YTa(WO4)2
_chemical_formula_sum   'Y1 Ta1 W2 O8'
_cell_volume   164.47558089
_cell_formula_units_Z   1
loop_
 _symmetry_equiv_pos_site_id
 _symmetry_equiv_pos_as_xyz
  1  'x, y, z'
loop_
 _atom_site_type_symbol
 _atom_site_label
 _atom_site_symmetry_multiplicity
 _atom_site_fract_x
 _atom_site_fract_y
 _atom_site_fract_z
 _atom_site_occupancy
  Y  Y0  1  0.45539200  0.08774000  0.70065000  1
  Ta  Ta1  1  0.96952100  0.10325300  0.20924600  1
  W  W2  1  0.72812000  0.58672400  0.38803700  1
  W  W3  1  0.22856200  0.61891700  0.07228000  1
  O  O4  1  0.67502000  0.80469200  0.65934700  1
  O  O5  1  0.77850000  0.26766800  0.46905000  1
  O  O6  1  0.65017700  0.79637900  0.16837000  1
  O  O7  1  0.82750200  0.32316000  0.05712400  1
  O  O8  1  0.16999100  0.92786600  0.97363100  1
  O  O9  1  0.28993600  0.40325800  0.80340800  1
  O  O10  1  0.30288100  0.40137100  0.29012700  1
  O  O11  1  0.12449900  0.87506900  0.38722500  1
