# generated using pymatgen
data_CaCr2O4
_symmetry_space_group_name_H-M   'P 1'
_cell_length_a   6.21185884
_cell_length_b   6.21185884
_cell_length_c   6.21185884
_cell_angle_alpha   120.25788218
_cell_angle_beta   117.71859284
_cell_angle_gamma   91.77518423
_symmetry_Int_Tables_number   1
_chemical_formula_structural   CaCr2O4
_chemical_formula_sum   'Ca2 Cr4 O8'
_cell_volume   171.89321438
_cell_formula_units_Z   2
loop_
 _symmetry_equiv_pos_site_id
 _symmetry_equiv_pos_as_xyz
  1  'x, y, z'
loop_
 _atom_site_type_symbol
 _atom_site_label
 _atom_site_symmetry_multiplicity
 _atom_site_fract_x
 _atom_site_fract_y
 _atom_site_fract_z
 _atom_site_occupancy
  Ca  Ca0  1  0.50000000  0.50000000  0.00000000  1
  Ca  Ca1  1  0.00000000  0.50000000  0.50000000  1
  Cr  Cr2  1  0.63153500  0.88153500  0.75000000  1
  Cr  Cr3  1  0.36846500  0.11846500  0.25000000  1
  Cr  Cr4  1  0.00000000  0.00000000  0.50000000  1
  Cr  Cr5  1  0.00000000  0.50000000  0.00000000  1
  O  O6  1  0.23643500  0.23031700  0.49388200  1
  O  O7  1  0.20588100  0.23544100  0.97044000  1
  O  O8  1  0.23643500  0.74255400  0.00611800  1
  O  O9  1  0.76500100  0.23544100  0.52956000  1
  O  O10  1  0.23499900  0.76455900  0.47044000  1
  O  O11  1  0.79411900  0.76455900  0.02956000  1
  O  O12  1  0.76356500  0.25744600  0.99388200  1
  O  O13  1  0.76356500  0.76968300  0.50611800  1
