# generated using pymatgen
data_TiZnAs2O7
_symmetry_space_group_name_H-M   'P 1'
_cell_length_a   8.59299500
_cell_length_b   8.41666500
_cell_length_c   11.00231057
_cell_angle_alpha   55.09357773
_cell_angle_beta   90.00000000
_cell_angle_gamma   90.00000000
_symmetry_Int_Tables_number   1
_chemical_formula_structural   TiZnAs2O7
_chemical_formula_sum   'Ti4 Zn4 As8 O28'
_cell_volume   652.57257723
_cell_formula_units_Z   4
loop_
 _symmetry_equiv_pos_site_id
 _symmetry_equiv_pos_as_xyz
  1  'x, y, z'
loop_
 _atom_site_type_symbol
 _atom_site_label
 _atom_site_symmetry_multiplicity
 _atom_site_fract_x
 _atom_site_fract_y
 _atom_site_fract_z
 _atom_site_occupancy
  Ti  Ti0  1  0.97395200  0.14706500  0.71548400  1
  Ti  Ti1  1  0.47395200  0.85293500  0.78451600  1
  Ti  Ti2  1  0.02604800  0.85293500  0.28451600  1
  Ti  Ti3  1  0.52604800  0.14706500  0.21548400  1
  Zn  Zn4  1  0.12356600  0.65873800  0.87820600  1
  Zn  Zn5  1  0.62356600  0.34126200  0.62179400  1
  Zn  Zn6  1  0.87643400  0.34126200  0.12179400  1
  Zn  Zn7  1  0.37643400  0.65873800  0.37820600  1
  As  As8  1  0.77366200  0.57007800  0.76426600  1
  As  As9  1  0.27366200  0.42992200  0.73573400  1
  As  As10  1  0.22633800  0.42992200  0.23573400  1
  As  As11  1  0.72633800  0.57007800  0.26426600  1
  As  As12  1  0.69558200  0.99627100  0.96484400  1
  As  As13  1  0.19558200  0.00372900  0.53515600  1
  As  As14  1  0.30441800  0.00372900  0.03515600  1
  As  As15  1  0.80441800  0.99627100  0.46484400  1
  O  O16  1  0.67501500  0.25616700  0.08863800  1
  O  O17  1  0.17501500  0.74383300  0.41136200  1
  O  O18  1  0.32498500  0.74383300  0.91136200  1
  O  O19  1  0.82498500  0.25616700  0.58863800  1
  O  O20  1  0.61333100  0.68236200  0.77698700  1
  O  O21  1  0.11333100  0.31763800  0.72301300  1
  O  O22  1  0.38666900  0.31763800  0.22301300  1
  O  O23  1  0.88666900  0.68236200  0.27698700  1
  O  O24  1  0.91053200  0.53753300  0.89169900  1
  O  O25  1  0.41053200  0.46246700  0.60830100  1
  O  O26  1  0.08946800  0.46246700  0.10830100  1
  O  O27  1  0.58946800  0.53753300  0.39169900  1
  O  O28  1  0.84734500  0.72516800  0.58365800  1
  O  O29  1  0.34734500  0.27483200  0.91634200  1
  O  O30  1  0.15265500  0.27483200  0.41634200  1
  O  O31  1  0.65265500  0.72516800  0.08365800  1
  O  O32  1  0.92281900  0.03375000  0.31101500  1
  O  O33  1  0.42281900  0.96625000  0.18898500  1
  O  O34  1  0.07718100  0.96625000  0.68898500  1
  O  O35  1  0.57718100  0.03375000  0.81101500  1
  O  O36  1  0.76846400  0.36395500  0.27666200  1
  O  O37  1  0.26846400  0.63604500  0.22333800  1
  O  O38  1  0.23153600  0.63604500  0.72333800  1
  O  O39  1  0.73153600  0.36395500  0.77666200  1
  O  O40  1  0.61851900  0.98072500  0.39717500  1
  O  O41  1  0.11851900  0.01927500  0.10282500  1
  O  O42  1  0.38148100  0.01927500  0.60282500  1
  O  O43  1  0.88148100  0.98072500  0.89717500  1
