# generated using pymatgen
data_Ca2CrO5
_symmetry_space_group_name_H-M   'P 1'
_cell_length_a   8.62213033
_cell_length_b   8.62213033
_cell_length_c   8.62213033
_cell_angle_alpha   144.41955215
_cell_angle_beta   142.53543664
_cell_angle_gamma   52.62500658
_symmetry_Int_Tables_number   1
_chemical_formula_structural   Ca2CrO5
_chemical_formula_sum   'Ca4 Cr2 O10'
_cell_volume   225.50795407
_cell_formula_units_Z   2
loop_
 _symmetry_equiv_pos_site_id
 _symmetry_equiv_pos_as_xyz
  1  'x, y, z'
loop_
 _atom_site_type_symbol
 _atom_site_label
 _atom_site_symmetry_multiplicity
 _atom_site_fract_x
 _atom_site_fract_y
 _atom_site_fract_z
 _atom_site_occupancy
  Ca  Ca0  1  0.81590200  0.40985600  0.51091300  1
  Ca  Ca1  1  0.60105700  0.19501000  0.51091300  1
  Ca  Ca2  1  0.10105700  0.59014400  0.40604600  1
  Ca  Ca3  1  0.31590200  0.80499000  0.40604600  1
  Cr  Cr4  1  0.45702600  0.50000000  0.95702600  1
  Cr  Cr5  1  0.95702600  0.00000000  0.95702600  1
  O  O6  1  0.46726500  0.52044400  0.48770900  1
  O  O7  1  0.96726500  0.47955600  0.94682100  1
  O  O8  1  0.45160500  0.27506400  0.92546600  1
  O  O9  1  0.65040200  0.72493600  0.17654100  1
  O  O10  1  0.95160500  0.02613900  0.17654100  1
  O  O11  1  0.15040200  0.97386100  0.92546600  1
  O  O12  1  0.79359700  0.25353600  0.96518200  1
  O  O13  1  0.71164600  0.74646400  0.54006200  1
  O  O14  1  0.21164600  0.67158400  0.96518200  1
  O  O15  1  0.29359700  0.32841600  0.54006200  1
