# generated using pymatgen
data_Zn(AgO2)2
_symmetry_space_group_name_H-M   'P 1'
_cell_length_a   3.18641400
_cell_length_b   9.89801700
_cell_length_c   10.81725900
_cell_angle_alpha   90.00000000
_cell_angle_beta   90.00000000
_cell_angle_gamma   90.00000000
_symmetry_Int_Tables_number   1
_chemical_formula_structural   Zn(AgO2)2
_chemical_formula_sum   'Zn4 Ag8 O16'
_cell_volume   341.16747807
_cell_formula_units_Z   4
loop_
 _symmetry_equiv_pos_site_id
 _symmetry_equiv_pos_as_xyz
  1  'x, y, z'
loop_
 _atom_site_type_symbol
 _atom_site_label
 _atom_site_symmetry_multiplicity
 _atom_site_fract_x
 _atom_site_fract_y
 _atom_site_fract_z
 _atom_site_occupancy
  Zn  Zn0  1  0.31490200  0.25000000  0.84880800  1
  Zn  Zn1  1  0.31490200  0.75000000  0.65119200  1
  Zn  Zn2  1  0.68509800  0.25000000  0.34880800  1
  Zn  Zn3  1  0.68509800  0.75000000  0.15119200  1
  Ag  Ag4  1  0.82320400  0.07060000  0.61548500  1
  Ag  Ag5  1  0.82320400  0.57060000  0.88451500  1
  Ag  Ag6  1  0.17679600  0.57060000  0.38451500  1
  Ag  Ag7  1  0.82320400  0.92940000  0.88451500  1
  Ag  Ag8  1  0.17679600  0.92940000  0.38451500  1
  Ag  Ag9  1  0.82320400  0.42940000  0.61548500  1
  Ag  Ag10  1  0.17679600  0.42940000  0.11548500  1
  Ag  Ag11  1  0.17679600  0.07060000  0.11548500  1
  O  O12  1  0.12522900  0.37616500  0.45145500  1
  O  O13  1  0.87477100  0.62383500  0.54854500  1
  O  O14  1  0.45407000  0.50000000  0.75000000  1
  O  O15  1  0.87477100  0.37616500  0.95145500  1
  O  O16  1  0.87477100  0.12383500  0.95145500  1
  O  O17  1  0.80273100  0.75000000  0.78469400  1
  O  O18  1  0.12522900  0.62383500  0.04854500  1
  O  O19  1  0.19726900  0.75000000  0.28469400  1
  O  O20  1  0.45407000  0.00000000  0.75000000  1
  O  O21  1  0.54593000  0.50000000  0.25000000  1
  O  O22  1  0.12522900  0.12383500  0.45145500  1
  O  O23  1  0.19726900  0.25000000  0.21530600  1
  O  O24  1  0.80273100  0.25000000  0.71530600  1
  O  O25  1  0.54593000  0.00000000  0.25000000  1
  O  O26  1  0.12522900  0.87616500  0.04854500  1
  O  O27  1  0.87477100  0.87616500  0.54854500  1
