# generated using pymatgen
data_Ca2YCoO5
_symmetry_space_group_name_H-M   'P 1'
_cell_length_a   9.34902568
_cell_length_b   9.34902568
_cell_length_c   5.39660578
_cell_angle_alpha   73.35711626
_cell_angle_beta   73.35711626
_cell_angle_gamma   32.08749789
_symmetry_Int_Tables_number   1
_chemical_formula_structural   Ca2YCoO5
_chemical_formula_sum   'Ca4 Y2 Co2 O10'
_cell_volume   239.18104446
_cell_formula_units_Z   2
loop_
 _symmetry_equiv_pos_site_id
 _symmetry_equiv_pos_as_xyz
  1  'x, y, z'
loop_
 _atom_site_type_symbol
 _atom_site_label
 _atom_site_symmetry_multiplicity
 _atom_site_fract_x
 _atom_site_fract_y
 _atom_site_fract_z
 _atom_site_occupancy
  Ca  Ca0  1  0.91554300  0.89004900  0.11934700  1
  Ca  Ca1  1  0.60754300  0.58890700  0.42077900  1
  Ca  Ca2  1  0.10995100  0.08445700  0.88065300  1
  Ca  Ca3  1  0.41109300  0.39245700  0.57922100  1
  Y  Y4  1  0.73147500  0.76673000  0.78335300  1
  Y  Y5  1  0.23327000  0.26852500  0.21664700  1
  Co  Co6  1  0.51763000  0.48237000  0.00000000  1
  Co  Co7  1  0.01704400  0.98295600  0.50000000  1
  O  O8  1  0.28752200  0.21324900  0.81024800  1
  O  O9  1  0.78675100  0.71247800  0.18975200  1
  O  O10  1  0.39963500  0.35056600  0.17367900  1
  O  O11  1  0.64943400  0.60036500  0.82632100  1
  O  O12  1  0.89686000  0.84260800  0.57415500  1
  O  O13  1  0.15739200  0.10314000  0.42584500  1
  O  O14  1  0.77267500  0.25030600  0.23937900  1
  O  O15  1  0.74969400  0.22732500  0.76062100  1
  O  O16  1  0.26086700  0.71808500  0.76326400  1
  O  O17  1  0.28191500  0.73913300  0.23673600  1
