# generated using pymatgen
data_Zn2MoWO6
_symmetry_space_group_name_H-M   'P 1'
_cell_length_a   5.64387924
_cell_length_b   5.63667996
_cell_length_c   7.88380346
_cell_angle_alpha   85.19120305
_cell_angle_beta   137.10541286
_cell_angle_gamma   123.54182698
_symmetry_Int_Tables_number   1
_chemical_formula_structural   Zn2MoWO6
_chemical_formula_sum   'Zn2 Mo1 W1 O6'
_cell_volume   117.32270768
_cell_formula_units_Z   1
loop_
 _symmetry_equiv_pos_site_id
 _symmetry_equiv_pos_as_xyz
  1  'x, y, z'
loop_
 _atom_site_type_symbol
 _atom_site_label
 _atom_site_symmetry_multiplicity
 _atom_site_fract_x
 _atom_site_fract_y
 _atom_site_fract_z
 _atom_site_occupancy
  Zn  Zn0  1  0.99989300  0.54126000  0.26819300  1
  Zn  Zn1  1  0.97622200  0.53502800  0.76884500  1
  Mo  Mo2  1  0.99372500  0.97838300  0.49338700  1
  W  W3  1  0.99327800  0.97993600  0.99423800  1
  O  O4  1  0.26820100  0.09056300  0.37261600  1
  O  O5  1  0.72520300  0.81716900  0.61930100  1
  O  O6  1  0.35297900  0.46710300  0.09438700  1
  O  O7  1  0.38474600  0.84032100  0.75937900  1
  O  O8  1  0.60110700  0.10958800  0.21899400  1
  O  O9  1  0.67809600  0.49718300  0.89384500  1
