# generated using pymatgen
data_Mg(SbO2)2
_symmetry_space_group_name_H-M   'P 1'
_cell_length_a   5.74772895
_cell_length_b   5.74772895
_cell_length_c   10.95282700
_cell_angle_alpha   90.00000000
_cell_angle_beta   90.00000000
_cell_angle_gamma   147.80401446
_symmetry_Int_Tables_number   1
_chemical_formula_structural   Mg(SbO2)2
_chemical_formula_sum   'Mg2 Sb4 O8'
_cell_volume   192.79548064
_cell_formula_units_Z   2
loop_
 _symmetry_equiv_pos_site_id
 _symmetry_equiv_pos_as_xyz
  1  'x, y, z'
loop_
 _atom_site_type_symbol
 _atom_site_label
 _atom_site_symmetry_multiplicity
 _atom_site_fract_x
 _atom_site_fract_y
 _atom_site_fract_z
 _atom_site_occupancy
  Mg  Mg0  1  0.61496100  0.38503900  0.75000000  1
  Mg  Mg1  1  0.38503900  0.61496100  0.25000000  1
  Sb  Sb2  1  0.13168600  0.86831400  0.08042500  1
  Sb  Sb3  1  0.86831400  0.13168600  0.91957500  1
  Sb  Sb4  1  0.13168600  0.86831400  0.41957500  1
  Sb  Sb5  1  0.86831400  0.13168600  0.58042500  1
  O  O6  1  0.78349900  0.21650100  0.37597200  1
  O  O7  1  0.21650100  0.78349900  0.62402800  1
  O  O8  1  0.21650100  0.78349900  0.87597200  1
  O  O9  1  0.78349900  0.21650100  0.12402800  1
  O  O10  1  0.01390400  0.98609600  0.25000000  1
  O  O11  1  0.98609600  0.01390400  0.75000000  1
  O  O12  1  0.50000000  0.50000000  0.00000000  1
  O  O13  1  0.50000000  0.50000000  0.50000000  1
