# generated using pymatgen
data_LaCrFeO6
_symmetry_space_group_name_H-M   'P 1'
_cell_length_a   5.47912000
_cell_length_b   5.33323300
_cell_length_c   9.31631792
_cell_angle_alpha   55.61384176
_cell_angle_beta   90.00000000
_cell_angle_gamma   90.00000000
_symmetry_Int_Tables_number   1
_chemical_formula_structural   LaCrFeO6
_chemical_formula_sum   'La2 Cr2 Fe2 O12'
_cell_volume   224.66280803
_cell_formula_units_Z   2
loop_
 _symmetry_equiv_pos_site_id
 _symmetry_equiv_pos_as_xyz
  1  'x, y, z'
loop_
 _atom_site_type_symbol
 _atom_site_label
 _atom_site_symmetry_multiplicity
 _atom_site_fract_x
 _atom_site_fract_y
 _atom_site_fract_z
 _atom_site_occupancy
  La  La0  1  0.21209900  0.74606200  0.24598200  1
  La  La1  1  0.78790100  0.74606200  0.74598200  1
  Cr  Cr2  1  0.73056000  0.50183900  0.48881000  1
  Cr  Cr3  1  0.26944000  0.50183900  0.98881000  1
  Fe  Fe4  1  0.74989900  0.99526900  0.99261100  1
  Fe  Fe5  1  0.25010100  0.99526900  0.49261100  1
  O  O6  1  0.25002500  0.77863000  0.76362800  1
  O  O7  1  0.02587100  0.26999700  0.98295900  1
  O  O8  1  0.01328600  0.70492300  0.52620600  1
  O  O9  1  0.98671400  0.70492300  0.02620600  1
  O  O10  1  0.97412900  0.26999700  0.48295900  1
  O  O11  1  0.74997500  0.77863000  0.26362800  1
  O  O12  1  0.74342100  0.20372800  0.74335900  1
  O  O13  1  0.54224400  0.73402000  0.52930400  1
  O  O14  1  0.51352100  0.30494400  0.97732900  1
  O  O15  1  0.48647900  0.30494400  0.47732900  1
  O  O16  1  0.45775600  0.73402000  0.02930400  1
  O  O17  1  0.25657900  0.20372800  0.24335900  1
