# generated using pymatgen
data_ZnFeAs2O7
_symmetry_space_group_name_H-M   'P 1'
_cell_length_a   8.79866000
_cell_length_b   7.38019000
_cell_length_c   9.73546344
_cell_angle_alpha   65.86274413
_cell_angle_beta   90.00000000
_cell_angle_gamma   90.00000000
_symmetry_Int_Tables_number   1
_chemical_formula_structural   ZnFeAs2O7
_chemical_formula_sum   'Zn4 Fe4 As8 O28'
_cell_volume   576.90747935
_cell_formula_units_Z   4
loop_
 _symmetry_equiv_pos_site_id
 _symmetry_equiv_pos_as_xyz
  1  'x, y, z'
loop_
 _atom_site_type_symbol
 _atom_site_label
 _atom_site_symmetry_multiplicity
 _atom_site_fract_x
 _atom_site_fract_y
 _atom_site_fract_z
 _atom_site_occupancy
  Zn  Zn0  1  0.08100100  0.71947700  0.88831800  1
  Zn  Zn1  1  0.58100100  0.28052300  0.61168200  1
  Zn  Zn2  1  0.91899900  0.28052300  0.11168200  1
  Zn  Zn3  1  0.41899900  0.71947700  0.38831800  1
  Fe  Fe4  1  0.94534600  0.18507200  0.68329200  1
  Fe  Fe5  1  0.44534600  0.81492800  0.81670800  1
  Fe  Fe6  1  0.05465400  0.81492800  0.31670800  1
  Fe  Fe7  1  0.55465400  0.18507200  0.18329200  1
  As  As8  1  0.77334400  0.56864200  0.75346800  1
  As  As9  1  0.27334400  0.43135800  0.74653200  1
  As  As10  1  0.22665600  0.43135800  0.24653200  1
  As  As11  1  0.72665600  0.56864200  0.25346800  1
  As  As12  1  0.72367300  0.98591100  0.95915600  1
  As  As13  1  0.22367300  0.01408900  0.54084400  1
  As  As14  1  0.27632700  0.01408900  0.04084400  1
  As  As15  1  0.77632700  0.98591100  0.45915600  1
  O  O16  1  0.72922100  0.14262700  0.05053600  1
  O  O17  1  0.22922100  0.85737300  0.44946400  1
  O  O18  1  0.27077900  0.85737300  0.94946400  1
  O  O19  1  0.77077900  0.14262700  0.55053600  1
  O  O20  1  0.60173900  0.64099200  0.78509800  1
  O  O21  1  0.10173900  0.35900800  0.71490200  1
  O  O22  1  0.39826100  0.35900800  0.21490200  1
  O  O23  1  0.89826100  0.64099200  0.28509800  1
  O  O24  1  0.90549700  0.53388300  0.89237900  1
  O  O25  1  0.40549700  0.46611700  0.60762100  1
  O  O26  1  0.09450300  0.46611700  0.10762100  1
  O  O27  1  0.59450300  0.53388300  0.39237900  1
  O  O28  1  0.85242600  0.75238600  0.58524200  1
  O  O29  1  0.35242600  0.24761400  0.91475800  1
  O  O30  1  0.14757400  0.24761400  0.41475800  1
  O  O31  1  0.64757400  0.75238600  0.08524200  1
  O  O32  1  0.91850400  0.03874900  0.32723300  1
  O  O33  1  0.41850400  0.96125100  0.17276700  1
  O  O34  1  0.08149600  0.96125100  0.67276700  1
  O  O35  1  0.58149600  0.03874900  0.82723300  1
  O  O36  1  0.73576100  0.36619400  0.21040900  1
  O  O37  1  0.23576100  0.63380600  0.28959100  1
  O  O38  1  0.26423900  0.63380600  0.78959100  1
  O  O39  1  0.76423900  0.36619400  0.71040900  1
  O  O40  1  0.60404700  0.95359200  0.39333400  1
  O  O41  1  0.10404700  0.04640800  0.10666600  1
  O  O42  1  0.39595300  0.04640800  0.60666600  1
  O  O43  1  0.89595300  0.95359200  0.89333400  1
