# generated using pymatgen
data_MoAs2O7
_symmetry_space_group_name_H-M   'P 1'
_cell_length_a   9.44696700
_cell_length_b   7.66357600
_cell_length_c   10.02940641
_cell_angle_alpha   82.84437003
_cell_angle_beta   90.00000000
_cell_angle_gamma   90.00000000
_symmetry_Int_Tables_number   1
_chemical_formula_structural   MoAs2O7
_chemical_formula_sum   'Mo4 As8 O28'
_cell_volume   720.44915590
_cell_formula_units_Z   4
loop_
 _symmetry_equiv_pos_site_id
 _symmetry_equiv_pos_as_xyz
  1  'x, y, z'
loop_
 _atom_site_type_symbol
 _atom_site_label
 _atom_site_symmetry_multiplicity
 _atom_site_fract_x
 _atom_site_fract_y
 _atom_site_fract_z
 _atom_site_occupancy
  Mo  Mo0  1  0.95245200  0.20182100  0.69452000  1
  Mo  Mo1  1  0.45245200  0.79817900  0.80548000  1
  Mo  Mo2  1  0.04754800  0.79817900  0.30548000  1
  Mo  Mo3  1  0.54754800  0.20182100  0.19452000  1
  As  As4  1  0.76975000  0.58089700  0.76851800  1
  As  As5  1  0.26975000  0.41910300  0.73148200  1
  As  As6  1  0.23025000  0.41910300  0.23148200  1
  As  As7  1  0.73025000  0.58089700  0.26851800  1
  As  As8  1  0.76770500  0.83970600  0.99349400  1
  As  As9  1  0.26770500  0.16029400  0.50650600  1
  As  As10  1  0.23229500  0.16029400  0.00650600  1
  As  As11  1  0.73229500  0.83970600  0.49349400  1
  O  O12  1  0.65712100  0.16947700  0.06183500  1
  O  O13  1  0.15712100  0.83052300  0.43816500  1
  O  O14  1  0.34287900  0.83052300  0.93816500  1
  O  O15  1  0.84287900  0.16947700  0.56183500  1
  O  O16  1  0.58849000  0.59388700  0.75997300  1
  O  O17  1  0.08849000  0.40611300  0.74002700  1
  O  O18  1  0.41151000  0.40611300  0.24002700  1
  O  O19  1  0.91151000  0.59388700  0.25997300  1
  O  O20  1  0.83587900  0.64193200  0.91816800  1
  O  O21  1  0.33587900  0.35806800  0.58183200  1
  O  O22  1  0.16412100  0.35806800  0.08183200  1
  O  O23  1  0.66412100  0.64193200  0.41816800  1
  O  O24  1  0.84596900  0.70424500  0.62899000  1
  O  O25  1  0.34596900  0.29575500  0.87101000  1
  O  O26  1  0.15403100  0.29575500  0.37101000  1
  O  O27  1  0.65403100  0.70424500  0.12899000  1
  O  O28  1  0.87459200  0.88494600  0.38101800  1
  O  O29  1  0.37459200  0.11505400  0.11898200  1
  O  O30  1  0.12540800  0.11505400  0.61898200  1
  O  O31  1  0.62540800  0.88494600  0.88101800  1
  O  O32  1  0.68356600  0.36600600  0.27018700  1
  O  O33  1  0.18356600  0.63399400  0.22981300  1
  O  O34  1  0.31643400  0.63399400  0.72981300  1
  O  O35  1  0.81643400  0.36600600  0.77018700  1
  O  O36  1  0.57131300  0.02768900  0.32057200  1
  O  O37  1  0.07131300  0.97231100  0.17942800  1
  O  O38  1  0.42868700  0.97231100  0.67942800  1
  O  O39  1  0.92868700  0.02768900  0.82057200  1
