# generated using pymatgen
data_CaTi(GeO3)2
_symmetry_space_group_name_H-M   'P 1'
_cell_length_a   7.04532989
_cell_length_b   7.04532989
_cell_length_c   5.32785011
_cell_angle_alpha   79.24588266
_cell_angle_beta   79.24588266
_cell_angle_gamma   77.05797575
_symmetry_Int_Tables_number   1
_chemical_formula_structural   CaTi(GeO3)2
_chemical_formula_sum   'Ca2 Ti2 Ge4 O12'
_cell_volume   250.29967634
_cell_formula_units_Z   2
loop_
 _symmetry_equiv_pos_site_id
 _symmetry_equiv_pos_as_xyz
  1  'x, y, z'
loop_
 _atom_site_type_symbol
 _atom_site_label
 _atom_site_symmetry_multiplicity
 _atom_site_fract_x
 _atom_site_fract_y
 _atom_site_fract_z
 _atom_site_occupancy
  Ca  Ca0  1  0.66285200  0.33714800  0.25000000  1
  Ca  Ca1  1  0.33714800  0.66285200  0.75000000  1
  Ti  Ti2  1  0.09847400  0.90152600  0.25000000  1
  Ti  Ti3  1  0.90152600  0.09847400  0.75000000  1
  Ge  Ge4  1  0.59593400  0.84948100  0.14337700  1
  Ge  Ge5  1  0.15051900  0.40406600  0.35662300  1
  Ge  Ge6  1  0.40406600  0.15051900  0.85662300  1
  Ge  Ge7  1  0.84948100  0.59593400  0.64337700  1
  O  O8  1  0.66610500  0.63923200  0.41958000  1
  O  O9  1  0.36076800  0.33389500  0.08042000  1
  O  O10  1  0.33389500  0.36076800  0.58042000  1
  O  O11  1  0.63923200  0.66610500  0.91958000  1
  O  O12  1  0.86672100  0.34078100  0.85279900  1
  O  O13  1  0.65921900  0.13327900  0.64720100  1
  O  O14  1  0.13327900  0.65921900  0.14720100  1
  O  O15  1  0.34078100  0.86672100  0.35279900  1
  O  O16  1  0.81009200  0.97976400  0.11228900  1
  O  O17  1  0.02023600  0.18990800  0.38771100  1
  O  O18  1  0.18990800  0.02023600  0.88771100  1
  O  O19  1  0.97976400  0.81009200  0.61228900  1
