# generated using pymatgen
data_ZnW3O7
_symmetry_space_group_name_H-M   'P 1'
_cell_length_a   6.56380900
_cell_length_b   7.89615500
_cell_length_c   11.43359900
_cell_angle_alpha   90.00000000
_cell_angle_beta   90.00000000
_cell_angle_gamma   90.00000000
_symmetry_Int_Tables_number   1
_chemical_formula_structural   ZnW3O7
_chemical_formula_sum   'Zn4 W12 O28'
_cell_volume   592.59032474
_cell_formula_units_Z   4
loop_
 _symmetry_equiv_pos_site_id
 _symmetry_equiv_pos_as_xyz
  1  'x, y, z'
loop_
 _atom_site_type_symbol
 _atom_site_label
 _atom_site_symmetry_multiplicity
 _atom_site_fract_x
 _atom_site_fract_y
 _atom_site_fract_z
 _atom_site_occupancy
  Zn  Zn0  1  0.88598400  0.50744600  0.75000000  1
  Zn  Zn1  1  0.38598400  0.99255400  0.25000000  1
  Zn  Zn2  1  0.11401600  0.49255400  0.25000000  1
  Zn  Zn3  1  0.61401600  0.00744600  0.75000000  1
  W  W4  1  0.24451900  0.73717700  0.03087600  1
  W  W5  1  0.74451900  0.76282300  0.96912400  1
  W  W6  1  0.75548100  0.26282300  0.53087600  1
  W  W7  1  0.25548100  0.23717700  0.46912400  1
  W  W8  1  0.24730400  0.76185400  0.75000000  1
  W  W9  1  0.74730400  0.73814600  0.25000000  1
  W  W10  1  0.75269600  0.23814600  0.25000000  1
  W  W11  1  0.25269600  0.26185400  0.75000000  1
  W  W12  1  0.74451900  0.76282300  0.53087600  1
  W  W13  1  0.24451900  0.73717700  0.46912400  1
  W  W14  1  0.25548100  0.23717700  0.03087600  1
  W  W15  1  0.75548100  0.26282300  0.96912400  1
  O  O16  1  0.55254900  0.25244400  0.10931300  1
  O  O17  1  0.05254900  0.24755600  0.89068700  1
  O  O18  1  0.44745100  0.74755600  0.60931300  1
  O  O19  1  0.94745100  0.75244400  0.39068700  1
  O  O20  1  0.44745100  0.74755600  0.89068700  1
  O  O21  1  0.94745100  0.75244400  0.10931300  1
  O  O22  1  0.55254900  0.25244400  0.39068700  1
  O  O23  1  0.05254900  0.24755600  0.60931300  1
  O  O24  1  0.95394300  0.22802200  0.10700300  1
  O  O25  1  0.45394300  0.27197800  0.89299700  1
  O  O26  1  0.04605700  0.77197800  0.60700300  1
  O  O27  1  0.54605700  0.72802200  0.39299700  1
  O  O28  1  0.04605700  0.77197800  0.89299700  1
  O  O29  1  0.54605700  0.72802200  0.10700300  1
  O  O30  1  0.95394300  0.22802200  0.39299700  1
  O  O31  1  0.45394300  0.27197800  0.60700300  1
  O  O32  1  0.31436600  0.01134600  0.75000000  1
  O  O33  1  0.81436600  0.48865400  0.25000000  1
  O  O34  1  0.68563400  0.98865400  0.25000000  1
  O  O35  1  0.18563400  0.51134600  0.75000000  1
  O  O36  1  0.22950100  0.49125800  0.40789200  1
  O  O37  1  0.72950100  0.00874200  0.59210800  1
  O  O38  1  0.77049900  0.50874200  0.90789200  1
  O  O39  1  0.27049900  0.99125800  0.09210800  1
  O  O40  1  0.77049900  0.50874200  0.59210800  1
  O  O41  1  0.27049900  0.99125800  0.40789200  1
  O  O42  1  0.22950100  0.49125800  0.09210800  1
  O  O43  1  0.72950100  0.00874200  0.90789200  1
