# generated using pymatgen
data_Ca3V6(FeO6)4
_symmetry_space_group_name_H-M   'P 1'
_cell_length_a   6.87978000
_cell_length_b   8.63086993
_cell_length_c   10.10202134
_cell_angle_alpha   105.79233972
_cell_angle_beta   106.08965456
_cell_angle_gamma   103.93796501
_symmetry_Int_Tables_number   1
_chemical_formula_structural   Ca3V6(FeO6)4
_chemical_formula_sum   'Ca3 V6 Fe4 O24'
_cell_volume   521.12913480
_cell_formula_units_Z   1
loop_
 _symmetry_equiv_pos_site_id
 _symmetry_equiv_pos_as_xyz
  1  'x, y, z'
loop_
 _atom_site_type_symbol
 _atom_site_label
 _atom_site_symmetry_multiplicity
 _atom_site_fract_x
 _atom_site_fract_y
 _atom_site_fract_z
 _atom_site_occupancy
  Ca  Ca0  1  0.00000000  0.50000000  0.50000000  1
  Ca  Ca1  1  0.29123800  0.30642800  0.79573400  1
  Ca  Ca2  1  0.70876200  0.69357200  0.20426600  1
  V  V3  1  0.78699000  0.33644400  0.73871300  1
  V  V4  1  0.21301000  0.66355600  0.26128700  1
  V  V5  1  0.88804700  0.90521100  0.66636600  1
  V  V6  1  0.39701500  0.74422600  0.86362900  1
  V  V7  1  0.11195300  0.09478900  0.33363400  1
  V  V8  1  0.60298500  0.25577400  0.13637100  1
  Fe  Fe9  1  0.37473100  0.95592000  0.60127200  1
  Fe  Fe10  1  0.62526900  0.04408000  0.39872800  1
  Fe  Fe11  1  0.04670200  0.21047600  0.02804300  1
  Fe  Fe12  1  0.95329800  0.78952400  0.97195700  1
  O  O13  1  0.84174100  0.69854100  0.58081500  1
  O  O14  1  0.15825900  0.30145900  0.41918500  1
  O  O15  1  0.25252700  0.53706500  0.73695300  1
  O  O16  1  0.74747300  0.46293500  0.26304700  1
  O  O17  1  0.79252000  0.28410400  0.55794400  1
  O  O18  1  0.20748000  0.71589600  0.44205600  1
  O  O19  1  0.66514200  0.96059400  0.57530100  1
  O  O20  1  0.33485800  0.03940600  0.42469900  1
  O  O21  1  0.64449900  0.74380000  0.98113600  1
  O  O22  1  0.35550100  0.25620000  0.01886400  1
  O  O23  1  0.46219700  0.78660900  0.27285200  1
  O  O24  1  0.53780300  0.21339100  0.72714800  1
  O  O25  1  0.12484500  0.01723400  0.64870900  1
  O  O26  1  0.07207200  0.05424000  0.14346200  1
  O  O27  1  0.92792800  0.94576000  0.85653800  1
  O  O28  1  0.56819400  0.12875500  0.23987300  1
  O  O29  1  0.43180600  0.87124500  0.76012700  1
  O  O30  1  0.17811600  0.45261800  0.18131500  1
  O  O31  1  0.82188400  0.54738200  0.81868500  1
  O  O32  1  0.98571900  0.28054300  0.85031000  1
  O  O33  1  0.01428100  0.71945700  0.14969000  1
  O  O34  1  0.23720700  0.79715000  0.96129000  1
  O  O35  1  0.76279300  0.20285000  0.03871000  1
  O  O36  1  0.87515500  0.98276600  0.35129100  1
