# generated using pymatgen
data_CaW3O7
_symmetry_space_group_name_H-M   'P 1'
_cell_length_a   5.35645400
_cell_length_b   10.18767700
_cell_length_c   10.64195700
_cell_angle_alpha   90.00000000
_cell_angle_beta   90.00000000
_cell_angle_gamma   90.00000000
_symmetry_Int_Tables_number   1
_chemical_formula_structural   CaW3O7
_chemical_formula_sum   'Ca4 W12 O28'
_cell_volume   580.72971218
_cell_formula_units_Z   4
loop_
 _symmetry_equiv_pos_site_id
 _symmetry_equiv_pos_as_xyz
  1  'x, y, z'
loop_
 _atom_site_type_symbol
 _atom_site_label
 _atom_site_symmetry_multiplicity
 _atom_site_fract_x
 _atom_site_fract_y
 _atom_site_fract_z
 _atom_site_occupancy
  Ca  Ca0  1  0.33691200  0.13685900  0.25000000  1
  Ca  Ca1  1  0.83691200  0.36314100  0.75000000  1
  Ca  Ca2  1  0.66308800  0.86314100  0.75000000  1
  Ca  Ca3  1  0.16308800  0.63685900  0.25000000  1
  W  W4  1  0.62208600  0.64291700  0.01590500  1
  W  W5  1  0.12208600  0.85708300  0.98409500  1
  W  W6  1  0.37791400  0.35708300  0.51590500  1
  W  W7  1  0.87791400  0.14291700  0.48409500  1
  W  W8  1  0.65686200  0.85339400  0.25000000  1
  W  W9  1  0.15686200  0.64660600  0.75000000  1
  W  W10  1  0.34313800  0.14660600  0.75000000  1
  W  W11  1  0.84313800  0.35339400  0.25000000  1
  W  W12  1  0.12208600  0.85708300  0.51590500  1
  W  W13  1  0.62208600  0.64291700  0.48409500  1
  W  W14  1  0.87791400  0.14291700  0.01590500  1
  W  W15  1  0.37791400  0.35708300  0.98409500  1
  O  O16  1  0.11104100  0.23421400  0.88510500  1
  O  O17  1  0.61104100  0.26578600  0.11489500  1
  O  O18  1  0.88895900  0.76578600  0.38510500  1
  O  O19  1  0.38895900  0.73421400  0.61489500  1
  O  O20  1  0.88895900  0.76578600  0.11489500  1
  O  O21  1  0.38895900  0.73421400  0.88510500  1
  O  O22  1  0.11104100  0.23421400  0.61489500  1
  O  O23  1  0.61104100  0.26578600  0.38510500  1
  O  O24  1  0.59085900  0.20949600  0.88186700  1
  O  O25  1  0.09085900  0.29050400  0.11813300  1
  O  O26  1  0.40914100  0.79050400  0.38186700  1
  O  O27  1  0.90914100  0.70949600  0.61813300  1
  O  O28  1  0.40914100  0.79050400  0.11813300  1
  O  O29  1  0.90914100  0.70949600  0.88186700  1
  O  O30  1  0.59085900  0.20949600  0.61813300  1
  O  O31  1  0.09085900  0.29050400  0.38186700  1
  O  O32  1  0.75425200  0.53796100  0.25000000  1
  O  O33  1  0.25425200  0.96203900  0.75000000  1
  O  O34  1  0.24574800  0.46203900  0.75000000  1
  O  O35  1  0.74574800  0.03796100  0.25000000  1
  O  O36  1  0.81477700  0.96700000  0.56933900  1
  O  O37  1  0.31477700  0.53300000  0.43066100  1
  O  O38  1  0.18522300  0.03300000  0.06933900  1
  O  O39  1  0.68522300  0.46700000  0.93066100  1
  O  O40  1  0.18522300  0.03300000  0.43066100  1
  O  O41  1  0.68522300  0.46700000  0.56933900  1
  O  O42  1  0.81477700  0.96700000  0.93066100  1
  O  O43  1  0.31477700  0.53300000  0.06933900  1
