# generated using pymatgen
data_MgCu3(BiO3)4
_symmetry_space_group_name_H-M   'P 1'
_cell_length_a   7.09617059
_cell_length_b   7.09617059
_cell_length_c   7.09617059
_cell_angle_alpha   109.47122063
_cell_angle_beta   109.47122063
_cell_angle_gamma   109.47122063
_symmetry_Int_Tables_number   1
_chemical_formula_structural   MgCu3(BiO3)4
_chemical_formula_sum   'Mg1 Cu3 Bi4 O12'
_cell_volume   275.07444852
_cell_formula_units_Z   1
loop_
 _symmetry_equiv_pos_site_id
 _symmetry_equiv_pos_as_xyz
  1  'x, y, z'
loop_
 _atom_site_type_symbol
 _atom_site_label
 _atom_site_symmetry_multiplicity
 _atom_site_fract_x
 _atom_site_fract_y
 _atom_site_fract_z
 _atom_site_occupancy
  Mg  Mg0  1  0.00000000  0.00000000  0.00000000  1
  Cu  Cu1  1  0.50000000  0.00000000  0.50000000  1
  Cu  Cu2  1  0.50000000  0.50000000  0.00000000  1
  Cu  Cu3  1  0.00000000  0.50000000  0.50000000  1
  Bi  Bi4  1  0.00000000  0.50000000  0.00000000  1
  Bi  Bi5  1  0.50000000  0.00000000  0.00000000  1
  Bi  Bi6  1  0.50000000  0.50000000  0.50000000  1
  Bi  Bi7  1  0.00000000  0.00000000  0.50000000  1
  O  O8  1  0.31931000  0.16554500  0.84623500  1
  O  O9  1  0.68069000  0.83445500  0.15376500  1
  O  O10  1  0.68069000  0.52692500  0.84623500  1
  O  O11  1  0.47307500  0.15376500  0.31931000  1
  O  O12  1  0.15376500  0.31931000  0.47307500  1
  O  O13  1  0.84623500  0.31931000  0.16554500  1
  O  O14  1  0.83445500  0.15376500  0.68069000  1
  O  O15  1  0.84623500  0.68069000  0.52692500  1
  O  O16  1  0.31931000  0.47307500  0.15376500  1
  O  O17  1  0.52692500  0.84623500  0.68069000  1
  O  O18  1  0.15376500  0.68069000  0.83445500  1
  O  O19  1  0.16554500  0.84623500  0.31931000  1
