# generated using pymatgen
data_PrZn(BiO3)2
_symmetry_space_group_name_H-M   'P 1'
_cell_length_a   5.71539900
_cell_length_b   6.49596900
_cell_length_c   8.63523600
_cell_angle_alpha   90.00000000
_cell_angle_beta   90.00000000
_cell_angle_gamma   90.00000000
_symmetry_Int_Tables_number   1
_chemical_formula_structural   PrZn(BiO3)2
_chemical_formula_sum   'Pr2 Zn2 Bi4 O12'
_cell_volume   320.60087955
_cell_formula_units_Z   2
loop_
 _symmetry_equiv_pos_site_id
 _symmetry_equiv_pos_as_xyz
  1  'x, y, z'
loop_
 _atom_site_type_symbol
 _atom_site_label
 _atom_site_symmetry_multiplicity
 _atom_site_fract_x
 _atom_site_fract_y
 _atom_site_fract_z
 _atom_site_occupancy
  Pr  Pr0  1  0.03902500  0.66618400  0.00000000  1
  Pr  Pr1  1  0.53902500  0.33381600  0.50000000  1
  Zn  Zn2  1  0.52895200  0.40216100  0.00000000  1
  Zn  Zn3  1  0.02895200  0.59783900  0.50000000  1
  Bi  Bi4  1  0.00686400  0.21861200  0.75832200  1
  Bi  Bi5  1  0.00686400  0.21861200  0.24167800  1
  Bi  Bi6  1  0.50686400  0.78138800  0.25832200  1
  Bi  Bi7  1  0.50686400  0.78138800  0.74167800  1
  O  O8  1  0.13053100  0.26707600  0.50000000  1
  O  O9  1  0.16057900  0.91379400  0.81470800  1
  O  O10  1  0.16057900  0.91379400  0.18529200  1
  O  O11  1  0.30726800  0.45769600  0.17335700  1
  O  O12  1  0.30726800  0.45769600  0.82664300  1
  O  O13  1  0.35279400  0.69064900  0.50000000  1
  O  O14  1  0.63053100  0.73292400  0.00000000  1
  O  O15  1  0.66057900  0.08620600  0.68529200  1
  O  O16  1  0.66057900  0.08620600  0.31470800  1
  O  O17  1  0.80726800  0.54230400  0.67335700  1
  O  O18  1  0.80726800  0.54230400  0.32664300  1
  O  O19  1  0.85279400  0.30935100  0.00000000  1
