# generated using pymatgen
data_MgMo2(PO5)2
_symmetry_space_group_name_H-M   'P 1'
_cell_length_a   9.91861741
_cell_length_b   8.74146836
_cell_length_c   7.10256220
_cell_angle_alpha   76.74050041
_cell_angle_beta   59.07317344
_cell_angle_gamma   44.18632615
_symmetry_Int_Tables_number   1
_chemical_formula_structural   MgMo2(PO5)2
_chemical_formula_sum   'Mg2 Mo4 P4 O20'
_cell_volume   358.08112782
_cell_formula_units_Z   2
loop_
 _symmetry_equiv_pos_site_id
 _symmetry_equiv_pos_as_xyz
  1  'x, y, z'
loop_
 _atom_site_type_symbol
 _atom_site_label
 _atom_site_symmetry_multiplicity
 _atom_site_fract_x
 _atom_site_fract_y
 _atom_site_fract_z
 _atom_site_occupancy
  Mg  Mg0  1  0.50102200  0.99897800  0.99897800  1
  Mg  Mg1  1  0.25102200  0.74897800  0.74897800  1
  Mo  Mo2  1  0.87192800  0.37953100  0.38012500  1
  Mo  Mo3  1  0.36841500  0.38012500  0.37953100  1
  Mo  Mo4  1  0.87046900  0.37807200  0.88158500  1
  Mo  Mo5  1  0.86987500  0.88158500  0.37807200  1
  P  P6  1  0.04151200  0.55513800  0.95653500  1
  P  P7  1  0.69486200  0.20848800  0.80318400  1
  P  P8  1  0.44681600  0.95653500  0.55513800  1
  P  P9  1  0.29346500  0.80318400  0.20848800  1
  O  O10  1  0.56294700  0.72151400  0.46844600  1
  O  O11  1  0.66192800  0.17563600  0.33566900  1
  O  O12  1  0.30671700  0.67537300  0.40312700  1
  O  O13  1  0.78155400  0.00290600  0.68705300  1
  O  O14  1  0.21354900  0.06498200  0.75853800  1
  O  O15  1  0.43040600  0.08724000  0.36336900  1
  O  O16  1  0.07436400  0.58807200  0.42323200  1
  O  O17  1  0.82676800  0.33566900  0.17563600  1
  O  O18  1  0.91433100  0.42323200  0.58807200  1
  O  O19  1  0.18501800  0.03645100  0.28706900  1
  O  O20  1  0.24709400  0.46844600  0.72151400  1
  O  O21  1  0.49146200  0.28706900  0.03645100  1
  O  O22  1  0.96293100  0.75853800  0.06498200  1
  O  O23  1  0.16276000  0.81959400  0.13101600  1
  O  O24  1  0.11898400  0.36336900  0.08724000  1
  O  O25  1  0.88663100  0.13101600  0.81959400  1
  O  O26  1  0.84687300  0.63521700  0.94328300  1
  O  O27  1  0.61478300  0.40312700  0.67537300  1
  O  O28  1  0.52848600  0.68705300  0.00290600  1
  O  O29  1  0.57462700  0.94328300  0.63521700  1
