# generated using pymatgen
data_ZnFe3(P2O7)2
_symmetry_space_group_name_H-M   'P 1'
_cell_length_a   7.76016800
_cell_length_b   7.26040400
_cell_length_c   9.59524709
_cell_angle_alpha   69.33615397
_cell_angle_beta   90.00000000
_cell_angle_gamma   90.00000000
_symmetry_Int_Tables_number   1
_chemical_formula_structural   ZnFe3(P2O7)2
_chemical_formula_sum   'Zn2 Fe6 P8 O28'
_cell_volume   505.83553470
_cell_formula_units_Z   2
loop_
 _symmetry_equiv_pos_site_id
 _symmetry_equiv_pos_as_xyz
  1  'x, y, z'
loop_
 _atom_site_type_symbol
 _atom_site_label
 _atom_site_symmetry_multiplicity
 _atom_site_fract_x
 _atom_site_fract_y
 _atom_site_fract_z
 _atom_site_occupancy
  Zn  Zn0  1  0.00000000  0.50000000  0.00000000  1
  Zn  Zn1  1  0.50000000  0.50000000  0.50000000  1
  Fe  Fe2  1  0.13043400  0.81465900  0.51432500  1
  Fe  Fe3  1  0.63043400  0.18534100  0.98567500  1
  Fe  Fe4  1  0.86956600  0.18534100  0.48567500  1
  Fe  Fe5  1  0.36956600  0.81465900  0.01432500  1
  Fe  Fe6  1  0.00000000  0.00000000  0.00000000  1
  Fe  Fe7  1  0.50000000  0.00000000  0.50000000  1
  P  P8  1  0.93163300  0.42101600  0.70692100  1
  P  P9  1  0.43163300  0.57898400  0.79307900  1
  P  P10  1  0.06836700  0.57898400  0.29307900  1
  P  P11  1  0.56836700  0.42101600  0.20692100  1
  P  P12  1  0.20593400  0.13629200  0.68890200  1
  P  P13  1  0.70593400  0.86370800  0.81109800  1
  P  P14  1  0.79406600  0.86370800  0.31109800  1
  P  P15  1  0.29406600  0.13629200  0.18890200  1
  O  O16  1  0.37895800  0.19345100  0.60732900  1
  O  O17  1  0.87895800  0.80654900  0.89267100  1
  O  O18  1  0.62104200  0.80654900  0.39267100  1
  O  O19  1  0.12104200  0.19345100  0.10732900  1
  O  O20  1  0.39979100  0.68430200  0.62016600  1
  O  O21  1  0.89979100  0.31569800  0.87983400  1
  O  O22  1  0.60020900  0.31569800  0.37983400  1
  O  O23  1  0.10020900  0.68430200  0.12016600  1
  O  O24  1  0.79474700  0.36768900  0.61310200  1
  O  O25  1  0.29474700  0.63231100  0.88689800  1
  O  O26  1  0.20525300  0.63231100  0.38689800  1
  O  O27  1  0.70525300  0.36768900  0.11310200  1
  O  O28  1  0.11658400  0.34234100  0.67196500  1
  O  O29  1  0.61658400  0.65765900  0.82803500  1
  O  O30  1  0.88341600  0.65765900  0.32803500  1
  O  O31  1  0.38341600  0.34234100  0.17196500  1
  O  O32  1  0.53087600  0.63639500  0.17376900  1
  O  O33  1  0.03087600  0.36360500  0.32623100  1
  O  O34  1  0.46912400  0.36360500  0.82623100  1
  O  O35  1  0.96912400  0.63639500  0.67376900  1
  O  O36  1  0.78875300  0.97377100  0.14055200  1
  O  O37  1  0.28875300  0.02622900  0.35944800  1
  O  O38  1  0.21124700  0.02622900  0.85944800  1
  O  O39  1  0.71124700  0.97377100  0.64055200  1
  O  O40  1  0.41173000  0.03160500  0.11277000  1
  O  O41  1  0.91173000  0.96839500  0.38723000  1
  O  O42  1  0.58827000  0.96839500  0.88723000  1
  O  O43  1  0.08827000  0.03160500  0.61277000  1
