# generated using pymatgen
data_Mg(SnO2)4
_symmetry_space_group_name_H-M   'P 1'
_cell_length_a   6.34082095
_cell_length_b   6.34082095
_cell_length_c   6.34082067
_cell_angle_alpha   62.99023085
_cell_angle_beta   62.99023085
_cell_angle_gamma   62.99023242
_symmetry_Int_Tables_number   1
_chemical_formula_structural   Mg(SnO2)4
_chemical_formula_sum   'Mg1 Sn4 O8'
_cell_volume   192.23718805
_cell_formula_units_Z   1
loop_
 _symmetry_equiv_pos_site_id
 _symmetry_equiv_pos_as_xyz
  1  'x, y, z'
loop_
 _atom_site_type_symbol
 _atom_site_label
 _atom_site_symmetry_multiplicity
 _atom_site_fract_x
 _atom_site_fract_y
 _atom_site_fract_z
 _atom_site_occupancy
  Mg  Mg0  1  0.50000000  0.50000000  0.50000000  1
  Sn  Sn1  1  0.00000000  0.50000000  0.50000000  1
  Sn  Sn2  1  0.50000000  0.00000000  0.50000000  1
  Sn  Sn3  1  0.50000000  0.50000000  0.00000000  1
  Sn  Sn4  1  0.00000000  0.00000000  0.00000000  1
  O  O5  1  0.30275200  0.73552800  0.73552800  1
  O  O6  1  0.26447200  0.26447200  0.69724800  1
  O  O7  1  0.69724800  0.26447200  0.26447200  1
  O  O8  1  0.26447200  0.69724800  0.26447200  1
  O  O9  1  0.26352400  0.26352400  0.26352400  1
  O  O10  1  0.73647600  0.73647600  0.73647600  1
  O  O11  1  0.73552800  0.30275200  0.73552800  1
  O  O12  1  0.73552800  0.73552800  0.30275200  1
