# generated using pymatgen
data_MgCrNiP2O9
_symmetry_space_group_name_H-M   'P 1'
_cell_length_a   6.27436800
_cell_length_b   7.42714500
_cell_length_c   14.05258500
_cell_angle_alpha   90.00000000
_cell_angle_beta   90.00000000
_cell_angle_gamma   90.00000000
_symmetry_Int_Tables_number   1
_chemical_formula_structural   MgCrNiP2O9
_chemical_formula_sum   'Mg4 Cr4 Ni4 P8 O36'
_cell_volume   654.85946757
_cell_formula_units_Z   4
loop_
 _symmetry_equiv_pos_site_id
 _symmetry_equiv_pos_as_xyz
  1  'x, y, z'
loop_
 _atom_site_type_symbol
 _atom_site_label
 _atom_site_symmetry_multiplicity
 _atom_site_fract_x
 _atom_site_fract_y
 _atom_site_fract_z
 _atom_site_occupancy
  Mg  Mg0  1  0.25000000  0.42840500  0.27565000  1
  Mg  Mg1  1  0.25000000  0.07159500  0.77565000  1
  Mg  Mg2  1  0.75000000  0.57159500  0.72435000  1
  Mg  Mg3  1  0.75000000  0.92840500  0.22435000  1
  Cr  Cr4  1  0.25000000  0.85670600  0.38299300  1
  Cr  Cr5  1  0.75000000  0.14329400  0.61700700  1
  Cr  Cr6  1  0.75000000  0.35670600  0.11700700  1
  Cr  Cr7  1  0.25000000  0.64329400  0.88299300  1
  Ni  Ni8  1  0.00000000  0.50000000  0.50000000  1
  Ni  Ni9  1  0.00000000  0.00000000  0.00000000  1
  Ni  Ni10  1  0.50000000  0.00000000  0.00000000  1
  Ni  Ni11  1  0.50000000  0.50000000  0.50000000  1
  P  P12  1  0.75000000  0.85381500  0.43204600  1
  P  P13  1  0.25000000  0.14618500  0.56795400  1
  P  P14  1  0.25000000  0.35381500  0.06795400  1
  P  P15  1  0.75000000  0.64618500  0.93204600  1
  P  P16  1  0.25000000  0.88451800  0.19592100  1
  P  P17  1  0.75000000  0.11548200  0.80407900  1
  P  P18  1  0.75000000  0.38451800  0.30407900  1
  P  P19  1  0.25000000  0.61548200  0.69592100  1
  O  O20  1  0.53844200  0.11084200  0.86100400  1
  O  O21  1  0.03844200  0.88915800  0.13899600  1
  O  O22  1  0.46155800  0.61084200  0.63899600  1
  O  O23  1  0.96155800  0.38915800  0.36100400  1
  O  O24  1  0.46155800  0.88915800  0.13899600  1
  O  O25  1  0.96155800  0.11084200  0.86100400  1
  O  O26  1  0.53844200  0.38915800  0.36100400  1
  O  O27  1  0.03844200  0.61084200  0.63899600  1
  O  O28  1  0.75000000  0.83586000  0.97719600  1
  O  O29  1  0.25000000  0.16414000  0.02280400  1
  O  O30  1  0.25000000  0.33586000  0.52280400  1
  O  O31  1  0.75000000  0.66414000  0.47719600  1
  O  O32  1  0.25000000  0.64805900  0.44396500  1
  O  O33  1  0.75000000  0.35194100  0.55603500  1
  O  O34  1  0.75000000  0.14805900  0.05603500  1
  O  O35  1  0.25000000  0.85194100  0.94396500  1
  O  O36  1  0.25000000  0.70877400  0.26005800  1
  O  O37  1  0.75000000  0.29122600  0.73994200  1
  O  O38  1  0.75000000  0.20877400  0.23994200  1
  O  O39  1  0.25000000  0.79122600  0.76005800  1
  O  O40  1  0.93767200  0.62436600  0.86171100  1
  O  O41  1  0.43767200  0.37563400  0.13828900  1
  O  O42  1  0.06232800  0.12436600  0.63828900  1
  O  O43  1  0.56232800  0.87563400  0.36171100  1
  O  O44  1  0.06232800  0.37563400  0.13828900  1
  O  O45  1  0.56232800  0.62436600  0.86171100  1
  O  O46  1  0.93767200  0.87563400  0.36171100  1
  O  O47  1  0.43767200  0.12436600  0.63828900  1
  O  O48  1  0.25000000  0.46829400  0.77359900  1
  O  O49  1  0.75000000  0.53170600  0.22640100  1
  O  O50  1  0.75000000  0.96829400  0.72640100  1
  O  O51  1  0.25000000  0.03170600  0.27359900  1
  O  O52  1  0.25000000  0.49362900  0.98876000  1
  O  O53  1  0.75000000  0.50637100  0.01124000  1
  O  O54  1  0.75000000  0.99362900  0.51124000  1
  O  O55  1  0.25000000  0.00637100  0.48876000  1
