# generated using pymatgen
data_MnAs2O7
_symmetry_space_group_name_H-M   'P 1'
_cell_length_a   9.31318500
_cell_length_b   6.94237600
_cell_length_c   9.63071261
_cell_angle_alpha   74.29205336
_cell_angle_beta   90.00000000
_cell_angle_gamma   90.00000000
_symmetry_Int_Tables_number   1
_chemical_formula_structural   MnAs2O7
_chemical_formula_sum   'Mn4 As8 O28'
_cell_volume   599.42533869
_cell_formula_units_Z   4
loop_
 _symmetry_equiv_pos_site_id
 _symmetry_equiv_pos_as_xyz
  1  'x, y, z'
loop_
 _atom_site_type_symbol
 _atom_site_label
 _atom_site_symmetry_multiplicity
 _atom_site_fract_x
 _atom_site_fract_y
 _atom_site_fract_z
 _atom_site_occupancy
  Mn  Mn0  1  0.93387500  0.20043200  0.69736800  1
  Mn  Mn1  1  0.43387500  0.79956800  0.80263200  1
  Mn  Mn2  1  0.06612500  0.79956800  0.30263200  1
  Mn  Mn3  1  0.56612500  0.20043200  0.19736800  1
  As  As4  1  0.74866400  0.58980900  0.75071200  1
  As  As5  1  0.24866400  0.41019100  0.74928800  1
  As  As6  1  0.25133600  0.41019100  0.24928800  1
  As  As7  1  0.75133600  0.58980900  0.25071200  1
  As  As8  1  0.70438100  0.96882400  0.96396600  1
  As  As9  1  0.20438100  0.03117600  0.53603400  1
  As  As10  1  0.29561900  0.03117600  0.03603400  1
  As  As11  1  0.79561900  0.96882400  0.46396600  1
  O  O12  1  0.68593400  0.16132700  0.03983800  1
  O  O13  1  0.18593400  0.83867300  0.46016200  1
  O  O14  1  0.31406600  0.83867300  0.96016200  1
  O  O15  1  0.81406600  0.16132700  0.53983800  1
  O  O16  1  0.56602600  0.62231100  0.74331800  1
  O  O17  1  0.06602600  0.37768900  0.75668200  1
  O  O18  1  0.43397400  0.37768900  0.25668200  1
  O  O19  1  0.93397400  0.62231100  0.24331800  1
  O  O20  1  0.83826200  0.62691500  0.89742800  1
  O  O21  1  0.33826200  0.37308500  0.60257200  1
  O  O22  1  0.16173800  0.37308500  0.10257200  1
  O  O23  1  0.66173800  0.62691500  0.39742800  1
  O  O24  1  0.83913000  0.74640000  0.59856600  1
  O  O25  1  0.33913000  0.25360000  0.90143400  1
  O  O26  1  0.16087000  0.25360000  0.40143400  1
  O  O27  1  0.66087000  0.74640000  0.09856600  1
  O  O28  1  0.91908100  0.97222300  0.33151200  1
  O  O29  1  0.41908100  0.02777700  0.16848800  1
  O  O30  1  0.08091900  0.02777700  0.66848800  1
  O  O31  1  0.58091900  0.97222300  0.83151200  1
  O  O32  1  0.72697300  0.35378100  0.23396200  1
  O  O33  1  0.22697300  0.64621900  0.26603800  1
  O  O34  1  0.27302700  0.64621900  0.76603800  1
  O  O35  1  0.77302700  0.35378100  0.73396200  1
  O  O36  1  0.62781400  0.96657800  0.38792100  1
  O  O37  1  0.12781400  0.03342200  0.11207900  1
  O  O38  1  0.37218600  0.03342200  0.61207900  1
  O  O39  1  0.87218600  0.96657800  0.88792100  1
