# generated using pymatgen
data_MgGe2WO6
_symmetry_space_group_name_H-M   'P 1'
_cell_length_a   8.37635066
_cell_length_b   8.37635066
_cell_length_c   5.03255179
_cell_angle_alpha   83.29109496
_cell_angle_beta   83.29109496
_cell_angle_gamma   64.32604236
_symmetry_Int_Tables_number   1
_chemical_formula_structural   MgGe2WO6
_chemical_formula_sum   'Mg2 Ge4 W2 O12'
_cell_volume   315.19502988
_cell_formula_units_Z   2
loop_
 _symmetry_equiv_pos_site_id
 _symmetry_equiv_pos_as_xyz
  1  'x, y, z'
loop_
 _atom_site_type_symbol
 _atom_site_label
 _atom_site_symmetry_multiplicity
 _atom_site_fract_x
 _atom_site_fract_y
 _atom_site_fract_z
 _atom_site_occupancy
  Mg  Mg0  1  0.65380000  0.34620000  0.25000000  1
  Mg  Mg1  1  0.34620000  0.65380000  0.75000000  1
  Ge  Ge2  1  0.56772000  0.77839500  0.20895300  1
  Ge  Ge3  1  0.22160500  0.43228000  0.29104700  1
  Ge  Ge4  1  0.43228000  0.22160500  0.79104700  1
  Ge  Ge5  1  0.77839500  0.56772000  0.70895300  1
  W  W6  1  0.10110800  0.89889200  0.25000000  1
  W  W7  1  0.89889200  0.10110800  0.75000000  1
  O  O8  1  0.66364400  0.54866000  0.41537000  1
  O  O9  1  0.45134000  0.33635600  0.08463000  1
  O  O10  1  0.33635600  0.45134000  0.58463000  1
  O  O11  1  0.54866000  0.66364400  0.91537000  1
  O  O12  1  0.82398800  0.32494900  0.89302400  1
  O  O13  1  0.67505100  0.17601200  0.60697600  1
  O  O14  1  0.17601200  0.67505100  0.10697600  1
  O  O15  1  0.32494900  0.82398800  0.39302400  1
  O  O16  1  0.85643800  0.99251000  0.09082900  1
  O  O17  1  0.00749000  0.14356200  0.40917100  1
  O  O18  1  0.14356200  0.00749000  0.90917100  1
  O  O19  1  0.99251000  0.85643800  0.59082900  1
