# generated using pymatgen
data_CaFeAs2O7
_symmetry_space_group_name_H-M   'P 1'
_cell_length_a   9.17433400
_cell_length_b   7.54914100
_cell_length_c   9.56394390
_cell_angle_alpha   68.83037813
_cell_angle_beta   90.00000000
_cell_angle_gamma   90.00000000
_symmetry_Int_Tables_number   1
_chemical_formula_structural   CaFeAs2O7
_chemical_formula_sum   'Ca4 Fe4 As8 O28'
_cell_volume   617.68224520
_cell_formula_units_Z   4
loop_
 _symmetry_equiv_pos_site_id
 _symmetry_equiv_pos_as_xyz
  1  'x, y, z'
loop_
 _atom_site_type_symbol
 _atom_site_label
 _atom_site_symmetry_multiplicity
 _atom_site_fract_x
 _atom_site_fract_y
 _atom_site_fract_z
 _atom_site_occupancy
  Ca  Ca0  1  0.06713400  0.74311200  0.92948000  1
  Ca  Ca1  1  0.56713400  0.25688800  0.57052000  1
  Ca  Ca2  1  0.93286600  0.25688800  0.07052000  1
  Ca  Ca3  1  0.43286600  0.74311200  0.42948000  1
  Fe  Fe4  1  0.94487700  0.19786400  0.69261400  1
  Fe  Fe5  1  0.44487700  0.80213600  0.80738600  1
  Fe  Fe6  1  0.05512300  0.80213600  0.30738600  1
  Fe  Fe7  1  0.55512300  0.19786400  0.19261400  1
  As  As8  1  0.76197100  0.58048500  0.73553100  1
  As  As9  1  0.26197100  0.41951500  0.76446900  1
  As  As10  1  0.23802900  0.41951500  0.26446900  1
  As  As11  1  0.73802900  0.58048500  0.23553100  1
  As  As12  1  0.70502200  0.98367000  0.95501000  1
  As  As13  1  0.20502200  0.01633000  0.54499000  1
  As  As14  1  0.29497800  0.01633000  0.04499000  1
  As  As15  1  0.79497800  0.98367000  0.45501000  1
  O  O16  1  0.69139000  0.14458800  0.04220600  1
  O  O17  1  0.19139000  0.85541200  0.45779400  1
  O  O18  1  0.30861000  0.85541200  0.95779400  1
  O  O19  1  0.80861000  0.14458800  0.54220600  1
  O  O20  1  0.58658400  0.65679100  0.72737600  1
  O  O21  1  0.08658400  0.34320900  0.77262400  1
  O  O22  1  0.41341600  0.34320900  0.27262400  1
  O  O23  1  0.91341600  0.65679100  0.22737600  1
  O  O24  1  0.86573000  0.56726200  0.88651900  1
  O  O25  1  0.36573000  0.43273800  0.61348100  1
  O  O26  1  0.13427000  0.43273800  0.11348100  1
  O  O27  1  0.63427000  0.56726200  0.38651900  1
  O  O28  1  0.85367100  0.75424700  0.57721000  1
  O  O29  1  0.35367100  0.24575300  0.92279000  1
  O  O30  1  0.14632900  0.24575300  0.42279000  1
  O  O31  1  0.64632900  0.75424700  0.07721000  1
  O  O32  1  0.91133700  0.01580800  0.30995800  1
  O  O33  1  0.41133700  0.98419200  0.19004200  1
  O  O34  1  0.08866300  0.98419200  0.69004200  1
  O  O35  1  0.58866300  0.01580800  0.80995800  1
  O  O36  1  0.73497500  0.37488500  0.20087100  1
  O  O37  1  0.23497500  0.62511500  0.29912900  1
  O  O38  1  0.26502500  0.62511500  0.79912900  1
  O  O39  1  0.76502500  0.37488500  0.70087100  1
  O  O40  1  0.61613100  0.98782900  0.40521800  1
  O  O41  1  0.11613100  0.01217100  0.09478200  1
  O  O42  1  0.38386900  0.01217100  0.59478200  1
  O  O43  1  0.88386900  0.98782900  0.90521800  1
