# generated using pymatgen
data_MgFeNiP2O9
_symmetry_space_group_name_H-M   'P 1'
_cell_length_a   6.28447300
_cell_length_b   7.24748800
_cell_length_c   14.20242800
_cell_angle_alpha   90.00000000
_cell_angle_beta   90.00000000
_cell_angle_gamma   90.00000000
_symmetry_Int_Tables_number   1
_chemical_formula_structural   MgFeNiP2O9
_chemical_formula_sum   'Mg4 Fe4 Ni4 P8 O36'
_cell_volume   646.87291293
_cell_formula_units_Z   4
loop_
 _symmetry_equiv_pos_site_id
 _symmetry_equiv_pos_as_xyz
  1  'x, y, z'
loop_
 _atom_site_type_symbol
 _atom_site_label
 _atom_site_symmetry_multiplicity
 _atom_site_fract_x
 _atom_site_fract_y
 _atom_site_fract_z
 _atom_site_occupancy
  Mg  Mg0  1  0.75000000  0.40900700  0.22400200  1
  Mg  Mg1  1  0.75000000  0.09099300  0.72400200  1
  Mg  Mg2  1  0.25000000  0.59099300  0.77599800  1
  Mg  Mg3  1  0.25000000  0.90900700  0.27599800  1
  Fe  Fe4  1  0.75000000  0.85447700  0.11783000  1
  Fe  Fe5  1  0.25000000  0.14552300  0.88217000  1
  Fe  Fe6  1  0.25000000  0.35447700  0.38217000  1
  Fe  Fe7  1  0.75000000  0.64552300  0.61783000  1
  Ni  Ni8  1  0.00000000  0.50000000  0.00000000  1
  Ni  Ni9  1  0.00000000  0.00000000  0.50000000  1
  Ni  Ni10  1  0.50000000  0.00000000  0.50000000  1
  Ni  Ni11  1  0.50000000  0.50000000  0.00000000  1
  P  P12  1  0.25000000  0.85755500  0.07010500  1
  P  P13  1  0.75000000  0.14244500  0.92989500  1
  P  P14  1  0.75000000  0.35755500  0.42989500  1
  P  P15  1  0.25000000  0.64244500  0.57010500  1
  P  P16  1  0.75000000  0.88143200  0.30372000  1
  P  P17  1  0.25000000  0.11856800  0.69628000  1
  P  P18  1  0.25000000  0.38143200  0.19628000  1
  P  P19  1  0.75000000  0.61856800  0.80372000  1
  O  O20  1  0.46096900  0.11027200  0.63829800  1
  O  O21  1  0.96096900  0.88972800  0.36170200  1
  O  O22  1  0.53903100  0.61027200  0.86170200  1
  O  O23  1  0.03903100  0.38972800  0.13829800  1
  O  O24  1  0.53903100  0.88972800  0.36170200  1
  O  O25  1  0.03903100  0.11027200  0.63829800  1
  O  O26  1  0.46096900  0.38972800  0.13829800  1
  O  O27  1  0.96096900  0.61027200  0.86170200  1
  O  O28  1  0.25000000  0.83340800  0.52183000  1
  O  O29  1  0.75000000  0.16659200  0.47817000  1
  O  O30  1  0.75000000  0.33340800  0.97817000  1
  O  O31  1  0.25000000  0.66659200  0.02183000  1
  O  O32  1  0.75000000  0.63352200  0.04910800  1
  O  O33  1  0.25000000  0.36647800  0.95089200  1
  O  O34  1  0.25000000  0.13352200  0.45089200  1
  O  O35  1  0.75000000  0.86647800  0.54910800  1
  O  O36  1  0.75000000  0.69992500  0.24265500  1
  O  O37  1  0.25000000  0.30007500  0.75734500  1
  O  O38  1  0.25000000  0.19992500  0.25734500  1
  O  O39  1  0.75000000  0.80007500  0.74265500  1
  O  O40  1  0.06261400  0.62809800  0.64040600  1
  O  O41  1  0.56261400  0.37190200  0.35959400  1
  O  O42  1  0.93738600  0.12809800  0.85959400  1
  O  O43  1  0.43738600  0.87190200  0.14040600  1
  O  O44  1  0.93738600  0.37190200  0.35959400  1
  O  O45  1  0.43738600  0.62809800  0.64040600  1
  O  O46  1  0.06261400  0.87190200  0.14040600  1
  O  O47  1  0.56261400  0.12809800  0.85959400  1
  O  O48  1  0.75000000  0.46245500  0.72743200  1
  O  O49  1  0.25000000  0.53754500  0.27256800  1
  O  O50  1  0.25000000  0.96245500  0.77256800  1
  O  O51  1  0.75000000  0.03754500  0.22743200  1
  O  O52  1  0.75000000  0.50677700  0.50370100  1
  O  O53  1  0.25000000  0.49322300  0.49629900  1
  O  O54  1  0.25000000  0.00677700  0.99629900  1
  O  O55  1  0.75000000  0.99322300  0.00370100  1
