# generated using pymatgen
data_TiZnCo(PO4)3
_symmetry_space_group_name_H-M   'P 1'
_cell_length_a   8.50779288
_cell_length_b   8.50779288
_cell_length_c   8.50779356
_cell_angle_alpha   60.91591086
_cell_angle_beta   60.91591086
_cell_angle_gamma   60.91591362
_symmetry_Int_Tables_number   1
_chemical_formula_structural   TiZnCo(PO4)3
_chemical_formula_sum   'Ti2 Zn2 Co2 P6 O24'
_cell_volume   444.43618888
_cell_formula_units_Z   2
loop_
 _symmetry_equiv_pos_site_id
 _symmetry_equiv_pos_as_xyz
  1  'x, y, z'
loop_
 _atom_site_type_symbol
 _atom_site_label
 _atom_site_symmetry_multiplicity
 _atom_site_fract_x
 _atom_site_fract_y
 _atom_site_fract_z
 _atom_site_occupancy
  Ti  Ti0  1  0.85583700  0.85583700  0.85583700  1
  Ti  Ti1  1  0.35583700  0.35583700  0.35583700  1
  Zn  Zn2  1  0.00452700  0.00452700  0.00452700  1
  Zn  Zn3  1  0.50452700  0.50452700  0.50452700  1
  Co  Co4  1  0.64654700  0.64654700  0.64654700  1
  Co  Co5  1  0.14654700  0.14654700  0.14654700  1
  P  P6  1  0.95415200  0.54380900  0.24876200  1
  P  P7  1  0.54380900  0.24876200  0.95415200  1
  P  P8  1  0.24876200  0.95415200  0.54380900  1
  P  P9  1  0.74876200  0.04380900  0.45415200  1
  P  P10  1  0.45415200  0.74876200  0.04380900  1
  P  P11  1  0.04380900  0.45415200  0.74876200  1
  O  O12  1  0.88874300  0.49400000  0.68019600  1
  O  O13  1  0.68019600  0.88874300  0.49400000  1
  O  O14  1  0.94526100  0.74086700  0.08620600  1
  O  O15  1  0.49400000  0.68019600  0.88874300  1
  O  O16  1  0.99400000  0.38874300  0.18019600  1
  O  O17  1  0.76042500  0.56110300  0.41090100  1
  O  O18  1  0.74086700  0.08620600  0.94526100  1
  O  O19  1  0.56110300  0.41090100  0.76042500  1
  O  O20  1  0.81252000  0.99601000  0.62013700  1
  O  O21  1  0.41090100  0.76042500  0.56110300  1
  O  O22  1  0.91090100  0.06110300  0.26042500  1
  O  O23  1  0.62013700  0.81252000  0.99601000  1
  O  O24  1  0.38874300  0.18019600  0.99400000  1
  O  O25  1  0.08620600  0.94526100  0.74086700  1
  O  O26  1  0.58620600  0.24086700  0.44526100  1
  O  O27  1  0.18019600  0.99400000  0.38874300  1
  O  O28  1  0.44526100  0.58620600  0.24086700  1
  O  O29  1  0.26042500  0.91090100  0.06110300  1
  O  O30  1  0.24086700  0.44526100  0.58620600  1
  O  O31  1  0.99601000  0.62013700  0.81252000  1
  O  O32  1  0.49601000  0.31252000  0.12013700  1
  O  O33  1  0.06110300  0.26042500  0.91090100  1
  O  O34  1  0.31252000  0.12013700  0.49601000  1
  O  O35  1  0.12013700  0.49601000  0.31252000  1
