# generated using pymatgen
data_TiZnFe(PO4)3
_symmetry_space_group_name_H-M   'P 1'
_cell_length_a   8.55370580
_cell_length_b   8.55370580
_cell_length_c   8.55370547
_cell_angle_alpha   60.50036411
_cell_angle_beta   60.50036411
_cell_angle_gamma   60.50036618
_symmetry_Int_Tables_number   1
_chemical_formula_structural   TiZnFe(PO4)3
_chemical_formula_sum   'Ti2 Zn2 Fe2 P6 O24'
_cell_volume   447.53955397
_cell_formula_units_Z   2
loop_
 _symmetry_equiv_pos_site_id
 _symmetry_equiv_pos_as_xyz
  1  'x, y, z'
loop_
 _atom_site_type_symbol
 _atom_site_label
 _atom_site_symmetry_multiplicity
 _atom_site_fract_x
 _atom_site_fract_y
 _atom_site_fract_z
 _atom_site_occupancy
  Ti  Ti0  1  0.14466500  0.14466500  0.14466500  1
  Ti  Ti1  1  0.64466500  0.64466500  0.64466500  1
  Zn  Zn2  1  0.99755100  0.99755100  0.99755100  1
  Zn  Zn3  1  0.49755100  0.49755100  0.49755100  1
  Fe  Fe4  1  0.35520300  0.35520300  0.35520300  1
  Fe  Fe5  1  0.85520300  0.85520300  0.85520300  1
  P  P6  1  0.45528000  0.04558200  0.75193600  1
  P  P7  1  0.75193600  0.45528000  0.04558200  1
  P  P8  1  0.04558200  0.75193600  0.45528000  1
  P  P9  1  0.95528000  0.25193600  0.54558200  1
  P  P10  1  0.25193600  0.54558200  0.95528000  1
  P  P11  1  0.54558200  0.95528000  0.25193600  1
  O  O12  1  0.50379900  0.11003600  0.31903600  1
  O  O13  1  0.11003600  0.31903600  0.50379900  1
  O  O14  1  0.25832300  0.05503200  0.91440600  1
  O  O15  1  0.31903600  0.50379900  0.11003600  1
  O  O16  1  0.61003600  0.00379900  0.81903600  1
  O  O17  1  0.43826700  0.24024500  0.58980000  1
  O  O18  1  0.91440600  0.25832300  0.05503200  1
  O  O19  1  0.58980000  0.43826700  0.24024500  1
  O  O20  1  0.00252600  0.18814600  0.38016700  1
  O  O21  1  0.24024500  0.58980000  0.43826700  1
  O  O22  1  0.93826700  0.08980000  0.74024500  1
  O  O23  1  0.18814600  0.38016700  0.00252600  1
  O  O24  1  0.81903600  0.61003600  0.00379900  1
  O  O25  1  0.05503200  0.91440600  0.25832300  1
  O  O26  1  0.75832300  0.41440600  0.55503200  1
  O  O27  1  0.00379900  0.81903600  0.61003600  1
  O  O28  1  0.41440600  0.55503200  0.75832300  1
  O  O29  1  0.08980000  0.74024500  0.93826700  1
  O  O30  1  0.55503200  0.75832300  0.41440600  1
  O  O31  1  0.38016700  0.00252600  0.18814600  1
  O  O32  1  0.68814600  0.50252600  0.88016700  1
  O  O33  1  0.74024500  0.93826700  0.08980000  1
  O  O34  1  0.88016700  0.68814600  0.50252600  1
  O  O35  1  0.50252600  0.88016700  0.68814600  1
