# generated using pymatgen
data_Ba2CdP3O11
_symmetry_space_group_name_H-M   'P 1'
_cell_length_a   7.56581445
_cell_length_b   7.56581445
_cell_length_c   7.39157376
_cell_angle_alpha   61.65276002
_cell_angle_beta   61.65276002
_cell_angle_gamma   44.06662414
_symmetry_Int_Tables_number   1
_chemical_formula_structural   Ba2CdP3O11
_chemical_formula_sum   'Ba2 Cd1 P3 O11'
_cell_volume   252.73200084
_cell_formula_units_Z   1
loop_
 _symmetry_equiv_pos_site_id
 _symmetry_equiv_pos_as_xyz
  1  'x, y, z'
loop_
 _atom_site_type_symbol
 _atom_site_label
 _atom_site_symmetry_multiplicity
 _atom_site_fract_x
 _atom_site_fract_y
 _atom_site_fract_z
 _atom_site_occupancy
  Ba  Ba0  1  0.99729100  0.99729100  0.00560000  1
  Ba  Ba1  1  0.60100500  0.60100500  0.42818900  1
  Cd  Cd2  1  0.29978900  0.29978900  0.94418100  1
  P  P3  1  0.29193500  0.29193500  0.36411800  1
  P  P4  1  0.91217700  0.91217700  0.62525000  1
  P  P5  1  0.66977800  0.66977800  0.88980500  1
  O  O6  1  0.08338900  0.52248400  0.22734200  1
  O  O7  1  0.52248400  0.08338900  0.22734200  1
  O  O8  1  0.70460300  0.14625000  0.73323900  1
  O  O9  1  0.14625000  0.70460300  0.73323900  1
  O  O10  1  0.44288600  0.88839600  0.01337700  1
  O  O11  1  0.88839600  0.44288600  0.01337700  1
  O  O12  1  0.57917100  0.57917100  0.83462800  1
  O  O13  1  0.99053200  0.99053200  0.38920500  1
  O  O14  1  0.17700900  0.17700900  0.56961200  1
  O  O15  1  0.38472000  0.38472000  0.41839900  1
  O  O16  1  0.78658600  0.78658600  0.66659800  1
