# generated using pymatgen
data_LaYbS3
_symmetry_space_group_name_H-M   'P 1'
_cell_length_a   7.16010200
_cell_length_b   7.78410100
_cell_length_c   8.94871400
_cell_angle_alpha   90.00000000
_cell_angle_beta   90.00000000
_cell_angle_gamma   90.00000000
_symmetry_Int_Tables_number   1
_chemical_formula_structural   LaYbS3
_chemical_formula_sum   'La4 Yb4 S12'
_cell_volume   498.75619123
_cell_formula_units_Z   4
loop_
 _symmetry_equiv_pos_site_id
 _symmetry_equiv_pos_as_xyz
  1  'x, y, z'
loop_
 _atom_site_type_symbol
 _atom_site_label
 _atom_site_symmetry_multiplicity
 _atom_site_fract_x
 _atom_site_fract_y
 _atom_site_fract_z
 _atom_site_occupancy
  La  La0  1  0.47668300  0.59974500  0.50746900  1
  La  La1  1  0.52331700  0.40025500  0.00746900  1
  La  La2  1  0.97668300  0.90025500  0.00746900  1
  La  La3  1  0.02331700  0.09974500  0.50746900  1
  Yb  Yb4  1  0.99888900  0.50648300  0.25904800  1
  Yb  Yb5  1  0.00111100  0.49351700  0.75904800  1
  Yb  Yb6  1  0.49888900  0.99351700  0.75904800  1
  Yb  Yb7  1  0.50111100  0.00648300  0.25904800  1
  S  S8  1  0.18251000  0.80460900  0.67331400  1
  S  S9  1  0.81749000  0.19539100  0.17331400  1
  S  S10  1  0.68251000  0.69539100  0.17331400  1
  S  S11  1  0.31749000  0.30460900  0.67331400  1
  S  S12  1  0.18568700  0.81492600  0.33915200  1
  S  S13  1  0.81431300  0.18507400  0.83915200  1
  S  S14  1  0.68568700  0.68507400  0.83915200  1
  S  S15  1  0.31431300  0.31492600  0.33915200  1
  S  S16  1  0.18816600  0.58941200  0.00701700  1
  S  S17  1  0.81183400  0.41058800  0.50701700  1
  S  S18  1  0.68816600  0.91058800  0.50701700  1
  S  S19  1  0.31183400  0.08941200  0.00701700  1
