# generated using pymatgen
data_TbScS3
_symmetry_space_group_name_H-M   'P 1'
_cell_length_a   6.41096300
_cell_length_b   7.04723500
_cell_length_c   9.55581700
_cell_angle_alpha   90.00000000
_cell_angle_beta   90.00000000
_cell_angle_gamma   90.00000000
_symmetry_Int_Tables_number   1
_chemical_formula_structural   TbScS3
_chemical_formula_sum   'Tb4 Sc4 S12'
_cell_volume   431.72763461
_cell_formula_units_Z   4
loop_
 _symmetry_equiv_pos_site_id
 _symmetry_equiv_pos_as_xyz
  1  'x, y, z'
loop_
 _atom_site_type_symbol
 _atom_site_label
 _atom_site_symmetry_multiplicity
 _atom_site_fract_x
 _atom_site_fract_y
 _atom_site_fract_z
 _atom_site_occupancy
  Tb  Tb0  1  0.54085100  0.39926100  0.75000000  1
  Tb  Tb1  1  0.45914900  0.60073900  0.25000000  1
  Tb  Tb2  1  0.04085100  0.10073900  0.25000000  1
  Tb  Tb3  1  0.95914900  0.89926100  0.75000000  1
  Sc  Sc4  1  0.00000000  0.50000000  0.00000000  1
  Sc  Sc5  1  0.00000000  0.50000000  0.50000000  1
  Sc  Sc6  1  0.50000000  0.00000000  0.50000000  1
  Sc  Sc7  1  0.50000000  0.00000000  0.00000000  1
  S  S8  1  0.82510100  0.18684400  0.57048800  1
  S  S9  1  0.17489900  0.81315600  0.07048800  1
  S  S10  1  0.32510100  0.31315600  0.07048800  1
  S  S11  1  0.67489900  0.68684400  0.57048800  1
  S  S12  1  0.82510100  0.18684400  0.92951200  1
  S  S13  1  0.17489900  0.81315600  0.42951200  1
  S  S14  1  0.32510100  0.31315600  0.42951200  1
  S  S15  1  0.67489900  0.68684400  0.92951200  1
  S  S16  1  0.85697500  0.45325000  0.25000000  1
  S  S17  1  0.14302500  0.54675000  0.75000000  1
  S  S18  1  0.35697500  0.04675000  0.75000000  1
  S  S19  1  0.64302500  0.95325000  0.25000000  1
