# generated using pymatgen
data_Ce2Fe12Co5
_symmetry_space_group_name_H-M   'P 1'
_cell_length_a   6.41325634
_cell_length_b   6.41325634
_cell_length_c   6.41325700
_cell_angle_alpha   82.09424856
_cell_angle_beta   82.09424856
_cell_angle_gamma   82.09424386
_symmetry_Int_Tables_number   1
_chemical_formula_structural   Ce2Fe12Co5
_chemical_formula_sum   'Ce2 Fe12 Co5'
_cell_volume   256.88743922
_cell_formula_units_Z   1
loop_
 _symmetry_equiv_pos_site_id
 _symmetry_equiv_pos_as_xyz
  1  'x, y, z'
loop_
 _atom_site_type_symbol
 _atom_site_label
 _atom_site_symmetry_multiplicity
 _atom_site_fract_x
 _atom_site_fract_y
 _atom_site_fract_z
 _atom_site_occupancy
  Ce  Ce0  1  0.65487300  0.65487300  0.65487300  1
  Ce  Ce1  1  0.34512700  0.34512700  0.34512700  1
  Fe  Fe2  1  0.71011100  0.28988900  0.00000000  1
  Fe  Fe3  1  0.00000000  0.71011100  0.28988900  1
  Fe  Fe4  1  0.28988900  0.00000000  0.71011100  1
  Fe  Fe5  1  0.00000000  0.28988900  0.71011100  1
  Fe  Fe6  1  0.71011100  0.00000000  0.28988900  1
  Fe  Fe7  1  0.28988900  0.71011100  0.00000000  1
  Fe  Fe8  1  0.34051200  0.34051200  0.84755100  1
  Fe  Fe9  1  0.84755100  0.34051200  0.34051200  1
  Fe  Fe10  1  0.34051200  0.84755100  0.34051200  1
  Fe  Fe11  1  0.65948800  0.65948800  0.15244900  1
  Fe  Fe12  1  0.15244900  0.65948800  0.65948800  1
  Fe  Fe13  1  0.65948800  0.15244900  0.65948800  1
  Co  Co14  1  0.00000000  0.00000000  0.50000000  1
  Co  Co15  1  0.50000000  0.00000000  0.00000000  1
  Co  Co16  1  0.00000000  0.50000000  0.00000000  1
  Co  Co17  1  0.90729800  0.90729800  0.90729800  1
  Co  Co18  1  0.09270200  0.09270200  0.09270200  1
