# generated using pymatgen
data_UNiSe3
_symmetry_space_group_name_H-M   'P 1'
_cell_length_a   6.25507400
_cell_length_b   7.38731000
_cell_length_c   8.84020000
_cell_angle_alpha   90.00000000
_cell_angle_beta   90.00000000
_cell_angle_gamma   90.00000000
_symmetry_Int_Tables_number   1
_chemical_formula_structural   UNiSe3
_chemical_formula_sum   'U4 Ni4 Se12'
_cell_volume   408.48947072
_cell_formula_units_Z   4
loop_
 _symmetry_equiv_pos_site_id
 _symmetry_equiv_pos_as_xyz
  1  'x, y, z'
loop_
 _atom_site_type_symbol
 _atom_site_label
 _atom_site_symmetry_multiplicity
 _atom_site_fract_x
 _atom_site_fract_y
 _atom_site_fract_z
 _atom_site_occupancy
  U  U0  1  0.43350600  0.86911900  0.25000000  1
  U  U1  1  0.06649400  0.36911900  0.25000000  1
  U  U2  1  0.56649400  0.13088100  0.75000000  1
  U  U3  1  0.93350600  0.63088100  0.75000000  1
  Ni  Ni4  1  0.50000000  0.50000000  0.00000000  1
  Ni  Ni5  1  0.00000000  0.00000000  0.50000000  1
  Ni  Ni6  1  0.50000000  0.50000000  0.50000000  1
  Ni  Ni7  1  0.00000000  0.00000000  0.00000000  1
  Se  Se8  1  0.64930100  0.53845200  0.25000000  1
  Se  Se9  1  0.85069900  0.03845200  0.25000000  1
  Se  Se10  1  0.35069900  0.46154800  0.75000000  1
  Se  Se11  1  0.14930100  0.96154800  0.75000000  1
  Se  Se12  1  0.66592600  0.82793700  0.55127200  1
  Se  Se13  1  0.83407400  0.32793700  0.94872800  1
  Se  Se14  1  0.33407400  0.17206300  0.05127200  1
  Se  Se15  1  0.16592600  0.67206300  0.44872800  1
  Se  Se16  1  0.33407400  0.17206300  0.44872800  1
  Se  Se17  1  0.16592600  0.67206300  0.05127200  1
  Se  Se18  1  0.66592600  0.82793700  0.94872800  1
  Se  Se19  1  0.83407400  0.32793700  0.55127200  1
