# generated using pymatgen
data_TbMnO3
_symmetry_space_group_name_H-M   'P 1'
_cell_length_a   3.40710200
_cell_length_b   6.03771500
_cell_length_c   13.16520800
_cell_angle_alpha   90.00000000
_cell_angle_beta   90.00000000
_cell_angle_gamma   90.00000000
_symmetry_Int_Tables_number   1
_chemical_formula_structural   TbMnO3
_chemical_formula_sum   'Tb4 Mn4 O12'
_cell_volume   270.82295316
_cell_formula_units_Z   4
loop_
 _symmetry_equiv_pos_site_id
 _symmetry_equiv_pos_as_xyz
  1  'x, y, z'
loop_
 _atom_site_type_symbol
 _atom_site_label
 _atom_site_symmetry_multiplicity
 _atom_site_fract_x
 _atom_site_fract_y
 _atom_site_fract_z
 _atom_site_occupancy
  Tb  Tb0  1  0.74639500  0.74422700  0.25000000  1
  Tb  Tb1  1  0.75360500  0.24422700  0.25000000  1
  Tb  Tb2  1  0.25360500  0.25577300  0.75000000  1
  Tb  Tb3  1  0.24639500  0.75577300  0.75000000  1
  Mn  Mn4  1  0.50000000  0.50000000  0.00000000  1
  Mn  Mn5  1  0.00000000  0.00000000  0.50000000  1
  Mn  Mn6  1  0.50000000  0.50000000  0.50000000  1
  Mn  Mn7  1  0.00000000  0.00000000  0.00000000  1
  O  O8  1  0.24518700  0.99284900  0.25000000  1
  O  O9  1  0.25481300  0.49284900  0.25000000  1
  O  O10  1  0.75481300  0.00715100  0.75000000  1
  O  O11  1  0.74518700  0.50715100  0.75000000  1
  O  O12  1  0.77093400  0.74011400  0.07678000  1
  O  O13  1  0.72906600  0.24011400  0.42322000  1
  O  O14  1  0.22906600  0.25988600  0.57678000  1
  O  O15  1  0.27093400  0.75988600  0.92322000  1
  O  O16  1  0.22906600  0.25988600  0.92322000  1
  O  O17  1  0.27093400  0.75988600  0.57678000  1
  O  O18  1  0.77093400  0.74011400  0.42322000  1
  O  O19  1  0.72906600  0.24011400  0.07678000  1
