# generated using pymatgen
data_KNbF6
_symmetry_space_group_name_H-M   'P 1'
_cell_length_a   5.35312700
_cell_length_b   5.35312700
_cell_length_c   10.06038400
_cell_angle_alpha   90.00000000
_cell_angle_beta   90.00000000
_cell_angle_gamma   90.00000000
_symmetry_Int_Tables_number   1
_chemical_formula_structural   KNbF6
_chemical_formula_sum   'K2 Nb2 F12'
_cell_volume   288.29004879
_cell_formula_units_Z   2
loop_
 _symmetry_equiv_pos_site_id
 _symmetry_equiv_pos_as_xyz
  1  'x, y, z'
loop_
 _atom_site_type_symbol
 _atom_site_label
 _atom_site_symmetry_multiplicity
 _atom_site_fract_x
 _atom_site_fract_y
 _atom_site_fract_z
 _atom_site_occupancy
  K  K0  1  0.50000000  0.50000000  0.50000000  1
  K  K1  1  0.50000000  0.50000000  0.00000000  1
  Nb  Nb2  1  0.00000000  0.00000000  0.25000000  1
  Nb  Nb3  1  0.00000000  0.00000000  0.75000000  1
  F  F4  1  0.74234900  0.25765100  0.25000000  1
  F  F5  1  0.25765100  0.74234900  0.25000000  1
  F  F6  1  0.74234900  0.74234900  0.75000000  1
  F  F7  1  0.25765100  0.25765100  0.75000000  1
  F  F8  1  0.17138000  0.19168500  0.38583900  1
  F  F9  1  0.82862000  0.80831500  0.38583900  1
  F  F10  1  0.17138000  0.80831500  0.88583900  1
  F  F11  1  0.82862000  0.19168500  0.88583900  1
  F  F12  1  0.19168500  0.82862000  0.61416100  1
  F  F13  1  0.80831500  0.17138000  0.61416100  1
  F  F14  1  0.80831500  0.82862000  0.11416100  1
  F  F15  1  0.19168500  0.17138000  0.11416100  1
