# generated using pymatgen
data_Tb5Ga3
_symmetry_space_group_name_H-M   'P 1'
_cell_length_a   8.92827383
_cell_length_b   8.92827383
_cell_length_c   8.92827383
_cell_angle_alpha   128.90580247
_cell_angle_beta   128.90580247
_cell_angle_gamma   75.16218882
_symmetry_Int_Tables_number   1
_chemical_formula_structural   Tb5Ga3
_chemical_formula_sum   'Tb10 Ga6'
_cell_volume   419.58587153
_cell_formula_units_Z   2
loop_
 _symmetry_equiv_pos_site_id
 _symmetry_equiv_pos_as_xyz
  1  'x, y, z'
loop_
 _atom_site_type_symbol
 _atom_site_label
 _atom_site_symmetry_multiplicity
 _atom_site_fract_x
 _atom_site_fract_y
 _atom_site_fract_z
 _atom_site_occupancy
  Tb  Tb0  1  0.50000000  0.50000000  0.00000000  1
  Tb  Tb1  1  0.00000000  0.00000000  0.00000000  1
  Tb  Tb2  1  0.52268700  0.02268700  0.84030700  1
  Tb  Tb3  1  0.18238000  0.68238000  0.15969300  1
  Tb  Tb4  1  0.02268700  0.18238000  0.50000000  1
  Tb  Tb5  1  0.68238000  0.52268700  0.50000000  1
  Tb  Tb6  1  0.47731300  0.97731300  0.15969300  1
  Tb  Tb7  1  0.81762000  0.31762000  0.84030700  1
  Tb  Tb8  1  0.97731300  0.81762000  0.50000000  1
  Tb  Tb9  1  0.31762000  0.47731300  0.50000000  1
  Ga  Ga10  1  0.25000000  0.25000000  0.00000000  1
  Ga  Ga11  1  0.75000000  0.75000000  0.00000000  1
  Ga  Ga12  1  0.87813000  0.37813000  0.25625900  1
  Ga  Ga13  1  0.12187000  0.62187000  0.74374100  1
  Ga  Ga14  1  0.37813000  0.12187000  0.50000000  1
  Ga  Ga15  1  0.62187000  0.87813000  0.50000000  1
