# generated using pymatgen
data_Ti2O3
_symmetry_space_group_name_H-M   'P 1'
_cell_length_a   2.85498600
_cell_length_b   7.88040500
_cell_length_c   8.20830500
_cell_angle_alpha   90.00000000
_cell_angle_beta   90.00000000
_cell_angle_gamma   90.00000000
_symmetry_Int_Tables_number   1
_chemical_formula_structural   Ti2O3
_chemical_formula_sum   'Ti8 O12'
_cell_volume   184.67410638
_cell_formula_units_Z   4
loop_
 _symmetry_equiv_pos_site_id
 _symmetry_equiv_pos_as_xyz
  1  'x, y, z'
loop_
 _atom_site_type_symbol
 _atom_site_label
 _atom_site_symmetry_multiplicity
 _atom_site_fract_x
 _atom_site_fract_y
 _atom_site_fract_z
 _atom_site_occupancy
  Ti  Ti0  1  0.25000000  0.02994100  0.68400500  1
  Ti  Ti1  1  0.25000000  0.52994100  0.81599500  1
  Ti  Ti2  1  0.75000000  0.97005900  0.31599500  1
  Ti  Ti3  1  0.75000000  0.47005900  0.18400500  1
  Ti  Ti4  1  0.25000000  0.19593600  0.01829700  1
  Ti  Ti5  1  0.25000000  0.69593600  0.48170300  1
  Ti  Ti6  1  0.75000000  0.80406400  0.98170300  1
  Ti  Ti7  1  0.75000000  0.30406400  0.51829700  1
  O  O8  1  0.25000000  0.94324000  0.12509700  1
  O  O9  1  0.25000000  0.44324000  0.37490300  1
  O  O10  1  0.75000000  0.05676000  0.87490300  1
  O  O11  1  0.75000000  0.55676000  0.62509700  1
  O  O12  1  0.25000000  0.12083500  0.44666700  1
  O  O13  1  0.25000000  0.62083500  0.05333300  1
  O  O14  1  0.75000000  0.87916500  0.55333300  1
  O  O15  1  0.75000000  0.37916500  0.94666700  1
  O  O16  1  0.25000000  0.79202800  0.81073800  1
  O  O17  1  0.25000000  0.29202800  0.68926200  1
  O  O18  1  0.75000000  0.20797200  0.18926200  1
  O  O19  1  0.75000000  0.70797200  0.31073800  1
