# generated using pymatgen
data_HoGa3
_symmetry_space_group_name_H-M   'P 1'
_cell_length_a   6.15561305
_cell_length_b   6.15561305
_cell_length_c   9.52994400
_cell_angle_alpha   90.00000000
_cell_angle_beta   90.00000000
_cell_angle_gamma   119.99998976
_symmetry_Int_Tables_number   1
_chemical_formula_structural   HoGa3
_chemical_formula_sum   'Ho4 Ga12'
_cell_volume   312.72575390
_cell_formula_units_Z   4
loop_
 _symmetry_equiv_pos_site_id
 _symmetry_equiv_pos_as_xyz
  1  'x, y, z'
loop_
 _atom_site_type_symbol
 _atom_site_label
 _atom_site_symmetry_multiplicity
 _atom_site_fract_x
 _atom_site_fract_y
 _atom_site_fract_z
 _atom_site_occupancy
  Ho  Ho0  1  0.00000000  0.00000000  0.50000000  1
  Ho  Ho1  1  0.00000000  0.00000000  0.00000000  1
  Ho  Ho2  1  0.33333300  0.66666700  0.25000000  1
  Ho  Ho3  1  0.66666700  0.33333300  0.75000000  1
  Ga  Ga4  1  0.50000000  0.50000000  0.50000000  1
  Ga  Ga5  1  0.50000000  0.00000000  0.50000000  1
  Ga  Ga6  1  0.00000000  0.50000000  0.50000000  1
  Ga  Ga7  1  0.50000000  0.50000000  0.00000000  1
  Ga  Ga8  1  0.50000000  0.00000000  0.00000000  1
  Ga  Ga9  1  0.00000000  0.50000000  0.00000000  1
  Ga  Ga10  1  0.81444100  0.62888200  0.25000000  1
  Ga  Ga11  1  0.37111800  0.18555900  0.25000000  1
  Ga  Ga12  1  0.81444100  0.18555900  0.25000000  1
  Ga  Ga13  1  0.18555900  0.37111800  0.75000000  1
  Ga  Ga14  1  0.62888200  0.81444100  0.75000000  1
  Ga  Ga15  1  0.18555900  0.81444100  0.75000000  1
