# generated using pymatgen
data_Yb5Sn3
_symmetry_space_group_name_H-M   'P 1'
_cell_length_a   9.55209062
_cell_length_b   9.55209062
_cell_length_c   9.55209062
_cell_angle_alpha   129.66273532
_cell_angle_beta   129.66273532
_cell_angle_gamma   73.94651618
_symmetry_Int_Tables_number   1
_chemical_formula_structural   Yb5Sn3
_chemical_formula_sum   'Yb10 Sn6'
_cell_volume   503.74922339
_cell_formula_units_Z   2
loop_
 _symmetry_equiv_pos_site_id
 _symmetry_equiv_pos_as_xyz
  1  'x, y, z'
loop_
 _atom_site_type_symbol
 _atom_site_label
 _atom_site_symmetry_multiplicity
 _atom_site_fract_x
 _atom_site_fract_y
 _atom_site_fract_z
 _atom_site_occupancy
  Yb  Yb0  1  0.50000000  0.50000000  0.00000000  1
  Yb  Yb1  1  0.00000000  0.00000000  0.00000000  1
  Yb  Yb2  1  0.53126300  0.03126300  0.84888300  1
  Yb  Yb3  1  0.18238000  0.68238000  0.15111700  1
  Yb  Yb4  1  0.03126300  0.18238000  0.50000000  1
  Yb  Yb5  1  0.68238000  0.53126300  0.50000000  1
  Yb  Yb6  1  0.46873700  0.96873700  0.15111700  1
  Yb  Yb7  1  0.81762000  0.31762000  0.84888300  1
  Yb  Yb8  1  0.96873700  0.81762000  0.50000000  1
  Yb  Yb9  1  0.31762000  0.46873700  0.50000000  1
  Sn  Sn10  1  0.25000000  0.25000000  0.00000000  1
  Sn  Sn11  1  0.75000000  0.75000000  0.00000000  1
  Sn  Sn12  1  0.87401200  0.37401200  0.24802300  1
  Sn  Sn13  1  0.12598800  0.62598800  0.75197700  1
  Sn  Sn14  1  0.37401200  0.12598800  0.50000000  1
  Sn  Sn15  1  0.62598800  0.87401200  0.50000000  1
