# generated using pymatgen
data_Ca3UO6
_symmetry_space_group_name_H-M   'P 1'
_cell_length_a   5.98232900
_cell_length_b   5.76153900
_cell_length_c   8.37781533
_cell_angle_alpha   89.54831435
_cell_angle_beta   90.00000000
_cell_angle_gamma   90.00000000
_symmetry_Int_Tables_number   1
_chemical_formula_structural   Ca3UO6
_chemical_formula_sum   'Ca6 U2 O12'
_cell_volume   288.75272221
_cell_formula_units_Z   2
loop_
 _symmetry_equiv_pos_site_id
 _symmetry_equiv_pos_as_xyz
  1  'x, y, z'
loop_
 _atom_site_type_symbol
 _atom_site_label
 _atom_site_symmetry_multiplicity
 _atom_site_fract_x
 _atom_site_fract_y
 _atom_site_fract_z
 _atom_site_occupancy
  Ca  Ca0  1  0.52193000  0.24997200  0.25025300  1
  Ca  Ca1  1  0.02193000  0.75002800  0.74974700  1
  Ca  Ca2  1  0.07223600  0.25857700  0.00637600  1
  Ca  Ca3  1  0.57223600  0.74142300  0.99362400  1
  Ca  Ca4  1  0.46821200  0.76774800  0.50823800  1
  Ca  Ca5  1  0.96821200  0.23225200  0.49176200  1
  U  U6  1  0.52329200  0.25571100  0.74853900  1
  U  U7  1  0.02329200  0.74428900  0.25146100  1
  O  O8  1  0.08878000  0.61891000  0.48320300  1
  O  O9  1  0.58878000  0.38109000  0.51679700  1
  O  O10  1  0.35110200  0.55620000  0.80309300  1
  O  O11  1  0.85110200  0.44380000  0.19690700  1
  O  O12  1  0.23420200  0.07975800  0.67221500  1
  O  O13  1  0.73420200  0.92024200  0.32778500  1
  O  O14  1  0.45383100  0.12703900  0.98161800  1
  O  O15  1  0.95383100  0.87296100  0.01838200  1
  O  O16  1  0.20345300  0.03787700  0.31002500  1
  O  O17  1  0.70345300  0.96212300  0.68997500  1
  O  O18  1  0.31206200  0.57502000  0.17072300  1
  O  O19  1  0.81206200  0.42498000  0.82927700  1
