# generated using pymatgen
data_UCoSe3
_symmetry_space_group_name_H-M   'P 1'
_cell_length_a   6.22802000
_cell_length_b   7.16554400
_cell_length_c   8.92309000
_cell_angle_alpha   90.00000000
_cell_angle_beta   90.00000000
_cell_angle_gamma   90.00000000
_symmetry_Int_Tables_number   1
_chemical_formula_structural   UCoSe3
_chemical_formula_sum   'U4 Co4 Se12'
_cell_volume   398.21208788
_cell_formula_units_Z   4
loop_
 _symmetry_equiv_pos_site_id
 _symmetry_equiv_pos_as_xyz
  1  'x, y, z'
loop_
 _atom_site_type_symbol
 _atom_site_label
 _atom_site_symmetry_multiplicity
 _atom_site_fract_x
 _atom_site_fract_y
 _atom_site_fract_z
 _atom_site_occupancy
  U  U0  1  0.42751100  0.86796700  0.25000000  1
  U  U1  1  0.07248900  0.36796700  0.25000000  1
  U  U2  1  0.57248900  0.13203300  0.75000000  1
  U  U3  1  0.92751100  0.63203300  0.75000000  1
  Co  Co4  1  0.50000000  0.50000000  0.00000000  1
  Co  Co5  1  0.00000000  0.00000000  0.50000000  1
  Co  Co6  1  0.50000000  0.50000000  0.50000000  1
  Co  Co7  1  0.00000000  0.00000000  0.00000000  1
  Se  Se8  1  0.65370800  0.53633500  0.25000000  1
  Se  Se9  1  0.84629200  0.03633500  0.25000000  1
  Se  Se10  1  0.34629200  0.46366500  0.75000000  1
  Se  Se11  1  0.15370800  0.96366500  0.75000000  1
  Se  Se12  1  0.65590100  0.82047800  0.55099500  1
  Se  Se13  1  0.84409900  0.32047800  0.94900500  1
  Se  Se14  1  0.34409900  0.17952200  0.05099500  1
  Se  Se15  1  0.15590100  0.67952200  0.44900500  1
  Se  Se16  1  0.34409900  0.17952200  0.44900500  1
  Se  Se17  1  0.15590100  0.67952200  0.05099500  1
  Se  Se18  1  0.65590100  0.82047800  0.94900500  1
  Se  Se19  1  0.84409900  0.32047800  0.55099500  1
