# generated using pymatgen
data_Ho5In3
_symmetry_space_group_name_H-M   'P 1'
_cell_length_a   9.01839957
_cell_length_b   9.01839957
_cell_length_c   6.66895900
_cell_angle_alpha   90.00000000
_cell_angle_beta   90.00000000
_cell_angle_gamma   119.99999681
_symmetry_Int_Tables_number   1
_chemical_formula_structural   Ho5In3
_chemical_formula_sum   'Ho10 In6'
_cell_volume   469.72928756
_cell_formula_units_Z   2
loop_
 _symmetry_equiv_pos_site_id
 _symmetry_equiv_pos_as_xyz
  1  'x, y, z'
loop_
 _atom_site_type_symbol
 _atom_site_label
 _atom_site_symmetry_multiplicity
 _atom_site_fract_x
 _atom_site_fract_y
 _atom_site_fract_z
 _atom_site_occupancy
  Ho  Ho0  1  0.66666700  0.33333300  0.00000000  1
  Ho  Ho1  1  0.33333300  0.66666700  0.00000000  1
  Ho  Ho2  1  0.33333300  0.66666700  0.50000000  1
  Ho  Ho3  1  0.66666700  0.33333300  0.50000000  1
  Ho  Ho4  1  0.74983400  0.74983400  0.75000000  1
  Ho  Ho5  1  0.25016600  0.00000000  0.75000000  1
  Ho  Ho6  1  0.00000000  0.25016600  0.75000000  1
  Ho  Ho7  1  0.25016600  0.25016600  0.25000000  1
  Ho  Ho8  1  0.74983400  0.00000000  0.25000000  1
  Ho  Ho9  1  0.00000000  0.74983400  0.25000000  1
  In  In10  1  0.39368900  0.39368900  0.75000000  1
  In  In11  1  0.60631100  0.00000000  0.75000000  1
  In  In12  1  0.00000000  0.60631100  0.75000000  1
  In  In13  1  0.60631100  0.60631100  0.25000000  1
  In  In14  1  0.39368900  0.00000000  0.25000000  1
  In  In15  1  0.00000000  0.39368900  0.25000000  1
