# generated using pymatgen
data_NdBS3
_symmetry_space_group_name_H-M   'P 1'
_cell_length_a   6.07159000
_cell_length_b   7.57325000
_cell_length_c   8.92743200
_cell_angle_alpha   90.00000000
_cell_angle_beta   90.00000000
_cell_angle_gamma   90.00000000
_symmetry_Int_Tables_number   1
_chemical_formula_structural   NdBS3
_chemical_formula_sum   'Nd4 B4 S12'
_cell_volume   410.49822295
_cell_formula_units_Z   4
loop_
 _symmetry_equiv_pos_site_id
 _symmetry_equiv_pos_as_xyz
  1  'x, y, z'
loop_
 _atom_site_type_symbol
 _atom_site_label
 _atom_site_symmetry_multiplicity
 _atom_site_fract_x
 _atom_site_fract_y
 _atom_site_fract_z
 _atom_site_occupancy
  Nd  Nd0  1  0.93103000  0.38624700  0.25833500  1
  Nd  Nd1  1  0.06897000  0.61375300  0.75833500  1
  Nd  Nd2  1  0.43103000  0.11375300  0.75833500  1
  Nd  Nd3  1  0.56897000  0.88624700  0.25833500  1
  B  B4  1  0.10129200  0.85242500  0.42760700  1
  B  B5  1  0.89870800  0.14757500  0.92760700  1
  B  B6  1  0.60129200  0.64757500  0.92760700  1
  B  B7  1  0.39870800  0.35242500  0.42760700  1
  S  S8  1  0.60581300  0.49937900  0.76872700  1
  S  S9  1  0.39418700  0.50062100  0.26872700  1
  S  S10  1  0.10581300  0.00062100  0.26872700  1
  S  S11  1  0.89418700  0.99937900  0.76872700  1
  S  S12  1  0.83639100  0.67714400  0.05243400  1
  S  S13  1  0.16360900  0.32285600  0.55243400  1
  S  S14  1  0.33639100  0.82285600  0.55243400  1
  S  S15  1  0.66360900  0.17714400  0.05243400  1
  S  S16  1  0.36848700  0.79489300  0.95897700  1
  S  S17  1  0.63151300  0.20510700  0.45897700  1
  S  S18  1  0.86848700  0.70510700  0.45897700  1
  S  S19  1  0.13151300  0.29489300  0.95897700  1
