# generated using pymatgen
data_Ir2S3
_symmetry_space_group_name_H-M   'P 1'
_cell_length_a   6.06627000
_cell_length_b   6.19618900
_cell_length_c   8.55508200
_cell_angle_alpha   90.00000000
_cell_angle_beta   90.00000000
_cell_angle_gamma   90.00000000
_symmetry_Int_Tables_number   1
_chemical_formula_structural   Ir2S3
_chemical_formula_sum   'Ir8 S12'
_cell_volume   321.56633003
_cell_formula_units_Z   4
loop_
 _symmetry_equiv_pos_site_id
 _symmetry_equiv_pos_as_xyz
  1  'x, y, z'
loop_
 _atom_site_type_symbol
 _atom_site_label
 _atom_site_symmetry_multiplicity
 _atom_site_fract_x
 _atom_site_fract_y
 _atom_site_fract_z
 _atom_site_occupancy
  Ir  Ir0  1  0.74918400  0.53042700  0.10828300  1
  Ir  Ir1  1  0.75081600  0.03042700  0.39171700  1
  Ir  Ir2  1  0.75081600  0.46957300  0.60828300  1
  Ir  Ir3  1  0.74918400  0.96957300  0.89171700  1
  Ir  Ir4  1  0.25081600  0.46957300  0.89171700  1
  Ir  Ir5  1  0.24918400  0.96957300  0.60828300  1
  Ir  Ir6  1  0.24918400  0.53042700  0.39171700  1
  Ir  Ir7  1  0.25081600  0.03042700  0.10828300  1
  S  S8  1  0.60978600  0.89242700  0.15013100  1
  S  S9  1  0.89021400  0.39242700  0.34986900  1
  S  S10  1  0.89021400  0.10757300  0.65013100  1
  S  S11  1  0.60978600  0.60757300  0.84986900  1
  S  S12  1  0.39021400  0.10757300  0.84986900  1
  S  S13  1  0.10978600  0.60757300  0.65013100  1
  S  S14  1  0.10978600  0.89242700  0.34986900  1
  S  S15  1  0.39021400  0.39242700  0.15013100  1
  S  S16  1  0.04478700  0.75000000  0.00000000  1
  S  S17  1  0.45521300  0.25000000  0.50000000  1
  S  S18  1  0.95521300  0.25000000  0.00000000  1
  S  S19  1  0.54478700  0.75000000  0.50000000  1
