# generated using pymatgen
data_Nb4AlN3
_symmetry_space_group_name_H-M   'P 1'
_cell_length_a   3.10840328
_cell_length_b   3.10840328
_cell_length_c   24.43515200
_cell_angle_alpha   90.00000000
_cell_angle_beta   90.00000000
_cell_angle_gamma   119.99998472
_symmetry_Int_Tables_number   1
_chemical_formula_structural   Nb4AlN3
_chemical_formula_sum   'Nb8 Al2 N6'
_cell_volume   204.46569880
_cell_formula_units_Z   2
loop_
 _symmetry_equiv_pos_site_id
 _symmetry_equiv_pos_as_xyz
  1  'x, y, z'
loop_
 _atom_site_type_symbol
 _atom_site_label
 _atom_site_symmetry_multiplicity
 _atom_site_fract_x
 _atom_site_fract_y
 _atom_site_fract_z
 _atom_site_occupancy
  Nb  Nb0  1  0.33333300  0.66666700  0.44871800  1
  Nb  Nb1  1  0.66666700  0.33333300  0.55128200  1
  Nb  Nb2  1  0.66666700  0.33333300  0.94871800  1
  Nb  Nb3  1  0.33333300  0.66666700  0.05128200  1
  Nb  Nb4  1  0.00000000  0.00000000  0.34080200  1
  Nb  Nb5  1  0.00000000  0.00000000  0.65919800  1
  Nb  Nb6  1  0.00000000  0.00000000  0.84080200  1
  Nb  Nb7  1  0.00000000  0.00000000  0.15919800  1
  Al  Al8  1  0.33333300  0.66666700  0.25000000  1
  Al  Al9  1  0.66666700  0.33333300  0.75000000  1
  N  N10  1  0.00000000  0.00000000  0.50000000  1
  N  N11  1  0.00000000  0.00000000  0.00000000  1
  N  N12  1  0.66666700  0.33333300  0.39290500  1
  N  N13  1  0.33333300  0.66666700  0.60709500  1
  N  N14  1  0.33333300  0.66666700  0.89290500  1
  N  N15  1  0.66666700  0.33333300  0.10709500  1
