# generated using pymatgen
data_TeW2Se3
_symmetry_space_group_name_H-M   'P 1'
_cell_length_a   3.38074247
_cell_length_b   3.38074247
_cell_length_c   38.55062100
_cell_angle_alpha   90.00000000
_cell_angle_beta   90.00000000
_cell_angle_gamma   120.00000923
_symmetry_Int_Tables_number   1
_chemical_formula_structural   TeW2Se3
_chemical_formula_sum   'Te2 W4 Se6'
_cell_volume   381.58047899
_cell_formula_units_Z   2
loop_
 _symmetry_equiv_pos_site_id
 _symmetry_equiv_pos_as_xyz
  1  'x, y, z'
loop_
 _atom_site_type_symbol
 _atom_site_label
 _atom_site_symmetry_multiplicity
 _atom_site_fract_x
 _atom_site_fract_y
 _atom_site_fract_z
 _atom_site_occupancy
  Te  Te0  1  0.33333300  0.66666700  0.42062100  1
  Te  Te1  1  0.33333300  0.66666700  0.51867900  1
  W  W2  1  0.00000000  0.00000000  0.09392100  1
  W  W3  1  0.00000000  0.00000000  0.46968400  1
  W  W4  1  0.33333300  0.66666700  0.28179400  1
  W  W5  1  0.33333300  0.66666700  0.65756500  1
  Se  Se6  1  0.00000000  0.00000000  0.32490400  1
  Se  Se7  1  0.00000000  0.00000000  0.70066000  1
  Se  Se8  1  0.33333300  0.66666700  0.05081300  1
  Se  Se9  1  0.33333300  0.66666700  0.13703800  1
  Se  Se10  1  0.00000000  0.00000000  0.23865700  1
  Se  Se11  1  0.00000000  0.00000000  0.61441000  1
