# generated using pymatgen
data_Nd2Ir7
_symmetry_space_group_name_H-M   'P 1'
_cell_length_a   13.54660769
_cell_length_b   13.54660769
_cell_length_c   13.54660758
_cell_angle_alpha   22.89072314
_cell_angle_beta   22.89072314
_cell_angle_gamma   22.89072328
_symmetry_Int_Tables_number   1
_chemical_formula_structural   Nd2Ir7
_chemical_formula_sum   'Nd4 Ir14'
_cell_volume   330.06619970
_cell_formula_units_Z   2
loop_
 _symmetry_equiv_pos_site_id
 _symmetry_equiv_pos_as_xyz
  1  'x, y, z'
loop_
 _atom_site_type_symbol
 _atom_site_label
 _atom_site_symmetry_multiplicity
 _atom_site_fract_x
 _atom_site_fract_y
 _atom_site_fract_z
 _atom_site_occupancy
  Nd  Nd0  1  0.94943300  0.94943300  0.94943300  1
  Nd  Nd1  1  0.05056700  0.05056700  0.05056700  1
  Nd  Nd2  1  0.85200500  0.85200500  0.85200500  1
  Nd  Nd3  1  0.14799500  0.14799500  0.14799500  1
  Ir  Ir4  1  0.50000000  0.50000000  0.50000000  1
  Ir  Ir5  1  0.72239000  0.72239000  0.72239000  1
  Ir  Ir6  1  0.27761000  0.27761000  0.27761000  1
  Ir  Ir7  1  0.61149400  0.61149400  0.61149400  1
  Ir  Ir8  1  0.38850600  0.38850600  0.38850600  1
  Ir  Ir9  1  0.50000000  0.50000000  0.00000000  1
  Ir  Ir10  1  0.00000000  0.50000000  0.50000000  1
  Ir  Ir11  1  0.50000000  0.00000000  0.50000000  1
  Ir  Ir12  1  0.39132200  0.88899300  0.39132200  1
  Ir  Ir13  1  0.39132200  0.39132200  0.88899300  1
  Ir  Ir14  1  0.88899300  0.39132200  0.39132200  1
  Ir  Ir15  1  0.60867800  0.11100700  0.60867800  1
  Ir  Ir16  1  0.60867800  0.60867800  0.11100700  1
  Ir  Ir17  1  0.11100700  0.60867800  0.60867800  1
