# generated using pymatgen
data_S2N(O2F)2
_symmetry_space_group_name_H-M   'P 1'
_cell_length_a   5.50256329
_cell_length_b   7.12093958
_cell_length_c   8.24463100
_cell_angle_alpha   90.00000000
_cell_angle_beta   90.00000000
_cell_angle_gamma   98.60699376
_symmetry_Int_Tables_number   1
_chemical_formula_structural   S2N(O2F)2
_chemical_formula_sum   'S4 N2 O8 F4'
_cell_volume   319.41466286
_cell_formula_units_Z   2
loop_
 _symmetry_equiv_pos_site_id
 _symmetry_equiv_pos_as_xyz
  1  'x, y, z'
loop_
 _atom_site_type_symbol
 _atom_site_label
 _atom_site_symmetry_multiplicity
 _atom_site_fract_x
 _atom_site_fract_y
 _atom_site_fract_z
 _atom_site_occupancy
  S  S0  1  0.80976400  0.10624400  0.97835300  1
  S  S1  1  0.19023600  0.89375600  0.47835300  1
  S  S2  1  0.72436200  0.35619300  0.24502000  1
  S  S3  1  0.27563800  0.64380700  0.74502000  1
  N  N4  1  0.66472000  0.26677300  0.05837000  1
  N  N5  1  0.33528000  0.73322700  0.55837000  1
  O  O6  1  0.06459600  0.19089100  0.98939100  1
  O  O7  1  0.93540400  0.80910900  0.48939100  1
  O  O8  1  0.69770900  0.04298100  0.82930700  1
  O  O9  1  0.30229100  0.95701900  0.32930700  1
  O  O10  1  0.50978900  0.43135000  0.29292300  1
  O  O11  1  0.49021100  0.56865000  0.79292300  1
  O  O12  1  0.85376300  0.24627100  0.34929300  1
  O  O13  1  0.14623700  0.75372900  0.84929300  1
  F  F14  1  0.77183000  0.93102800  0.09791800  1
  F  F15  1  0.22817000  0.06897200  0.59791800  1
  F  F16  1  0.91824400  0.52926900  0.18242500  1
  F  F17  1  0.08175600  0.47073100  0.68242500  1
