# generated using pymatgen
data_Lu2S3
_symmetry_space_group_name_H-M   'P 1'
_cell_length_a   3.78657200
_cell_length_b   10.37873200
_cell_length_c   10.44839400
_cell_angle_alpha   90.00000000
_cell_angle_beta   90.00000000
_cell_angle_gamma   90.00000000
_symmetry_Int_Tables_number   1
_chemical_formula_structural   Lu2S3
_chemical_formula_sum   'Lu8 S12'
_cell_volume   410.61996156
_cell_formula_units_Z   4
loop_
 _symmetry_equiv_pos_site_id
 _symmetry_equiv_pos_as_xyz
  1  'x, y, z'
loop_
 _atom_site_type_symbol
 _atom_site_label
 _atom_site_symmetry_multiplicity
 _atom_site_fract_x
 _atom_site_fract_y
 _atom_site_fract_z
 _atom_site_occupancy
  Lu  Lu0  1  0.25000000  0.18800500  0.49387100  1
  Lu  Lu1  1  0.25000000  0.31199500  0.99387100  1
  Lu  Lu2  1  0.75000000  0.81199500  0.50612900  1
  Lu  Lu3  1  0.75000000  0.68800500  0.00612900  1
  Lu  Lu4  1  0.75000000  0.49477900  0.69128200  1
  Lu  Lu5  1  0.75000000  0.00522100  0.19128200  1
  Lu  Lu6  1  0.25000000  0.50522100  0.30871800  1
  Lu  Lu7  1  0.25000000  0.99477900  0.80871800  1
  S  S8  1  0.25000000  0.62679200  0.54522300  1
  S  S9  1  0.25000000  0.87320800  0.04522300  1
  S  S10  1  0.75000000  0.37320800  0.45477700  1
  S  S11  1  0.75000000  0.12679200  0.95477700  1
  S  S12  1  0.75000000  0.05334500  0.61924600  1
  S  S13  1  0.75000000  0.44665500  0.11924600  1
  S  S14  1  0.25000000  0.94665500  0.38075400  1
  S  S15  1  0.25000000  0.55334500  0.88075400  1
  S  S16  1  0.25000000  0.30512900  0.72932100  1
  S  S17  1  0.25000000  0.19487100  0.22932100  1
  S  S18  1  0.75000000  0.69487100  0.27067900  1
  S  S19  1  0.75000000  0.80512900  0.77067900  1
