# generated using pymatgen
data_CaMnO3
_symmetry_space_group_name_H-M   'P 1'
_cell_length_a   5.39092029
_cell_length_b   5.39092029
_cell_length_c   9.21762700
_cell_angle_alpha   90.00000000
_cell_angle_beta   90.00000000
_cell_angle_gamma   120.00000351
_symmetry_Int_Tables_number   1
_chemical_formula_structural   CaMnO3
_chemical_formula_sum   'Ca4 Mn4 O12'
_cell_volume   231.99336620
_cell_formula_units_Z   4
loop_
 _symmetry_equiv_pos_site_id
 _symmetry_equiv_pos_as_xyz
  1  'x, y, z'
loop_
 _atom_site_type_symbol
 _atom_site_label
 _atom_site_symmetry_multiplicity
 _atom_site_fract_x
 _atom_site_fract_y
 _atom_site_fract_z
 _atom_site_occupancy
  Ca  Ca0  1  0.00000000  0.00000000  0.50000000  1
  Ca  Ca1  1  0.00000000  0.00000000  0.00000000  1
  Ca  Ca2  1  0.33333300  0.66666700  0.25000000  1
  Ca  Ca3  1  0.66666700  0.33333300  0.75000000  1
  Mn  Mn4  1  0.33333300  0.66666700  0.88627300  1
  Mn  Mn5  1  0.66666700  0.33333300  0.11372700  1
  Mn  Mn6  1  0.66666700  0.33333300  0.38627300  1
  Mn  Mn7  1  0.33333300  0.66666700  0.61372700  1
  O  O8  1  0.50000000  0.50000000  0.50000000  1
  O  O9  1  0.50000000  0.00000000  0.50000000  1
  O  O10  1  0.00000000  0.50000000  0.50000000  1
  O  O11  1  0.50000000  0.50000000  0.00000000  1
  O  O12  1  0.50000000  0.00000000  0.00000000  1
  O  O13  1  0.00000000  0.50000000  0.00000000  1
  O  O14  1  0.82373900  0.17626100  0.25000000  1
  O  O15  1  0.82373900  0.64747700  0.25000000  1
  O  O16  1  0.35252300  0.17626100  0.25000000  1
  O  O17  1  0.17626100  0.82373900  0.75000000  1
  O  O18  1  0.17626100  0.35252300  0.75000000  1
  O  O19  1  0.64747700  0.82373900  0.75000000  1
