# generated using pymatgen
data_Y2S3
_symmetry_space_group_name_H-M   'P 1'
_cell_length_a   3.88697000
_cell_length_b   10.51227500
_cell_length_c   10.69305000
_cell_angle_alpha   90.00000000
_cell_angle_beta   90.00000000
_cell_angle_gamma   90.00000000
_symmetry_Int_Tables_number   1
_chemical_formula_structural   Y2S3
_chemical_formula_sum   'Y8 S12'
_cell_volume   436.92762062
_cell_formula_units_Z   4
loop_
 _symmetry_equiv_pos_site_id
 _symmetry_equiv_pos_as_xyz
  1  'x, y, z'
loop_
 _atom_site_type_symbol
 _atom_site_label
 _atom_site_symmetry_multiplicity
 _atom_site_fract_x
 _atom_site_fract_y
 _atom_site_fract_z
 _atom_site_occupancy
  Y  Y0  1  0.25000000  0.18746600  0.49229500  1
  Y  Y1  1  0.25000000  0.31253400  0.99229500  1
  Y  Y2  1  0.75000000  0.81253400  0.50770500  1
  Y  Y3  1  0.75000000  0.68746600  0.00770500  1
  Y  Y4  1  0.75000000  0.49508300  0.69186300  1
  Y  Y5  1  0.75000000  0.00491700  0.19186300  1
  Y  Y6  1  0.25000000  0.50491700  0.30813700  1
  Y  Y7  1  0.25000000  0.99508300  0.80813700  1
  S  S8  1  0.25000000  0.62658000  0.54516000  1
  S  S9  1  0.25000000  0.87342000  0.04516000  1
  S  S10  1  0.75000000  0.37342000  0.45484000  1
  S  S11  1  0.75000000  0.12658000  0.95484000  1
  S  S12  1  0.75000000  0.05418000  0.61952300  1
  S  S13  1  0.75000000  0.44582000  0.11952300  1
  S  S14  1  0.25000000  0.94582000  0.38047700  1
  S  S15  1  0.25000000  0.55418000  0.88047700  1
  S  S16  1  0.25000000  0.30335800  0.72907100  1
  S  S17  1  0.25000000  0.19664200  0.22907100  1
  S  S18  1  0.75000000  0.69664200  0.27092900  1
  S  S19  1  0.75000000  0.80335800  0.77092900  1
