# generated using pymatgen
data_Cs2TiOF5
_symmetry_space_group_name_H-M   'P 1'
_cell_length_a   7.03704092
_cell_length_b   7.03704092
_cell_length_c   8.11564500
_cell_angle_alpha   90.00000000
_cell_angle_beta   90.00000000
_cell_angle_gamma   94.81488500
_symmetry_Int_Tables_number   1
_chemical_formula_structural   Cs2TiOF5
_chemical_formula_sum   'Cs4 Ti2 O2 F10'
_cell_volume   400.46807124
_cell_formula_units_Z   2
loop_
 _symmetry_equiv_pos_site_id
 _symmetry_equiv_pos_as_xyz
  1  'x, y, z'
loop_
 _atom_site_type_symbol
 _atom_site_label
 _atom_site_symmetry_multiplicity
 _atom_site_fract_x
 _atom_site_fract_y
 _atom_site_fract_z
 _atom_site_occupancy
  Cs  Cs0  1  0.01033300  0.59357100  0.25000000  1
  Cs  Cs1  1  0.40642900  0.98966700  0.75000000  1
  Cs  Cs2  1  0.98966700  0.40642900  0.75000000  1
  Cs  Cs3  1  0.59357100  0.01033300  0.25000000  1
  Ti  Ti4  1  0.50000000  0.50000000  0.50000000  1
  Ti  Ti5  1  0.50000000  0.50000000  0.00000000  1
  O  O6  1  0.02277000  0.02277000  0.25000000  1
  O  O7  1  0.97723000  0.97723000  0.75000000  1
  F  F8  1  0.68124500  0.31875500  0.50000000  1
  F  F9  1  0.68124500  0.31875500  0.00000000  1
  F  F10  1  0.31875500  0.68124500  0.50000000  1
  F  F11  1  0.31875500  0.68124500  0.00000000  1
  F  F12  1  0.30488000  0.30488000  0.50158200  1
  F  F13  1  0.69512000  0.69512000  0.49841800  1
  F  F14  1  0.30488000  0.30488000  0.99841800  1
  F  F15  1  0.69512000  0.69512000  0.00158200  1
  F  F16  1  0.50052400  0.50052400  0.25000000  1
  F  F17  1  0.49947600  0.49947600  0.75000000  1
