# generated using pymatgen
data_K2MoO2F5
_symmetry_space_group_name_H-M   'P 1'
_cell_length_a   6.33251822
_cell_length_b   6.33251822
_cell_length_c   9.61271763
_cell_angle_alpha   84.79778307
_cell_angle_beta   84.79778307
_cell_angle_gamma   90.07934562
_symmetry_Int_Tables_number   1
_chemical_formula_structural   K2MoO2F5
_chemical_formula_sum   'K4 Mo2 O4 F10'
_cell_volume   382.29050093
_cell_formula_units_Z   2
loop_
 _symmetry_equiv_pos_site_id
 _symmetry_equiv_pos_as_xyz
  1  'x, y, z'
loop_
 _atom_site_type_symbol
 _atom_site_label
 _atom_site_symmetry_multiplicity
 _atom_site_fract_x
 _atom_site_fract_y
 _atom_site_fract_z
 _atom_site_occupancy
  K  K0  1  0.70196900  0.70196900  0.79874600  1
  K  K1  1  0.29803100  0.29803100  0.20125400  1
  K  K2  1  0.75630100  0.24369900  0.50000000  1
  K  K3  1  0.24369900  0.75630100  0.50000000  1
  Mo  Mo4  1  0.21878100  0.21878100  0.73614300  1
  Mo  Mo5  1  0.78121900  0.78121900  0.26385700  1
  O  O6  1  0.21423900  0.21423900  0.91586100  1
  O  O7  1  0.78576100  0.78576100  0.08413900  1
  O  O8  1  0.69732000  0.30268000  0.00000000  1
  O  O9  1  0.30268000  0.69732000  0.00000000  1
  F  F10  1  0.99872400  0.99872400  0.72477600  1
  F  F11  1  0.00127600  0.00127600  0.27522400  1
  F  F12  1  0.22679100  0.22679100  0.51874400  1
  F  F13  1  0.77320900  0.77320900  0.48125600  1
  F  F14  1  0.44270500  0.44270500  0.68558800  1
  F  F15  1  0.55729500  0.55729500  0.31441200  1
  F  F16  1  0.00369200  0.44312600  0.70513700  1
  F  F17  1  0.44312600  0.00369200  0.70513700  1
  F  F18  1  0.99630800  0.55687400  0.29486300  1
  F  F19  1  0.55687400  0.99630800  0.29486300  1
