# generated using pymatgen
data_Te6MoW3S2
_symmetry_space_group_name_H-M   'P 1'
_cell_length_a   3.45159169
_cell_length_b   3.45159169
_cell_length_c   39.41352400
_cell_angle_alpha   90.00000000
_cell_angle_beta   90.00000000
_cell_angle_gamma   119.99999410
_symmetry_Int_Tables_number   1
_chemical_formula_structural   Te6MoW3S2
_chemical_formula_sum   'Te6 Mo1 W3 S2'
_cell_volume   406.64436149
_cell_formula_units_Z   1
loop_
 _symmetry_equiv_pos_site_id
 _symmetry_equiv_pos_as_xyz
  1  'x, y, z'
loop_
 _atom_site_type_symbol
 _atom_site_label
 _atom_site_symmetry_multiplicity
 _atom_site_fract_x
 _atom_site_fract_y
 _atom_site_fract_z
 _atom_site_occupancy
  Te  Te0  1  0.00000000  0.00000000  0.32898400  1
  Te  Te1  1  0.00000000  0.00000000  0.70479200  1
  Te  Te2  1  0.33333300  0.66666700  0.42269500  1
  Te  Te3  1  0.33333300  0.66666700  0.51660700  1
  Te  Te4  1  0.00000000  0.00000000  0.23450300  1
  Te  Te5  1  0.00000000  0.00000000  0.61034100  1
  Mo  Mo6  1  0.00000000  0.00000000  0.46967600  1
  W  W7  1  0.00000000  0.00000000  0.09393400  1
  W  W8  1  0.33333300  0.66666700  0.28175100  1
  W  W9  1  0.33333300  0.66666700  0.65759100  1
  S  S10  1  0.33333300  0.66666700  0.05603100  1
  S  S11  1  0.33333300  0.66666700  0.13184300  1
