# generated using pymatgen
data_Nb2N3
_symmetry_space_group_name_H-M   'P 1'
_cell_length_a   3.02024900
_cell_length_b   8.18864300
_cell_length_c   8.31998300
_cell_angle_alpha   90.00000000
_cell_angle_beta   90.00000000
_cell_angle_gamma   90.00000000
_symmetry_Int_Tables_number   1
_chemical_formula_structural   Nb2N3
_chemical_formula_sum   'Nb8 N12'
_cell_volume   205.76766328
_cell_formula_units_Z   4
loop_
 _symmetry_equiv_pos_site_id
 _symmetry_equiv_pos_as_xyz
  1  'x, y, z'
loop_
 _atom_site_type_symbol
 _atom_site_label
 _atom_site_symmetry_multiplicity
 _atom_site_fract_x
 _atom_site_fract_y
 _atom_site_fract_z
 _atom_site_occupancy
  Nb  Nb0  1  0.25000000  0.18720700  0.47793200  1
  Nb  Nb1  1  0.25000000  0.31279300  0.97793200  1
  Nb  Nb2  1  0.75000000  0.81279300  0.52206800  1
  Nb  Nb3  1  0.75000000  0.68720700  0.02206800  1
  Nb  Nb4  1  0.25000000  0.99573000  0.80508600  1
  Nb  Nb5  1  0.25000000  0.50427000  0.30508600  1
  Nb  Nb6  1  0.75000000  0.00427000  0.19491400  1
  Nb  Nb7  1  0.75000000  0.49573000  0.69491400  1
  N  N8  1  0.25000000  0.62574600  0.54557400  1
  N  N9  1  0.25000000  0.87425400  0.04557400  1
  N  N10  1  0.75000000  0.37425400  0.45442600  1
  N  N11  1  0.75000000  0.12574600  0.95442600  1
  N  N12  1  0.25000000  0.95203200  0.37871900  1
  N  N13  1  0.25000000  0.54796800  0.87871900  1
  N  N14  1  0.75000000  0.04796800  0.62128100  1
  N  N15  1  0.75000000  0.45203200  0.12128100  1
  N  N16  1  0.25000000  0.29740400  0.72148400  1
  N  N17  1  0.25000000  0.20259600  0.22148400  1
  N  N18  1  0.75000000  0.70259600  0.27851600  1
  N  N19  1  0.75000000  0.79740400  0.77851600  1
