# generated using pymatgen
data_PtCl4O5
_symmetry_space_group_name_H-M   'P 1'
_cell_length_a   6.72995708
_cell_length_b   6.72995708
_cell_length_c   11.18924611
_cell_angle_alpha   86.88463148
_cell_angle_beta   86.88463148
_cell_angle_gamma   106.93266609
_symmetry_Int_Tables_number   1
_chemical_formula_structural   PtCl4O5
_chemical_formula_sum   'Pt2 Cl8 O10'
_cell_volume   482.79197067
_cell_formula_units_Z   2
loop_
 _symmetry_equiv_pos_site_id
 _symmetry_equiv_pos_as_xyz
  1  'x, y, z'
loop_
 _atom_site_type_symbol
 _atom_site_label
 _atom_site_symmetry_multiplicity
 _atom_site_fract_x
 _atom_site_fract_y
 _atom_site_fract_z
 _atom_site_occupancy
  Pt  Pt0  1  0.16478900  0.81302200  0.89775100  1
  Pt  Pt1  1  0.81302200  0.16478900  0.39775100  1
  Cl  Cl2  1  0.45052800  0.11039500  0.86193500  1
  Cl  Cl3  1  0.11039500  0.45052800  0.36193500  1
  Cl  Cl4  1  0.87638100  0.51478600  0.91424300  1
  Cl  Cl5  1  0.51478600  0.87638100  0.41424300  1
  Cl  Cl6  1  0.01630800  0.94683800  0.35730800  1
  Cl  Cl7  1  0.94683800  0.01630800  0.85730800  1
  Cl  Cl8  1  0.13494600  0.84672700  0.09808300  1
  Cl  Cl9  1  0.84672700  0.13494600  0.59808300  1
  O  O10  1  0.14354400  0.77555100  0.65990700  1
  O  O11  1  0.77555100  0.14354400  0.15990700  1
  O  O12  1  0.64531000  0.33579900  0.38875600  1
  O  O13  1  0.33579900  0.64531000  0.88875600  1
  O  O14  1  0.42130800  0.36534100  0.58486800  1
  O  O15  1  0.36534100  0.42130800  0.08486800  1
  O  O16  1  0.52080900  0.46422600  0.14086200  1
  O  O17  1  0.46422600  0.52080900  0.64086200  1
  O  O18  1  0.97515200  0.68304100  0.62398600  1
  O  O19  1  0.68304100  0.97515200  0.12398600  1
