# generated using pymatgen
data_YbSi3
_symmetry_space_group_name_H-M   'P 1'
_cell_length_a   7.58442782
_cell_length_b   7.58442782
_cell_length_c   7.58442782
_cell_angle_alpha   123.75543968
_cell_angle_beta   123.75543968
_cell_angle_gamma   83.60983535
_symmetry_Int_Tables_number   1
_chemical_formula_structural   YbSi3
_chemical_formula_sum   'Yb4 Si12'
_cell_volume   289.01793521
_cell_formula_units_Z   4
loop_
 _symmetry_equiv_pos_site_id
 _symmetry_equiv_pos_as_xyz
  1  'x, y, z'
loop_
 _atom_site_type_symbol
 _atom_site_label
 _atom_site_symmetry_multiplicity
 _atom_site_fract_x
 _atom_site_fract_y
 _atom_site_fract_z
 _atom_site_occupancy
  Yb  Yb0  1  0.82755200  0.82755200  0.00000000  1
  Yb  Yb1  1  0.17244800  0.17244800  0.00000000  1
  Yb  Yb2  1  0.75000000  0.25000000  0.50000000  1
  Yb  Yb3  1  0.25000000  0.75000000  0.50000000  1
  Si  Si4  1  0.20838200  0.20838200  0.63322700  1
  Si  Si5  1  0.57515400  0.57515400  0.36677300  1
  Si  Si6  1  0.20838200  0.57515400  0.00000000  1
  Si  Si7  1  0.57515400  0.20838200  0.00000000  1
  Si  Si8  1  0.79161800  0.79161800  0.36677300  1
  Si  Si9  1  0.42484600  0.42484600  0.63322700  1
  Si  Si10  1  0.79161800  0.42484600  0.00000000  1
  Si  Si11  1  0.42484600  0.79161800  0.00000000  1
  Si  Si12  1  0.33424000  0.00000000  0.33424000  1
  Si  Si13  1  0.66576000  0.00000000  0.66576000  1
  Si  Si14  1  0.00000000  0.66576000  0.66576000  1
  Si  Si15  1  0.00000000  0.33424000  0.33424000  1
