# generated using pymatgen
data_SrB12O7
_symmetry_space_group_name_H-M   'P 1'
_cell_length_a   6.50524368
_cell_length_b   6.50524368
_cell_length_c   6.50524319
_cell_angle_alpha   82.59479994
_cell_angle_beta   82.59479994
_cell_angle_gamma   82.59480225
_symmetry_Int_Tables_number   1
_chemical_formula_structural   SrB12O7
_chemical_formula_sum   'Sr1 B12 O7'
_cell_volume   268.94699388
_cell_formula_units_Z   1
loop_
 _symmetry_equiv_pos_site_id
 _symmetry_equiv_pos_as_xyz
  1  'x, y, z'
loop_
 _atom_site_type_symbol
 _atom_site_label
 _atom_site_symmetry_multiplicity
 _atom_site_fract_x
 _atom_site_fract_y
 _atom_site_fract_z
 _atom_site_occupancy
  Sr  Sr0  1  0.93832900  0.93832900  0.93832900  1
  B  B1  1  0.51055200  0.64933500  0.79981700  1
  B  B2  1  0.64933500  0.79981700  0.51055200  1
  B  B3  1  0.79981700  0.51055200  0.64933500  1
  B  B4  1  0.63461800  0.19288200  0.41589500  1
  B  B5  1  0.19288200  0.41589500  0.63461800  1
  B  B6  1  0.41589500  0.63461800  0.19288200  1
  B  B7  1  0.36252600  0.78902400  0.59730200  1
  B  B8  1  0.78902400  0.59730200  0.36252600  1
  B  B9  1  0.59730200  0.36252600  0.78902400  1
  B  B10  1  0.55922000  0.42574100  0.34005000  1
  B  B11  1  0.42574100  0.34005000  0.55922000  1
  B  B12  1  0.34005000  0.55922000  0.42574100  1
  O  O13  1  0.62811100  0.19378500  0.91920800  1
  O  O14  1  0.19378500  0.91920800  0.62811100  1
  O  O15  1  0.91920800  0.62811100  0.19378500  1
  O  O16  1  0.42559900  0.72030800  0.00020900  1
  O  O17  1  0.72030800  0.00020900  0.42559900  1
  O  O18  1  0.00020900  0.42559900  0.72030800  1
  O  O19  1  0.72748700  0.72748700  0.72748700  1
