# generated using pymatgen
data_KUSiO7
_symmetry_space_group_name_H-M   'P 1'
_cell_length_a   7.03474200
_cell_length_b   6.76485600
_cell_length_c   7.00694064
_cell_angle_alpha   75.75576643
_cell_angle_beta   90.00000000
_cell_angle_gamma   90.00000000
_symmetry_Int_Tables_number   1
_chemical_formula_structural   KUSiO7
_chemical_formula_sum   'K2 U2 Si2 O14'
_cell_volume   323.20161544
_cell_formula_units_Z   2
loop_
 _symmetry_equiv_pos_site_id
 _symmetry_equiv_pos_as_xyz
  1  'x, y, z'
loop_
 _atom_site_type_symbol
 _atom_site_label
 _atom_site_symmetry_multiplicity
 _atom_site_fract_x
 _atom_site_fract_y
 _atom_site_fract_z
 _atom_site_occupancy
  K  K0  1  0.05289400  0.77879400  0.55961700  1
  K  K1  1  0.55289400  0.22120600  0.44038300  1
  U  U2  1  0.74270900  0.86488000  0.02342300  1
  U  U3  1  0.24270900  0.13512000  0.97657700  1
  Si  Si4  1  0.74119600  0.35215500  0.92797100  1
  Si  Si5  1  0.24119600  0.64784500  0.07202900  1
  O  O6  1  0.75777800  0.84427800  0.28903200  1
  O  O7  1  0.25777800  0.15572200  0.71096800  1
  O  O8  1  0.23377000  0.08760600  0.24577000  1
  O  O9  1  0.73377000  0.91239400  0.75423000  1
  O  O10  1  0.42271600  0.80492700  0.04210900  1
  O  O11  1  0.92271600  0.19507300  0.95789100  1
  O  O12  1  0.56758800  0.18608100  0.99583900  1
  O  O13  1  0.06758800  0.81391900  0.00416100  1
  O  O14  1  0.75523500  0.51686700  0.06456100  1
  O  O15  1  0.25523500  0.48313300  0.93543900  1
  O  O16  1  0.22087200  0.52410200  0.30693800  1
  O  O17  1  0.72087200  0.47589800  0.69306200  1
  O  O18  1  0.96624200  0.39374800  0.33334700  1
  O  O19  1  0.46624200  0.60625200  0.66665300  1
