# generated using pymatgen
data_VNO3
_symmetry_space_group_name_H-M   'P 1'
_cell_length_a   3.21153200
_cell_length_b   6.09209200
_cell_length_c   15.46875900
_cell_angle_alpha   90.00000000
_cell_angle_beta   90.00000000
_cell_angle_gamma   90.00000000
_symmetry_Int_Tables_number   1
_chemical_formula_structural   VNO3
_chemical_formula_sum   'V4 N4 O12'
_cell_volume   302.64547172
_cell_formula_units_Z   4
loop_
 _symmetry_equiv_pos_site_id
 _symmetry_equiv_pos_as_xyz
  1  'x, y, z'
loop_
 _atom_site_type_symbol
 _atom_site_label
 _atom_site_symmetry_multiplicity
 _atom_site_fract_x
 _atom_site_fract_y
 _atom_site_fract_z
 _atom_site_occupancy
  V  V0  1  0.38644800  0.25000000  0.68600300  1
  V  V1  1  0.61355200  0.75000000  0.31399700  1
  V  V2  1  0.38644800  0.75000000  0.81399700  1
  V  V3  1  0.61355200  0.25000000  0.18600300  1
  N  N4  1  0.87814800  0.25000000  0.90503500  1
  N  N5  1  0.12185200  0.75000000  0.09496500  1
  N  N6  1  0.87814800  0.75000000  0.59496500  1
  N  N7  1  0.12185200  0.25000000  0.40503500  1
  O  O8  1  0.39678500  0.50000000  0.75000000  1
  O  O9  1  0.60321500  0.00000000  0.25000000  1
  O  O10  1  0.60321500  0.50000000  0.25000000  1
  O  O11  1  0.39678500  0.00000000  0.75000000  1
  O  O12  1  0.88668100  0.25000000  0.62748700  1
  O  O13  1  0.11331900  0.75000000  0.37251300  1
  O  O14  1  0.88668100  0.75000000  0.87251300  1
  O  O15  1  0.11331900  0.25000000  0.12748700  1
  O  O16  1  0.38051100  0.25000000  0.45764100  1
  O  O17  1  0.61948900  0.75000000  0.54235900  1
  O  O18  1  0.38051100  0.75000000  0.04235900  1
  O  O19  1  0.61948900  0.25000000  0.95764100  1
