# generated using pymatgen
data_Te2MoW3(SeS2)2
_symmetry_space_group_name_H-M   'P 1'
_cell_length_a   3.30629435
_cell_length_b   3.30629435
_cell_length_c   42.73530400
_cell_angle_alpha   90.00000000
_cell_angle_beta   90.00000000
_cell_angle_gamma   120.00000699
_symmetry_Int_Tables_number   1
_chemical_formula_structural   Te2MoW3(SeS2)2
_chemical_formula_sum   'Te2 Mo1 W3 Se2 S4'
_cell_volume   404.57629094
_cell_formula_units_Z   1
loop_
 _symmetry_equiv_pos_site_id
 _symmetry_equiv_pos_as_xyz
  1  'x, y, z'
loop_
 _atom_site_type_symbol
 _atom_site_label
 _atom_site_symmetry_multiplicity
 _atom_site_fract_x
 _atom_site_fract_y
 _atom_site_fract_z
 _atom_site_occupancy
  Te  Te0  1  0.33333300  0.66666700  0.32470400  1
  Te  Te1  1  0.33333300  0.66666700  0.23514100  1
  Mo  Mo2  1  0.66666700  0.33333300  0.27992400  1
  W  W3  1  0.33333300  0.66666700  0.09241000  1
  W  W4  1  0.33333300  0.66666700  0.47243700  1
  W  W5  1  0.66666700  0.33333300  0.65814800  1
  Se  Se6  1  0.66666700  0.33333300  0.43289800  1
  Se  Se7  1  0.66666700  0.33333300  0.51196700  1
  S  S8  1  0.33333300  0.66666700  0.69405400  1
  S  S9  1  0.66666700  0.33333300  0.05650300  1
  S  S10  1  0.66666700  0.33333300  0.12831800  1
  S  S11  1  0.33333300  0.66666700  0.62224500  1
