# generated using pymatgen
data_N2
_symmetry_space_group_name_H-M   'P 1'
_cell_length_a   4.23978900
_cell_length_b   9.46016300
_cell_length_c   9.70964800
_cell_angle_alpha   90.00000000
_cell_angle_beta   90.00000000
_cell_angle_gamma   90.00000000
_symmetry_Int_Tables_number   1
_chemical_formula_structural   N2
_chemical_formula_sum   N16
_cell_volume   389.44519430
_cell_formula_units_Z   8
loop_
 _symmetry_equiv_pos_site_id
 _symmetry_equiv_pos_as_xyz
  1  'x, y, z'
loop_
 _atom_site_type_symbol
 _atom_site_label
 _atom_site_symmetry_multiplicity
 _atom_site_fract_x
 _atom_site_fract_y
 _atom_site_fract_z
 _atom_site_occupancy
  N  N0  1  0.00000000  0.50000000  0.50000000  1
  N  N1  1  0.00000000  0.00000000  0.00000000  1
  N  N2  1  0.00000000  0.50000000  0.00000000  1
  N  N3  1  0.00000000  0.00000000  0.50000000  1
  N  N4  1  0.00000000  0.50000000  0.37771300  1
  N  N5  1  0.00000000  0.00000000  0.12228700  1
  N  N6  1  0.00000000  0.50000000  0.62228700  1
  N  N7  1  0.00000000  0.00000000  0.87771300  1
  N  N8  1  0.88813500  0.61489700  0.00000000  1
  N  N9  1  0.11186500  0.38510300  0.00000000  1
  N  N10  1  0.88813500  0.88510300  0.50000000  1
  N  N11  1  0.11186500  0.11489700  0.50000000  1
  N  N12  1  0.46687100  0.75000000  0.25000000  1
  N  N13  1  0.53312900  0.25000000  0.25000000  1
  N  N14  1  0.53312900  0.25000000  0.75000000  1
  N  N15  1  0.46687100  0.75000000  0.75000000  1
