# generated using pymatgen
data_La3Ni
_symmetry_space_group_name_H-M   'P 1'
_cell_length_a   6.61732600
_cell_length_b   7.16310700
_cell_length_c   10.15562000
_cell_angle_alpha   90.00000000
_cell_angle_beta   90.00000000
_cell_angle_gamma   90.00000000
_symmetry_Int_Tables_number   1
_chemical_formula_structural   La3Ni
_chemical_formula_sum   'La12 Ni4'
_cell_volume   481.38262550
_cell_formula_units_Z   4
loop_
 _symmetry_equiv_pos_site_id
 _symmetry_equiv_pos_as_xyz
  1  'x, y, z'
loop_
 _atom_site_type_symbol
 _atom_site_label
 _atom_site_symmetry_multiplicity
 _atom_site_fract_x
 _atom_site_fract_y
 _atom_site_fract_z
 _atom_site_occupancy
  La  La0  1  0.32820900  0.67223200  0.06711700  1
  La  La1  1  0.17179100  0.17223200  0.43288300  1
  La  La2  1  0.67179100  0.32776800  0.56711700  1
  La  La3  1  0.82820900  0.82776800  0.93288300  1
  La  La4  1  0.67179100  0.32776800  0.93288300  1
  La  La5  1  0.82820900  0.82776800  0.56711700  1
  La  La6  1  0.32820900  0.67223200  0.43288300  1
  La  La7  1  0.17179100  0.17223200  0.06711700  1
  La  La8  1  0.85634700  0.53783300  0.25000000  1
  La  La9  1  0.64365300  0.03783300  0.25000000  1
  La  La10  1  0.14365300  0.46216700  0.75000000  1
  La  La11  1  0.35634700  0.96216700  0.75000000  1
  Ni  Ni12  1  0.06967100  0.88484400  0.25000000  1
  Ni  Ni13  1  0.43032900  0.38484400  0.25000000  1
  Ni  Ni14  1  0.93032900  0.11515600  0.75000000  1
  Ni  Ni15  1  0.56967100  0.61515600  0.75000000  1
