# generated using pymatgen
data_Te2MoWSeS
_symmetry_space_group_name_H-M   'P 1'
_cell_length_a   3.39572019
_cell_length_b   3.39572019
_cell_length_c   38.83733500
_cell_angle_alpha   90.00000000
_cell_angle_beta   90.00000000
_cell_angle_gamma   120.00000364
_symmetry_Int_Tables_number   1
_chemical_formula_structural   Te2MoWSeS
_chemical_formula_sum   'Te4 Mo2 W2 Se2 S2'
_cell_volume   387.83216966
_cell_formula_units_Z   2
loop_
 _symmetry_equiv_pos_site_id
 _symmetry_equiv_pos_as_xyz
  1  'x, y, z'
loop_
 _atom_site_type_symbol
 _atom_site_label
 _atom_site_symmetry_multiplicity
 _atom_site_fract_x
 _atom_site_fract_y
 _atom_site_fract_z
 _atom_site_occupancy
  Te  Te0  1  0.00000000  0.00000000  0.33011000  1
  Te  Te1  1  0.00000000  0.00000000  0.70610000  1
  Te  Te2  1  0.00000000  0.00000000  0.23346700  1
  Te  Te3  1  0.00000000  0.00000000  0.60898700  1
  Mo  Mo4  1  0.00000000  0.00000000  0.46964300  1
  Mo  Mo5  1  0.33333300  0.66666700  0.28176100  1
  W  W6  1  0.00000000  0.00000000  0.09391300  1
  W  W7  1  0.33333300  0.66666700  0.65754700  1
  Se  Se8  1  0.33333300  0.66666700  0.42715500  1
  Se  Se9  1  0.33333300  0.66666700  0.51219800  1
  S  S10  1  0.33333300  0.66666700  0.05511300  1
  S  S11  1  0.33333300  0.66666700  0.13275500  1
