# generated using pymatgen
data_K2Te(IO6)2
_symmetry_space_group_name_H-M   'P 1'
_cell_length_a   6.56415613
_cell_length_b   6.56415613
_cell_length_c   9.37163621
_cell_angle_alpha   69.49959764
_cell_angle_beta   69.49959764
_cell_angle_gamma   59.99999869
_symmetry_Int_Tables_number   1
_chemical_formula_structural   K2Te(IO6)2
_chemical_formula_sum   'K2 Te1 I2 O12'
_cell_volume   319.83665553
_cell_formula_units_Z   1
loop_
 _symmetry_equiv_pos_site_id
 _symmetry_equiv_pos_as_xyz
  1  'x, y, z'
loop_
 _atom_site_type_symbol
 _atom_site_label
 _atom_site_symmetry_multiplicity
 _atom_site_fract_x
 _atom_site_fract_y
 _atom_site_fract_z
 _atom_site_occupancy
  K  K0  1  0.40508100  0.40508100  0.78475700  1
  K  K1  1  0.59491900  0.59491900  0.21524300  1
  Te  Te2  1  0.00000000  0.00000000  0.00000000  1
  I  I3  1  0.17969100  0.17969100  0.46092600  1
  I  I4  1  0.82030900  0.82030900  0.53907400  1
  O  O5  1  0.78912600  0.01538900  0.89106200  1
  O  O6  1  0.01538900  0.30442200  0.89106200  1
  O  O7  1  0.30442200  0.78912600  0.89106200  1
  O  O8  1  0.21087400  0.98461100  0.10893800  1
  O  O9  1  0.98461100  0.69557800  0.10893800  1
  O  O10  1  0.69557800  0.21087400  0.10893800  1
  O  O11  1  0.95651000  0.21626300  0.36713800  1
  O  O12  1  0.21626300  0.46008800  0.36713800  1
  O  O13  1  0.46008800  0.95651000  0.36713800  1
  O  O14  1  0.04349000  0.78373700  0.63286200  1
  O  O15  1  0.78373700  0.53991200  0.63286200  1
  O  O16  1  0.53991200  0.04349000  0.63286200  1
