# generated using pymatgen
data_NaBO7
_symmetry_space_group_name_H-M   'P 1'
_cell_length_a   7.48500392
_cell_length_b   7.14102354
_cell_length_c   6.70629431
_cell_angle_alpha   115.48686163
_cell_angle_beta   72.66197127
_cell_angle_gamma   78.82248973
_symmetry_Int_Tables_number   1
_chemical_formula_structural   NaBO7
_chemical_formula_sum   'Na2 B2 O14'
_cell_volume   286.48087322
_cell_formula_units_Z   2
loop_
 _symmetry_equiv_pos_site_id
 _symmetry_equiv_pos_as_xyz
  1  'x, y, z'
loop_
 _atom_site_type_symbol
 _atom_site_label
 _atom_site_symmetry_multiplicity
 _atom_site_fract_x
 _atom_site_fract_y
 _atom_site_fract_z
 _atom_site_occupancy
  Na  Na0  1  0.00000000  0.00000000  0.00000000  1
  Na  Na1  1  0.50000000  0.00000000  0.00000000  1
  B  B2  1  0.78184700  0.58820100  0.58522700  1
  B  B3  1  0.21815300  0.41179900  0.41477300  1
  O  O4  1  0.87837600  0.71858400  0.71121200  1
  O  O5  1  0.12162400  0.28141600  0.28878800  1
  O  O6  1  0.10830900  0.62837300  0.62600800  1
  O  O7  1  0.89169100  0.37162700  0.37399200  1
  O  O8  1  0.15172300  0.82336900  0.18822800  1
  O  O9  1  0.84827700  0.17663100  0.81177200  1
  O  O10  1  0.65053300  0.79263100  0.26976600  1
  O  O11  1  0.34946700  0.20736900  0.73023400  1
  O  O12  1  0.47315100  0.29672900  0.75640800  1
  O  O13  1  0.52684900  0.70327100  0.24359200  1
  O  O14  1  0.87986900  0.34477100  0.82898700  1
  O  O15  1  0.12013100  0.65522900  0.17101300  1
  O  O16  1  0.58625400  0.68323200  0.67780000  1
  O  O17  1  0.41374600  0.31676800  0.32220000  1
