# generated using pymatgen
data_Na3Ag3W2(OF)6
_symmetry_space_group_name_H-M   'P 1'
_cell_length_a   10.30518353
_cell_length_b   10.30518353
_cell_length_c   10.30518355
_cell_angle_alpha   32.90846945
_cell_angle_beta   32.90846945
_cell_angle_gamma   32.90846976
_symmetry_Int_Tables_number   1
_chemical_formula_structural   Na3Ag3W2(OF)6
_chemical_formula_sum   'Na3 Ag3 W2 O6 F6'
_cell_volume   287.42724724
_cell_formula_units_Z   1
loop_
 _symmetry_equiv_pos_site_id
 _symmetry_equiv_pos_as_xyz
  1  'x, y, z'
loop_
 _atom_site_type_symbol
 _atom_site_label
 _atom_site_symmetry_multiplicity
 _atom_site_fract_x
 _atom_site_fract_y
 _atom_site_fract_z
 _atom_site_occupancy
  Na  Na0  1  0.13366800  0.13366800  0.13366800  1
  Na  Na1  1  0.86633200  0.86633200  0.86633200  1
  Na  Na2  1  0.50000000  0.50000000  0.50000000  1
  Ag  Ag3  1  0.00000000  0.00000000  0.00000000  1
  Ag  Ag4  1  0.37018700  0.37018700  0.37018700  1
  Ag  Ag5  1  0.62981300  0.62981300  0.62981300  1
  W  W6  1  0.25415400  0.25415400  0.25415400  1
  W  W7  1  0.74584600  0.74584600  0.74584600  1
  O  O8  1  0.57659500  0.24915100  0.02068600  1
  O  O9  1  0.24915100  0.02068600  0.57659500  1
  O  O10  1  0.02068600  0.57659500  0.24915100  1
  O  O11  1  0.42340500  0.75084900  0.97931400  1
  O  O12  1  0.75084900  0.97931400  0.42340500  1
  O  O13  1  0.97931400  0.42340500  0.75084900  1
  F  F14  1  0.07078700  0.76166300  0.55444000  1
  F  F15  1  0.76166300  0.55444000  0.07078700  1
  F  F16  1  0.55444000  0.07078700  0.76166300  1
  F  F17  1  0.92921300  0.23833700  0.44556000  1
  F  F18  1  0.23833700  0.44556000  0.92921300  1
  F  F19  1  0.44556000  0.92921300  0.23833700  1
