# generated using pymatgen
data_CsCoO2
_symmetry_space_group_name_H-M   'P 1'
_cell_length_a   6.23959800
_cell_length_b   7.02714169
_cell_length_c   8.33028300
_cell_angle_alpha   90.00000000
_cell_angle_beta   90.00000000
_cell_angle_gamma   116.35708452
_symmetry_Int_Tables_number   1
_chemical_formula_structural   CsCoO2
_chemical_formula_sum   'Cs4 Co4 O8'
_cell_volume   327.28392741
_cell_formula_units_Z   4
loop_
 _symmetry_equiv_pos_site_id
 _symmetry_equiv_pos_as_xyz
  1  'x, y, z'
loop_
 _atom_site_type_symbol
 _atom_site_label
 _atom_site_symmetry_multiplicity
 _atom_site_fract_x
 _atom_site_fract_y
 _atom_site_fract_z
 _atom_site_occupancy
  Cs  Cs0  1  0.16134600  0.32269200  0.56938700  1
  Cs  Cs1  1  0.83865400  0.67730800  0.43061300  1
  Cs  Cs2  1  0.33865400  0.67730800  0.06938700  1
  Cs  Cs3  1  0.66134600  0.32269200  0.93061300  1
  Co  Co4  1  0.45265700  0.90531500  0.64710200  1
  Co  Co5  1  0.54734300  0.09468500  0.35289800  1
  Co  Co6  1  0.04734300  0.09468500  0.14710200  1
  Co  Co7  1  0.95265700  0.90531500  0.85289800  1
  O  O8  1  0.09670800  0.19341600  0.92678800  1
  O  O9  1  0.90329200  0.80658400  0.07321200  1
  O  O10  1  0.40329200  0.80658400  0.42678800  1
  O  O11  1  0.59670800  0.19341600  0.57321200  1
  O  O12  1  0.16496100  0.82992200  0.75000000  1
  O  O13  1  0.33503900  0.17007800  0.25000000  1
  O  O14  1  0.83503900  0.17007800  0.25000000  1
  O  O15  1  0.66496100  0.82992200  0.75000000  1
