# generated using pymatgen
data_LaYbO3
_symmetry_space_group_name_H-M   'P 1'
_cell_length_a   5.87062500
_cell_length_b   6.09925400
_cell_length_c   8.54254100
_cell_angle_alpha   90.00000000
_cell_angle_beta   90.00000000
_cell_angle_gamma   90.00000000
_symmetry_Int_Tables_number   1
_chemical_formula_structural   LaYbO3
_chemical_formula_sum   'La4 Yb4 O12'
_cell_volume   305.87792208
_cell_formula_units_Z   4
loop_
 _symmetry_equiv_pos_site_id
 _symmetry_equiv_pos_as_xyz
  1  'x, y, z'
loop_
 _atom_site_type_symbol
 _atom_site_label
 _atom_site_symmetry_multiplicity
 _atom_site_fract_x
 _atom_site_fract_y
 _atom_site_fract_z
 _atom_site_occupancy
  La  La0  1  0.52075500  0.56167500  0.25000000  1
  La  La1  1  0.97924500  0.06167500  0.25000000  1
  La  La2  1  0.47924500  0.43832500  0.75000000  1
  La  La3  1  0.02075500  0.93832500  0.75000000  1
  Yb  Yb4  1  0.50000000  0.00000000  0.00000000  1
  Yb  Yb5  1  0.00000000  0.50000000  0.50000000  1
  Yb  Yb6  1  0.50000000  0.00000000  0.50000000  1
  Yb  Yb7  1  0.00000000  0.50000000  0.00000000  1
  O  O8  1  0.35933700  0.92739800  0.25000000  1
  O  O9  1  0.14066300  0.42739800  0.25000000  1
  O  O10  1  0.64066300  0.07260200  0.75000000  1
  O  O11  1  0.85933700  0.57260200  0.75000000  1
  O  O12  1  0.81057500  0.80965800  0.07589300  1
  O  O13  1  0.68942500  0.30965800  0.42410700  1
  O  O14  1  0.18942500  0.19034200  0.57589300  1
  O  O15  1  0.31057500  0.69034200  0.92410700  1
  O  O16  1  0.18942500  0.19034200  0.92410700  1
  O  O17  1  0.31057500  0.69034200  0.57589300  1
  O  O18  1  0.81057500  0.80965800  0.42410700  1
  O  O19  1  0.68942500  0.30965800  0.07589300  1
