# generated using pymatgen
data_Ba4Hf3S10
_symmetry_space_group_name_H-M   'P 1'
_cell_length_a   18.23506889
_cell_length_b   18.23506889
_cell_length_c   18.23506889
_cell_angle_alpha   164.23357844
_cell_angle_beta   164.23357844
_cell_angle_gamma   22.36859029
_symmetry_Int_Tables_number   1
_chemical_formula_structural   Ba4Hf3S10
_chemical_formula_sum   'Ba4 Hf3 S10'
_cell_volume   447.58316421
_cell_formula_units_Z   1
loop_
 _symmetry_equiv_pos_site_id
 _symmetry_equiv_pos_as_xyz
  1  'x, y, z'
loop_
 _atom_site_type_symbol
 _atom_site_label
 _atom_site_symmetry_multiplicity
 _atom_site_fract_x
 _atom_site_fract_y
 _atom_site_fract_z
 _atom_site_occupancy
  Ba  Ba0  1  0.43147000  0.43147000  0.00000000  1
  Ba  Ba1  1  0.56853000  0.56853000  0.00000000  1
  Ba  Ba2  1  0.29966300  0.29966300  0.00000000  1
  Ba  Ba3  1  0.70033700  0.70033700  0.00000000  1
  Hf  Hf4  1  0.00000000  0.00000000  0.00000000  1
  Hf  Hf5  1  0.85749600  0.85749600  0.00000000  1
  Hf  Hf6  1  0.14250400  0.14250400  0.00000000  1
  S  S7  1  0.92951300  0.92951300  0.00000000  1
  S  S8  1  0.07048700  0.07048700  0.00000000  1
  S  S9  1  0.78780600  0.78780600  0.00000000  1
  S  S10  1  0.21219400  0.21219400  0.00000000  1
  S  S11  1  0.50000000  0.00000000  0.50000000  1
  S  S12  1  0.00000000  0.50000000  0.50000000  1
  S  S13  1  0.36073200  0.86073200  0.50000000  1
  S  S14  1  0.13926800  0.63926800  0.50000000  1
  S  S15  1  0.63926800  0.13926800  0.50000000  1
  S  S16  1  0.86073200  0.36073200  0.50000000  1
