# generated using pymatgen
data_Sb2S3
_symmetry_space_group_name_H-M   'P 1'
_cell_length_a   3.87740200
_cell_length_b   11.21426500
_cell_length_c   12.20111400
_cell_angle_alpha   90.00000000
_cell_angle_beta   90.00000000
_cell_angle_gamma   90.00000000
_symmetry_Int_Tables_number   1
_chemical_formula_structural   Sb2S3
_chemical_formula_sum   'Sb8 S12'
_cell_volume   530.53144437
_cell_formula_units_Z   4
loop_
 _symmetry_equiv_pos_site_id
 _symmetry_equiv_pos_as_xyz
  1  'x, y, z'
loop_
 _atom_site_type_symbol
 _atom_site_label
 _atom_site_symmetry_multiplicity
 _atom_site_fract_x
 _atom_site_fract_y
 _atom_site_fract_z
 _atom_site_occupancy
  Sb  Sb0  1  0.50000000  0.17430100  0.28522300  1
  Sb  Sb1  1  0.00000000  0.67430100  0.71477700  1
  Sb  Sb2  1  0.00000000  0.46633400  0.39557700  1
  Sb  Sb3  1  0.50000000  0.96633400  0.60442300  1
  Sb  Sb4  1  0.00000000  0.83063900  0.21932500  1
  Sb  Sb5  1  0.50000000  0.33063900  0.78067500  1
  Sb  Sb6  1  0.50000000  0.53230700  0.11487900  1
  Sb  Sb7  1  0.00000000  0.03230700  0.88512100  1
  S  S8  1  0.00000000  0.05583500  0.37211300  1
  S  S9  1  0.50000000  0.55583500  0.62788700  1
  S  S10  1  0.50000000  0.30983400  0.45253200  1
  S  S11  1  0.00000000  0.80983400  0.54746800  1
  S  S12  1  0.00000000  0.37267100  0.21041900  1
  S  S13  1  0.50000000  0.87267100  0.78958100  1
  S  S14  1  0.50000000  0.94082700  0.12601300  1
  S  S15  1  0.00000000  0.44082700  0.87398700  1
  S  S16  1  0.00000000  0.68535200  0.05674800  1
  S  S17  1  0.50000000  0.18535200  0.94325200  1
  S  S18  1  0.50000000  0.62294000  0.30071600  1
  S  S19  1  0.00000000  0.12294000  0.69928400  1
