# generated using pymatgen
data_CaSO6
_symmetry_space_group_name_H-M   'P 1'
_cell_length_a   4.92292413
_cell_length_b   6.00634730
_cell_length_c   10.09245095
_cell_angle_alpha   101.58064406
_cell_angle_beta   97.22489577
_cell_angle_gamma   113.38935854
_symmetry_Int_Tables_number   1
_chemical_formula_structural   CaSO6
_chemical_formula_sum   'Ca2 S2 O12'
_cell_volume   261.22511587
_cell_formula_units_Z   2
loop_
 _symmetry_equiv_pos_site_id
 _symmetry_equiv_pos_as_xyz
  1  'x, y, z'
loop_
 _atom_site_type_symbol
 _atom_site_label
 _atom_site_symmetry_multiplicity
 _atom_site_fract_x
 _atom_site_fract_y
 _atom_site_fract_z
 _atom_site_occupancy
  Ca  Ca0  1  0.56465700  0.81465700  0.62931400  1
  Ca  Ca1  1  0.43534300  0.18534300  0.37068600  1
  S  S2  1  0.92305900  0.67305900  0.34611900  1
  S  S3  1  0.07694100  0.32694100  0.65388100  1
  O  O4  1  0.23784700  0.79806900  0.43727300  1
  O  O5  1  0.30057400  0.36079700  0.56272700  1
  O  O6  1  0.76215300  0.20193100  0.56272700  1
  O  O7  1  0.69942600  0.63920300  0.43727300  1
  O  O8  1  0.91283600  0.84797100  0.26310200  1
  O  O9  1  0.14973500  0.58487000  0.73689800  1
  O  O10  1  0.08716400  0.15202900  0.73689800  1
  O  O11  1  0.85026500  0.41513000  0.26310200  1
  O  O12  1  0.79216800  0.90504900  0.93861500  1
  O  O13  1  0.35355300  0.96643400  0.06138500  1
  O  O14  1  0.20783200  0.09495100  0.06138500  1
  O  O15  1  0.64644700  0.03356600  0.93861500  1
