# generated using pymatgen
data_Te3MoWSe
_symmetry_space_group_name_H-M   'P 1'
_cell_length_a   3.50044723
_cell_length_b   3.50044723
_cell_length_c   39.63005300
_cell_angle_alpha   90.00000000
_cell_angle_beta   90.00000000
_cell_angle_gamma   119.99998539
_symmetry_Int_Tables_number   1
_chemical_formula_structural   Te3MoWSe
_chemical_formula_sum   'Te6 Mo2 W2 Se2'
_cell_volume   420.53526254
_cell_formula_units_Z   2
loop_
 _symmetry_equiv_pos_site_id
 _symmetry_equiv_pos_as_xyz
  1  'x, y, z'
loop_
 _atom_site_type_symbol
 _atom_site_label
 _atom_site_symmetry_multiplicity
 _atom_site_fract_x
 _atom_site_fract_y
 _atom_site_fract_z
 _atom_site_occupancy
  Te  Te0  1  0.00000000  0.00000000  0.32826500  1
  Te  Te1  1  0.00000000  0.00000000  0.70373300  1
  Te  Te2  1  0.33333300  0.66666700  0.42319000  1
  Te  Te3  1  0.33333300  0.66666700  0.51615200  1
  Te  Te4  1  0.00000000  0.00000000  0.23529700  1
  Te  Te5  1  0.00000000  0.00000000  0.61133400  1
  Mo  Mo6  1  0.00000000  0.00000000  0.09391200  1
  Mo  Mo7  1  0.33333300  0.66666700  0.65754900  1
  W  W8  1  0.00000000  0.00000000  0.46966100  1
  W  W9  1  0.33333300  0.66666700  0.28177000  1
  Se  Se10  1  0.33333300  0.66666700  0.05311200  1
  Se  Se11  1  0.33333300  0.66666700  0.13477100  1
