# generated using pymatgen
data_Rb3YN6
_symmetry_space_group_name_H-M   'P 1'
_cell_length_a   8.17514093
_cell_length_b   8.17514093
_cell_length_c   8.17514080
_cell_angle_alpha   91.19265023
_cell_angle_beta   91.19265023
_cell_angle_gamma   91.19265082
_symmetry_Int_Tables_number   1
_chemical_formula_structural   Rb3YN6
_chemical_formula_sum   'Rb6 Y2 N12'
_cell_volume   546.00850625
_cell_formula_units_Z   2
loop_
 _symmetry_equiv_pos_site_id
 _symmetry_equiv_pos_as_xyz
  1  'x, y, z'
loop_
 _atom_site_type_symbol
 _atom_site_label
 _atom_site_symmetry_multiplicity
 _atom_site_fract_x
 _atom_site_fract_y
 _atom_site_fract_z
 _atom_site_occupancy
  Rb  Rb0  1  0.75000000  0.40479300  0.09520700  1
  Rb  Rb1  1  0.40479300  0.09520700  0.75000000  1
  Rb  Rb2  1  0.09520700  0.75000000  0.40479300  1
  Rb  Rb3  1  0.25000000  0.59520700  0.90479300  1
  Rb  Rb4  1  0.59520700  0.90479300  0.25000000  1
  Rb  Rb5  1  0.90479300  0.25000000  0.59520700  1
  Y  Y6  1  0.50000000  0.50000000  0.50000000  1
  Y  Y7  1  0.00000000  0.00000000  0.00000000  1
  N  N8  1  0.23421600  0.43602500  0.55879100  1
  N  N9  1  0.43602500  0.55879100  0.23421600  1
  N  N10  1  0.55879100  0.23421600  0.43602500  1
  N  N11  1  0.26578400  0.94120900  0.06397500  1
  N  N12  1  0.06397500  0.26578400  0.94120900  1
  N  N13  1  0.94120900  0.06397500  0.26578400  1
  N  N14  1  0.56397500  0.44120900  0.76578400  1
  N  N15  1  0.44120900  0.76578400  0.56397500  1
  N  N16  1  0.76578400  0.56397500  0.44120900  1
  N  N17  1  0.93602500  0.73421600  0.05879100  1
  N  N18  1  0.05879100  0.93602500  0.73421600  1
  N  N19  1  0.73421600  0.05879100  0.93602500  1
