# generated using pymatgen
data_Zn3Sn3Se9NO4
_symmetry_space_group_name_H-M   'P 1'
_cell_length_a   7.63684700
_cell_length_b   7.84464447
_cell_length_c   10.23359332
_cell_angle_alpha   105.52929962
_cell_angle_beta   108.57455982
_cell_angle_gamma   95.69177088
_symmetry_Int_Tables_number   1
_chemical_formula_structural   Zn3Sn3Se9NO4
_chemical_formula_sum   'Zn3 Sn3 Se9 N1 O4'
_cell_volume   548.38801102
_cell_formula_units_Z   1
loop_
 _symmetry_equiv_pos_site_id
 _symmetry_equiv_pos_as_xyz
  1  'x, y, z'
loop_
 _atom_site_type_symbol
 _atom_site_label
 _atom_site_symmetry_multiplicity
 _atom_site_fract_x
 _atom_site_fract_y
 _atom_site_fract_z
 _atom_site_occupancy
  Zn  Zn0  1  0.28930700  0.76675200  0.31060300  1
  Zn  Zn1  1  0.90151600  0.81444900  0.94522400  1
  Zn  Zn2  1  0.11955700  0.28362800  0.59803600  1
  Sn  Sn3  1  0.60172400  0.51682600  0.54567200  1
  Sn  Sn4  1  0.32053500  0.20237100  0.08512000  1
  Sn  Sn5  1  0.72463400  0.57702500  0.20023400  1
  Se  Se6  1  0.97826800  0.82984500  0.20736800  1
  Se  Se7  1  0.41414900  0.17686200  0.41406100  1
  Se  Se8  1  0.71273000  0.50795300  0.80990900  1
  Se  Se9  1  0.24014900  0.84760900  0.94243800  1
  Se  Se10  1  0.91807200  0.59461800  0.48940700  1
  Se  Se11  1  0.39412100  0.74888100  0.54972700  1
  Se  Se12  1  0.66747300  0.24136000  0.05376500  1
  Se  Se13  1  0.99259400  0.28759500  0.82883200  1
  Se  Se14  1  0.47233200  0.80408200  0.16021600  1
  N  N15  1  0.86797800  0.04440300  0.91297100  1
  O  O16  1  0.30366200  0.16787800  0.54165600  1
  O  O17  1  0.92547800  0.13487500  0.65955300  1
  O  O18  1  0.97199000  0.37918900  0.45062700  1
  O  O19  1  0.17786000  0.41786000  0.81220000  1
