# generated using pymatgen
data_Ti2FeB2Rh5
_symmetry_space_group_name_H-M   'P 1'
_cell_length_a   9.08714900
_cell_length_b   9.08714900
_cell_length_c   3.11057800
_cell_angle_alpha   90.00000000
_cell_angle_beta   90.00000000
_cell_angle_gamma   90.00000000
_symmetry_Int_Tables_number   1
_chemical_formula_structural   Ti2FeB2Rh5
_chemical_formula_sum   'Ti4 Fe2 B4 Rh10'
_cell_volume   256.85995040
_cell_formula_units_Z   2
loop_
 _symmetry_equiv_pos_site_id
 _symmetry_equiv_pos_as_xyz
  1  'x, y, z'
loop_
 _atom_site_type_symbol
 _atom_site_label
 _atom_site_symmetry_multiplicity
 _atom_site_fract_x
 _atom_site_fract_y
 _atom_site_fract_z
 _atom_site_occupancy
  Ti  Ti0  1  0.67600700  0.17600700  0.00000000  1
  Ti  Ti1  1  0.32399300  0.82399300  0.00000000  1
  Ti  Ti2  1  0.17600700  0.32399300  0.00000000  1
  Ti  Ti3  1  0.82399300  0.67600700  0.00000000  1
  Fe  Fe4  1  0.50000000  0.50000000  0.00000000  1
  Fe  Fe5  1  0.00000000  0.00000000  0.00000000  1
  B  B6  1  0.12497300  0.62497300  0.00000000  1
  B  B7  1  0.87502700  0.37502700  0.00000000  1
  B  B8  1  0.62497300  0.87502700  0.00000000  1
  B  B9  1  0.37502700  0.12497300  0.00000000  1
  Rh  Rh10  1  0.57318700  0.71377900  0.50000000  1
  Rh  Rh11  1  0.42681300  0.28622100  0.50000000  1
  Rh  Rh12  1  0.07318700  0.78622100  0.50000000  1
  Rh  Rh13  1  0.92681300  0.21377900  0.50000000  1
  Rh  Rh14  1  0.28622100  0.57318700  0.50000000  1
  Rh  Rh15  1  0.71377900  0.42681300  0.50000000  1
  Rh  Rh16  1  0.21377900  0.07318700  0.50000000  1
  Rh  Rh17  1  0.78622100  0.92681300  0.50000000  1
  Rh  Rh18  1  0.50000000  0.00000000  0.50000000  1
  Rh  Rh19  1  0.00000000  0.50000000  0.50000000  1
