# generated using pymatgen
data_U3S5
_symmetry_space_group_name_H-M   'P 1'
_cell_length_a   7.98285207
_cell_length_b   7.98285207
_cell_length_c   7.98285207
_cell_angle_alpha   97.27271462
_cell_angle_beta   97.27271462
_cell_angle_gamma   138.31527718
_symmetry_Int_Tables_number   1
_chemical_formula_structural   U3S5
_chemical_formula_sum   'U6 S10'
_cell_volume   316.17303045
_cell_formula_units_Z   2
loop_
 _symmetry_equiv_pos_site_id
 _symmetry_equiv_pos_as_xyz
  1  'x, y, z'
loop_
 _atom_site_type_symbol
 _atom_site_label
 _atom_site_symmetry_multiplicity
 _atom_site_fract_x
 _atom_site_fract_y
 _atom_site_fract_z
 _atom_site_occupancy
  U  U0  1  0.65780500  0.15780500  0.81560900  1
  U  U1  1  0.34219500  0.84219500  0.18439100  1
  U  U2  1  0.84219500  0.65780500  0.50000000  1
  U  U3  1  0.15780500  0.34219500  0.50000000  1
  U  U4  1  0.75000000  0.75000000  0.00000000  1
  U  U5  1  0.25000000  0.25000000  0.00000000  1
  S  S6  1  0.21633100  0.08099200  0.29732400  1
  S  S7  1  0.78366900  0.91900800  0.70267600  1
  S  S8  1  0.28366900  0.58099200  0.86466100  1
  S  S9  1  0.71633100  0.41900800  0.13533900  1
  S  S10  1  0.08099200  0.78366900  0.86466100  1
  S  S11  1  0.91900800  0.21633100  0.13533900  1
  S  S12  1  0.58099200  0.71633100  0.29732400  1
  S  S13  1  0.41900800  0.28366900  0.70267600  1
  S  S14  1  0.25000000  0.75000000  0.50000000  1
  S  S15  1  0.75000000  0.25000000  0.50000000  1
