# generated using pymatgen
data_Te2Mo(WS2)3
_symmetry_space_group_name_H-M   'P 1'
_cell_length_a   3.27321359
_cell_length_b   3.27321359
_cell_length_c   37.24775800
_cell_angle_alpha   90.00000000
_cell_angle_beta   90.00000000
_cell_angle_gamma   119.99999167
_symmetry_Int_Tables_number   1
_chemical_formula_structural   Te2Mo(WS2)3
_chemical_formula_sum   'Te2 Mo1 W3 S6'
_cell_volume   345.60458533
_cell_formula_units_Z   1
loop_
 _symmetry_equiv_pos_site_id
 _symmetry_equiv_pos_as_xyz
  1  'x, y, z'
loop_
 _atom_site_type_symbol
 _atom_site_label
 _atom_site_symmetry_multiplicity
 _atom_site_fract_x
 _atom_site_fract_y
 _atom_site_fract_z
 _atom_site_occupancy
  Te  Te0  1  0.66666700  0.33333300  0.41755400  1
  Te  Te1  1  0.66666700  0.33333300  0.52172800  1
  Mo  Mo2  1  0.66666700  0.33333300  0.28175300  1
  W  W3  1  0.33333300  0.66666700  0.09392500  1
  W  W4  1  0.33333300  0.66666700  0.46964700  1
  W  W5  1  0.66666700  0.33333300  0.65760400  1
  S  S6  1  0.33333300  0.66666700  0.32307100  1
  S  S7  1  0.33333300  0.66666700  0.69906100  1
  S  S8  1  0.66666700  0.33333300  0.05242900  1
  S  S9  1  0.66666700  0.33333300  0.13541900  1
  S  S10  1  0.33333300  0.66666700  0.24046400  1
  S  S11  1  0.33333300  0.66666700  0.61609400  1
