# generated using pymatgen
data_Bi2O3
_symmetry_space_group_name_H-M   'P 1'
_cell_length_a   5.70355300
_cell_length_b   5.82929500
_cell_length_c   11.85341100
_cell_angle_alpha   90.00000000
_cell_angle_beta   90.00000000
_cell_angle_gamma   90.00000000
_symmetry_Int_Tables_number   1
_chemical_formula_structural   Bi2O3
_chemical_formula_sum   'Bi8 O12'
_cell_volume   394.09856975
_cell_formula_units_Z   4
loop_
 _symmetry_equiv_pos_site_id
 _symmetry_equiv_pos_as_xyz
  1  'x, y, z'
loop_
 _atom_site_type_symbol
 _atom_site_label
 _atom_site_symmetry_multiplicity
 _atom_site_fract_x
 _atom_site_fract_y
 _atom_site_fract_z
 _atom_site_occupancy
  Bi  Bi0  1  0.05053700  0.18563100  0.62796500  1
  Bi  Bi1  1  0.55053700  0.31436900  0.87203500  1
  Bi  Bi2  1  0.94946300  0.31436900  0.12796500  1
  Bi  Bi3  1  0.44946300  0.18563100  0.37203500  1
  Bi  Bi4  1  0.94946300  0.81436900  0.37203500  1
  Bi  Bi5  1  0.44946300  0.68563100  0.12796500  1
  Bi  Bi6  1  0.05053700  0.68563100  0.87203500  1
  Bi  Bi7  1  0.55053700  0.81436900  0.62796500  1
  O  O8  1  0.75000000  0.05318200  0.50000000  1
  O  O9  1  0.25000000  0.44681800  0.00000000  1
  O  O10  1  0.25000000  0.94681800  0.50000000  1
  O  O11  1  0.75000000  0.55318200  0.00000000  1
  O  O12  1  0.61246600  0.40888600  0.21527600  1
  O  O13  1  0.11246600  0.09111400  0.28472400  1
  O  O14  1  0.38753400  0.09111400  0.71527600  1
  O  O15  1  0.88753400  0.40888600  0.78472400  1
  O  O16  1  0.38753400  0.59111400  0.78472400  1
  O  O17  1  0.88753400  0.90888600  0.71527600  1
  O  O18  1  0.61246600  0.90888600  0.28472400  1
  O  O19  1  0.11246600  0.59111400  0.21527600  1
