data_image0
_chemical_formula_structural       B2Re6
_chemical_formula_sum              "B2 Re6"
_cell_length_a       2.90156
_cell_length_b       4.91375
_cell_length_c       7.32148
_cell_angle_alpha    90
_cell_angle_beta     90
_cell_angle_gamma    72.8275

_space_group_name_H-M_alt    "P 1"
_space_group_IT_number       1

loop_
  _space_group_symop_operation_xyz
  'x, y, z'

loop_
  _atom_site_type_symbol
  _atom_site_label
  _atom_site_symmetry_multiplicity
  _atom_site_fract_x
  _atom_site_fract_y
  _atom_site_fract_z
  _atom_site_occupancy
  B   B1        1.0  0.74500  0.50900  0.25000  1.0000
  B   B2        1.0  0.25500  0.49100  0.75000  1.0000
  Re  Re1       1.0  0.13300  0.73400  0.06470  1.0000
  Re  Re2       1.0  0.42500  0.15100  0.25000  1.0000
  Re  Re3       1.0  0.13300  0.73400  0.43500  1.0000
  Re  Re4       1.0  0.86700  0.26600  0.56500  1.0000
  Re  Re5       1.0  0.57500  0.84900  0.75000  1.0000
  Re  Re6       1.0  0.86700  0.26600  0.93500  1.0000
