# generated using pymatgen
data_H4C2NO2
_symmetry_space_group_name_H-M   'P 1'
_cell_length_a   6.70176014
_cell_length_b   6.70176014
_cell_length_c   4.31396517
_cell_angle_alpha   79.26058200
_cell_angle_beta   79.26058200
_cell_angle_gamma   104.97523589
_symmetry_Int_Tables_number   1
_chemical_formula_structural   H4C2NO2
_chemical_formula_sum   'H8 C4 N2 O4'
_cell_volume   178.19583614
_cell_formula_units_Z   2
loop_
 _symmetry_equiv_pos_site_id
 _symmetry_equiv_pos_as_xyz
  1  'x, y, z'
loop_
 _atom_site_type_symbol
 _atom_site_label
 _atom_site_symmetry_multiplicity
 _atom_site_fract_x
 _atom_site_fract_y
 _atom_site_fract_z
 _atom_site_occupancy
  H  H0  1  0.86546800  0.32253800  0.34545800  1
  H  H1  1  0.32253800  0.86546800  0.34545800  1
  H  H2  1  0.13453200  0.67746200  0.65454200  1
  H  H3  1  0.67746200  0.13453200  0.65454200  1
  H  H4  1  0.72045800  0.40128800  0.63311600  1
  H  H5  1  0.40128800  0.72045800  0.63311600  1
  H  H6  1  0.27954200  0.59871200  0.36688400  1
  H  H7  1  0.59871200  0.27954200  0.36688400  1
  C  C8  1  0.78098800  0.78098800  0.85330900  1
  C  C9  1  0.21901200  0.21901200  0.14669100  1
  C  C10  1  0.93493900  0.93493900  0.95916100  1
  C  C11  1  0.06506100  0.06506100  0.04083900  1
  N  N12  1  0.71479300  0.28520700  0.50000000  1
  N  N13  1  0.28520700  0.71479300  0.50000000  1
  O  O14  1  0.61510700  0.82973600  0.81172500  1
  O  O15  1  0.82973600  0.61510700  0.81172500  1
  O  O16  1  0.38489300  0.17026400  0.18827500  1
  O  O17  1  0.17026400  0.38489300  0.18827500  1
