# generated using pymatgen
data_KNO3
_symmetry_space_group_name_H-M   'P 1'
_cell_length_a   9.51241200
_cell_length_b   5.16349500
_cell_length_c   7.16673800
_cell_angle_alpha   90.00000000
_cell_angle_beta   90.00000000
_cell_angle_gamma   90.00000000
_symmetry_Int_Tables_number   1
_chemical_formula_structural   KNO3
_chemical_formula_sum   'K4 N4 O12'
_cell_volume   352.01076160
_cell_formula_units_Z   4
loop_
 _symmetry_equiv_pos_site_id
 _symmetry_equiv_pos_as_xyz
  1  'x, y, z'
loop_
 _atom_site_type_symbol
 _atom_site_label
 _atom_site_symmetry_multiplicity
 _atom_site_fract_x
 _atom_site_fract_y
 _atom_site_fract_z
 _atom_site_occupancy
  K  K0  1  0.25330100  0.25000000  0.58286600  1
  K  K1  1  0.75330100  0.25000000  0.91713400  1
  K  K2  1  0.74669900  0.75000000  0.41713400  1
  K  K3  1  0.24669900  0.75000000  0.08286600  1
  N  N4  1  0.52175900  0.25000000  0.29369600  1
  N  N5  1  0.02175900  0.25000000  0.20630400  1
  N  N6  1  0.47824100  0.75000000  0.70630400  1
  N  N7  1  0.97824100  0.75000000  0.79369600  1
  O  O8  1  0.65577800  0.25000000  0.30345000  1
  O  O9  1  0.15577800  0.25000000  0.19655000  1
  O  O10  1  0.34422200  0.75000000  0.69655000  1
  O  O11  1  0.84422200  0.75000000  0.80345000  1
  O  O12  1  0.04309900  0.53678900  0.78925100  1
  O  O13  1  0.54309900  0.96321100  0.71074900  1
  O  O14  1  0.95690100  0.03678900  0.21074900  1
  O  O15  1  0.45690100  0.46321100  0.28925100  1
  O  O16  1  0.95690100  0.46321100  0.21074900  1
  O  O17  1  0.45690100  0.03678900  0.28925100  1
  O  O18  1  0.04309900  0.96321100  0.78925100  1
  O  O19  1  0.54309900  0.53678900  0.71074900  1
