# generated using pymatgen
data_CsUCl4O3
_symmetry_space_group_name_H-M   'P 1'
_cell_length_a   9.45413500
_cell_length_b   6.93485900
_cell_length_c   7.79405860
_cell_angle_alpha   81.71442460
_cell_angle_beta   90.00000000
_cell_angle_gamma   90.00000000
_symmetry_Int_Tables_number   1
_chemical_formula_structural   CsUCl4O3
_chemical_formula_sum   'Cs2 U2 Cl8 O6'
_cell_volume   505.66879668
_cell_formula_units_Z   2
loop_
 _symmetry_equiv_pos_site_id
 _symmetry_equiv_pos_as_xyz
  1  'x, y, z'
loop_
 _atom_site_type_symbol
 _atom_site_label
 _atom_site_symmetry_multiplicity
 _atom_site_fract_x
 _atom_site_fract_y
 _atom_site_fract_z
 _atom_site_occupancy
  Cs  Cs0  1  0.25000000  0.03471700  0.22231000  1
  Cs  Cs1  1  0.75000000  0.96528300  0.77769000  1
  U  U2  1  0.25000000  0.41477300  0.62451200  1
  U  U3  1  0.75000000  0.58522700  0.37548800  1
  Cl  Cl4  1  0.55886800  0.26624700  0.44459400  1
  Cl  Cl5  1  0.05886800  0.73375300  0.55540600  1
  Cl  Cl6  1  0.44113200  0.73375300  0.55540600  1
  Cl  Cl7  1  0.94113200  0.26624700  0.44459400  1
  Cl  Cl8  1  0.54652300  0.69813700  0.12634500  1
  Cl  Cl9  1  0.04652300  0.30186300  0.87365500  1
  Cl  Cl10  1  0.45347700  0.30186300  0.87365500  1
  Cl  Cl11  1  0.95347700  0.69813700  0.12634500  1
  O  O12  1  0.25000000  0.44532400  0.38418200  1
  O  O13  1  0.75000000  0.55467600  0.61581800  1
  O  O14  1  0.25000000  0.14880200  0.61205300  1
  O  O15  1  0.75000000  0.85119800  0.38794700  1
  O  O16  1  0.25000000  0.59236900  0.79568000  1
  O  O17  1  0.75000000  0.40763100  0.20432000  1
