# generated using pymatgen
data_KGd(MoO4)2
_symmetry_space_group_name_H-M   'P 1'
_cell_length_a   5.37129989
_cell_length_b   7.04441809
_cell_length_c   10.84508371
_cell_angle_alpha   75.60960082
_cell_angle_beta   76.84248663
_cell_angle_gamma   67.58125603
_symmetry_Int_Tables_number   1
_chemical_formula_structural   KGd(MoO4)2
_chemical_formula_sum   'K2 Gd2 Mo4 O16'
_cell_volume   363.37061701
_cell_formula_units_Z   2
loop_
 _symmetry_equiv_pos_site_id
 _symmetry_equiv_pos_as_xyz
  1  'x, y, z'
loop_
 _atom_site_type_symbol
 _atom_site_label
 _atom_site_symmetry_multiplicity
 _atom_site_fract_x
 _atom_site_fract_y
 _atom_site_fract_z
 _atom_site_occupancy
  K  K0  1  0.11465300  0.69527900  0.55685800  1
  K  K1  1  0.88534700  0.30472100  0.44314200  1
  Gd  Gd2  1  0.87852200  0.81495800  0.93818200  1
  Gd  Gd3  1  0.12147800  0.18504200  0.06181800  1
  Mo  Mo4  1  0.61475700  0.42862400  0.83030800  1
  Mo  Mo5  1  0.38524300  0.57137600  0.16969200  1
  Mo  Mo6  1  0.36397500  0.06076900  0.71725700  1
  Mo  Mo7  1  0.63602500  0.93923100  0.28274300  1
  O  O8  1  0.82234500  0.41350300  0.68097200  1
  O  O9  1  0.17765500  0.58649700  0.31902800  1
  O  O10  1  0.53920900  0.18732800  0.91549300  1
  O  O11  1  0.46079100  0.81267200  0.08450700  1
  O  O12  1  0.80376000  0.48358400  0.93175400  1
  O  O13  1  0.19624000  0.51641600  0.06824600  1
  O  O14  1  0.30140400  0.64171200  0.80828200  1
  O  O15  1  0.69859600  0.35828800  0.19171800  1
  O  O16  1  0.69917600  0.87524100  0.75050000  1
  O  O17  1  0.30082400  0.12475900  0.24950000  1
  O  O18  1  0.11537300  0.05874900  0.87158500  1
  O  O19  1  0.88462700  0.94125100  0.12841500  1
  O  O20  1  0.40424100  0.30474100  0.65393200  1
  O  O21  1  0.59575900  0.69525900  0.34606800  1
  O  O22  1  0.25295800  0.99952200  0.59697600  1
  O  O23  1  0.74704200  0.00047800  0.40302400  1
