# generated using pymatgen
data_Ba2GdGaSe5
_symmetry_space_group_name_H-M   'P 1'
_cell_length_a   7.40656600
_cell_length_b   8.82239624
_cell_length_c   9.56081456
_cell_angle_alpha   103.62671872
_cell_angle_beta   103.08246414
_cell_angle_gamma   107.47341270
_symmetry_Int_Tables_number   1
_chemical_formula_structural   Ba2GdGaSe5
_chemical_formula_sum   'Ba4 Gd2 Ga2 Se10'
_cell_volume   548.58893024
_cell_formula_units_Z   2
loop_
 _symmetry_equiv_pos_site_id
 _symmetry_equiv_pos_as_xyz
  1  'x, y, z'
loop_
 _atom_site_type_symbol
 _atom_site_label
 _atom_site_symmetry_multiplicity
 _atom_site_fract_x
 _atom_site_fract_y
 _atom_site_fract_z
 _atom_site_occupancy
  Ba  Ba0  1  0.63433700  0.97830700  0.29121200  1
  Ba  Ba1  1  0.36566300  0.02169300  0.70878800  1
  Ba  Ba2  1  0.34176800  0.51021900  0.70628900  1
  Ba  Ba3  1  0.65823200  0.48978100  0.29371100  1
  Gd  Gd4  1  0.99768500  0.73125700  0.99796900  1
  Gd  Gd5  1  0.00231500  0.26874300  0.00203100  1
  Ga  Ga6  1  0.80479300  0.87136100  0.68720600  1
  Ga  Ga7  1  0.19520700  0.12863900  0.31279400  1
  Se  Se8  1  0.98764800  0.68381000  0.68321800  1
  Se  Se9  1  0.01235200  0.31619000  0.31678200  1
  Se  Se10  1  0.98286500  0.15164900  0.68630600  1
  Se  Se11  1  0.01713500  0.84835100  0.31369400  1
  Se  Se12  1  0.71031700  0.90752400  0.92508700  1
  Se  Se13  1  0.28968300  0.09247600  0.07491300  1
  Se  Se14  1  0.70459800  0.41046200  0.94497400  1
  Se  Se15  1  0.29540200  0.58953800  0.05502600  1
  Se  Se16  1  0.48845700  0.74092700  0.49223000  1
  Se  Se17  1  0.51154300  0.25907300  0.50777000  1
