# generated using pymatgen
data_K3C6N9O
_symmetry_space_group_name_H-M   'P 1'
_cell_length_a   3.85612900
_cell_length_b   8.13221828
_cell_length_c   10.20305579
_cell_angle_alpha   107.44706340
_cell_angle_beta   100.09233690
_cell_angle_gamma   92.64400509
_symmetry_Int_Tables_number   1
_chemical_formula_structural   K3C6N9O
_chemical_formula_sum   'K3 C6 N9 O1'
_cell_volume   298.85071258
_cell_formula_units_Z   1
loop_
 _symmetry_equiv_pos_site_id
 _symmetry_equiv_pos_as_xyz
  1  'x, y, z'
loop_
 _atom_site_type_symbol
 _atom_site_label
 _atom_site_symmetry_multiplicity
 _atom_site_fract_x
 _atom_site_fract_y
 _atom_site_fract_z
 _atom_site_occupancy
  K  K0  1  0.02405100  0.97846300  0.00166700  1
  K  K1  1  0.50801100  0.76055400  0.37853800  1
  K  K2  1  0.87571200  0.44089800  0.87410500  1
  C  C3  1  0.07161600  0.17791800  0.50481900  1
  C  C4  1  0.05131300  0.46884200  0.53133500  1
  C  C5  1  0.82906200  0.27277700  0.31395600  1
  C  C6  1  0.28521100  0.08022500  0.68472900  1
  C  C7  1  0.29626300  0.67699000  0.73785100  1
  C  C8  1  0.56009800  0.36049200  0.13648800  1
  N  N9  1  0.41461000  0.10475200  0.80421600  1
  N  N10  1  0.44007500  0.72206800  0.85803700  1
  N  N11  1  0.45253400  0.46896300  0.08878200  1
  N  N12  1  0.12690200  0.34263700  0.58989600  1
  N  N13  1  0.89154000  0.43823100  0.39669600  1
  N  N14  1  0.93581700  0.13707100  0.36196800  1
  N  N15  1  0.14734000  0.04212000  0.55157500  1
  N  N16  1  0.13685600  0.63928100  0.60872200  1
  N  N17  1  0.66310200  0.23078600  0.17782600  1
  O  O18  1  0.90268700  0.97433300  0.27629400  1
