# generated using pymatgen
data_NaU(TeO4)2
_symmetry_space_group_name_H-M   'P 1'
_cell_length_a   7.88327300
_cell_length_b   5.99988900
_cell_length_c   7.90754500
_cell_angle_alpha   90.00000000
_cell_angle_beta   90.00000000
_cell_angle_gamma   90.00000000
_symmetry_Int_Tables_number   1
_chemical_formula_structural   NaU(TeO4)2
_chemical_formula_sum   'Na2 U2 Te4 O16'
_cell_volume   374.01709652
_cell_formula_units_Z   2
loop_
 _symmetry_equiv_pos_site_id
 _symmetry_equiv_pos_as_xyz
  1  'x, y, z'
loop_
 _atom_site_type_symbol
 _atom_site_label
 _atom_site_symmetry_multiplicity
 _atom_site_fract_x
 _atom_site_fract_y
 _atom_site_fract_z
 _atom_site_occupancy
  Na  Na0  1  0.50000000  0.98021000  0.49998900  1
  Na  Na1  1  0.00000000  0.01979000  0.99998900  1
  U  U2  1  0.00000000  0.99845800  0.49939500  1
  U  U3  1  0.50000000  0.00154200  0.99939500  1
  Te  Te4  1  0.25191700  0.56347300  0.73630800  1
  Te  Te5  1  0.74808300  0.56347300  0.73630800  1
  Te  Te6  1  0.24808300  0.43652700  0.23630800  1
  Te  Te7  1  0.75191700  0.43652700  0.23630800  1
  O  O8  1  0.00000000  0.11896000  0.71488700  1
  O  O9  1  0.50000000  0.88104000  0.21488700  1
  O  O10  1  0.00000000  0.88481700  0.28296100  1
  O  O11  1  0.50000000  0.11518300  0.78296100  1
  O  O12  1  0.29691600  0.74955500  0.92968200  1
  O  O13  1  0.70308400  0.74955500  0.92968200  1
  O  O14  1  0.20308400  0.25044500  0.42968200  1
  O  O15  1  0.79691600  0.25044500  0.42968200  1
  O  O16  1  0.22642900  0.76829300  0.55072700  1
  O  O17  1  0.77357100  0.76829300  0.55072700  1
  O  O18  1  0.27357100  0.23170700  0.05072700  1
  O  O19  1  0.72642900  0.23170700  0.05072700  1
  O  O20  1  0.50000000  0.59072000  0.66520800  1
  O  O21  1  0.00000000  0.40928000  0.16520800  1
  O  O22  1  0.00000000  0.64646000  0.78204500  1
  O  O23  1  0.50000000  0.35354000  0.28204500  1
