# generated using pymatgen
data_MoW(SeS)2
_symmetry_space_group_name_H-M   'P 1'
_cell_length_a   3.25396494
_cell_length_b   3.25396494
_cell_length_c   36.88467500
_cell_angle_alpha   90.00000000
_cell_angle_beta   90.00000000
_cell_angle_gamma   119.99997853
_symmetry_Int_Tables_number   1
_chemical_formula_structural   MoW(SeS)2
_chemical_formula_sum   'Mo2 W2 Se4 S4'
_cell_volume   338.22244639
_cell_formula_units_Z   2
loop_
 _symmetry_equiv_pos_site_id
 _symmetry_equiv_pos_as_xyz
  1  'x, y, z'
loop_
 _atom_site_type_symbol
 _atom_site_label
 _atom_site_symmetry_multiplicity
 _atom_site_fract_x
 _atom_site_fract_y
 _atom_site_fract_z
 _atom_site_occupancy
  Mo  Mo0  1  0.00000000  0.00000000  0.46966300  1
  Mo  Mo1  1  0.33333300  0.66666700  0.28180600  1
  W  W2  1  0.00000000  0.00000000  0.09391900  1
  W  W3  1  0.33333300  0.66666700  0.65756900  1
  Se  Se4  1  0.00000000  0.00000000  0.70390000  1
  Se  Se5  1  0.33333300  0.66666700  0.42363400  1
  Se  Se6  1  0.33333300  0.66666700  0.51564900  1
  Se  Se7  1  0.00000000  0.00000000  0.61121600  1
  S  S8  1  0.00000000  0.00000000  0.32368100  1
  S  S9  1  0.33333300  0.66666700  0.05190600  1
  S  S10  1  0.33333300  0.66666700  0.13592100  1
  S  S11  1  0.00000000  0.00000000  0.23988400  1
