# generated using pymatgen
data_TiP2NO8
_symmetry_space_group_name_H-M   'P 1'
_cell_length_a   6.36932500
_cell_length_b   5.17550000
_cell_length_c   11.44924644
_cell_angle_alpha   83.15480724
_cell_angle_beta   90.00000000
_cell_angle_gamma   90.00000000
_symmetry_Int_Tables_number   1
_chemical_formula_structural   TiP2NO8
_chemical_formula_sum   'Ti2 P4 N2 O16'
_cell_volume   374.72770641
_cell_formula_units_Z   2
loop_
 _symmetry_equiv_pos_site_id
 _symmetry_equiv_pos_as_xyz
  1  'x, y, z'
loop_
 _atom_site_type_symbol
 _atom_site_label
 _atom_site_symmetry_multiplicity
 _atom_site_fract_x
 _atom_site_fract_y
 _atom_site_fract_z
 _atom_site_occupancy
  Ti  Ti0  1  0.75000000  0.22788100  0.13615600  1
  Ti  Ti1  1  0.25000000  0.77211900  0.86384400  1
  P  P2  1  0.75000000  0.78830000  0.94236300  1
  P  P3  1  0.25000000  0.21170000  0.05763700  1
  P  P4  1  0.75000000  0.66274600  0.33412500  1
  P  P5  1  0.25000000  0.33725400  0.66587500  1
  N  N6  1  0.25000000  0.07996100  0.37841500  1
  N  N7  1  0.75000000  0.92003900  0.62158500  1
  O  O8  1  0.75000000  0.04515700  0.99785900  1
  O  O9  1  0.25000000  0.95484300  0.00214100  1
  O  O10  1  0.55480100  0.77679800  0.86350900  1
  O  O11  1  0.05480100  0.22320200  0.13649100  1
  O  O12  1  0.44519900  0.22320200  0.13649100  1
  O  O13  1  0.94519900  0.77679800  0.86350900  1
  O  O14  1  0.75000000  0.55606900  0.04036700  1
  O  O15  1  0.25000000  0.44393100  0.95963300  1
  O  O16  1  0.75000000  0.88967500  0.23510700  1
  O  O17  1  0.25000000  0.11032500  0.76489300  1
  O  O18  1  0.75000000  0.40044300  0.28464400  1
  O  O19  1  0.25000000  0.59955700  0.71535600  1
  O  O20  1  0.56342000  0.68954700  0.41939400  1
  O  O21  1  0.06342000  0.31045300  0.58060600  1
  O  O22  1  0.43658000  0.31045300  0.58060600  1
  O  O23  1  0.93658000  0.68954700  0.41939400  1
