# generated using pymatgen
data_Ni2ClO3
_symmetry_space_group_name_H-M   'P 1'
_cell_length_a   5.74841300
_cell_length_b   6.30401800
_cell_length_c   8.30613600
_cell_angle_alpha   90.00000000
_cell_angle_beta   90.00000000
_cell_angle_gamma   90.00000000
_symmetry_Int_Tables_number   1
_chemical_formula_structural   Ni2ClO3
_chemical_formula_sum   'Ni8 Cl4 O12'
_cell_volume   300.99857887
_cell_formula_units_Z   4
loop_
 _symmetry_equiv_pos_site_id
 _symmetry_equiv_pos_as_xyz
  1  'x, y, z'
loop_
 _atom_site_type_symbol
 _atom_site_label
 _atom_site_symmetry_multiplicity
 _atom_site_fract_x
 _atom_site_fract_y
 _atom_site_fract_z
 _atom_site_occupancy
  Ni  Ni0  1  0.50000000  0.00000000  0.50000000  1
  Ni  Ni1  1  0.00000000  0.50000000  0.00000000  1
  Ni  Ni2  1  0.50000000  0.50000000  0.50000000  1
  Ni  Ni3  1  0.00000000  0.00000000  0.00000000  1
  Ni  Ni4  1  0.29810300  0.75000000  0.75404900  1
  Ni  Ni5  1  0.79810300  0.75000000  0.74595100  1
  Ni  Ni6  1  0.70189700  0.25000000  0.24595100  1
  Ni  Ni7  1  0.20189700  0.25000000  0.25404900  1
  Cl  Cl8  1  0.32436200  0.75000000  0.02951300  1
  Cl  Cl9  1  0.82436200  0.75000000  0.47048700  1
  Cl  Cl10  1  0.67563800  0.25000000  0.97048700  1
  Cl  Cl11  1  0.17563800  0.25000000  0.52951300  1
  O  O12  1  0.31000200  0.75000000  0.52442300  1
  O  O13  1  0.81000200  0.75000000  0.97557700  1
  O  O14  1  0.68999800  0.25000000  0.47557700  1
  O  O15  1  0.18999800  0.25000000  0.02442300  1
  O  O16  1  0.04428400  0.94676800  0.77411800  1
  O  O17  1  0.54428400  0.55323200  0.72588200  1
  O  O18  1  0.95571600  0.44676800  0.22588200  1
  O  O19  1  0.45571600  0.05323200  0.27411800  1
  O  O20  1  0.95571600  0.05323200  0.22588200  1
  O  O21  1  0.45571600  0.44676800  0.27411800  1
  O  O22  1  0.04428400  0.55323200  0.77411800  1
  O  O23  1  0.54428400  0.94676800  0.72588200  1
