# generated using pymatgen
data_CaSeO4
_symmetry_space_group_name_H-M   'P 1'
_cell_length_a   6.70246300
_cell_length_b   7.75136000
_cell_length_c   8.23318047
_cell_angle_alpha   70.24470815
_cell_angle_beta   90.00000000
_cell_angle_gamma   90.00000000
_symmetry_Int_Tables_number   1
_chemical_formula_structural   CaSeO4
_chemical_formula_sum   'Ca4 Se4 O16'
_cell_volume   402.56537271
_cell_formula_units_Z   4
loop_
 _symmetry_equiv_pos_site_id
 _symmetry_equiv_pos_as_xyz
  1  'x, y, z'
loop_
 _atom_site_type_symbol
 _atom_site_label
 _atom_site_symmetry_multiplicity
 _atom_site_fract_x
 _atom_site_fract_y
 _atom_site_fract_z
 _atom_site_occupancy
  Ca  Ca0  1  0.64121500  0.15039300  0.09250500  1
  Ca  Ca1  1  0.14121500  0.34960700  0.90749500  1
  Ca  Ca2  1  0.35878500  0.84960700  0.90749500  1
  Ca  Ca3  1  0.85878500  0.65039300  0.09250500  1
  Se  Se4  1  0.14925700  0.98076700  0.26679700  1
  Se  Se5  1  0.64925700  0.51923300  0.73320300  1
  Se  Se6  1  0.85074300  0.01923300  0.73320300  1
  Se  Se7  1  0.35074300  0.48076700  0.26679700  1
  O  O8  1  0.02349000  0.79740900  0.25344400  1
  O  O9  1  0.52349000  0.70259100  0.74655600  1
  O  O10  1  0.97651000  0.20259100  0.74655600  1
  O  O11  1  0.47651000  0.29740900  0.25344400  1
  O  O12  1  0.97610300  0.15960300  0.17934900  1
  O  O13  1  0.47610300  0.34039700  0.82065100  1
  O  O14  1  0.02389700  0.84039700  0.82065100  1
  O  O15  1  0.52389700  0.65960300  0.17934900  1
  O  O16  1  0.29923500  0.04314200  0.08129000  1
  O  O17  1  0.79923500  0.45685800  0.91871000  1
  O  O18  1  0.70076500  0.95685800  0.91871000  1
  O  O19  1  0.20076500  0.54314200  0.08129000  1
  O  O20  1  0.60831500  0.84837600  0.32448800  1
  O  O21  1  0.10831500  0.65162400  0.67551200  1
  O  O22  1  0.39168500  0.15162400  0.67551200  1
  O  O23  1  0.89168500  0.34837600  0.32448800  1
