# generated using pymatgen
data_MgO
_symmetry_space_group_name_H-M   'P 1'
_cell_length_a   12.89243070
_cell_length_b   12.89243070
_cell_length_c   7.57707132
_cell_angle_alpha   85.64998805
_cell_angle_beta   85.64998805
_cell_angle_gamma   15.48542107
_symmetry_Int_Tables_number   1
_chemical_formula_structural   MgO
_chemical_formula_sum   'Mg12 O12'
_cell_volume   335.27026394
_cell_formula_units_Z   12
loop_
 _symmetry_equiv_pos_site_id
 _symmetry_equiv_pos_as_xyz
  1  'x, y, z'
loop_
 _atom_site_type_symbol
 _atom_site_label
 _atom_site_symmetry_multiplicity
 _atom_site_fract_x
 _atom_site_fract_y
 _atom_site_fract_z
 _atom_site_occupancy
  Mg  Mg0  1  0.96807400  0.96807400  0.15515200  1
  Mg  Mg1  1  0.68681200  0.68681200  0.07318700  1
  Mg  Mg2  1  0.85154800  0.85154800  0.53691600  1
  Mg  Mg3  1  0.71416400  0.71416400  0.62731400  1
  Mg  Mg4  1  0.55122000  0.55122000  0.44263000  1
  Mg  Mg5  1  0.01176300  0.01176300  0.73969500  1
  Mg  Mg6  1  0.12763100  0.12763100  0.75153700  1
  Mg  Mg7  1  0.42188100  0.42188100  0.82014000  1
  Mg  Mg8  1  0.25654800  0.25654800  0.35836000  1
  Mg  Mg9  1  0.43658000  0.43658000  0.44418400  1
  Mg  Mg10  1  0.14133600  0.14133600  0.34924600  1
  Mg  Mg11  1  0.56746200  0.56746200  0.05548500  1
  O  O12  1  0.50304800  0.50304800  0.23359200  1
  O  O13  1  0.77962100  0.77962100  0.45681800  1
  O  O14  1  0.61863400  0.61863400  0.24380500  1
  O  O15  1  0.91338400  0.91338400  0.35461400  1
  O  O16  1  0.94347900  0.94347900  0.91697600  1
  O  O17  1  0.66165700  0.66165700  0.83509300  1
  O  O18  1  0.21148800  0.21148800  0.16063300  1
  O  O19  1  0.07858800  0.07858800  0.54229300  1
  O  O20  1  0.37102600  0.37102600  0.64045000  1
  O  O21  1  0.06286000  0.06286000  0.92956800  1
  O  O22  1  0.19098500  0.19098500  0.54148700  1
  O  O23  1  0.48840000  0.48840000  0.63336500  1
