# generated using pymatgen
data_BaSiC
_symmetry_space_group_name_H-M   'P 1'
_cell_length_a   6.17744400
_cell_length_b   8.30996800
_cell_length_c   11.08784800
_cell_angle_alpha   90.00000000
_cell_angle_beta   90.00000000
_cell_angle_gamma   90.00000000
_symmetry_Int_Tables_number   1
_chemical_formula_structural   BaSiC
_chemical_formula_sum   'Ba8 Si8 C8'
_cell_volume   569.18760261
_cell_formula_units_Z   8
loop_
 _symmetry_equiv_pos_site_id
 _symmetry_equiv_pos_as_xyz
  1  'x, y, z'
loop_
 _atom_site_type_symbol
 _atom_site_label
 _atom_site_symmetry_multiplicity
 _atom_site_fract_x
 _atom_site_fract_y
 _atom_site_fract_z
 _atom_site_occupancy
  Ba  Ba0  1  0.25000000  0.02021900  0.29960400  1
  Ba  Ba1  1  0.25000000  0.52021900  0.20039600  1
  Ba  Ba2  1  0.75000000  0.97978100  0.70039600  1
  Ba  Ba3  1  0.75000000  0.47978100  0.79960400  1
  Ba  Ba4  1  0.25000000  0.84030000  0.88959300  1
  Ba  Ba5  1  0.25000000  0.34030000  0.61040700  1
  Ba  Ba6  1  0.75000000  0.15970000  0.11040700  1
  Ba  Ba7  1  0.75000000  0.65970000  0.38959300  1
  Si  Si8  1  0.25000000  0.42126600  0.90179200  1
  Si  Si9  1  0.25000000  0.92126600  0.59820800  1
  Si  Si10  1  0.75000000  0.57873400  0.09820800  1
  Si  Si11  1  0.75000000  0.07873400  0.40179200  1
  Si  Si12  1  0.25000000  0.18797100  0.01432000  1
  Si  Si13  1  0.25000000  0.68797100  0.48568000  1
  Si  Si14  1  0.75000000  0.81202900  0.98568000  1
  Si  Si15  1  0.75000000  0.31202900  0.51432000  1
  C  C16  1  0.12836100  0.20843900  0.84794800  1
  C  C17  1  0.37163900  0.70843900  0.65205200  1
  C  C18  1  0.62836100  0.79156100  0.15205200  1
  C  C19  1  0.87163900  0.29156100  0.34794800  1
  C  C20  1  0.87163900  0.79156100  0.15205200  1
  C  C21  1  0.62836100  0.29156100  0.34794800  1
  C  C22  1  0.37163900  0.20843900  0.84794800  1
  C  C23  1  0.12836100  0.70843900  0.65205200  1
