# generated using pymatgen
data_Eu7(ClF6)2
_symmetry_space_group_name_H-M   'P 1'
_cell_length_a   10.10016571
_cell_length_b   10.10016571
_cell_length_c   3.94457800
_cell_angle_alpha   90.00000000
_cell_angle_beta   90.00000000
_cell_angle_gamma   119.99999808
_symmetry_Int_Tables_number   1
_chemical_formula_structural   Eu7(ClF6)2
_chemical_formula_sum   'Eu7 Cl2 F12'
_cell_volume   348.48828757
_cell_formula_units_Z   1
loop_
 _symmetry_equiv_pos_site_id
 _symmetry_equiv_pos_as_xyz
  1  'x, y, z'
loop_
 _atom_site_type_symbol
 _atom_site_label
 _atom_site_symmetry_multiplicity
 _atom_site_fract_x
 _atom_site_fract_y
 _atom_site_fract_z
 _atom_site_occupancy
  Eu  Eu0  1  0.66666700  0.33333300  0.00000000  1
  Eu  Eu1  1  0.36619500  0.92200300  0.00000000  1
  Eu  Eu2  1  0.55580800  0.63380500  0.00000000  1
  Eu  Eu3  1  0.07799700  0.44419200  0.00000000  1
  Eu  Eu4  1  0.78008700  0.04513500  0.50000000  1
  Eu  Eu5  1  0.26504800  0.21991300  0.50000000  1
  Eu  Eu6  1  0.95486500  0.73495200  0.50000000  1
  Cl  Cl7  1  0.00000000  0.00000000  0.00000000  1
  Cl  Cl8  1  0.33333300  0.66666700  0.50000000  1
  F  F9  1  0.82294000  0.21414300  0.00000000  1
  F  F10  1  0.39120300  0.17706000  0.00000000  1
  F  F11  1  0.78585700  0.60879700  0.00000000  1
  F  F12  1  0.60376000  0.90298600  0.00000000  1
  F  F13  1  0.29922700  0.39624000  0.00000000  1
  F  F14  1  0.09701400  0.70077300  0.00000000  1
  F  F15  1  0.05504400  0.28566200  0.50000000  1
  F  F16  1  0.23061800  0.94495600  0.50000000  1
  F  F17  1  0.71433800  0.76938200  0.50000000  1
  F  F18  1  0.57085000  0.11673900  0.50000000  1
  F  F19  1  0.54588900  0.42915000  0.50000000  1
  F  F20  1  0.88326100  0.45411100  0.50000000  1
