# generated using pymatgen
data_BaGeO4
_symmetry_space_group_name_H-M   'P 1'
_cell_length_a   7.27552400
_cell_length_b   7.32631260
_cell_length_c   7.59235591
_cell_angle_alpha   90.96615254
_cell_angle_beta   90.74793307
_cell_angle_gamma   91.22506488
_symmetry_Int_Tables_number   1
_chemical_formula_structural   BaGeO4
_chemical_formula_sum   'Ba4 Ge4 O16'
_cell_volume   404.50710018
_cell_formula_units_Z   4
loop_
 _symmetry_equiv_pos_site_id
 _symmetry_equiv_pos_as_xyz
  1  'x, y, z'
loop_
 _atom_site_type_symbol
 _atom_site_label
 _atom_site_symmetry_multiplicity
 _atom_site_fract_x
 _atom_site_fract_y
 _atom_site_fract_z
 _atom_site_occupancy
  Ba  Ba0  1  0.57958100  0.70627400  0.70321100  1
  Ba  Ba1  1  0.42041900  0.29372600  0.29678900  1
  Ba  Ba2  1  0.11897800  0.22543800  0.79670200  1
  Ba  Ba3  1  0.88102200  0.77456200  0.20329800  1
  Ge  Ge4  1  0.08159800  0.73673200  0.70375200  1
  Ge  Ge5  1  0.91840200  0.26326800  0.29624800  1
  Ge  Ge6  1  0.62089600  0.22443300  0.79954100  1
  Ge  Ge7  1  0.37910400  0.77556700  0.20045900  1
  O  O8  1  0.78107600  0.39703700  0.88125300  1
  O  O9  1  0.21892400  0.60296300  0.11874700  1
  O  O10  1  0.22736400  0.58549600  0.81822100  1
  O  O11  1  0.77263600  0.41450400  0.18177900  1
  O  O12  1  0.48462100  0.33048500  0.64053600  1
  O  O13  1  0.51537900  0.66951500  0.35946400  1
  O  O14  1  0.46284500  0.14213600  0.95864600  1
  O  O15  1  0.53715500  0.85786400  0.04135400  1
  O  O16  1  0.93416700  0.63665900  0.53889100  1
  O  O17  1  0.06583300  0.36334100  0.46110900  1
  O  O18  1  0.75170300  0.04931200  0.69094000  1
  O  O19  1  0.24829700  0.95068800  0.30906000  1
  O  O20  1  0.93723700  0.85097800  0.85611300  1
  O  O21  1  0.06276300  0.14902200  0.14388700  1
  O  O22  1  0.24264500  0.90461200  0.62342500  1
  O  O23  1  0.75735500  0.09538800  0.37657500  1
