# generated using pymatgen
data_Mn2NiO14
_symmetry_space_group_name_H-M   'P 1'
_cell_length_a   5.20867984
_cell_length_b   7.68771457
_cell_length_c   7.86011812
_cell_angle_alpha   120.74465781
_cell_angle_beta   90.00000294
_cell_angle_gamma   88.93202687
_symmetry_Int_Tables_number   1
_chemical_formula_structural   Mn2NiO14
_chemical_formula_sum   'Mn2 Ni1 O14'
_cell_volume   270.44223386
_cell_formula_units_Z   1
loop_
 _symmetry_equiv_pos_site_id
 _symmetry_equiv_pos_as_xyz
  1  'x, y, z'
loop_
 _atom_site_type_symbol
 _atom_site_label
 _atom_site_symmetry_multiplicity
 _atom_site_fract_x
 _atom_site_fract_y
 _atom_site_fract_z
 _atom_site_occupancy
  Mn  Mn0  1  0.49684400  0.66625300  0.33312600  1
  Mn  Mn1  1  0.00464600  0.33191200  0.66595600  1
  Ni  Ni2  1  0.73748800  0.00019600  0.00009800  1
  O  O3  1  0.18502800  0.66838400  0.33419200  1
  O  O4  1  0.58881600  0.90147800  0.45073900  1
  O  O5  1  0.60201000  0.55222200  0.44356300  1
  O  O6  1  0.60201000  0.55222200  0.10866000  1
  O  O7  1  0.69219500  0.33435700  0.66717900  1
  O  O8  1  0.11018600  0.10025700  0.55012900  1
  O  O9  1  0.10261800  0.44910800  0.55726100  1
  O  O10  1  0.10261800  0.44910800  0.89184700  1
  O  O11  1  0.99551600  0.18619200  0.09309600  1
  O  O12  1  0.97070200  0.92710800  0.12517300  1
  O  O13  1  0.97070200  0.92710800  0.80193500  1
  O  O14  1  0.48321700  0.81048500  0.90524300  1
  O  O15  1  0.50675200  0.07180400  0.87350500  1
  O  O16  1  0.50675200  0.07180400  0.19829800  1
