# generated using pymatgen
data_Ba3UMnSe6
_symmetry_space_group_name_H-M   'P 1'
_cell_length_a   8.71090361
_cell_length_b   8.71090361
_cell_length_c   8.71090385
_cell_angle_alpha   93.25450336
_cell_angle_beta   93.25450336
_cell_angle_gamma   93.25450462
_symmetry_Int_Tables_number   1
_chemical_formula_structural   Ba3UMnSe6
_chemical_formula_sum   'Ba6 U2 Mn2 Se12'
_cell_volume   657.65720670
_cell_formula_units_Z   2
loop_
 _symmetry_equiv_pos_site_id
 _symmetry_equiv_pos_as_xyz
  1  'x, y, z'
loop_
 _atom_site_type_symbol
 _atom_site_label
 _atom_site_symmetry_multiplicity
 _atom_site_fract_x
 _atom_site_fract_y
 _atom_site_fract_z
 _atom_site_occupancy
  Ba  Ba0  1  0.36639100  0.13360900  0.75000000  1
  Ba  Ba1  1  0.75000000  0.36639100  0.13360900  1
  Ba  Ba2  1  0.13360900  0.75000000  0.36639100  1
  Ba  Ba3  1  0.25000000  0.63360900  0.86639100  1
  Ba  Ba4  1  0.86639100  0.25000000  0.63360900  1
  Ba  Ba5  1  0.63360900  0.86639100  0.25000000  1
  U  U6  1  0.25000000  0.25000000  0.25000000  1
  U  U7  1  0.75000000  0.75000000  0.75000000  1
  Mn  Mn8  1  0.50000000  0.50000000  0.50000000  1
  Mn  Mn9  1  0.00000000  0.00000000  0.00000000  1
  Se  Se10  1  0.19991700  0.41005100  0.53605300  1
  Se  Se11  1  0.53605300  0.19991700  0.41005100  1
  Se  Se12  1  0.41005100  0.53605300  0.19991700  1
  Se  Se13  1  0.03605300  0.91005100  0.69991700  1
  Se  Se14  1  0.69991700  0.03605300  0.91005100  1
  Se  Se15  1  0.91005100  0.69991700  0.03605300  1
  Se  Se16  1  0.80008300  0.58994900  0.46394700  1
  Se  Se17  1  0.46394700  0.80008300  0.58994900  1
  Se  Se18  1  0.58994900  0.46394700  0.80008300  1
  Se  Se19  1  0.96394700  0.08994900  0.30008300  1
  Se  Se20  1  0.30008300  0.96394700  0.08994900  1
  Se  Se21  1  0.08994900  0.30008300  0.96394700  1
