# generated using pymatgen
data_BaCrO4
_symmetry_space_group_name_H-M   'P 1'
_cell_length_a   6.59388100
_cell_length_b   7.19836500
_cell_length_c   8.00178800
_cell_angle_alpha   90.00000000
_cell_angle_beta   90.00000000
_cell_angle_gamma   90.00000000
_symmetry_Int_Tables_number   1
_chemical_formula_structural   BaCrO4
_chemical_formula_sum   'Ba4 Cr4 O16'
_cell_volume   379.80616535
_cell_formula_units_Z   4
loop_
 _symmetry_equiv_pos_site_id
 _symmetry_equiv_pos_as_xyz
  1  'x, y, z'
loop_
 _atom_site_type_symbol
 _atom_site_label
 _atom_site_symmetry_multiplicity
 _atom_site_fract_x
 _atom_site_fract_y
 _atom_site_fract_z
 _atom_site_occupancy
  Ba  Ba0  1  0.78798800  0.41238800  0.86315700  1
  Ba  Ba1  1  0.21201200  0.91238800  0.63684300  1
  Ba  Ba2  1  0.71201200  0.58761200  0.36315700  1
  Ba  Ba3  1  0.28798800  0.08761200  0.13684300  1
  Cr  Cr4  1  0.74215600  0.91672600  0.88509300  1
  Cr  Cr5  1  0.25784400  0.41672600  0.61490700  1
  Cr  Cr6  1  0.75784400  0.08327400  0.38509300  1
  Cr  Cr7  1  0.24215600  0.58327400  0.11490700  1
  O  O8  1  0.68982200  0.77452400  0.04230600  1
  O  O9  1  0.31017800  0.27452400  0.45769400  1
  O  O10  1  0.81017800  0.22547600  0.54230600  1
  O  O11  1  0.18982200  0.72547600  0.95769400  1
  O  O12  1  0.80061200  0.79008100  0.71903700  1
  O  O13  1  0.19938800  0.29008100  0.78096300  1
  O  O14  1  0.69938800  0.20991900  0.21903700  1
  O  O15  1  0.30061200  0.70991900  0.28096300  1
  O  O16  1  0.44029800  0.44636600  0.07358100  1
  O  O17  1  0.55970200  0.94636600  0.42641900  1
  O  O18  1  0.05970200  0.55363400  0.57358100  1
  O  O19  1  0.94029800  0.05363400  0.92641900  1
  O  O20  1  0.54112000  0.05422600  0.84670000  1
  O  O21  1  0.45888000  0.55422600  0.65330000  1
  O  O22  1  0.95888000  0.94577400  0.34670000  1
  O  O23  1  0.04112000  0.44577400  0.15330000  1
