# generated using pymatgen
data_HgNO4
_symmetry_space_group_name_H-M   'P 1'
_cell_length_a   7.32722911
_cell_length_b   8.23146100
_cell_length_c   8.88961533
_cell_angle_alpha   90.00000000
_cell_angle_beta   115.39751586
_cell_angle_gamma   90.00000000
_symmetry_Int_Tables_number   1
_chemical_formula_structural   HgNO4
_chemical_formula_sum   'Hg4 N4 O16'
_cell_volume   484.34808082
_cell_formula_units_Z   4
loop_
 _symmetry_equiv_pos_site_id
 _symmetry_equiv_pos_as_xyz
  1  'x, y, z'
loop_
 _atom_site_type_symbol
 _atom_site_label
 _atom_site_symmetry_multiplicity
 _atom_site_fract_x
 _atom_site_fract_y
 _atom_site_fract_z
 _atom_site_occupancy
  Hg  Hg0  1  0.66958700  0.56623300  0.59807000  1
  Hg  Hg1  1  0.16958700  0.93376700  0.09807000  1
  Hg  Hg2  1  0.33041300  0.43376700  0.40193100  1
  Hg  Hg3  1  0.83041300  0.06623300  0.90193000  1
  N  N4  1  0.85189000  0.25954200  0.38902800  1
  N  N5  1  0.35189000  0.24045800  0.88902800  1
  N  N6  1  0.14811000  0.74045800  0.61097200  1
  N  N7  1  0.64811000  0.75954200  0.11097200  1
  O  O8  1  0.55609700  0.16824600  0.72784100  1
  O  O9  1  0.05609700  0.33175400  0.22784100  1
  O  O10  1  0.44390300  0.83175400  0.27215900  1
  O  O11  1  0.94390300  0.66824600  0.77215900  1
  O  O12  1  0.73573500  0.21908600  0.45188300  1
  O  O13  1  0.23573500  0.28091400  0.95188300  1
  O  O14  1  0.26426500  0.78091400  0.54811700  1
  O  O15  1  0.76426500  0.71908600  0.04811700  1
  O  O16  1  0.85530000  0.40660000  0.34472400  1
  O  O17  1  0.35530000  0.09340000  0.84472400  1
  O  O18  1  0.14470000  0.59340000  0.65527600  1
  O  O19  1  0.64470000  0.90660000  0.15527600  1
  O  O20  1  0.96815900  0.15557100  0.36953000  1
  O  O21  1  0.46815900  0.34442900  0.86953000  1
  O  O22  1  0.03184100  0.84442900  0.63047000  1
  O  O23  1  0.53184100  0.65557100  0.13047000  1
