# generated using pymatgen
data_Te2MoWSe2
_symmetry_space_group_name_H-M   'P 1'
_cell_length_a   3.43620181
_cell_length_b   3.43620181
_cell_length_c   39.11748000
_cell_angle_alpha   90.00000000
_cell_angle_beta   90.00000000
_cell_angle_gamma   119.99999626
_symmetry_Int_Tables_number   1
_chemical_formula_structural   Te2MoWSe2
_chemical_formula_sum   'Te4 Mo2 W2 Se4'
_cell_volume   399.99894020
_cell_formula_units_Z   2
loop_
 _symmetry_equiv_pos_site_id
 _symmetry_equiv_pos_as_xyz
  1  'x, y, z'
loop_
 _atom_site_type_symbol
 _atom_site_label
 _atom_site_symmetry_multiplicity
 _atom_site_fract_x
 _atom_site_fract_y
 _atom_site_fract_z
 _atom_site_occupancy
  Te  Te0  1  0.33333300  0.66666700  0.04645100  1
  Te  Te1  1  0.33333300  0.66666700  0.42219200  1
  Te  Te2  1  0.33333300  0.66666700  0.14140200  1
  Te  Te3  1  0.33333300  0.66666700  0.51712500  1
  Mo  Mo4  1  0.00000000  0.00000000  0.09391700  1
  Mo  Mo5  1  0.00000000  0.00000000  0.46965500  1
  W  W6  1  0.33333300  0.66666700  0.28180100  1
  W  W7  1  0.33333300  0.66666700  0.65754400  1
  Se  Se8  1  0.00000000  0.00000000  0.32383300  1
  Se  Se9  1  0.00000000  0.00000000  0.69954900  1
  Se  Se10  1  0.00000000  0.00000000  0.23977300  1
  Se  Se11  1  0.00000000  0.00000000  0.61550600  1
