# generated using pymatgen
data_K2CuTeO7
_symmetry_space_group_name_H-M   'P 1'
_cell_length_a   5.68055158
_cell_length_b   5.68055158
_cell_length_c   11.93088501
_cell_angle_alpha   85.16392873
_cell_angle_beta   85.16392873
_cell_angle_gamma   71.55739430
_symmetry_Int_Tables_number   1
_chemical_formula_structural   K2CuTeO7
_chemical_formula_sum   'K4 Cu2 Te2 O14'
_cell_volume   363.24358228
_cell_formula_units_Z   2
loop_
 _symmetry_equiv_pos_site_id
 _symmetry_equiv_pos_as_xyz
  1  'x, y, z'
loop_
 _atom_site_type_symbol
 _atom_site_label
 _atom_site_symmetry_multiplicity
 _atom_site_fract_x
 _atom_site_fract_y
 _atom_site_fract_z
 _atom_site_occupancy
  K  K0  1  0.05325200  0.51411400  0.82430300  1
  K  K1  1  0.48588600  0.94674800  0.67569700  1
  K  K2  1  0.94674800  0.48588600  0.17569700  1
  K  K3  1  0.51411400  0.05325200  0.32430300  1
  Cu  Cu4  1  0.00000000  0.00000000  0.50000000  1
  Cu  Cu5  1  0.00000000  0.00000000  0.00000000  1
  Te  Te6  1  0.00000000  0.50000000  0.50000000  1
  Te  Te7  1  0.50000000  0.00000000  0.00000000  1
  O  O8  1  0.97502100  0.22269100  0.60904100  1
  O  O9  1  0.77730900  0.02497900  0.89095900  1
  O  O10  1  0.02497900  0.77730900  0.39095900  1
  O  O11  1  0.22269100  0.97502100  0.10904100  1
  O  O12  1  0.00533000  0.25195000  0.39240300  1
  O  O13  1  0.74805000  0.99467000  0.10759700  1
  O  O14  1  0.99467000  0.74805000  0.60759700  1
  O  O15  1  0.25195000  0.00533000  0.89240300  1
  O  O16  1  0.35541000  0.34963800  0.50560200  1
  O  O17  1  0.65036200  0.64459000  0.99439800  1
  O  O18  1  0.64459000  0.65036200  0.49439800  1
  O  O19  1  0.34963800  0.35541000  0.00560200  1
  O  O20  1  0.62840300  0.37159700  0.75000000  1
  O  O21  1  0.37159700  0.62840300  0.25000000  1
