# generated using pymatgen
data_Te3MoWSe
_symmetry_space_group_name_H-M   'P 1'
_cell_length_a   3.49657768
_cell_length_b   3.49657768
_cell_length_c   39.63029500
_cell_angle_alpha   90.00000000
_cell_angle_beta   90.00000000
_cell_angle_gamma   119.99999387
_symmetry_Int_Tables_number   1
_chemical_formula_structural   Te3MoWSe
_chemical_formula_sum   'Te6 Mo2 W2 Se2'
_cell_volume   419.60854589
_cell_formula_units_Z   2
loop_
 _symmetry_equiv_pos_site_id
 _symmetry_equiv_pos_as_xyz
  1  'x, y, z'
loop_
 _atom_site_type_symbol
 _atom_site_label
 _atom_site_symmetry_multiplicity
 _atom_site_fract_x
 _atom_site_fract_y
 _atom_site_fract_z
 _atom_site_occupancy
  Te  Te0  1  0.00000000  0.00000000  0.70378000  1
  Te  Te1  1  0.33333300  0.66666700  0.04768000  1
  Te  Te2  1  0.33333300  0.66666700  0.42312700  1
  Te  Te3  1  0.33333300  0.66666700  0.14017800  1
  Te  Te4  1  0.33333300  0.66666700  0.51618600  1
  Te  Te5  1  0.00000000  0.00000000  0.61128500  1
  Mo  Mo6  1  0.00000000  0.00000000  0.09392200  1
  Mo  Mo7  1  0.33333300  0.66666700  0.65755300  1
  W  W8  1  0.00000000  0.00000000  0.46964200  1
  W  W9  1  0.33333300  0.66666700  0.28179800  1
  Se  Se10  1  0.00000000  0.00000000  0.32276300  1
  Se  Se11  1  0.00000000  0.00000000  0.24083500  1
