# generated using pymatgen
data_NaCdSbS3
_symmetry_space_group_name_H-M   'P 1'
_cell_length_a   5.85337332
_cell_length_b   5.85337332
_cell_length_c   17.27833694
_cell_angle_alpha   80.81788022
_cell_angle_beta   80.81788022
_cell_angle_gamma   90.57423930
_symmetry_Int_Tables_number   1
_chemical_formula_structural   NaCdSbS3
_chemical_formula_sum   'Na4 Cd4 Sb4 S12'
_cell_volume   576.53324005
_cell_formula_units_Z   4
loop_
 _symmetry_equiv_pos_site_id
 _symmetry_equiv_pos_as_xyz
  1  'x, y, z'
loop_
 _atom_site_type_symbol
 _atom_site_label
 _atom_site_symmetry_multiplicity
 _atom_site_fract_x
 _atom_site_fract_y
 _atom_site_fract_z
 _atom_site_occupancy
  Na  Na0  1  0.18805900  0.48933500  0.07863900  1
  Na  Na1  1  0.51066500  0.81194100  0.42136100  1
  Na  Na2  1  0.81194100  0.51066500  0.92136100  1
  Na  Na3  1  0.48933500  0.18805900  0.57863900  1
  Cd  Cd4  1  0.11458400  0.88541600  0.25000000  1
  Cd  Cd5  1  0.88541600  0.11458400  0.75000000  1
  Cd  Cd6  1  0.61940400  0.38059600  0.25000000  1
  Cd  Cd7  1  0.38059600  0.61940400  0.75000000  1
  Sb  Sb8  1  0.94826100  0.69773800  0.59355200  1
  Sb  Sb9  1  0.30226200  0.05173900  0.90644800  1
  Sb  Sb10  1  0.05173900  0.30226200  0.40644800  1
  Sb  Sb11  1  0.69773800  0.94826100  0.09355200  1
  S  S12  1  0.01522400  0.88321300  0.40171500  1
  S  S13  1  0.11678700  0.98477600  0.09828500  1
  S  S14  1  0.98477600  0.11678700  0.59828500  1
  S  S15  1  0.88321300  0.01522400  0.90171500  1
  S  S16  1  0.67224100  0.52366900  0.09697800  1
  S  S17  1  0.47633100  0.32775900  0.40302200  1
  S  S18  1  0.32775900  0.47633100  0.90302200  1
  S  S19  1  0.52366900  0.67224100  0.59697800  1
  S  S20  1  0.07762300  0.41747700  0.25978000  1
  S  S21  1  0.58252300  0.92237700  0.24022000  1
  S  S22  1  0.92237700  0.58252300  0.74022000  1
  S  S23  1  0.41747700  0.07762300  0.75978000  1
