# generated using pymatgen
data_Mn2Sb2O7
_symmetry_space_group_name_H-M   'P 1'
_cell_length_a   7.28138682
_cell_length_b   7.28138682
_cell_length_c   7.28138682
_cell_angle_alpha   90.00000000
_cell_angle_beta   60.00000000
_cell_angle_gamma   120.00000000
_symmetry_Int_Tables_number   1
_chemical_formula_structural   Mn2Sb2O7
_chemical_formula_sum   'Mn4 Sb4 O14'
_cell_volume   272.97778971
_cell_formula_units_Z   2
loop_
 _symmetry_equiv_pos_site_id
 _symmetry_equiv_pos_as_xyz
  1  'x, y, z'
loop_
 _atom_site_type_symbol
 _atom_site_label
 _atom_site_symmetry_multiplicity
 _atom_site_fract_x
 _atom_site_fract_y
 _atom_site_fract_z
 _atom_site_occupancy
  Mn  Mn0  1  0.00000000  0.50000000  0.00000000  1
  Mn  Mn1  1  0.00000000  0.50000000  0.50000000  1
  Mn  Mn2  1  0.50000000  0.00000000  0.50000000  1
  Mn  Mn3  1  0.50000000  0.50000000  0.50000000  1
  Sb  Sb4  1  0.50000000  0.50000000  0.00000000  1
  Sb  Sb5  1  0.50000000  0.00000000  0.00000000  1
  Sb  Sb6  1  0.00000000  0.00000000  0.50000000  1
  Sb  Sb7  1  0.00000000  0.00000000  0.00000000  1
  O  O8  1  0.75000000  0.37500000  0.37500000  1
  O  O9  1  0.25000000  0.62500000  0.62500000  1
  O  O10  1  0.84460300  0.92230100  0.32769900  1
  O  O11  1  0.65539700  0.32769900  0.92230100  1
  O  O12  1  0.25000000  0.92230100  0.92230100  1
  O  O13  1  0.25000000  0.32769900  0.32769900  1
  O  O14  1  0.25000000  0.32769900  0.92230100  1
  O  O15  1  0.25000000  0.92230100  0.32769900  1
  O  O16  1  0.15539700  0.07769900  0.67230100  1
  O  O17  1  0.34460300  0.67230100  0.07769900  1
  O  O18  1  0.75000000  0.07769900  0.07769900  1
  O  O19  1  0.75000000  0.67230100  0.67230100  1
  O  O20  1  0.75000000  0.67230100  0.07769900  1
  O  O21  1  0.75000000  0.07769900  0.67230100  1
