# generated using pymatgen
data_NbH12N3O8
_symmetry_space_group_name_H-M   'P 1'
_cell_length_a   6.54404974
_cell_length_b   6.54404974
_cell_length_c   6.54404974
_cell_angle_alpha   114.49918481
_cell_angle_beta   114.49918481
_cell_angle_gamma   99.82499767
_symmetry_Int_Tables_number   1
_chemical_formula_structural   NbH12N3O8
_chemical_formula_sum   'Nb1 H12 N3 O8'
_cell_volume   211.26113764
_cell_formula_units_Z   1
loop_
 _symmetry_equiv_pos_site_id
 _symmetry_equiv_pos_as_xyz
  1  'x, y, z'
loop_
 _atom_site_type_symbol
 _atom_site_label
 _atom_site_symmetry_multiplicity
 _atom_site_fract_x
 _atom_site_fract_y
 _atom_site_fract_z
 _atom_site_occupancy
  Nb  Nb0  1  0.00000000  0.00000000  0.00000000  1
  H  H1  1  0.43157900  0.77648300  0.57001900  1
  H  H2  1  0.20646400  0.86156000  0.42998100  1
  H  H3  1  0.79353600  0.22351700  0.65509700  1
  H  H4  1  0.56842100  0.13844000  0.34490300  1
  H  H5  1  0.13844000  0.56842100  0.34490300  1
  H  H6  1  0.22351700  0.79353600  0.65509700  1
  H  H7  1  0.77648300  0.43157900  0.57001900  1
  H  H8  1  0.86156000  0.20646400  0.42998100  1
  H  H9  1  0.48024400  0.48024400  0.82683600  1
  H  H10  1  0.65340900  0.65340900  0.17316400  1
  H  H11  1  0.34659100  0.51975600  0.00000000  1
  H  H12  1  0.51975600  0.34659100  0.00000000  1
  N  N13  1  0.25000000  0.75000000  0.50000000  1
  N  N14  1  0.75000000  0.25000000  0.50000000  1
  N  N15  1  0.50000000  0.50000000  0.00000000  1
  O  O16  1  0.80743200  0.80743200  0.58182000  1
  O  O17  1  0.22561200  0.22561200  0.41818000  1
  O  O18  1  0.77438800  0.19256800  0.00000000  1
  O  O19  1  0.19256800  0.77438800  0.00000000  1
  O  O20  1  0.03585200  0.03585200  0.72130300  1
  O  O21  1  0.31454900  0.31454900  0.27869700  1
  O  O22  1  0.68545100  0.96414800  0.00000000  1
  O  O23  1  0.96414800  0.68545100  0.00000000  1
