# generated using pymatgen
data_Y3TaO7
_symmetry_space_group_name_H-M   'P 1'
_cell_length_a   6.47371179
_cell_length_b   6.47371179
_cell_length_c   7.53759800
_cell_angle_alpha   90.00000000
_cell_angle_beta   90.00000000
_cell_angle_gamma   109.56940337
_symmetry_Int_Tables_number   1
_chemical_formula_structural   Y3TaO7
_chemical_formula_sum   'Y6 Ta2 O14'
_cell_volume   297.64568816
_cell_formula_units_Z   2
loop_
 _symmetry_equiv_pos_site_id
 _symmetry_equiv_pos_as_xyz
  1  'x, y, z'
loop_
 _atom_site_type_symbol
 _atom_site_label
 _atom_site_symmetry_multiplicity
 _atom_site_fract_x
 _atom_site_fract_y
 _atom_site_fract_z
 _atom_site_occupancy
  Y  Y0  1  0.50000000  0.50000000  0.50000000  1
  Y  Y1  1  0.50000000  0.50000000  0.00000000  1
  Y  Y2  1  0.53385700  0.99995200  0.75000000  1
  Y  Y3  1  0.99995200  0.53385700  0.25000000  1
  Y  Y4  1  0.46614300  0.00004800  0.25000000  1
  Y  Y5  1  0.00004800  0.46614300  0.75000000  1
  Ta  Ta6  1  0.00000000  0.00000000  0.50000000  1
  Ta  Ta7  1  0.00000000  0.00000000  0.00000000  1
  O  O8  1  0.67849700  0.92797900  0.46907300  1
  O  O9  1  0.92797900  0.67849700  0.53092700  1
  O  O10  1  0.67849700  0.92797900  0.03092700  1
  O  O11  1  0.92797900  0.67849700  0.96907300  1
  O  O12  1  0.32150300  0.07202100  0.53092700  1
  O  O13  1  0.07202100  0.32150300  0.46907300  1
  O  O14  1  0.32150300  0.07202100  0.96907300  1
  O  O15  1  0.07202100  0.32150300  0.03092700  1
  O  O16  1  0.93621600  0.06378400  0.75000000  1
  O  O17  1  0.06378400  0.93621600  0.25000000  1
  O  O18  1  0.37097800  0.62902200  0.75000000  1
  O  O19  1  0.62902200  0.37097800  0.25000000  1
  O  O20  1  0.63818800  0.36181200  0.75000000  1
  O  O21  1  0.36181200  0.63818800  0.25000000  1
