# generated using pymatgen
data_HgAsO4
_symmetry_space_group_name_H-M   'P 1'
_cell_length_a   5.62884435
_cell_length_b   6.36285916
_cell_length_c   12.05761200
_cell_angle_alpha   90.00000000
_cell_angle_beta   90.00000000
_cell_angle_gamma   108.61542589
_symmetry_Int_Tables_number   1
_chemical_formula_structural   HgAsO4
_chemical_formula_sum   'Hg4 As4 O16'
_cell_volume   409.25662265
_cell_formula_units_Z   4
loop_
 _symmetry_equiv_pos_site_id
 _symmetry_equiv_pos_as_xyz
  1  'x, y, z'
loop_
 _atom_site_type_symbol
 _atom_site_label
 _atom_site_symmetry_multiplicity
 _atom_site_fract_x
 _atom_site_fract_y
 _atom_site_fract_z
 _atom_site_occupancy
  Hg  Hg0  1  0.38912600  0.24050900  0.51236300  1
  Hg  Hg1  1  0.88912700  0.74050900  0.98763700  1
  Hg  Hg2  1  0.61087300  0.75949100  0.48763700  1
  Hg  Hg3  1  0.11087300  0.25949100  0.01236300  1
  As  As4  1  0.92330900  0.51700200  0.65262400  1
  As  As5  1  0.42330900  0.01700200  0.84737600  1
  As  As6  1  0.07669100  0.48299800  0.34737600  1
  As  As7  1  0.57669100  0.98299800  0.15262400  1
  O  O8  1  0.20666700  0.51081600  0.60876200  1
  O  O9  1  0.70666700  0.01081600  0.89123800  1
  O  O10  1  0.79333300  0.48918400  0.39123800  1
  O  O11  1  0.29333300  0.98918400  0.10876200  1
  O  O12  1  0.70302000  0.25740700  0.60998400  1
  O  O13  1  0.20302000  0.75740700  0.89001600  1
  O  O14  1  0.29698000  0.74259300  0.39001600  1
  O  O15  1  0.79698000  0.24259300  0.10998400  1
  O  O16  1  0.86858300  0.75945800  0.60979200  1
  O  O17  1  0.36858300  0.25945800  0.89020800  1
  O  O18  1  0.13141700  0.24054200  0.39020800  1
  O  O19  1  0.63141700  0.74054200  0.10979200  1
  O  O20  1  0.87127700  0.49386500  0.79452200  1
  O  O21  1  0.37127700  0.99386500  0.70547800  1
  O  O22  1  0.12872300  0.50613500  0.20547800  1
  O  O23  1  0.62872300  0.00613500  0.29452200  1
