# generated using pymatgen
data_NaBH4
_symmetry_space_group_name_H-M   'P 1'
_cell_length_a   4.40111500
_cell_length_b   6.03645900
_cell_length_c   8.15021800
_cell_angle_alpha   90.00000000
_cell_angle_beta   90.00000000
_cell_angle_gamma   90.00000000
_symmetry_Int_Tables_number   1
_chemical_formula_structural   NaBH4
_chemical_formula_sum   'Na4 B4 H16'
_cell_volume   216.52806619
_cell_formula_units_Z   4
loop_
 _symmetry_equiv_pos_site_id
 _symmetry_equiv_pos_as_xyz
  1  'x, y, z'
loop_
 _atom_site_type_symbol
 _atom_site_label
 _atom_site_symmetry_multiplicity
 _atom_site_fract_x
 _atom_site_fract_y
 _atom_site_fract_z
 _atom_site_occupancy
  Na  Na0  1  0.25000000  0.26819600  0.64024200  1
  Na  Na1  1  0.25000000  0.23180400  0.14024200  1
  Na  Na2  1  0.75000000  0.73180400  0.35975800  1
  Na  Na3  1  0.75000000  0.76819600  0.85975800  1
  B  B4  1  0.25000000  0.73009900  0.10580500  1
  B  B5  1  0.25000000  0.76990100  0.60580500  1
  B  B6  1  0.75000000  0.26990100  0.89419500  1
  B  B7  1  0.75000000  0.23009900  0.39419500  1
  H  H8  1  0.25000000  0.61874700  0.98037700  1
  H  H9  1  0.25000000  0.88125300  0.48037700  1
  H  H10  1  0.75000000  0.38125300  0.01962300  1
  H  H11  1  0.75000000  0.11874700  0.51962300  1
  H  H12  1  0.25000000  0.60980000  0.22683200  1
  H  H13  1  0.25000000  0.89020000  0.72683200  1
  H  H14  1  0.75000000  0.39020000  0.77316800  1
  H  H15  1  0.75000000  0.10980000  0.27316800  1
  H  H16  1  0.97629300  0.15097100  0.89005800  1
  H  H17  1  0.52370700  0.34902900  0.39005800  1
  H  H18  1  0.47629300  0.84902900  0.10994200  1
  H  H19  1  0.02370700  0.65097100  0.60994200  1
  H  H20  1  0.02370700  0.84902900  0.10994200  1
  H  H21  1  0.47629300  0.65097100  0.60994200  1
  H  H22  1  0.52370700  0.15097100  0.89005800  1
  H  H23  1  0.97629300  0.34902900  0.39005800  1
