# generated using pymatgen
data_In4Pd17Se4
_symmetry_space_group_name_H-M   'P 1'
_cell_length_a   10.50643328
_cell_length_b   10.50643328
_cell_length_c   10.50643328
_cell_angle_alpha   92.11511383
_cell_angle_beta   92.11511383
_cell_angle_gamma   157.84778244
_symmetry_Int_Tables_number   1
_chemical_formula_structural   In4Pd17Se4
_chemical_formula_sum   'In4 Pd17 Se4'
_cell_volume   429.16098568
_cell_formula_units_Z   1
loop_
 _symmetry_equiv_pos_site_id
 _symmetry_equiv_pos_as_xyz
  1  'x, y, z'
loop_
 _atom_site_type_symbol
 _atom_site_label
 _atom_site_symmetry_multiplicity
 _atom_site_fract_x
 _atom_site_fract_y
 _atom_site_fract_z
 _atom_site_occupancy
  In  In0  1  0.33839000  0.38445600  0.72284500  1
  In  In1  1  0.66161000  0.61554400  0.27715500  1
  In  In2  1  0.61554400  0.33839000  0.95393400  1
  In  In3  1  0.38445600  0.66161000  0.04606600  1
  Pd  Pd4  1  0.18462500  0.25169000  0.43631500  1
  Pd  Pd5  1  0.81537500  0.74831000  0.56368500  1
  Pd  Pd6  1  0.74831000  0.18462500  0.93293500  1
  Pd  Pd7  1  0.25169000  0.81537500  0.06706500  1
  Pd  Pd8  1  0.22769100  0.54534700  0.77303900  1
  Pd  Pd9  1  0.77230900  0.45465300  0.22696100  1
  Pd  Pd10  1  0.45465300  0.22769100  0.68234400  1
  Pd  Pd11  1  0.54534700  0.77230900  0.31765600  1
  Pd  Pd12  1  0.69812800  0.90877400  0.60690200  1
  Pd  Pd13  1  0.30187200  0.09122600  0.39309800  1
  Pd  Pd14  1  0.09122600  0.69812800  0.78935400  1
  Pd  Pd15  1  0.90877400  0.30187200  0.21064600  1
  Pd  Pd16  1  0.02117600  0.13649000  0.15766600  1
  Pd  Pd17  1  0.97882400  0.86351000  0.84233400  1
  Pd  Pd18  1  0.86351000  0.02117600  0.88468600  1
  Pd  Pd19  1  0.13649000  0.97882400  0.11531400  1
  Pd  Pd20  1  0.50000000  0.50000000  0.00000000  1
  Se  Se21  1  0.07124600  0.37704800  0.44829500  1
  Se  Se22  1  0.92875400  0.62295200  0.55170500  1
  Se  Se23  1  0.62295200  0.07124600  0.69419800  1
  Se  Se24  1  0.37704800  0.92875400  0.30580200  1
