# generated using pymatgen
data_MgU2(SiO9)2
_symmetry_space_group_name_H-M   'P 1'
_cell_length_a   9.07140336
_cell_length_b   9.07140336
_cell_length_c   6.80297818
_cell_angle_alpha   79.86717379
_cell_angle_beta   79.86717379
_cell_angle_gamma   45.07714305
_symmetry_Int_Tables_number   1
_chemical_formula_structural   MgU2(SiO9)2
_chemical_formula_sum   'Mg1 U2 Si2 O18'
_cell_volume   389.12747378
_cell_formula_units_Z   1
loop_
 _symmetry_equiv_pos_site_id
 _symmetry_equiv_pos_as_xyz
  1  'x, y, z'
loop_
 _atom_site_type_symbol
 _atom_site_label
 _atom_site_symmetry_multiplicity
 _atom_site_fract_x
 _atom_site_fract_y
 _atom_site_fract_z
 _atom_site_occupancy
  Mg  Mg0  1  0.00000000  0.00000000  0.50000000  1
  U  U1  1  0.25286400  0.25286400  0.85709900  1
  U  U2  1  0.74713600  0.74713600  0.14290100  1
  Si  Si3  1  0.79311400  0.79311400  0.65286400  1
  Si  Si4  1  0.20688600  0.20688600  0.34713600  1
  O  O5  1  0.36243900  0.36243900  0.84352900  1
  O  O6  1  0.63756100  0.63756100  0.15647100  1
  O  O7  1  0.14215800  0.14215800  0.90989600  1
  O  O8  1  0.85784200  0.85784200  0.09010400  1
  O  O9  1  0.74679700  0.74679700  0.46131100  1
  O  O10  1  0.25320300  0.25320300  0.53868900  1
  O  O11  1  0.88916100  0.88916100  0.57692000  1
  O  O12  1  0.11083900  0.11083900  0.42308000  1
  O  O13  1  0.93868400  0.58382400  0.81130200  1
  O  O14  1  0.58382400  0.93868400  0.81130200  1
  O  O15  1  0.06131600  0.41617600  0.18869800  1
  O  O16  1  0.41617600  0.06131600  0.18869800  1
  O  O17  1  0.32779700  0.64419800  0.31265100  1
  O  O18  1  0.64419800  0.32779700  0.31265100  1
  O  O19  1  0.67220300  0.35580200  0.68734900  1
  O  O20  1  0.35580200  0.67220300  0.68734900  1
  O  O21  1  0.54660400  0.54660400  0.73101600  1
  O  O22  1  0.45339600  0.45339600  0.26898400  1
