# generated using pymatgen
data_Pr4FeS7
_symmetry_space_group_name_H-M   'P 1'
_cell_length_a   6.99759700
_cell_length_b   9.92910000
_cell_length_c   9.94959420
_cell_angle_alpha   60.07194176
_cell_angle_beta   90.00000000
_cell_angle_gamma   90.00000000
_symmetry_Int_Tables_number   1
_chemical_formula_structural   Pr4FeS7
_chemical_formula_sum   'Pr8 Fe2 S14'
_cell_volume   599.11361624
_cell_formula_units_Z   2
loop_
 _symmetry_equiv_pos_site_id
 _symmetry_equiv_pos_as_xyz
  1  'x, y, z'
loop_
 _atom_site_type_symbol
 _atom_site_label
 _atom_site_symmetry_multiplicity
 _atom_site_fract_x
 _atom_site_fract_y
 _atom_site_fract_z
 _atom_site_occupancy
  Pr  Pr0  1  0.72456200  0.78074600  0.84457600  1
  Pr  Pr1  1  0.72376800  0.37508800  0.78077600  1
  Pr  Pr2  1  0.72451900  0.84429300  0.37564500  1
  Pr  Pr3  1  0.22456200  0.21925400  0.15542400  1
  Pr  Pr4  1  0.22376800  0.62491200  0.21922400  1
  Pr  Pr5  1  0.22451900  0.15570700  0.62435500  1
  Pr  Pr6  1  0.17930700  0.66319400  0.66656300  1
  Pr  Pr7  1  0.67930700  0.33680600  0.33343700  1
  Fe  Fe8  1  0.51732500  0.00193100  0.00145500  1
  Fe  Fe9  1  0.01732500  0.99806900  0.99854500  1
  S  S10  1  0.33450200  0.87185600  0.90005200  1
  S  S11  1  0.33553600  0.23348800  0.86932400  1
  S  S12  1  0.33528300  0.89843600  0.23262100  1
  S  S13  1  0.83450200  0.12814400  0.09994800  1
  S  S14  1  0.83553600  0.76651200  0.13067600  1
  S  S15  1  0.83528300  0.10156400  0.76737900  1
  S  S16  1  0.96698800  0.92506200  0.56251400  1
  S  S17  1  0.96473400  0.51039900  0.92710900  1
  S  S18  1  0.96188000  0.55996800  0.51045700  1
  S  S19  1  0.46698800  0.07493800  0.43748600  1
  S  S20  1  0.46473400  0.48960100  0.07289100  1
  S  S21  1  0.46188000  0.44003200  0.48954300  1
  S  S22  1  0.56359700  0.66744200  0.66691400  1
  S  S23  1  0.06359700  0.33255800  0.33308600  1
