# generated using pymatgen
data_Na2Cu3Bi2As2O13
_symmetry_space_group_name_H-M   'P 1'
_cell_length_a   5.22728700
_cell_length_b   5.62521429
_cell_length_c   12.67582301
_cell_angle_alpha   80.84270034
_cell_angle_beta   78.10076108
_cell_angle_gamma   62.31372472
_symmetry_Int_Tables_number   1
_chemical_formula_structural   Na2Cu3Bi2As2O13
_chemical_formula_sum   'Na2 Cu3 Bi2 As2 O13'
_cell_volume   322.09577137
_cell_formula_units_Z   1
loop_
 _symmetry_equiv_pos_site_id
 _symmetry_equiv_pos_as_xyz
  1  'x, y, z'
loop_
 _atom_site_type_symbol
 _atom_site_label
 _atom_site_symmetry_multiplicity
 _atom_site_fract_x
 _atom_site_fract_y
 _atom_site_fract_z
 _atom_site_occupancy
  Na  Na0  1  0.93142900  0.75166600  0.57585300  1
  Na  Na1  1  0.25894800  0.24833400  0.42414700  1
  Cu  Cu2  1  0.99545600  0.00000000  0.00000000  1
  Cu  Cu3  1  0.69915500  0.80941500  0.83176900  1
  Cu  Cu4  1  0.34033900  0.19058500  0.16823100  1
  Bi  Bi5  1  0.34218300  0.41619600  0.89775100  1
  Bi  Bi6  1  0.65613100  0.58380400  0.10224900  1
  As  As7  1  0.11552100  0.08691200  0.71614600  1
  As  As8  1  0.91857900  0.91308800  0.28385400  1
  O  O9  1  0.92098300  0.29306300  0.82350100  1
  O  O10  1  0.03754700  0.70693700  0.17649900  1
  O  O11  1  0.06590600  0.79017000  0.74347000  1
  O  O12  1  0.59954600  0.20983000  0.25653000  1
  O  O13  1  0.01390000  0.24517800  0.59600500  1
  O  O14  1  0.85508200  0.75482200  0.40399500  1
  O  O15  1  0.49089200  0.97273700  0.71101200  1
  O  O16  1  0.17464200  0.02726300  0.28898800  1
  O  O17  1  0.09847300  0.23714400  0.06094600  1
  O  O18  1  0.39656200  0.76285600  0.93905400  1
  O  O19  1  0.58837700  0.26112700  0.04345100  1
  O  O20  1  0.89295400  0.73887300  0.95654900  1
  O  O21  1  0.46729500  0.50000000  0.50000000  1
