# generated using pymatgen
data_Ba2MgSi2O7
_symmetry_space_group_name_H-M   'P 1'
_cell_length_a   6.92010927
_cell_length_b   6.92010927
_cell_length_c   8.56508241
_cell_angle_alpha   77.37064976
_cell_angle_beta   77.37064976
_cell_angle_gamma   104.08450811
_symmetry_Int_Tables_number   1
_chemical_formula_structural   Ba2MgSi2O7
_chemical_formula_sum   'Ba4 Mg2 Si4 O14'
_cell_volume   371.84993738
_cell_formula_units_Z   2
loop_
 _symmetry_equiv_pos_site_id
 _symmetry_equiv_pos_as_xyz
  1  'x, y, z'
loop_
 _atom_site_type_symbol
 _atom_site_label
 _atom_site_symmetry_multiplicity
 _atom_site_fract_x
 _atom_site_fract_y
 _atom_site_fract_z
 _atom_site_occupancy
  Ba  Ba0  1  0.18411500  0.26942600  0.02474900  1
  Ba  Ba1  1  0.73057400  0.81588500  0.47525100  1
  Ba  Ba2  1  0.81588500  0.73057400  0.97525100  1
  Ba  Ba3  1  0.26942600  0.18411500  0.52474900  1
  Mg  Mg4  1  0.25727400  0.74272600  0.25000000  1
  Mg  Mg5  1  0.74272600  0.25727400  0.75000000  1
  Si  Si6  1  0.39593900  0.83007200  0.86503600  1
  Si  Si7  1  0.16992800  0.60406100  0.63496400  1
  Si  Si8  1  0.60406100  0.16992800  0.13496400  1
  Si  Si9  1  0.83007200  0.39593900  0.36503600  1
  O  O10  1  0.33266600  0.66733400  0.75000000  1
  O  O11  1  0.66733400  0.33266600  0.25000000  1
  O  O12  1  0.64419100  0.95622200  0.77199000  1
  O  O13  1  0.04377800  0.35580900  0.72801000  1
  O  O14  1  0.35580900  0.04377800  0.22801000  1
  O  O15  1  0.95622200  0.64419100  0.27199000  1
  O  O16  1  0.37589500  0.67347100  0.04607700  1
  O  O17  1  0.32652900  0.62410500  0.45392300  1
  O  O18  1  0.62410500  0.32652900  0.95392300  1
  O  O19  1  0.67347100  0.37589500  0.54607700  1
  O  O20  1  0.24395300  0.97621400  0.86887900  1
  O  O21  1  0.02378600  0.75604700  0.63112100  1
  O  O22  1  0.75604700  0.02378600  0.13112100  1
  O  O23  1  0.97621400  0.24395300  0.36887900  1
