# generated using pymatgen
data_LaPO4
_symmetry_space_group_name_H-M   'P 1'
_cell_length_a   5.28111300
_cell_length_b   7.42209700
_cell_length_c   9.22067100
_cell_angle_alpha   90.00000000
_cell_angle_beta   90.00000000
_cell_angle_gamma   90.00000000
_symmetry_Int_Tables_number   1
_chemical_formula_structural   LaPO4
_chemical_formula_sum   'La4 P4 O16'
_cell_volume   361.42202298
_cell_formula_units_Z   4
loop_
 _symmetry_equiv_pos_site_id
 _symmetry_equiv_pos_as_xyz
  1  'x, y, z'
loop_
 _atom_site_type_symbol
 _atom_site_label
 _atom_site_symmetry_multiplicity
 _atom_site_fract_x
 _atom_site_fract_y
 _atom_site_fract_z
 _atom_site_occupancy
  La  La0  1  0.25000000  0.97946100  0.30692600  1
  La  La1  1  0.25000000  0.47946100  0.19307400  1
  La  La2  1  0.75000000  0.02053900  0.69307400  1
  La  La3  1  0.75000000  0.52053900  0.80692600  1
  P  P4  1  0.75000000  0.24519800  0.08020500  1
  P  P5  1  0.75000000  0.74519800  0.41979500  1
  P  P6  1  0.25000000  0.75480200  0.91979500  1
  P  P7  1  0.25000000  0.25480200  0.58020500  1
  O  O8  1  0.25000000  0.04134800  0.58408400  1
  O  O9  1  0.25000000  0.54134800  0.91591600  1
  O  O10  1  0.75000000  0.95865200  0.41591600  1
  O  O11  1  0.75000000  0.45865200  0.08408400  1
  O  O12  1  0.50749600  0.18211000  0.15779600  1
  O  O13  1  0.99250400  0.68211000  0.34220400  1
  O  O14  1  0.00749600  0.81789000  0.84220400  1
  O  O15  1  0.49250400  0.31789000  0.65779600  1
  O  O16  1  0.49250400  0.81789000  0.84220400  1
  O  O17  1  0.00749600  0.31789000  0.65779600  1
  O  O18  1  0.99250400  0.18211000  0.15779600  1
  O  O19  1  0.50749600  0.68211000  0.34220400  1
  O  O20  1  0.25000000  0.30467300  0.41672900  1
  O  O21  1  0.25000000  0.80467300  0.08327100  1
  O  O22  1  0.75000000  0.69532700  0.58327100  1
  O  O23  1  0.75000000  0.19532700  0.91672900  1
