# generated using pymatgen
data_La3Mn2Sb3O14
_symmetry_space_group_name_H-M   'P 1'
_cell_length_a   7.63489145
_cell_length_b   12.76079484
_cell_length_c   7.63495400
_cell_angle_alpha   72.59198466
_cell_angle_beta   59.99918271
_cell_angle_gamma   72.59164770
_symmetry_Int_Tables_number   1
_chemical_formula_structural   La3Mn2Sb3O14
_chemical_formula_sum   'La6 Mn4 Sb6 O28'
_cell_volume   604.52994265
_cell_formula_units_Z   2
loop_
 _symmetry_equiv_pos_site_id
 _symmetry_equiv_pos_as_xyz
  1  'x, y, z'
loop_
 _atom_site_type_symbol
 _atom_site_label
 _atom_site_symmetry_multiplicity
 _atom_site_fract_x
 _atom_site_fract_y
 _atom_site_fract_z
 _atom_site_occupancy
  La  La0  1  0.99999200  0.00000500  0.50000500  1
  La  La1  1  0.50000200  0.50000700  0.99999400  1
  La  La2  1  0.50000100  0.99999500  0.00000300  1
  La  La3  1  0.00000600  0.50000300  0.49999100  1
  La  La4  1  0.49999000  0.99999000  0.50000300  1
  La  La5  1  0.00000700  0.50000200  0.99999300  1
  Mn  Mn6  1  0.49999900  0.50000000  0.50000200  1
  Mn  Mn7  1  0.00000000  0.99999900  0.00000000  1
  Mn  Mn8  1  0.25000000  0.25000700  0.25000100  1
  Mn  Mn9  1  0.75000200  0.74999400  0.75000100  1
  Sb  Sb10  1  0.74999800  0.75000700  0.24999500  1
  Sb  Sb11  1  0.25000400  0.24999100  0.75000300  1
  Sb  Sb12  1  0.24999400  0.75000800  0.74999900  1
  Sb  Sb13  1  0.75000400  0.24999200  0.25000000  1
  Sb  Sb14  1  0.24999800  0.75000900  0.24999800  1
  Sb  Sb15  1  0.75000200  0.24999200  0.75000600  1
  O  O16  1  0.19261200  0.42217800  0.19260700  1
  O  O17  1  0.69260400  0.92218100  0.69260700  1
  O  O18  1  0.30739600  0.07781600  0.30739500  1
  O  O19  1  0.80738800  0.57782500  0.80739000  1
  O  O20  1  0.03999300  0.27819800  0.03998800  1
  O  O21  1  0.53996800  0.77820900  0.53997700  1
  O  O22  1  0.64180500  0.27819700  0.03999300  1
  O  O23  1  0.14183400  0.77820900  0.53997200  1
  O  O24  1  0.03999700  0.27819500  0.64180600  1
  O  O25  1  0.53996900  0.77820800  0.14183900  1
  O  O26  1  0.46002800  0.22179000  0.46003000  1
  O  O27  1  0.96000900  0.72180300  0.96000900  1
  O  O28  1  0.85816700  0.22179100  0.46002700  1
  O  O29  1  0.35819200  0.72180300  0.96001000  1
  O  O30  1  0.46002700  0.22179000  0.85816800  1
  O  O31  1  0.96000600  0.72180600  0.35819200  1
  O  O32  1  0.32331500  0.58662900  0.32331700  1
  O  O33  1  0.82330900  0.08663100  0.82331000  1
  O  O34  1  0.76673400  0.58663100  0.32332100  1
  O  O35  1  0.26674200  0.08663500  0.82331600  1
  O  O36  1  0.32332600  0.58663100  0.76672600  1
  O  O37  1  0.82332000  0.08663200  0.26674400  1
  O  O38  1  0.17669400  0.91336800  0.17669100  1
  O  O39  1  0.67668500  0.41337200  0.67668400  1
  O  O40  1  0.73326000  0.91336400  0.17668300  1
  O  O41  1  0.23326800  0.41337000  0.67667700  1
  O  O42  1  0.17667900  0.91336500  0.73325900  1
  O  O43  1  0.67667600  0.41337300  0.23326900  1
