# generated using pymatgen
data_Ga9Ir2
_symmetry_space_group_name_H-M   'P 1'
_cell_length_a   6.43313400
_cell_length_b   6.50247900
_cell_length_c   9.00820576
_cell_angle_alpha   86.35158908
_cell_angle_beta   90.00000000
_cell_angle_gamma   90.00000000
_symmetry_Int_Tables_number   1
_chemical_formula_structural   Ga9Ir2
_chemical_formula_sum   'Ga18 Ir4'
_cell_volume   376.06142207
_cell_formula_units_Z   2
loop_
 _symmetry_equiv_pos_site_id
 _symmetry_equiv_pos_as_xyz
  1  'x, y, z'
loop_
 _atom_site_type_symbol
 _atom_site_label
 _atom_site_symmetry_multiplicity
 _atom_site_fract_x
 _atom_site_fract_y
 _atom_site_fract_z
 _atom_site_occupancy
  Ga  Ga0  1  0.50000000  0.00000000  0.50000000  1
  Ga  Ga1  1  0.00000000  0.00000000  0.00000000  1
  Ga  Ga2  1  0.51582900  0.39896200  0.23325200  1
  Ga  Ga3  1  0.01582900  0.60103800  0.26674800  1
  Ga  Ga4  1  0.48417100  0.60103800  0.76674800  1
  Ga  Ga5  1  0.98417100  0.39896200  0.73325200  1
  Ga  Ga6  1  0.21944000  0.10218200  0.27387800  1
  Ga  Ga7  1  0.71944000  0.89781800  0.22612200  1
  Ga  Ga8  1  0.78056000  0.89781800  0.72612200  1
  Ga  Ga9  1  0.28056000  0.10218200  0.77387800  1
  Ga  Ga10  1  0.29867600  0.38857900  0.50029800  1
  Ga  Ga11  1  0.79867600  0.61142100  0.99970200  1
  Ga  Ga12  1  0.70132400  0.61142100  0.49970200  1
  Ga  Ga13  1  0.20132400  0.38857900  0.00029800  1
  Ga  Ga14  1  0.89939500  0.21307100  0.45751600  1
  Ga  Ga15  1  0.39939500  0.78692900  0.04248400  1
  Ga  Ga16  1  0.10060500  0.78692900  0.54248400  1
  Ga  Ga17  1  0.60060500  0.21307100  0.95751600  1
  Ir  Ir18  1  0.87581200  0.26149400  0.16691600  1
  Ir  Ir19  1  0.37581200  0.73850600  0.33308400  1
  Ir  Ir20  1  0.12418800  0.73850600  0.83308400  1
  Ir  Ir21  1  0.62418800  0.26149400  0.66691600  1
