# generated using pymatgen
data_YbH2ClO2
_symmetry_space_group_name_H-M   'P 1'
_cell_length_a   3.69887400
_cell_length_b   6.13855500
_cell_length_c   13.44591100
_cell_angle_alpha   90.00000000
_cell_angle_beta   90.00000000
_cell_angle_gamma   90.00000000
_symmetry_Int_Tables_number   1
_chemical_formula_structural   YbH2ClO2
_chemical_formula_sum   'Yb4 H8 Cl4 O8'
_cell_volume   305.29937922
_cell_formula_units_Z   4
loop_
 _symmetry_equiv_pos_site_id
 _symmetry_equiv_pos_as_xyz
  1  'x, y, z'
loop_
 _atom_site_type_symbol
 _atom_site_label
 _atom_site_symmetry_multiplicity
 _atom_site_fract_x
 _atom_site_fract_y
 _atom_site_fract_z
 _atom_site_occupancy
  Yb  Yb0  1  0.75000000  0.23890700  0.53900200  1
  Yb  Yb1  1  0.75000000  0.26109300  0.03900200  1
  Yb  Yb2  1  0.25000000  0.76109300  0.46099800  1
  Yb  Yb3  1  0.25000000  0.73890700  0.96099800  1
  H  H4  1  0.25000000  0.55656700  0.65870700  1
  H  H5  1  0.25000000  0.94343300  0.15870700  1
  H  H6  1  0.75000000  0.44343300  0.34129300  1
  H  H7  1  0.75000000  0.05656700  0.84129300  1
  H  H8  1  0.25000000  0.17804100  0.37631900  1
  H  H9  1  0.25000000  0.32195900  0.87631900  1
  H  H10  1  0.75000000  0.82195900  0.62368100  1
  H  H11  1  0.75000000  0.67804100  0.12368100  1
  Cl  Cl12  1  0.25000000  0.15979800  0.70584100  1
  Cl  Cl13  1  0.25000000  0.34020200  0.20584100  1
  Cl  Cl14  1  0.75000000  0.84020200  0.29415900  1
  Cl  Cl15  1  0.75000000  0.65979800  0.79415900  1
  O  O16  1  0.25000000  0.47507900  0.59621300  1
  O  O17  1  0.25000000  0.02492100  0.09621300  1
  O  O18  1  0.75000000  0.52492100  0.40378700  1
  O  O19  1  0.75000000  0.97507900  0.90378700  1
  O  O20  1  0.25000000  0.13983600  0.44683000  1
  O  O21  1  0.25000000  0.36016400  0.94683000  1
  O  O22  1  0.75000000  0.86016400  0.55317000  1
  O  O23  1  0.75000000  0.63983600  0.05317000  1
