# generated using pymatgen
data_Hg2SBr4N2O3
_symmetry_space_group_name_H-M   'P 1'
_cell_length_a   7.28917100
_cell_length_b   10.39060100
_cell_length_c   11.31073655
_cell_angle_alpha   83.38940245
_cell_angle_beta   90.00000000
_cell_angle_gamma   90.00000000
_symmetry_Int_Tables_number   1
_chemical_formula_structural   Hg2SBr4N2O3
_chemical_formula_sum   'Hg4 S2 Br8 N4 O6'
_cell_volume   850.96684793
_cell_formula_units_Z   2
loop_
 _symmetry_equiv_pos_site_id
 _symmetry_equiv_pos_as_xyz
  1  'x, y, z'
loop_
 _atom_site_type_symbol
 _atom_site_label
 _atom_site_symmetry_multiplicity
 _atom_site_fract_x
 _atom_site_fract_y
 _atom_site_fract_z
 _atom_site_occupancy
  Hg  Hg0  1  0.25000000  0.57777800  0.49210300  1
  Hg  Hg1  1  0.75000000  0.42222200  0.50789700  1
  Hg  Hg2  1  0.25000000  0.15907100  0.52060400  1
  Hg  Hg3  1  0.75000000  0.84092900  0.47939600  1
  S  S4  1  0.25000000  0.70734900  0.08090300  1
  S  S5  1  0.75000000  0.29265100  0.91909700  1
  Br  Br6  1  0.25000000  0.41061500  0.66445800  1
  Br  Br7  1  0.75000000  0.58938500  0.33554200  1
  Br  Br8  1  0.25000000  0.32203600  0.34193000  1
  Br  Br9  1  0.75000000  0.67796400  0.65807000  1
  Br  Br10  1  0.25000000  0.77871800  0.35544000  1
  Br  Br11  1  0.75000000  0.22128200  0.64456000  1
  Br  Br12  1  0.25000000  0.98081400  0.68128100  1
  Br  Br13  1  0.75000000  0.01918600  0.31871900  1
  N  N14  1  0.25000000  0.63400100  0.83192200  1
  N  N15  1  0.75000000  0.36599900  0.16807800  1
  N  N16  1  0.25000000  0.14996500  0.05653500  1
  N  N17  1  0.75000000  0.85003500  0.94346500  1
  O  O18  1  0.07926600  0.63777600  0.09679600  1
  O  O19  1  0.57926600  0.36222400  0.90320400  1
  O  O20  1  0.92073400  0.36222400  0.90320400  1
  O  O21  1  0.42073400  0.63777600  0.09679600  1
  O  O22  1  0.25000000  0.84497100  0.04610000  1
  O  O23  1  0.75000000  0.15502900  0.95390000  1
