# generated using pymatgen
data_La3AlCdS7
_symmetry_space_group_name_H-M   'P 1'
_cell_length_a   10.36438551
_cell_length_b   10.36438551
_cell_length_c   6.08258800
_cell_angle_alpha   90.00000000
_cell_angle_beta   90.00000000
_cell_angle_gamma   119.99999685
_symmetry_Int_Tables_number   1
_chemical_formula_structural   La3AlCdS7
_chemical_formula_sum   'La6 Al2 Cd2 S14'
_cell_volume   565.85630967
_cell_formula_units_Z   2
loop_
 _symmetry_equiv_pos_site_id
 _symmetry_equiv_pos_as_xyz
  1  'x, y, z'
loop_
 _atom_site_type_symbol
 _atom_site_label
 _atom_site_symmetry_multiplicity
 _atom_site_fract_x
 _atom_site_fract_y
 _atom_site_fract_z
 _atom_site_occupancy
  La  La0  1  0.24516600  0.37515300  0.26009900  1
  La  La1  1  0.62484700  0.87001300  0.26009900  1
  La  La2  1  0.12998700  0.75483400  0.26009900  1
  La  La3  1  0.75483400  0.62484700  0.76009900  1
  La  La4  1  0.37515300  0.12998700  0.76009900  1
  La  La5  1  0.87001300  0.24516600  0.76009900  1
  Al  Al6  1  0.33333300  0.66666700  0.84133900  1
  Al  Al7  1  0.66666700  0.33333300  0.34133900  1
  Cd  Cd8  1  0.00000000  0.00000000  0.50236800  1
  Cd  Cd9  1  0.00000000  0.00000000  0.00236800  1
  S  S10  1  0.16402100  0.25002300  0.74772900  1
  S  S11  1  0.74997700  0.91399900  0.74772900  1
  S  S12  1  0.08600100  0.83597900  0.74772900  1
  S  S13  1  0.83597900  0.74997700  0.24772900  1
  S  S14  1  0.25002300  0.08600100  0.24772900  1
  S  S15  1  0.91399900  0.16402100  0.24772900  1
  S  S16  1  0.10613800  0.51643500  0.99245200  1
  S  S17  1  0.48356500  0.58970300  0.99245200  1
  S  S18  1  0.41029700  0.89386200  0.99245200  1
  S  S19  1  0.89386200  0.48356500  0.49245200  1
  S  S20  1  0.51643500  0.41029700  0.49245200  1
  S  S21  1  0.58970300  0.10613800  0.49245200  1
  S  S22  1  0.33333300  0.66666700  0.47347000  1
  S  S23  1  0.66666700  0.33333300  0.97347000  1
