# generated using pymatgen
data_CsRbC2
_symmetry_space_group_name_H-M   'P 1'
_cell_length_a   6.12362200
_cell_length_b   8.44152600
_cell_length_c   9.52300600
_cell_angle_alpha   90.00000000
_cell_angle_beta   90.00000000
_cell_angle_gamma   90.00000000
_symmetry_Int_Tables_number   1
_chemical_formula_structural   CsRbC2
_chemical_formula_sum   'Cs4 Rb4 C8'
_cell_volume   492.27002869
_cell_formula_units_Z   4
loop_
 _symmetry_equiv_pos_site_id
 _symmetry_equiv_pos_as_xyz
  1  'x, y, z'
loop_
 _atom_site_type_symbol
 _atom_site_label
 _atom_site_symmetry_multiplicity
 _atom_site_fract_x
 _atom_site_fract_y
 _atom_site_fract_z
 _atom_site_occupancy
  Cs  Cs0  1  0.25000000  0.48720400  0.82156900  1
  Cs  Cs1  1  0.25000000  0.98720400  0.67843100  1
  Cs  Cs2  1  0.75000000  0.51279600  0.17843100  1
  Cs  Cs3  1  0.75000000  0.01279600  0.32156900  1
  Rb  Rb4  1  0.25000000  0.85357200  0.08980800  1
  Rb  Rb5  1  0.25000000  0.35357200  0.41019200  1
  Rb  Rb6  1  0.75000000  0.14642800  0.91019200  1
  Rb  Rb7  1  0.75000000  0.64642800  0.58980800  1
  C  C8  1  0.14624900  0.22789200  0.10239300  1
  C  C9  1  0.35375100  0.72789200  0.39760700  1
  C  C10  1  0.64624900  0.77210800  0.89760700  1
  C  C11  1  0.85375100  0.27210800  0.60239300  1
  C  C12  1  0.85375100  0.77210800  0.89760700  1
  C  C13  1  0.64624900  0.27210800  0.60239300  1
  C  C14  1  0.35375100  0.22789200  0.10239300  1
  C  C15  1  0.14624900  0.72789200  0.39760700  1
