# generated using pymatgen
data_H2S
_symmetry_space_group_name_H-M   'P 1'
_cell_length_a   7.91734428
_cell_length_b   7.91734428
_cell_length_c   7.91734428
_cell_angle_alpha   116.18348339
_cell_angle_beta   115.19456953
_cell_angle_gamma   97.64641279
_symmetry_Int_Tables_number   1
_chemical_formula_structural   H2S
_chemical_formula_sum   'H16 S8'
_cell_volume   370.19453736
_cell_formula_units_Z   8
loop_
 _symmetry_equiv_pos_site_id
 _symmetry_equiv_pos_as_xyz
  1  'x, y, z'
loop_
 _atom_site_type_symbol
 _atom_site_label
 _atom_site_symmetry_multiplicity
 _atom_site_fract_x
 _atom_site_fract_y
 _atom_site_fract_z
 _atom_site_occupancy
  H  H0  1  0.27665100  0.76820100  0.66827800  1
  H  H1  1  0.90007700  0.73179900  0.00845000  1
  H  H2  1  0.22334900  0.89162700  0.49155000  1
  H  H3  1  0.59992300  0.60837300  0.83172200  1
  H  H4  1  0.72334900  0.23179900  0.33172200  1
  H  H5  1  0.09992300  0.26820100  0.99155000  1
  H  H6  1  0.77665100  0.10837300  0.50845000  1
  H  H7  1  0.40007700  0.39162700  0.16827800  1
  H  H8  1  0.58596600  0.09945600  0.80724100  1
  H  H9  1  0.70778400  0.40054400  0.98651000  1
  H  H10  1  0.91403400  0.72127400  0.51349000  1
  H  H11  1  0.79221600  0.77872600  0.69275900  1
  H  H12  1  0.41403400  0.90054400  0.19275900  1
  H  H13  1  0.29221600  0.59945600  0.01349000  1
  H  H14  1  0.08596600  0.27872600  0.48651000  1
  H  H15  1  0.20778400  0.22127400  0.30724100  1
  S  S16  1  0.24331800  0.75000000  0.99331800  1
  S  S17  1  0.25668200  0.25000000  0.50668200  1
  S  S18  1  0.75668200  0.25000000  0.00668200  1
  S  S19  1  0.74331800  0.75000000  0.49331800  1
  S  S20  1  0.75000000  0.28054600  0.53054600  1
  S  S21  1  0.25000000  0.21945400  0.96945400  1
  S  S22  1  0.25000000  0.71945400  0.46945400  1
  S  S23  1  0.75000000  0.78054600  0.03054600  1
