# generated using pymatgen
data_CuCl3O2
_symmetry_space_group_name_H-M   'P 1'
_cell_length_a   10.03407500
_cell_length_b   5.76854700
_cell_length_c   8.95964876
_cell_angle_alpha   69.11527901
_cell_angle_beta   90.00000000
_cell_angle_gamma   90.00000000
_symmetry_Int_Tables_number   1
_chemical_formula_structural   CuCl3O2
_chemical_formula_sum   'Cu4 Cl12 O8'
_cell_volume   484.53026872
_cell_formula_units_Z   4
loop_
 _symmetry_equiv_pos_site_id
 _symmetry_equiv_pos_as_xyz
  1  'x, y, z'
loop_
 _atom_site_type_symbol
 _atom_site_label
 _atom_site_symmetry_multiplicity
 _atom_site_fract_x
 _atom_site_fract_y
 _atom_site_fract_z
 _atom_site_occupancy
  Cu  Cu0  1  0.02390700  0.12431000  0.14828900  1
  Cu  Cu1  1  0.52390700  0.87569000  0.35171100  1
  Cu  Cu2  1  0.97609300  0.87569000  0.85171100  1
  Cu  Cu3  1  0.47609300  0.12431000  0.64828900  1
  Cl  Cl4  1  0.14763300  0.45210900  0.13884000  1
  Cl  Cl5  1  0.64763300  0.54789100  0.36116000  1
  Cl  Cl6  1  0.85236700  0.54789100  0.86116000  1
  Cl  Cl7  1  0.35236700  0.45210900  0.63884000  1
  Cl  Cl8  1  0.37581100  0.82527700  0.18170300  1
  Cl  Cl9  1  0.87581100  0.17472300  0.31829700  1
  Cl  Cl10  1  0.62418900  0.17472300  0.81829700  1
  Cl  Cl11  1  0.12418900  0.82527700  0.68170300  1
  Cl  Cl12  1  0.36820100  0.11913900  0.42425800  1
  Cl  Cl13  1  0.86820100  0.88086100  0.07574200  1
  Cl  Cl14  1  0.63179900  0.88086100  0.57574200  1
  Cl  Cl15  1  0.13179900  0.11913900  0.92425800  1
  O  O16  1  0.11382700  0.84612400  0.29819100  1
  O  O17  1  0.61382700  0.15387600  0.20180900  1
  O  O18  1  0.88617300  0.15387600  0.70180900  1
  O  O19  1  0.38617300  0.84612400  0.79819100  1
  O  O20  1  0.47768400  0.39705200  0.03536900  1
  O  O21  1  0.97768400  0.60294800  0.46463100  1
  O  O22  1  0.52231600  0.60294800  0.96463100  1
  O  O23  1  0.02231600  0.39705200  0.53536900  1
