# generated using pymatgen
data_UCu4(MoO8)2
_symmetry_space_group_name_H-M   'P 1'
_cell_length_a   5.35974923
_cell_length_b   5.96327200
_cell_length_c   10.95714502
_cell_angle_alpha   105.79033703
_cell_angle_beta   101.97016988
_cell_angle_gamma   90.00000000
_symmetry_Int_Tables_number   1
_chemical_formula_structural   UCu4(MoO8)2
_chemical_formula_sum   'U1 Cu4 Mo2 O16'
_cell_volume   329.07214746
_cell_formula_units_Z   1
loop_
 _symmetry_equiv_pos_site_id
 _symmetry_equiv_pos_as_xyz
  1  'x, y, z'
loop_
 _atom_site_type_symbol
 _atom_site_label
 _atom_site_symmetry_multiplicity
 _atom_site_fract_x
 _atom_site_fract_y
 _atom_site_fract_z
 _atom_site_occupancy
  U  U0  1  0.00000000  0.00000000  0.00000000  1
  Cu  Cu1  1  0.49716700  0.74850500  0.49700900  1
  Cu  Cu2  1  0.50283300  0.25149500  0.50299100  1
  Cu  Cu3  1  0.00000000  0.00000000  0.50000000  1
  Cu  Cu4  1  0.00000000  0.50000000  0.50000000  1
  Mo  Mo5  1  0.69634200  0.58295100  0.16590200  1
  Mo  Mo6  1  0.30365800  0.41704900  0.83409800  1
  O  O7  1  0.70772800  0.02961700  0.57076500  1
  O  O8  1  0.70772800  0.54114800  0.57076500  1
  O  O9  1  0.29227200  0.97038300  0.42923500  1
  O  O10  1  0.29227200  0.45885200  0.42923500  1
  O  O11  1  0.63213100  0.44952400  0.89904800  1
  O  O12  1  0.36786900  0.55047600  0.10095200  1
  O  O13  1  0.86430900  0.20619700  0.41239400  1
  O  O14  1  0.13569100  0.79380300  0.58760600  1
  O  O15  1  0.70168500  0.93960700  0.87921300  1
  O  O16  1  0.29831500  0.06039300  0.12078700  1
  O  O17  1  0.84806600  0.81528500  0.12293700  1
  O  O18  1  0.84806600  0.30765200  0.12293700  1
  O  O19  1  0.15193400  0.18471500  0.87706300  1
  O  O20  1  0.15193400  0.69234800  0.87706300  1
  O  O21  1  0.73790000  0.67019100  0.34038200  1
  O  O22  1  0.26210000  0.32980900  0.65961800  1
