# generated using pymatgen
data_CaAl2(OF)4
_symmetry_space_group_name_H-M   'P 1'
_cell_length_a   6.50339886
_cell_length_b   6.50339886
_cell_length_c   7.82011725
_cell_angle_alpha   86.31357040
_cell_angle_beta   86.31357040
_cell_angle_gamma   115.83416974
_symmetry_Int_Tables_number   1
_chemical_formula_structural   CaAl2(OF)4
_chemical_formula_sum   'Ca2 Al4 O8 F8'
_cell_volume   295.50140647
_cell_formula_units_Z   2
loop_
 _symmetry_equiv_pos_site_id
 _symmetry_equiv_pos_as_xyz
  1  'x, y, z'
loop_
 _atom_site_type_symbol
 _atom_site_label
 _atom_site_symmetry_multiplicity
 _atom_site_fract_x
 _atom_site_fract_y
 _atom_site_fract_z
 _atom_site_occupancy
  Ca  Ca0  1  0.46485300  0.53514700  0.25000000  1
  Ca  Ca1  1  0.53514700  0.46485300  0.75000000  1
  Al  Al2  1  0.00000000  0.50000000  0.00000000  1
  Al  Al3  1  0.50000000  0.00000000  0.50000000  1
  Al  Al4  1  0.11677100  0.88322900  0.25000000  1
  Al  Al5  1  0.88322900  0.11677100  0.75000000  1
  O  O6  1  0.05780400  0.57083800  0.22603900  1
  O  O7  1  0.42916200  0.94219600  0.27396100  1
  O  O8  1  0.94219600  0.42916200  0.77396100  1
  O  O9  1  0.57083800  0.05780400  0.72603900  1
  O  O10  1  0.11215000  0.81532300  0.01741200  1
  O  O11  1  0.18467700  0.88785000  0.48258800  1
  O  O12  1  0.88785000  0.18467700  0.98258800  1
  O  O13  1  0.81532300  0.11215000  0.51741200  1
  F  F14  1  0.30488900  0.54081600  0.96231800  1
  F  F15  1  0.45918400  0.69511100  0.53768200  1
  F  F16  1  0.69511100  0.45918400  0.03768200  1
  F  F17  1  0.54081600  0.30488900  0.46231800  1
  F  F18  1  0.81916600  0.80184600  0.28538400  1
  F  F19  1  0.19815400  0.18083400  0.21461600  1
  F  F20  1  0.18083400  0.19815400  0.71461600  1
  F  F21  1  0.80184600  0.81916600  0.78538400  1
