# generated using pymatgen
data_TiCo2
_symmetry_space_group_name_H-M   'P 1'
_cell_length_a   4.70502820
_cell_length_b   4.70502820
_cell_length_c   15.35790300
_cell_angle_alpha   90.00000000
_cell_angle_beta   90.00000000
_cell_angle_gamma   120.00000276
_symmetry_Int_Tables_number   1
_chemical_formula_structural   TiCo2
_chemical_formula_sum   'Ti8 Co16'
_cell_volume   294.43335027
_cell_formula_units_Z   8
loop_
 _symmetry_equiv_pos_site_id
 _symmetry_equiv_pos_as_xyz
  1  'x, y, z'
loop_
 _atom_site_type_symbol
 _atom_site_label
 _atom_site_symmetry_multiplicity
 _atom_site_fract_x
 _atom_site_fract_y
 _atom_site_fract_z
 _atom_site_occupancy
  Ti  Ti0  1  0.00000000  0.00000000  0.40781300  1
  Ti  Ti1  1  0.00000000  0.00000000  0.59218700  1
  Ti  Ti2  1  0.00000000  0.00000000  0.90781300  1
  Ti  Ti3  1  0.00000000  0.00000000  0.09218700  1
  Ti  Ti4  1  0.33333300  0.66666700  0.65584200  1
  Ti  Ti5  1  0.66666700  0.33333300  0.34415800  1
  Ti  Ti6  1  0.66666700  0.33333300  0.15584200  1
  Ti  Ti7  1  0.33333300  0.66666700  0.84415800  1
  Co  Co8  1  0.33333300  0.66666700  0.37380100  1
  Co  Co9  1  0.66666700  0.33333300  0.62619900  1
  Co  Co10  1  0.66666700  0.33333300  0.87380100  1
  Co  Co11  1  0.33333300  0.66666700  0.12619900  1
  Co  Co12  1  0.50000000  0.50000000  0.50000000  1
  Co  Co13  1  0.50000000  0.00000000  0.50000000  1
  Co  Co14  1  0.00000000  0.50000000  0.50000000  1
  Co  Co15  1  0.50000000  0.50000000  0.00000000  1
  Co  Co16  1  0.50000000  0.00000000  0.00000000  1
  Co  Co17  1  0.00000000  0.50000000  0.00000000  1
  Co  Co18  1  0.16253600  0.83746400  0.25000000  1
  Co  Co19  1  0.16253600  0.32507100  0.25000000  1
  Co  Co20  1  0.67492900  0.83746400  0.25000000  1
  Co  Co21  1  0.83746400  0.16253600  0.75000000  1
  Co  Co22  1  0.83746400  0.67492900  0.75000000  1
  Co  Co23  1  0.32507100  0.16253600  0.75000000  1
