# generated using pymatgen
data_Sr4BiO7
_symmetry_space_group_name_H-M   'P 1'
_cell_length_a   6.18823000
_cell_length_b   7.04865491
_cell_length_c   9.42220304
_cell_angle_alpha   101.26021346
_cell_angle_beta   90.00000000
_cell_angle_gamma   90.00000000
_symmetry_Int_Tables_number   1
_chemical_formula_structural   Sr4BiO7
_chemical_formula_sum   'Sr8 Bi2 O14'
_cell_volume   403.07298122
_cell_formula_units_Z   2
loop_
 _symmetry_equiv_pos_site_id
 _symmetry_equiv_pos_as_xyz
  1  'x, y, z'
loop_
 _atom_site_type_symbol
 _atom_site_label
 _atom_site_symmetry_multiplicity
 _atom_site_fract_x
 _atom_site_fract_y
 _atom_site_fract_z
 _atom_site_occupancy
  Sr  Sr0  1  0.16771700  0.61134700  0.07477200  1
  Sr  Sr1  1  0.66771700  0.38865300  0.92522800  1
  Sr  Sr2  1  0.63970000  0.01068100  0.12590400  1
  Sr  Sr3  1  0.13970000  0.98931900  0.87409600  1
  Sr  Sr4  1  0.16669400  0.90912100  0.44072400  1
  Sr  Sr5  1  0.66669400  0.09087900  0.55927600  1
  Sr  Sr6  1  0.17368200  0.49166400  0.61128100  1
  Sr  Sr7  1  0.67368200  0.50833600  0.38871900  1
  Bi  Bi8  1  0.15839300  0.25556900  0.24566000  1
  Bi  Bi9  1  0.65839300  0.74443100  0.75434000  1
  O  O10  1  0.41369100  0.31610000  0.10538000  1
  O  O11  1  0.91369100  0.68390000  0.89462000  1
  O  O12  1  0.93723500  0.28741400  0.07897400  1
  O  O13  1  0.43723500  0.71258600  0.92102600  1
  O  O14  1  0.89215600  0.18699400  0.37301300  1
  O  O15  1  0.39215600  0.81300600  0.62698700  1
  O  O16  1  0.37864200  0.23794700  0.41658300  1
  O  O17  1  0.87864200  0.76205300  0.58341700  1
  O  O18  1  0.12063700  0.55770500  0.33778400  1
  O  O19  1  0.62063700  0.44229500  0.66221600  1
  O  O20  1  0.19811800  0.95555100  0.16199300  1
  O  O21  1  0.69811800  0.04444900  0.83800700  1
  O  O22  1  0.10760500  0.18316300  0.68744700  1
  O  O23  1  0.60760500  0.81683700  0.31255300  1
