# generated using pymatgen
data_Bi3(B3O7)2
_symmetry_space_group_name_H-M   'P 1'
_cell_length_a   6.63745700
_cell_length_b   6.67876510
_cell_length_c   6.70910365
_cell_angle_alpha   119.77365600
_cell_angle_beta   91.33027655
_cell_angle_gamma   89.39518348
_symmetry_Int_Tables_number   1
_chemical_formula_structural   Bi3(B3O7)2
_chemical_formula_sum   'Bi3 B6 O14'
_cell_volume   258.08437239
_cell_formula_units_Z   1
loop_
 _symmetry_equiv_pos_site_id
 _symmetry_equiv_pos_as_xyz
  1  'x, y, z'
loop_
 _atom_site_type_symbol
 _atom_site_label
 _atom_site_symmetry_multiplicity
 _atom_site_fract_x
 _atom_site_fract_y
 _atom_site_fract_z
 _atom_site_occupancy
  Bi  Bi0  1  0.56134300  0.70310200  0.63238700  1
  Bi  Bi1  1  0.23937900  0.88120000  0.15762100  1
  Bi  Bi2  1  0.82870900  0.29416400  0.04340300  1
  B  B3  1  0.98471900  0.64986800  0.65205400  1
  B  B4  1  0.36853300  0.27915500  0.01658500  1
  B  B5  1  0.69535100  0.85804300  0.21132800  1
  B  B6  1  0.17402900  0.36345900  0.72954000  1
  B  B7  1  0.83506700  0.26314300  0.51118700  1
  B  B8  1  0.50113500  0.14741600  0.59574400  1
  O  O9  1  0.87662900  0.84664900  0.74097200  1
  O  O10  1  0.22166200  0.14751800  0.06058600  1
  O  O11  1  0.55128200  0.82770700  0.02381800  1
  O  O12  1  0.89081700  0.45649700  0.46597800  1
  O  O13  1  0.55570400  0.91210000  0.41069500  1
  O  O14  1  0.25346200  0.43383900  0.95771600  1
  O  O15  1  0.51242400  0.40363300  0.20659400  1
  O  O16  1  0.82550400  0.66477700  0.15422400  1
  O  O17  1  0.16397500  0.61009200  0.73741300  1
  O  O18  1  0.50693800  0.12704000  0.80956300  1
  O  O19  1  0.83497600  0.05781300  0.28250700  1
  O  O20  1  0.63659700  0.32389500  0.61152200  1
  O  O21  1  0.29912000  0.20017700  0.54703600  1
  O  O22  1  0.97154600  0.27073100  0.68984500  1
