# generated using pymatgen
data_BaReH9
_symmetry_space_group_name_H-M   'P 1'
_cell_length_a   9.51646400
_cell_length_b   5.19709300
_cell_length_c   5.22986453
_cell_angle_alpha   64.15349137
_cell_angle_beta   90.00000000
_cell_angle_gamma   90.00000000
_symmetry_Int_Tables_number   1
_chemical_formula_structural   BaReH9
_chemical_formula_sum   'Ba2 Re2 H18'
_cell_volume   232.78352809
_cell_formula_units_Z   2
loop_
 _symmetry_equiv_pos_site_id
 _symmetry_equiv_pos_as_xyz
  1  'x, y, z'
loop_
 _atom_site_type_symbol
 _atom_site_label
 _atom_site_symmetry_multiplicity
 _atom_site_fract_x
 _atom_site_fract_y
 _atom_site_fract_z
 _atom_site_occupancy
  Ba  Ba0  1  0.50000000  0.00000000  0.00000000  1
  Ba  Ba1  1  0.00000000  0.00000000  0.00000000  1
  Re  Re2  1  0.25000000  0.65156900  0.60560700  1
  Re  Re3  1  0.75000000  0.34843100  0.39439300  1
  H  H4  1  0.25000000  0.71538300  0.89949100  1
  H  H5  1  0.75000000  0.28461700  0.10050900  1
  H  H6  1  0.25000000  0.29275200  0.82513400  1
  H  H7  1  0.75000000  0.70724800  0.17486600  1
  H  H8  1  0.25000000  0.84155900  0.25240200  1
  H  H9  1  0.75000000  0.15844100  0.74759800  1
  H  H10  1  0.35466000  0.50117300  0.44374100  1
  H  H11  1  0.85466000  0.49882700  0.55625900  1
  H  H12  1  0.64534000  0.49882700  0.55625900  1
  H  H13  1  0.14534000  0.50117300  0.44374100  1
  H  H14  1  0.35649500  0.94415200  0.50905400  1
  H  H15  1  0.85649500  0.05584800  0.49094600  1
  H  H16  1  0.64350500  0.05584800  0.49094600  1
  H  H17  1  0.14350500  0.94415200  0.50905400  1
  H  H18  1  0.40713000  0.56057200  0.77037800  1
  H  H19  1  0.90713000  0.43942800  0.22962200  1
  H  H20  1  0.59287000  0.43942800  0.22962200  1
  H  H21  1  0.09287000  0.56057200  0.77037800  1
