# generated using pymatgen
data_Dy3AlFeS7
_symmetry_space_group_name_H-M   'P 1'
_cell_length_a   9.56377516
_cell_length_b   9.56377516
_cell_length_c   6.01903500
_cell_angle_alpha   90.00000000
_cell_angle_beta   90.00000000
_cell_angle_gamma   119.99999418
_symmetry_Int_Tables_number   1
_chemical_formula_structural   Dy3AlFeS7
_chemical_formula_sum   'Dy6 Al2 Fe2 S14'
_cell_volume   476.77803645
_cell_formula_units_Z   2
loop_
 _symmetry_equiv_pos_site_id
 _symmetry_equiv_pos_as_xyz
  1  'x, y, z'
loop_
 _atom_site_type_symbol
 _atom_site_label
 _atom_site_symmetry_multiplicity
 _atom_site_fract_x
 _atom_site_fract_y
 _atom_site_fract_z
 _atom_site_occupancy
  Dy  Dy0  1  0.77230200  0.14374200  0.23355500  1
  Dy  Dy1  1  0.37144000  0.22769800  0.23355500  1
  Dy  Dy2  1  0.85625800  0.62856000  0.23355500  1
  Dy  Dy3  1  0.22769800  0.85625800  0.73355500  1
  Dy  Dy4  1  0.62856000  0.77230200  0.73355500  1
  Dy  Dy5  1  0.14374200  0.37144000  0.73355500  1
  Al  Al6  1  0.66666700  0.33333300  0.66294100  1
  Al  Al7  1  0.33333300  0.66666700  0.16294100  1
  Fe  Fe8  1  0.00000000  0.00000000  0.04841800  1
  Fe  Fe9  1  0.00000000  0.00000000  0.54841800  1
  S  S10  1  0.86809900  0.08803900  0.80569200  1
  S  S11  1  0.21994000  0.13190100  0.80569200  1
  S  S12  1  0.91196100  0.78006000  0.80569200  1
  S  S13  1  0.13190100  0.91196100  0.30569200  1
  S  S14  1  0.78006000  0.86809900  0.30569200  1
  S  S15  1  0.08803900  0.21994000  0.30569200  1
  S  S16  1  0.90957100  0.42356100  0.50740300  1
  S  S17  1  0.51398900  0.09042900  0.50740300  1
  S  S18  1  0.57643900  0.48601100  0.50740300  1
  S  S19  1  0.09042900  0.57643900  0.00740300  1
  S  S20  1  0.48601100  0.90957100  0.00740300  1
  S  S21  1  0.42356100  0.51398900  0.00740300  1
  S  S22  1  0.66666700  0.33333300  0.03239300  1
  S  S23  1  0.33333300  0.66666700  0.53239300  1
