# generated using pymatgen
data_Sm4NiS7
_symmetry_space_group_name_H-M   'P 1'
_cell_length_a   9.75831192
_cell_length_b   9.75831192
_cell_length_c   6.68255600
_cell_angle_alpha   90.00000000
_cell_angle_beta   90.00000000
_cell_angle_gamma   119.99999947
_symmetry_Int_Tables_number   1
_chemical_formula_structural   Sm4NiS7
_chemical_formula_sum   'Sm8 Ni2 S14'
_cell_volume   551.09013023
_cell_formula_units_Z   2
loop_
 _symmetry_equiv_pos_site_id
 _symmetry_equiv_pos_as_xyz
  1  'x, y, z'
loop_
 _atom_site_type_symbol
 _atom_site_label
 _atom_site_symmetry_multiplicity
 _atom_site_fract_x
 _atom_site_fract_y
 _atom_site_fract_z
 _atom_site_occupancy
  Sm  Sm0  1  0.33333300  0.66666700  0.82554700  1
  Sm  Sm1  1  0.66666700  0.33333300  0.32554700  1
  Sm  Sm2  1  0.77156300  0.62704700  0.78273100  1
  Sm  Sm3  1  0.85548400  0.22843700  0.78273100  1
  Sm  Sm4  1  0.22843700  0.37295300  0.28273100  1
  Sm  Sm5  1  0.37295300  0.14451600  0.78273100  1
  Sm  Sm6  1  0.14451600  0.77156300  0.28273100  1
  Sm  Sm7  1  0.62704700  0.85548400  0.28273100  1
  Ni  Ni8  1  0.00000000  0.00000000  0.97655600  1
  Ni  Ni9  1  0.00000000  0.00000000  0.47655600  1
  S  S10  1  0.92781900  0.49653900  0.53815000  1
  S  S11  1  0.56872000  0.07218100  0.53815000  1
  S  S12  1  0.07218100  0.50346100  0.03815000  1
  S  S13  1  0.50346100  0.43128000  0.53815000  1
  S  S14  1  0.43128000  0.92781900  0.03815000  1
  S  S15  1  0.49653900  0.56872000  0.03815000  1
  S  S16  1  0.33333300  0.66666700  0.43434300  1
  S  S17  1  0.66666700  0.33333300  0.93434300  1
  S  S18  1  0.77555400  0.90898900  0.70163700  1
  S  S19  1  0.13343500  0.22444600  0.70163700  1
  S  S20  1  0.22444600  0.09101100  0.20163700  1
  S  S21  1  0.09101100  0.86656500  0.70163700  1
  S  S22  1  0.86656500  0.77555400  0.20163700  1
  S  S23  1  0.90898900  0.13343500  0.20163700  1
