# generated using pymatgen
data_La3AlZnS7
_symmetry_space_group_name_H-M   'P 1'
_cell_length_a   10.28280358
_cell_length_b   10.28280358
_cell_length_c   5.98890000
_cell_angle_alpha   90.00000000
_cell_angle_beta   90.00000000
_cell_angle_gamma   119.99999729
_symmetry_Int_Tables_number   1
_chemical_formula_structural   La3AlZnS7
_chemical_formula_sum   'La6 Al2 Zn2 S14'
_cell_volume   548.40421629
_cell_formula_units_Z   2
loop_
 _symmetry_equiv_pos_site_id
 _symmetry_equiv_pos_as_xyz
  1  'x, y, z'
loop_
 _atom_site_type_symbol
 _atom_site_label
 _atom_site_symmetry_multiplicity
 _atom_site_fract_x
 _atom_site_fract_y
 _atom_site_fract_z
 _atom_site_occupancy
  La  La0  1  0.75762700  0.12949700  0.23952100  1
  La  La1  1  0.37187000  0.24237300  0.23952100  1
  La  La2  1  0.87050300  0.62813000  0.23952100  1
  La  La3  1  0.24237300  0.87050300  0.73952100  1
  La  La4  1  0.62813000  0.75762700  0.73952100  1
  La  La5  1  0.12949700  0.37187000  0.73952100  1
  Al  Al6  1  0.66666700  0.33333300  0.65807900  1
  Al  Al7  1  0.33333300  0.66666700  0.15807900  1
  Zn  Zn8  1  0.00000000  0.00000000  0.99855900  1
  Zn  Zn9  1  0.00000000  0.00000000  0.49855900  1
  S  S10  1  0.84742900  0.08043300  0.75090700  1
  S  S11  1  0.23300400  0.15257100  0.75090700  1
  S  S12  1  0.91956700  0.76699600  0.75090700  1
  S  S13  1  0.15257100  0.91956700  0.25090700  1
  S  S14  1  0.76699600  0.84742900  0.25090700  1
  S  S15  1  0.08043300  0.23300400  0.25090700  1
  S  S16  1  0.89558500  0.41101200  0.50856100  1
  S  S17  1  0.51542700  0.10441500  0.50856100  1
  S  S18  1  0.58898800  0.48457300  0.50856100  1
  S  S19  1  0.10441500  0.58898800  0.00856100  1
  S  S20  1  0.48457300  0.89558500  0.00856100  1
  S  S21  1  0.41101200  0.51542700  0.00856100  1
  S  S22  1  0.66666700  0.33333300  0.02839200  1
  S  S23  1  0.33333300  0.66666700  0.52839200  1
