# generated using pymatgen
data_CsV2CrO7
_symmetry_space_group_name_H-M   'P 1'
_cell_length_a   4.99396900
_cell_length_b   7.00264000
_cell_length_c   9.00882648
_cell_angle_alpha   99.58050932
_cell_angle_beta   90.00000000
_cell_angle_gamma   90.00000000
_symmetry_Int_Tables_number   1
_chemical_formula_structural   CsV2CrO7
_chemical_formula_sum   'Cs2 V4 Cr2 O14'
_cell_volume   310.65331728
_cell_formula_units_Z   2
loop_
 _symmetry_equiv_pos_site_id
 _symmetry_equiv_pos_as_xyz
  1  'x, y, z'
loop_
 _atom_site_type_symbol
 _atom_site_label
 _atom_site_symmetry_multiplicity
 _atom_site_fract_x
 _atom_site_fract_y
 _atom_site_fract_z
 _atom_site_occupancy
  Cs  Cs0  1  0.61423800  0.75000000  0.50000000  1
  Cs  Cs1  1  0.38576200  0.25000000  0.50000000  1
  V  V2  1  0.99454400  0.87248000  0.15612000  1
  V  V3  1  0.99454400  0.62752000  0.84388000  1
  V  V4  1  0.00545600  0.12752000  0.84388000  1
  V  V5  1  0.00545600  0.37248000  0.15612000  1
  Cr  Cr6  1  0.50000000  0.00000000  0.00000000  1
  Cr  Cr7  1  0.50000000  0.50000000  0.00000000  1
  O  O8  1  0.11695400  0.87236900  0.32548700  1
  O  O9  1  0.11695400  0.62763100  0.67451300  1
  O  O10  1  0.88304600  0.12763100  0.67451300  1
  O  O11  1  0.88304600  0.37236900  0.32548700  1
  O  O12  1  0.84281400  0.60888800  0.10075100  1
  O  O13  1  0.84281400  0.89111200  0.89924900  1
  O  O14  1  0.15718600  0.39111200  0.89924900  1
  O  O15  1  0.15718600  0.10888800  0.10075100  1
  O  O16  1  0.32290100  0.03068400  0.80876200  1
  O  O17  1  0.32290100  0.46931600  0.19123800  1
  O  O18  1  0.67709900  0.96931600  0.19123800  1
  O  O19  1  0.67709900  0.53068400  0.80876200  1
  O  O20  1  0.28601400  0.75000000  0.00000000  1
  O  O21  1  0.71398600  0.25000000  0.00000000  1
