# generated using pymatgen
data_TbPO4
_symmetry_space_group_name_H-M   'P 1'
_cell_length_a   4.96889700
_cell_length_b   6.85283500
_cell_length_c   6.93388400
_cell_angle_alpha   90.00000000
_cell_angle_beta   90.00000000
_cell_angle_gamma   90.00000000
_symmetry_Int_Tables_number   1
_chemical_formula_structural   TbPO4
_chemical_formula_sum   'Tb4 P4 O16'
_cell_volume   236.10590093
_cell_formula_units_Z   4
loop_
 _symmetry_equiv_pos_site_id
 _symmetry_equiv_pos_as_xyz
  1  'x, y, z'
loop_
 _atom_site_type_symbol
 _atom_site_label
 _atom_site_symmetry_multiplicity
 _atom_site_fract_x
 _atom_site_fract_y
 _atom_site_fract_z
 _atom_site_occupancy
  Tb  Tb0  1  0.48709200  0.75000000  0.30904100  1
  Tb  Tb1  1  0.51290800  0.25000000  0.69095900  1
  Tb  Tb2  1  0.48709200  0.25000000  0.19095900  1
  Tb  Tb3  1  0.51290800  0.75000000  0.80904100  1
  P  P4  1  0.00000000  0.50000000  0.50000000  1
  P  P5  1  0.00000000  0.00000000  0.50000000  1
  P  P6  1  0.00000000  0.50000000  0.00000000  1
  P  P7  1  0.00000000  0.00000000  0.00000000  1
  O  O8  1  0.70793200  0.56431800  0.07463300  1
  O  O9  1  0.29206800  0.06431800  0.92536700  1
  O  O10  1  0.70793200  0.43568200  0.42536700  1
  O  O11  1  0.29206800  0.93568200  0.57463300  1
  O  O12  1  0.29206800  0.43568200  0.92536700  1
  O  O13  1  0.70793200  0.93568200  0.07463300  1
  O  O14  1  0.29206800  0.56431800  0.57463300  1
  O  O15  1  0.70793200  0.06431800  0.42536700  1
  O  O16  1  0.14672500  0.50000000  0.25000000  1
  O  O17  1  0.85327500  0.00000000  0.75000000  1
  O  O18  1  0.85327500  0.50000000  0.75000000  1
  O  O19  1  0.14672500  0.00000000  0.25000000  1
  O  O20  1  0.88246100  0.75000000  0.47602600  1
  O  O21  1  0.11753900  0.25000000  0.52397400  1
  O  O22  1  0.88246100  0.25000000  0.02397400  1
  O  O23  1  0.11753900  0.75000000  0.97602600  1
