# generated using pymatgen
data_ScBr3O7
_symmetry_space_group_name_H-M   'P 1'
_cell_length_a   5.46256327
_cell_length_b   8.37102500
_cell_length_c   7.63109724
_cell_angle_alpha   90.00000000
_cell_angle_beta   81.04078313
_cell_angle_gamma   90.00000000
_symmetry_Int_Tables_number   1
_chemical_formula_structural   ScBr3O7
_chemical_formula_sum   'Sc2 Br6 O14'
_cell_volume   344.69174475
_cell_formula_units_Z   2
loop_
 _symmetry_equiv_pos_site_id
 _symmetry_equiv_pos_as_xyz
  1  'x, y, z'
loop_
 _atom_site_type_symbol
 _atom_site_label
 _atom_site_symmetry_multiplicity
 _atom_site_fract_x
 _atom_site_fract_y
 _atom_site_fract_z
 _atom_site_occupancy
  Sc  Sc0  1  0.25000000  0.15444900  0.75000000  1
  Sc  Sc1  1  0.75000000  0.84555100  0.25000000  1
  Br  Br2  1  0.71619100  0.24651700  0.48821300  1
  Br  Br3  1  0.28380900  0.75348300  0.51178700  1
  Br  Br4  1  0.78380900  0.24651700  0.01178700  1
  Br  Br5  1  0.21619100  0.75348300  0.98821300  1
  Br  Br6  1  0.75000000  0.74229400  0.75000000  1
  Br  Br7  1  0.25000000  0.25770600  0.25000000  1
  O  O8  1  0.06466000  0.23861500  0.51226200  1
  O  O9  1  0.93534000  0.76138500  0.48773800  1
  O  O10  1  0.43534000  0.23861500  0.98773800  1
  O  O11  1  0.56466000  0.76138500  0.01226200  1
  O  O12  1  0.25000000  0.91986800  0.75000000  1
  O  O13  1  0.75000000  0.08013200  0.25000000  1
  O  O14  1  0.62785400  0.07951500  0.60448000  1
  O  O15  1  0.37214600  0.92048500  0.39552000  1
  O  O16  1  0.87214600  0.07951500  0.89552000  1
  O  O17  1  0.12785400  0.92048500  0.10448000  1
  O  O18  1  0.51107200  0.36208800  0.62789400  1
  O  O19  1  0.48892800  0.63791200  0.37210600  1
  O  O20  1  0.98892800  0.36208800  0.87210600  1
  O  O21  1  0.01107200  0.63791200  0.12789400  1
