# generated using pymatgen
data_LiTl
_symmetry_space_group_name_H-M   'P 1'
_cell_length_a   8.30012857
_cell_length_b   8.30012857
_cell_length_c   8.13298700
_cell_angle_alpha   90.00000000
_cell_angle_beta   90.00000000
_cell_angle_gamma   99.81198285
_symmetry_Int_Tables_number   1
_chemical_formula_structural   LiTl
_chemical_formula_sum   'Li12 Tl12'
_cell_volume   552.10293710
_cell_formula_units_Z   12
loop_
 _symmetry_equiv_pos_site_id
 _symmetry_equiv_pos_as_xyz
  1  'x, y, z'
loop_
 _atom_site_type_symbol
 _atom_site_label
 _atom_site_symmetry_multiplicity
 _atom_site_fract_x
 _atom_site_fract_y
 _atom_site_fract_z
 _atom_site_occupancy
  Li  Li0  1  0.09608600  0.59608600  0.75000000  1
  Li  Li1  1  0.40391400  0.90391400  0.25000000  1
  Li  Li2  1  0.90391400  0.40391400  0.25000000  1
  Li  Li3  1  0.59608600  0.09608600  0.75000000  1
  Li  Li4  1  0.65662900  0.34337100  0.50000000  1
  Li  Li5  1  0.15662900  0.84337100  0.00000000  1
  Li  Li6  1  0.34337100  0.65662900  0.50000000  1
  Li  Li7  1  0.84337100  0.15662900  0.00000000  1
  Li  Li8  1  0.31898200  0.31898200  0.39313600  1
  Li  Li9  1  0.68101800  0.68101800  0.60686400  1
  Li  Li10  1  0.18101800  0.18101800  0.89313600  1
  Li  Li11  1  0.81898200  0.81898200  0.10686400  1
  Tl  Tl12  1  0.00452100  0.28796700  0.58929000  1
  Tl  Tl13  1  0.71203300  0.99547900  0.41071000  1
  Tl  Tl14  1  0.21203300  0.49547900  0.08929000  1
  Tl  Tl15  1  0.50452100  0.78796700  0.91071000  1
  Tl  Tl16  1  0.99547900  0.71203300  0.41071000  1
  Tl  Tl17  1  0.28796700  0.00452100  0.58929000  1
  Tl  Tl18  1  0.78796700  0.50452100  0.91071000  1
  Tl  Tl19  1  0.49547900  0.21203300  0.08929000  1
  Tl  Tl20  1  0.91970300  0.91970300  0.75979400  1
  Tl  Tl21  1  0.08029700  0.08029700  0.24020600  1
  Tl  Tl22  1  0.58029700  0.58029700  0.25979400  1
  Tl  Tl23  1  0.41970300  0.41970300  0.74020600  1
