# generated using pymatgen
data_Nd2Mn3(SbS3)4
_symmetry_space_group_name_H-M   'P 1'
_cell_length_a   10.16650196
_cell_length_b   10.16650196
_cell_length_c   14.87396130
_cell_angle_alpha   54.44041261
_cell_angle_beta   54.44041261
_cell_angle_gamma   22.03687100
_symmetry_Int_Tables_number   1
_chemical_formula_structural   Nd2Mn3(SbS3)4
_chemical_formula_sum   'Nd2 Mn3 Sb4 S12'
_cell_volume   464.67707161
_cell_formula_units_Z   1
loop_
 _symmetry_equiv_pos_site_id
 _symmetry_equiv_pos_as_xyz
  1  'x, y, z'
loop_
 _atom_site_type_symbol
 _atom_site_label
 _atom_site_symmetry_multiplicity
 _atom_site_fract_x
 _atom_site_fract_y
 _atom_site_fract_z
 _atom_site_occupancy
  Nd  Nd0  1  0.24063300  0.24063300  0.86271000  1
  Nd  Nd1  1  0.75936700  0.75936700  0.13729000  1
  Mn  Mn2  1  0.19811300  0.19811300  0.62130100  1
  Mn  Mn3  1  0.80188700  0.80188700  0.37869900  1
  Mn  Mn4  1  0.00000000  0.00000000  0.00000000  1
  Sb  Sb5  1  0.10667000  0.10667000  0.45139400  1
  Sb  Sb6  1  0.89333000  0.89333000  0.54860600  1
  Sb  Sb7  1  0.46076600  0.46076600  0.81548200  1
  Sb  Sb8  1  0.53923400  0.53923400  0.18451800  1
  S  S9  1  0.05778100  0.05778100  0.80222800  1
  S  S10  1  0.94221900  0.94221900  0.19777200  1
  S  S11  1  0.60085700  0.60085700  0.97746800  1
  S  S12  1  0.39914300  0.39914300  0.02253200  1
  S  S13  1  0.83116800  0.83116800  0.89643000  1
  S  S14  1  0.16883200  0.16883200  0.10357000  1
  S  S15  1  0.41078400  0.41078400  0.65098600  1
  S  S16  1  0.58921600  0.58921600  0.34901400  1
  S  S17  1  0.25751500  0.25751500  0.29192400  1
  S  S18  1  0.74248500  0.74248500  0.70807600  1
  S  S19  1  0.34285200  0.34285200  0.45274900  1
  S  S20  1  0.65714800  0.65714800  0.54725100  1
