# generated using pymatgen
data_CdH10S2(NO2)4
_symmetry_space_group_name_H-M   'P 1'
_cell_length_a   5.58994000
_cell_length_b   5.99826755
_cell_length_c   7.48741641
_cell_angle_alpha   91.88827339
_cell_angle_beta   103.64644034
_cell_angle_gamma   99.58240210
_symmetry_Int_Tables_number   1
_chemical_formula_structural   CdH10S2(NO2)4
_chemical_formula_sum   'Cd1 H10 S2 N4 O8'
_cell_volume   239.87721475
_cell_formula_units_Z   1
loop_
 _symmetry_equiv_pos_site_id
 _symmetry_equiv_pos_as_xyz
  1  'x, y, z'
loop_
 _atom_site_type_symbol
 _atom_site_label
 _atom_site_symmetry_multiplicity
 _atom_site_fract_x
 _atom_site_fract_y
 _atom_site_fract_z
 _atom_site_occupancy
  Cd  Cd0  1  0.00000000  0.00000000  0.00000000  1
  H  H1  1  0.86396400  0.07611000  0.60942700  1
  H  H2  1  0.13603600  0.92389000  0.39057300  1
  H  H3  1  0.07802400  0.29117700  0.71806100  1
  H  H4  1  0.92197600  0.70882300  0.28193900  1
  H  H5  1  0.70620200  0.40190500  0.59245500  1
  H  H6  1  0.29379800  0.59809500  0.40754500  1
  H  H7  1  0.55639000  0.21073500  0.71278600  1
  H  H8  1  0.44361000  0.78926500  0.28721400  1
  H  H9  1  0.77091400  0.43374100  0.82902000  1
  H  H10  1  0.22908600  0.56625900  0.17098000  1
  S  S11  1  0.35473200  0.73818800  0.77666700  1
  S  S12  1  0.64526800  0.26181200  0.22333300  1
  N  N13  1  0.91810500  0.18194400  0.72791000  1
  N  N14  1  0.08189500  0.81805600  0.27209000  1
  N  N15  1  0.72523000  0.31923100  0.71495900  1
  N  N16  1  0.27477000  0.68076900  0.28504100  1
  O  O17  1  0.60579600  0.75689600  0.90618000  1
  O  O18  1  0.39420400  0.24310400  0.09382000  1
  O  O19  1  0.15632300  0.70290400  0.88361100  1
  O  O20  1  0.84367700  0.29709600  0.11638900  1
  O  O21  1  0.33541100  0.94674000  0.67411500  1
  O  O22  1  0.66458900  0.05326000  0.32588500  1
  O  O23  1  0.30953300  0.53559300  0.64349300  1
  O  O24  1  0.69046700  0.46440700  0.35650700  1
