# generated using pymatgen
data_Sc2B4Os5
_symmetry_space_group_name_H-M   'P 1'
_cell_length_a   8.57301700
_cell_length_b   3.03258800
_cell_length_c   10.18248822
_cell_angle_alpha   90.00000000
_cell_angle_beta   90.01194027
_cell_angle_gamma   90.00000000
_symmetry_Int_Tables_number   1
_chemical_formula_structural   Sc2B4Os5
_chemical_formula_sum   'Sc4 B8 Os10'
_cell_volume   264.72868600
_cell_formula_units_Z   2
loop_
 _symmetry_equiv_pos_site_id
 _symmetry_equiv_pos_as_xyz
  1  'x, y, z'
loop_
 _atom_site_type_symbol
 _atom_site_label
 _atom_site_symmetry_multiplicity
 _atom_site_fract_x
 _atom_site_fract_y
 _atom_site_fract_z
 _atom_site_occupancy
  Sc  Sc0  1  0.15612500  0.50000000  0.68119500  1
  Sc  Sc1  1  0.84387500  0.50000000  0.31880500  1
  Sc  Sc2  1  0.65629200  0.50000000  0.81909100  1
  Sc  Sc3  1  0.34370800  0.50000000  0.18090900  1
  B  B4  1  0.35272100  0.50000000  0.89801400  1
  B  B5  1  0.64727900  0.50000000  0.10198600  1
  B  B6  1  0.46306200  0.50000000  0.59003000  1
  B  B7  1  0.53693800  0.50000000  0.40997000  1
  B  B8  1  0.85247400  0.50000000  0.60191500  1
  B  B9  1  0.14752600  0.50000000  0.39808500  1
  B  B10  1  0.96231900  0.50000000  0.91035200  1
  B  B11  1  0.03768100  0.50000000  0.08964800  1
  Os  Os12  1  0.15874600  0.00000000  0.95194900  1
  Os  Os13  1  0.84125400  0.00000000  0.04805100  1
  Os  Os14  1  0.65851700  0.00000000  0.54777400  1
  Os  Os15  1  0.34148300  0.00000000  0.45222600  1
  Os  Os16  1  0.40438100  0.00000000  0.73820200  1
  Os  Os17  1  0.59561900  0.00000000  0.26179800  1
  Os  Os18  1  0.90433200  0.00000000  0.76182300  1
  Os  Os19  1  0.09566800  0.00000000  0.23817700  1
  Os  Os20  1  0.50000000  0.00000000  0.00000000  1
  Os  Os21  1  0.00000000  0.00000000  0.50000000  1
