# generated using pymatgen
data_Mg(BH4)2
_symmetry_space_group_name_H-M   'P 1'
_cell_length_a   5.62095400
_cell_length_b   5.62095400
_cell_length_c   5.94846600
_cell_angle_alpha   90.00000000
_cell_angle_beta   90.00000000
_cell_angle_gamma   90.00000000
_symmetry_Int_Tables_number   1
_chemical_formula_structural   Mg(BH4)2
_chemical_formula_sum   'Mg2 B4 H16'
_cell_volume   187.94252011
_cell_formula_units_Z   2
loop_
 _symmetry_equiv_pos_site_id
 _symmetry_equiv_pos_as_xyz
  1  'x, y, z'
loop_
 _atom_site_type_symbol
 _atom_site_label
 _atom_site_symmetry_multiplicity
 _atom_site_fract_x
 _atom_site_fract_y
 _atom_site_fract_z
 _atom_site_occupancy
  Mg  Mg0  1  0.00000000  0.00000000  0.00000000  1
  Mg  Mg1  1  0.50000000  0.50000000  0.50000000  1
  B  B2  1  0.75009600  0.25009600  0.75000000  1
  B  B3  1  0.24990400  0.74990400  0.75000000  1
  B  B4  1  0.74990400  0.75009600  0.25000000  1
  B  B5  1  0.25009600  0.24990400  0.25000000  1
  H  H6  1  0.71791600  0.46023600  0.78890900  1
  H  H7  1  0.28208400  0.53976400  0.78890900  1
  H  H8  1  0.53976400  0.71791600  0.21109100  1
  H  H9  1  0.46023600  0.28208400  0.21109100  1
  H  H10  1  0.67328300  0.13851500  0.91020800  1
  H  H11  1  0.32671700  0.86148500  0.91020800  1
  H  H12  1  0.86148500  0.67328300  0.08979200  1
  H  H13  1  0.13851500  0.32671700  0.08979200  1
  H  H14  1  0.96023600  0.21791600  0.71109100  1
  H  H15  1  0.03976400  0.78208400  0.71109100  1
  H  H16  1  0.78208400  0.96023600  0.28890900  1
  H  H17  1  0.21791600  0.03976400  0.28890900  1
  H  H18  1  0.63851500  0.17328300  0.58979200  1
  H  H19  1  0.36148500  0.82671700  0.58979200  1
  H  H20  1  0.82671700  0.63851500  0.41020800  1
  H  H21  1  0.17328300  0.36148500  0.41020800  1
