# generated using pymatgen
data_Dy8Rh5C12
_symmetry_space_group_name_H-M   'P 1'
_cell_length_a   3.55696400
_cell_length_b   7.41835704
_cell_length_c   14.08287679
_cell_angle_alpha   93.91510600
_cell_angle_beta   97.25507520
_cell_angle_gamma   90.00000000
_symmetry_Int_Tables_number   1
_chemical_formula_structural   Dy8Rh5C12
_chemical_formula_sum   'Dy8 Rh5 C12'
_cell_volume   367.75310501
_cell_formula_units_Z   1
loop_
 _symmetry_equiv_pos_site_id
 _symmetry_equiv_pos_as_xyz
  1  'x, y, z'
loop_
 _atom_site_type_symbol
 _atom_site_label
 _atom_site_symmetry_multiplicity
 _atom_site_fract_x
 _atom_site_fract_y
 _atom_site_fract_z
 _atom_site_occupancy
  Dy  Dy0  1  0.29371300  0.88399800  0.58742600  1
  Dy  Dy1  1  0.70628700  0.11600200  0.41257400  1
  Dy  Dy2  1  0.30042600  0.39077800  0.60085200  1
  Dy  Dy3  1  0.69957400  0.60922200  0.39914800  1
  Dy  Dy4  1  0.41193600  0.17167800  0.82387300  1
  Dy  Dy5  1  0.58806400  0.82832200  0.17612700  1
  Dy  Dy6  1  0.45293800  0.70308100  0.90587500  1
  Dy  Dy7  1  0.54706200  0.29691900  0.09412500  1
  Rh  Rh8  1  0.00000000  0.00000000  0.00000000  1
  Rh  Rh9  1  0.10996300  0.49255300  0.21992500  1
  Rh  Rh10  1  0.89003700  0.50744700  0.78007500  1
  Rh  Rh11  1  0.11661500  0.12770300  0.23322900  1
  Rh  Rh12  1  0.88338500  0.87229700  0.76677100  1
  C  C13  1  0.02268200  0.75531900  0.04536500  1
  C  C14  1  0.97731800  0.24468100  0.95463500  1
  C  C15  1  0.04782700  0.61393200  0.09565500  1
  C  C16  1  0.95217300  0.38606800  0.90434500  1
  C  C17  1  0.16829900  0.34724400  0.33659900  1
  C  C18  1  0.83170100  0.65275600  0.66340100  1
  C  C19  1  0.21647300  0.36473900  0.43294600  1
  C  C20  1  0.78352700  0.63526100  0.56705400  1
  C  C21  1  0.15867900  0.87367200  0.31735700  1
  C  C22  1  0.84132100  0.12632800  0.68264300  1
  C  C23  1  0.20718500  0.86902100  0.41437000  1
  C  C24  1  0.79281500  0.13097900  0.58563000  1
