# generated using pymatgen
data_MgSO4
_symmetry_space_group_name_H-M   'P 1'
_cell_length_a   5.04783600
_cell_length_b   12.13912900
_cell_length_c   7.70708138
_cell_angle_alpha   90.00000000
_cell_angle_beta   130.82517730
_cell_angle_gamma   90.00000000
_symmetry_Int_Tables_number   1
_chemical_formula_structural   MgSO4
_chemical_formula_sum   'Mg4 S4 O16'
_cell_volume   357.36412190
_cell_formula_units_Z   4
loop_
 _symmetry_equiv_pos_site_id
 _symmetry_equiv_pos_as_xyz
  1  'x, y, z'
loop_
 _atom_site_type_symbol
 _atom_site_label
 _atom_site_symmetry_multiplicity
 _atom_site_fract_x
 _atom_site_fract_y
 _atom_site_fract_z
 _atom_site_occupancy
  Mg  Mg0  1  0.18339300  0.23364800  0.32257400  1
  Mg  Mg1  1  0.18339300  0.26635200  0.82257400  1
  Mg  Mg2  1  0.81660700  0.76635200  0.67742600  1
  Mg  Mg3  1  0.81660700  0.73364800  0.17742600  1
  S  S4  1  0.73932400  0.11658400  0.82303100  1
  S  S5  1  0.73932400  0.38341600  0.32303100  1
  S  S6  1  0.26067600  0.88341600  0.17696900  1
  S  S7  1  0.26067600  0.61658400  0.67696900  1
  O  O8  1  0.07445700  0.17923900  0.02530300  1
  O  O9  1  0.07445700  0.32076100  0.52530300  1
  O  O10  1  0.92554300  0.82076100  0.97469700  1
  O  O11  1  0.92554300  0.67923900  0.47469700  1
  O  O12  1  0.66797900  0.32186500  0.11944000  1
  O  O13  1  0.66797900  0.17813500  0.61944000  1
  O  O14  1  0.33202100  0.67813500  0.88056000  1
  O  O15  1  0.33202100  0.82186500  0.38056000  1
  O  O16  1  0.44896600  0.36048200  0.32461600  1
  O  O17  1  0.44896600  0.13951800  0.82461600  1
  O  O18  1  0.55103400  0.63951800  0.67538400  1
  O  O19  1  0.55103400  0.86048200  0.17538400  1
  O  O20  1  0.89448500  0.11608200  0.32479900  1
  O  O21  1  0.89448500  0.38391800  0.82479900  1
  O  O22  1  0.10551500  0.88391800  0.67520100  1
  O  O23  1  0.10551500  0.61608200  0.17520100  1
