# generated using pymatgen
data_Mn3ZnO7
_symmetry_space_group_name_H-M   'P 1'
_cell_length_a   6.54324856
_cell_length_b   6.54324856
_cell_length_c   6.54324791
_cell_angle_alpha   72.28602149
_cell_angle_beta   72.28602149
_cell_angle_gamma   72.28602416
_symmetry_Int_Tables_number   1
_chemical_formula_structural   Mn3ZnO7
_chemical_formula_sum   'Mn6 Zn2 O14'
_cell_volume   247.19431747
_cell_formula_units_Z   2
loop_
 _symmetry_equiv_pos_site_id
 _symmetry_equiv_pos_as_xyz
  1  'x, y, z'
loop_
 _atom_site_type_symbol
 _atom_site_label
 _atom_site_symmetry_multiplicity
 _atom_site_fract_x
 _atom_site_fract_y
 _atom_site_fract_z
 _atom_site_occupancy
  Mn  Mn0  1  0.57934300  0.13977400  0.28534400  1
  Mn  Mn1  1  0.28534400  0.57934300  0.13977400  1
  Mn  Mn2  1  0.13977400  0.28534400  0.57934300  1
  Mn  Mn3  1  0.42065700  0.86022600  0.71465600  1
  Mn  Mn4  1  0.71465600  0.42065700  0.86022600  1
  Mn  Mn5  1  0.86022600  0.71465600  0.42065700  1
  Zn  Zn6  1  0.87455000  0.87455000  0.87455000  1
  Zn  Zn7  1  0.12545000  0.12545000  0.12545000  1
  O  O8  1  0.55510400  0.83787300  0.40578700  1
  O  O9  1  0.40578700  0.55510400  0.83787300  1
  O  O10  1  0.83787300  0.40578700  0.55510400  1
  O  O11  1  0.44489600  0.16212700  0.59421300  1
  O  O12  1  0.59421300  0.44489600  0.16212700  1
  O  O13  1  0.16212700  0.59421300  0.44489600  1
  O  O14  1  0.13166000  0.98121700  0.66686700  1
  O  O15  1  0.66686700  0.13166000  0.98121700  1
  O  O16  1  0.98121700  0.66686700  0.13166000  1
  O  O17  1  0.86834000  0.01878300  0.33313300  1
  O  O18  1  0.33313300  0.86834000  0.01878300  1
  O  O19  1  0.01878300  0.33313300  0.86834000  1
  O  O20  1  0.26465200  0.26465200  0.26465200  1
  O  O21  1  0.73534800  0.73534800  0.73534800  1
