# generated using pymatgen
data_ErCO4
_symmetry_space_group_name_H-M   'P 1'
_cell_length_a   4.82763800
_cell_length_b   7.04381800
_cell_length_c   8.77246800
_cell_angle_alpha   90.00000000
_cell_angle_beta   90.00000000
_cell_angle_gamma   90.00000000
_symmetry_Int_Tables_number   1
_chemical_formula_structural   ErCO4
_chemical_formula_sum   'Er4 C4 O16'
_cell_volume   298.30780453
_cell_formula_units_Z   4
loop_
 _symmetry_equiv_pos_site_id
 _symmetry_equiv_pos_as_xyz
  1  'x, y, z'
loop_
 _atom_site_type_symbol
 _atom_site_label
 _atom_site_symmetry_multiplicity
 _atom_site_fract_x
 _atom_site_fract_y
 _atom_site_fract_z
 _atom_site_occupancy
  Er  Er0  1  0.52671800  0.62587400  0.66128500  1
  Er  Er1  1  0.97328200  0.37412600  0.16128500  1
  Er  Er2  1  0.47328200  0.12587400  0.83871500  1
  Er  Er3  1  0.02671800  0.87412600  0.33871500  1
  C  C4  1  0.50774700  0.54640000  0.32763300  1
  C  C5  1  0.99225300  0.45360000  0.82763300  1
  C  C6  1  0.49225300  0.04640000  0.17236700  1
  C  C7  1  0.00774700  0.95360000  0.67236700  1
  O  O8  1  0.46890900  0.81330300  0.85738200  1
  O  O9  1  0.03109100  0.18669700  0.35738200  1
  O  O10  1  0.53109100  0.31330300  0.64261800  1
  O  O11  1  0.96890900  0.68669700  0.14261800  1
  O  O12  1  0.04397800  0.55306900  0.70918400  1
  O  O13  1  0.45602200  0.44693100  0.20918400  1
  O  O14  1  0.95602200  0.05306900  0.79081600  1
  O  O15  1  0.54397800  0.94693100  0.29081600  1
  O  O16  1  0.26721800  0.92614800  0.63385300  1
  O  O17  1  0.23278200  0.07385200  0.13385300  1
  O  O18  1  0.73278200  0.42614800  0.86614700  1
  O  O19  1  0.76721800  0.57385200  0.36614700  1
  O  O20  1  0.81941900  0.88353500  0.58379500  1
  O  O21  1  0.68058100  0.11646500  0.08379500  1
  O  O22  1  0.18058100  0.38353500  0.91620500  1
  O  O23  1  0.31941900  0.61646500  0.41620500  1
