# generated using pymatgen
data_BaH2Br2O7
_symmetry_space_group_name_H-M   'P 1'
_cell_length_a   7.78554892
_cell_length_b   7.78554892
_cell_length_c   8.00392464
_cell_angle_alpha   103.52821426
_cell_angle_beta   108.88480441
_cell_angle_gamma   115.26272278
_symmetry_Int_Tables_number   1
_chemical_formula_structural   BaH2Br2O7
_chemical_formula_sum   'Ba2 H4 Br4 O14'
_cell_volume   373.84190574
_cell_formula_units_Z   2
loop_
 _symmetry_equiv_pos_site_id
 _symmetry_equiv_pos_as_xyz
  1  'x, y, z'
loop_
 _atom_site_type_symbol
 _atom_site_label
 _atom_site_symmetry_multiplicity
 _atom_site_fract_x
 _atom_site_fract_y
 _atom_site_fract_z
 _atom_site_occupancy
  Ba  Ba0  1  0.60605200  0.85605200  0.25000000  1
  Ba  Ba1  1  0.39394800  0.14394800  0.75000000  1
  H  H2  1  0.07072400  0.29117100  0.36515600  1
  H  H3  1  0.07398500  0.79443300  0.86515600  1
  H  H4  1  0.92927600  0.70882900  0.63484400  1
  H  H5  1  0.92601500  0.20556700  0.13484400  1
  Br  Br6  1  0.97947000  0.67014600  0.19327800  1
  Br  Br7  1  0.52313200  0.71380800  0.69327800  1
  Br  Br8  1  0.02053000  0.32985400  0.80672200  1
  Br  Br9  1  0.47686800  0.28619200  0.30672200  1
  O  O10  1  0.93036800  0.18036800  0.25000000  1
  O  O11  1  0.06963200  0.81963200  0.75000000  1
  O  O12  1  0.73557900  0.59733900  0.02010200  1
  O  O13  1  0.42276400  0.78452300  0.52010200  1
  O  O14  1  0.26442100  0.40266100  0.97989800  1
  O  O15  1  0.57723600  0.21547700  0.47989800  1
  O  O16  1  0.15169700  0.75836000  0.10245600  1
  O  O17  1  0.34409700  0.45076000  0.60245600  1
  O  O18  1  0.84830300  0.24164000  0.89754400  1
  O  O19  1  0.65590300  0.54924000  0.39754400  1
  O  O20  1  0.04718900  0.88601800  0.37487400  1
  O  O21  1  0.48885600  0.82768600  0.87487400  1
  O  O22  1  0.95281100  0.11398200  0.62512600  1
  O  O23  1  0.51114400  0.17231400  0.12512600  1
