# generated using pymatgen
data_CuC4S4(NO6)2
_symmetry_space_group_name_H-M   'P 1'
_cell_length_a   7.83844300
_cell_length_b   8.99822336
_cell_length_c   9.61561518
_cell_angle_alpha   115.53841221
_cell_angle_beta   79.85828379
_cell_angle_gamma   115.20251112
_symmetry_Int_Tables_number   1
_chemical_formula_structural   CuC4S4(NO6)2
_chemical_formula_sum   'Cu1 C4 S4 N2 O12'
_cell_volume   553.67029457
_cell_formula_units_Z   1
loop_
 _symmetry_equiv_pos_site_id
 _symmetry_equiv_pos_as_xyz
  1  'x, y, z'
loop_
 _atom_site_type_symbol
 _atom_site_label
 _atom_site_symmetry_multiplicity
 _atom_site_fract_x
 _atom_site_fract_y
 _atom_site_fract_z
 _atom_site_occupancy
  Cu  Cu0  1  0.50000000  0.50000000  0.50000000  1
  C  C1  1  0.14036300  0.48300100  0.10963700  1
  C  C2  1  0.85963700  0.51699900  0.89036300  1
  C  C3  1  0.21638800  0.06241800  0.90401900  1
  C  C4  1  0.78361200  0.93758200  0.09598100  1
  S  S5  1  0.27182500  0.90595900  0.33102600  1
  S  S6  1  0.72817500  0.09404100  0.66897400  1
  S  S7  1  0.15796500  0.74372800  0.56030800  1
  S  S8  1  0.84203500  0.25627200  0.43969200  1
  N  N9  1  0.14744700  0.83537000  0.45798000  1
  N  N10  1  0.85255300  0.16463000  0.54202000  1
  O  O11  1  0.15630700  0.94393800  0.25575300  1
  O  O12  1  0.84369300  0.05606200  0.74424700  1
  O  O13  1  0.00249900  0.42463900  0.16734900  1
  O  O14  1  0.99750100  0.57536100  0.83265100  1
  O  O15  1  0.37551900  0.12288300  0.92524100  1
  O  O16  1  0.62448100  0.87711700  0.07475900  1
  O  O17  1  0.33177000  0.71244500  0.55179500  1
  O  O18  1  0.66823000  0.28755500  0.44820500  1
  O  O19  1  0.42779800  0.37164700  0.29292600  1
  O  O20  1  0.57220200  0.62835300  0.70707400  1
  O  O21  1  0.58143700  0.52563200  0.31511000  1
  O  O22  1  0.41856300  0.47436800  0.68489000  1
