# generated using pymatgen
data_BaZnF4
_symmetry_space_group_name_H-M   'P 1'
_cell_length_a   4.21042551
_cell_length_b   5.99242400
_cell_length_c   14.56926226
_cell_angle_alpha   90.00000000
_cell_angle_beta   89.89114799
_cell_angle_gamma   90.00000000
_symmetry_Int_Tables_number   1
_chemical_formula_structural   BaZnF4
_chemical_formula_sum   'Ba4 Zn4 F16'
_cell_volume   367.59136439
_cell_formula_units_Z   4
loop_
 _symmetry_equiv_pos_site_id
 _symmetry_equiv_pos_as_xyz
  1  'x, y, z'
loop_
 _atom_site_type_symbol
 _atom_site_label
 _atom_site_symmetry_multiplicity
 _atom_site_fract_x
 _atom_site_fract_y
 _atom_site_fract_z
 _atom_site_occupancy
  Ba  Ba0  1  0.02811700  0.86677900  0.87314200  1
  Ba  Ba1  1  0.52811700  0.13322100  0.37314200  1
  Ba  Ba2  1  0.53423900  0.61404900  0.12828100  1
  Ba  Ba3  1  0.03423900  0.38595100  0.62828100  1
  Zn  Zn4  1  0.52749500  0.37093400  0.85295500  1
  Zn  Zn5  1  0.02749500  0.62906600  0.35295500  1
  Zn  Zn6  1  0.03251700  0.11694500  0.14719800  1
  Zn  Zn7  1  0.53251700  0.88305500  0.64719800  1
  F  F8  1  0.52995600  0.62200600  0.94266300  1
  F  F9  1  0.02995600  0.37799400  0.44266300  1
  F  F10  1  0.03093300  0.86177200  0.05870100  1
  F  F11  1  0.53093300  0.13822800  0.55870100  1
  F  F12  1  0.52684400  0.10008800  0.92838900  1
  F  F13  1  0.02684400  0.89991200  0.42838900  1
  F  F14  1  0.03570200  0.38251900  0.06913000  1
  F  F15  1  0.53570200  0.61748100  0.56913000  1
  F  F16  1  0.52549400  0.63710000  0.75658200  1
  F  F17  1  0.02549400  0.36290000  0.25658200  1
  F  F18  1  0.03277900  0.85830000  0.24230200  1
  F  F19  1  0.53277900  0.14170000  0.74230200  1
  F  F20  1  0.53192400  0.12226200  0.16937700  1
  F  F21  1  0.03192400  0.87773800  0.66937700  1
  F  F22  1  0.02820000  0.37815100  0.83208100  1
  F  F23  1  0.52820000  0.62184900  0.33208100  1
