# generated using pymatgen
data_Ba(CrN2)2
_symmetry_space_group_name_H-M   'P 1'
_cell_length_a   10.84417600
_cell_length_b   10.84417600
_cell_length_c   10.84417600
_cell_angle_alpha   90.00000000
_cell_angle_beta   90.00000000
_cell_angle_gamma   90.00000000
_symmetry_Int_Tables_number   1
_chemical_formula_structural   Ba(CrN2)2
_chemical_formula_sum   'Ba12 Cr24 N48'
_cell_volume   1275.23338135
_cell_formula_units_Z   12
loop_
 _symmetry_equiv_pos_site_id
 _symmetry_equiv_pos_as_xyz
  1  'x, y, z'
loop_
 _atom_site_type_symbol
 _atom_site_label
 _atom_site_symmetry_multiplicity
 _atom_site_fract_x
 _atom_site_fract_y
 _atom_site_fract_z
 _atom_site_occupancy
  Ba  Ba0  1  0.50000000  0.50000000  0.00000000  1
  Ba  Ba1  1  0.50000000  0.00000000  0.50000000  1
  Ba  Ba2  1  0.00000000  0.50000000  0.50000000  1
  Ba  Ba3  1  0.00000000  0.00000000  0.00000000  1
  Ba  Ba4  1  0.12669100  0.87330900  0.37330900  1
  Ba  Ba5  1  0.87330900  0.37330900  0.12669100  1
  Ba  Ba6  1  0.37330900  0.12669100  0.87330900  1
  Ba  Ba7  1  0.62669100  0.62669100  0.62669100  1
  Ba  Ba8  1  0.87330900  0.12669100  0.62669100  1
  Ba  Ba9  1  0.12669100  0.62669100  0.87330900  1
  Ba  Ba10  1  0.62669100  0.87330900  0.12669100  1
  Ba  Ba11  1  0.37330900  0.37330900  0.37330900  1
  Cr  Cr12  1  0.38798000  0.69195300  0.34468800  1
  Cr  Cr13  1  0.61202000  0.19195300  0.15531200  1
  Cr  Cr14  1  0.11202000  0.30804700  0.84468800  1
  Cr  Cr15  1  0.88798000  0.80804700  0.65531200  1
  Cr  Cr16  1  0.34468800  0.38798000  0.69195300  1
  Cr  Cr17  1  0.15531200  0.61202000  0.19195300  1
  Cr  Cr18  1  0.84468800  0.11202000  0.30804700  1
  Cr  Cr19  1  0.65531200  0.88798000  0.80804700  1
  Cr  Cr20  1  0.69195300  0.34468800  0.38798000  1
  Cr  Cr21  1  0.19195300  0.15531200  0.61202000  1
  Cr  Cr22  1  0.30804700  0.84468800  0.11202000  1
  Cr  Cr23  1  0.80804700  0.65531200  0.88798000  1
  Cr  Cr24  1  0.61202000  0.30804700  0.65531200  1
  Cr  Cr25  1  0.38798000  0.80804700  0.84468800  1
  Cr  Cr26  1  0.88798000  0.69195300  0.15531200  1
  Cr  Cr27  1  0.11202000  0.19195300  0.34468800  1
  Cr  Cr28  1  0.65531200  0.61202000  0.30804700  1
  Cr  Cr29  1  0.84468800  0.38798000  0.80804700  1
  Cr  Cr30  1  0.15531200  0.88798000  0.69195300  1
  Cr  Cr31  1  0.34468800  0.11202000  0.19195300  1
  Cr  Cr32  1  0.30804700  0.65531200  0.61202000  1
  Cr  Cr33  1  0.80804700  0.84468800  0.38798000  1
  Cr  Cr34  1  0.69195300  0.15531200  0.88798000  1
  Cr  Cr35  1  0.19195300  0.34468800  0.11202000  1
  N  N36  1  0.37761000  0.83195000  0.25937500  1
  N  N37  1  0.62239000  0.33195000  0.24062500  1
  N  N38  1  0.12239000  0.16805000  0.75937500  1
  N  N39  1  0.87761000  0.66805000  0.74062500  1
  N  N40  1  0.25937500  0.37761000  0.83195000  1
  N  N41  1  0.24062500  0.62239000  0.33195000  1
  N  N42  1  0.75937500  0.12239000  0.16805000  1
  N  N43  1  0.74062500  0.87761000  0.66805000  1
  N  N44  1  0.83195000  0.25937500  0.37761000  1
  N  N45  1  0.33195000  0.24062500  0.62239000  1
  N  N46  1  0.16805000  0.75937500  0.12239000  1
  N  N47  1  0.66805000  0.74062500  0.87761000  1
  N  N48  1  0.62239000  0.16805000  0.74062500  1
  N  N49  1  0.37761000  0.66805000  0.75937500  1
  N  N50  1  0.87761000  0.83195000  0.24062500  1
  N  N51  1  0.12239000  0.33195000  0.25937500  1
  N  N52  1  0.74062500  0.62239000  0.16805000  1
  N  N53  1  0.75937500  0.37761000  0.66805000  1
  N  N54  1  0.24062500  0.87761000  0.83195000  1
  N  N55  1  0.25937500  0.12239000  0.33195000  1
  N  N56  1  0.16805000  0.74062500  0.62239000  1
  N  N57  1  0.66805000  0.75937500  0.37761000  1
  N  N58  1  0.83195000  0.24062500  0.87761000  1
  N  N59  1  0.33195000  0.25937500  0.12239000  1
  N  N60  1  0.41423300  0.72535100  0.50242000  1
  N  N61  1  0.58576700  0.22535100  0.99758000  1
  N  N62  1  0.08576700  0.27464900  0.00242000  1
  N  N63  1  0.91423300  0.77464900  0.49758000  1
  N  N64  1  0.50242000  0.41423300  0.72535100  1
  N  N65  1  0.99758000  0.58576700  0.22535100  1
  N  N66  1  0.00242000  0.08576700  0.27464900  1
  N  N67  1  0.49758000  0.91423300  0.77464900  1
  N  N68  1  0.72535100  0.50242000  0.41423300  1
  N  N69  1  0.22535100  0.99758000  0.58576700  1
  N  N70  1  0.27464900  0.00242000  0.08576700  1
  N  N71  1  0.77464900  0.49758000  0.91423300  1
  N  N72  1  0.58576700  0.27464900  0.49758000  1
  N  N73  1  0.41423300  0.77464900  0.00242000  1
  N  N74  1  0.91423300  0.72535100  0.99758000  1
  N  N75  1  0.08576700  0.22535100  0.50242000  1
  N  N76  1  0.49758000  0.58576700  0.27464900  1
  N  N77  1  0.00242000  0.41423300  0.77464900  1
  N  N78  1  0.99758000  0.91423300  0.72535100  1
  N  N79  1  0.50242000  0.08576700  0.22535100  1
  N  N80  1  0.27464900  0.49758000  0.58576700  1
  N  N81  1  0.77464900  0.00242000  0.41423300  1
  N  N82  1  0.72535100  0.99758000  0.91423300  1
  N  N83  1  0.22535100  0.50242000  0.08576700  1
