# generated using pymatgen
data_NaTl
_symmetry_space_group_name_H-M   'P 1'
_cell_length_a   9.76360192
_cell_length_b   9.76360192
_cell_length_c   7.79282600
_cell_angle_alpha   90.00000000
_cell_angle_beta   90.00000000
_cell_angle_gamma   92.91531712
_symmetry_Int_Tables_number   1
_chemical_formula_structural   NaTl
_chemical_formula_sum   'Na12 Tl12'
_cell_volume   741.91248270
_cell_formula_units_Z   12
loop_
 _symmetry_equiv_pos_site_id
 _symmetry_equiv_pos_as_xyz
  1  'x, y, z'
loop_
 _atom_site_type_symbol
 _atom_site_label
 _atom_site_symmetry_multiplicity
 _atom_site_fract_x
 _atom_site_fract_y
 _atom_site_fract_z
 _atom_site_occupancy
  Na  Na0  1  0.93346300  0.56653700  0.25000000  1
  Na  Na1  1  0.56653700  0.93346300  0.75000000  1
  Na  Na2  1  0.06653700  0.43346300  0.75000000  1
  Na  Na3  1  0.43346300  0.06653700  0.25000000  1
  Na  Na4  1  0.15608400  0.15608400  0.00000000  1
  Na  Na5  1  0.65608400  0.65608400  0.50000000  1
  Na  Na6  1  0.84391600  0.84391600  0.00000000  1
  Na  Na7  1  0.34391600  0.34391600  0.50000000  1
  Na  Na8  1  0.20868800  0.79131200  0.93993900  1
  Na  Na9  1  0.79131200  0.20868800  0.06006100  1
  Na  Na10  1  0.29131300  0.70868800  0.43993900  1
  Na  Na11  1  0.70868800  0.29131300  0.56006100  1
  Tl  Tl12  1  0.24476400  0.47330400  0.12933300  1
  Tl  Tl13  1  0.47330400  0.24476400  0.87066700  1
  Tl  Tl14  1  0.97330400  0.74476400  0.62933300  1
  Tl  Tl15  1  0.74476400  0.97330400  0.37066700  1
  Tl  Tl16  1  0.75523600  0.52669600  0.87066700  1
  Tl  Tl17  1  0.52669600  0.75523600  0.12933300  1
  Tl  Tl18  1  0.02669600  0.25523600  0.37066700  1
  Tl  Tl19  1  0.25523600  0.02669600  0.62933300  1
  Tl  Tl20  1  0.57003700  0.42996300  0.20232200  1
  Tl  Tl21  1  0.42996300  0.57003700  0.79767800  1
  Tl  Tl22  1  0.92996300  0.07003700  0.70232200  1
  Tl  Tl23  1  0.07003700  0.92996300  0.29767800  1
