# generated using pymatgen
data_Fe3(PO8)2
_symmetry_space_group_name_H-M   'P 1'
_cell_length_a   4.56977226
_cell_length_b   7.31087358
_cell_length_c   8.31955982
_cell_angle_alpha   99.95356754
_cell_angle_beta   91.73952536
_cell_angle_gamma   94.57739739
_symmetry_Int_Tables_number   1
_chemical_formula_structural   Fe3(PO8)2
_chemical_formula_sum   'Fe3 P2 O16'
_cell_volume   272.61552127
_cell_formula_units_Z   1
loop_
 _symmetry_equiv_pos_site_id
 _symmetry_equiv_pos_as_xyz
  1  'x, y, z'
loop_
 _atom_site_type_symbol
 _atom_site_label
 _atom_site_symmetry_multiplicity
 _atom_site_fract_x
 _atom_site_fract_y
 _atom_site_fract_z
 _atom_site_occupancy
  Fe  Fe0  1  0.00000000  0.00000000  0.00000000  1
  Fe  Fe1  1  0.49595100  0.66176200  0.39931900  1
  Fe  Fe2  1  0.50404900  0.33823800  0.60068100  1
  P  P3  1  0.98924700  0.32912700  0.32943100  1
  P  P4  1  0.01075300  0.67087300  0.67056900  1
  O  O5  1  0.86146200  0.74999400  0.53290500  1
  O  O6  1  0.13853800  0.25000600  0.46709500  1
  O  O7  1  0.83053100  0.50793900  0.72614000  1
  O  O8  1  0.16946900  0.49206100  0.27386000  1
  O  O9  1  0.91865700  0.16799900  0.18039800  1
  O  O10  1  0.08134300  0.83200100  0.81960200  1
  O  O11  1  0.68165400  0.10328400  0.85765400  1
  O  O12  1  0.31834600  0.89671600  0.14234600  1
  O  O13  1  0.67871600  0.69971100  0.16294900  1
  O  O14  1  0.32128400  0.30028900  0.83705100  1
  O  O15  1  0.55275200  0.80695600  0.06981900  1
  O  O16  1  0.44724800  0.19304400  0.93018100  1
  O  O17  1  0.68420100  0.39570000  0.38763500  1
  O  O18  1  0.31579900  0.60430000  0.61236500  1
  O  O19  1  0.64662700  0.09873600  0.57982900  1
  O  O20  1  0.35337300  0.90126400  0.42017100  1
