# generated using pymatgen
data_DyWBrO4
_symmetry_space_group_name_H-M   'P 1'
_cell_length_a   6.99412900
_cell_length_b   7.32133539
_cell_length_c   11.08389912
_cell_angle_alpha   104.39430596
_cell_angle_beta   107.88295586
_cell_angle_gamma   93.82427121
_symmetry_Int_Tables_number   1
_chemical_formula_structural   DyWBrO4
_chemical_formula_sum   'Dy4 W4 Br4 O16'
_cell_volume   516.85177827
_cell_formula_units_Z   4
loop_
 _symmetry_equiv_pos_site_id
 _symmetry_equiv_pos_as_xyz
  1  'x, y, z'
loop_
 _atom_site_type_symbol
 _atom_site_label
 _atom_site_symmetry_multiplicity
 _atom_site_fract_x
 _atom_site_fract_y
 _atom_site_fract_z
 _atom_site_occupancy
  Dy  Dy0  1  0.65562200  0.11559000  0.73084900  1
  Dy  Dy1  1  0.34437800  0.88441000  0.26915100  1
  Dy  Dy2  1  0.38305600  0.65745000  0.76779100  1
  Dy  Dy3  1  0.61694400  0.34255000  0.23220900  1
  W  W4  1  0.72918900  0.81357700  0.13283700  1
  W  W5  1  0.27081100  0.18642300  0.86716300  1
  W  W6  1  0.76855500  0.59045400  0.62675700  1
  W  W7  1  0.23144500  0.40954600  0.37324300  1
  Br  Br8  1  0.26283500  0.00061000  0.51894400  1
  Br  Br9  1  0.73716500  0.99939000  0.48105600  1
  Br  Br10  1  0.19177700  0.71872100  0.98122400  1
  Br  Br11  1  0.80822300  0.28127900  0.01877600  1
  O  O12  1  0.65927400  0.72995900  0.95581600  1
  O  O13  1  0.34072600  0.27004100  0.04418400  1
  O  O14  1  0.00200000  0.87529400  0.20606500  1
  O  O15  1  0.99800000  0.12470600  0.79393500  1
  O  O16  1  0.63025100  0.63958300  0.20002900  1
  O  O17  1  0.36974900  0.36041700  0.79997100  1
  O  O18  1  0.39826900  0.98305500  0.81691400  1
  O  O19  1  0.60173100  0.01694500  0.18308600  1
  O  O20  1  0.03925300  0.65001400  0.67060300  1
  O  O21  1  0.96074700  0.34998600  0.32939700  1
  O  O22  1  0.71886100  0.40639100  0.70030100  1
  O  O23  1  0.28113900  0.59360900  0.29969900  1
  O  O24  1  0.66473000  0.50129300  0.44755400  1
  O  O25  1  0.33527000  0.49870700  0.55244600  1
  O  O26  1  0.65549100  0.79193900  0.70311600  1
  O  O27  1  0.34450900  0.20806100  0.29688400  1
