# generated using pymatgen
data_Nb2PbO6
_symmetry_space_group_name_H-M   'P 1'
_cell_length_a   7.31627595
_cell_length_b   7.31627595
_cell_length_c   7.31627631
_cell_angle_alpha   93.59899617
_cell_angle_beta   93.59899617
_cell_angle_gamma   93.59900154
_symmetry_Int_Tables_number   1
_chemical_formula_structural   Nb2PbO6
_chemical_formula_sum   'Nb6 Pb3 O18'
_cell_volume   389.20574790
_cell_formula_units_Z   3
loop_
 _symmetry_equiv_pos_site_id
 _symmetry_equiv_pos_as_xyz
  1  'x, y, z'
loop_
 _atom_site_type_symbol
 _atom_site_label
 _atom_site_symmetry_multiplicity
 _atom_site_fract_x
 _atom_site_fract_y
 _atom_site_fract_z
 _atom_site_occupancy
  Nb  Nb0  1  0.83353100  0.13383400  0.47663300  1
  Nb  Nb1  1  0.47663300  0.83353100  0.13383400  1
  Nb  Nb2  1  0.13383400  0.47663300  0.83353100  1
  Nb  Nb3  1  0.86616600  0.52336700  0.16646900  1
  Nb  Nb4  1  0.16646900  0.86616600  0.52336700  1
  Nb  Nb5  1  0.52336700  0.16646900  0.86616600  1
  Pb  Pb6  1  0.68087300  0.68087300  0.68087300  1
  Pb  Pb7  1  0.31912700  0.31912700  0.31912700  1
  Pb  Pb8  1  0.00000000  0.00000000  0.00000000  1
  O  O9  1  0.00019800  0.27563900  0.71815400  1
  O  O10  1  0.71815400  0.00019800  0.27563900  1
  O  O11  1  0.27563900  0.71815400  0.00019800  1
  O  O12  1  0.99980200  0.72436100  0.28184600  1
  O  O13  1  0.28184600  0.99980200  0.72436100  1
  O  O14  1  0.72436100  0.28184600  0.99980200  1
  O  O15  1  0.61816800  0.90472400  0.90522600  1
  O  O16  1  0.90522600  0.61816800  0.90472400  1
  O  O17  1  0.90472400  0.90522600  0.61816800  1
  O  O18  1  0.16373800  0.62020900  0.62043000  1
  O  O19  1  0.62043000  0.16373800  0.62020900  1
  O  O20  1  0.62020900  0.62043000  0.16373800  1
  O  O21  1  0.38183200  0.09527600  0.09477400  1
  O  O22  1  0.09477400  0.38183200  0.09527600  1
  O  O23  1  0.09527600  0.09477400  0.38183200  1
  O  O24  1  0.83626200  0.37979100  0.37957000  1
  O  O25  1  0.37957000  0.83626200  0.37979100  1
  O  O26  1  0.37979100  0.37957000  0.83626200  1
