# generated using pymatgen
data_Mn(PO4)2
_symmetry_space_group_name_H-M   'P 1'
_cell_length_a   6.53844200
_cell_length_b   7.84684200
_cell_length_c   9.66988696
_cell_angle_alpha   52.77515125
_cell_angle_beta   90.00000000
_cell_angle_gamma   90.00000000
_symmetry_Int_Tables_number   1
_chemical_formula_structural   Mn(PO4)2
_chemical_formula_sum   'Mn2 P4 O16'
_cell_volume   395.04779630
_cell_formula_units_Z   2
loop_
 _symmetry_equiv_pos_site_id
 _symmetry_equiv_pos_as_xyz
  1  'x, y, z'
loop_
 _atom_site_type_symbol
 _atom_site_label
 _atom_site_symmetry_multiplicity
 _atom_site_fract_x
 _atom_site_fract_y
 _atom_site_fract_z
 _atom_site_occupancy
  Mn  Mn0  1  0.50000000  0.00000000  0.50000000  1
  Mn  Mn1  1  0.00000000  0.00000000  0.00000000  1
  P  P2  1  0.71849700  0.26981700  0.63081800  1
  P  P3  1  0.21849700  0.73018300  0.86918200  1
  P  P4  1  0.28150300  0.73018300  0.36918200  1
  P  P5  1  0.78150300  0.26981700  0.13081800  1
  O  O6  1  0.71527100  0.48739600  0.46563000  1
  O  O7  1  0.21527100  0.51260400  0.03437000  1
  O  O8  1  0.28472900  0.51260400  0.53437000  1
  O  O9  1  0.78472900  0.48739600  0.96563000  1
  O  O10  1  0.62808600  0.07598800  0.65607600  1
  O  O11  1  0.12808600  0.92401200  0.84392400  1
  O  O12  1  0.37191400  0.92401200  0.34392400  1
  O  O13  1  0.87191400  0.07598800  0.15607600  1
  O  O14  1  0.81934200  0.22783500  0.78850800  1
  O  O15  1  0.31934200  0.77216500  0.71149200  1
  O  O16  1  0.18065800  0.77216500  0.21149200  1
  O  O17  1  0.68065800  0.22783500  0.28850800  1
  O  O18  1  0.80864800  0.80671800  0.07360400  1
  O  O19  1  0.30864800  0.19328200  0.42639600  1
  O  O20  1  0.19135200  0.19328200  0.92639600  1
  O  O21  1  0.69135200  0.80671800  0.57360400  1
