# generated using pymatgen
data_H3CO2F
_symmetry_space_group_name_H-M   'P 1'
_cell_length_a   6.58722600
_cell_length_b   6.69355100
_cell_length_c   7.23310200
_cell_angle_alpha   90.00000000
_cell_angle_beta   90.00000000
_cell_angle_gamma   90.00000000
_symmetry_Int_Tables_number   1
_chemical_formula_structural   H3CO2F
_chemical_formula_sum   'H12 C4 O8 F4'
_cell_volume   318.92145006
_cell_formula_units_Z   4
loop_
 _symmetry_equiv_pos_site_id
 _symmetry_equiv_pos_as_xyz
  1  'x, y, z'
loop_
 _atom_site_type_symbol
 _atom_site_label
 _atom_site_symmetry_multiplicity
 _atom_site_fract_x
 _atom_site_fract_y
 _atom_site_fract_z
 _atom_site_occupancy
  H  H0  1  0.75000000  0.11863000  0.63897000  1
  H  H1  1  0.75000000  0.61863000  0.86103000  1
  H  H2  1  0.25000000  0.88137000  0.36103000  1
  H  H3  1  0.25000000  0.38137000  0.13897000  1
  H  H4  1  0.75000000  0.39489000  0.17697300  1
  H  H5  1  0.75000000  0.89489000  0.32302700  1
  H  H6  1  0.25000000  0.60511000  0.82302700  1
  H  H7  1  0.25000000  0.10511000  0.67697300  1
  H  H8  1  0.75000000  0.10872600  0.95019500  1
  H  H9  1  0.75000000  0.60872600  0.54980500  1
  H  H10  1  0.25000000  0.89127400  0.04980500  1
  H  H11  1  0.25000000  0.39127400  0.45019500  1
  C  C12  1  0.75000000  0.25390700  0.87771600  1
  C  C13  1  0.75000000  0.75390700  0.62228400  1
  C  C14  1  0.25000000  0.74609300  0.12228400  1
  C  C15  1  0.25000000  0.24609300  0.37771600  1
  O  O16  1  0.75000000  0.41368900  0.96723500  1
  O  O17  1  0.75000000  0.91368900  0.53276500  1
  O  O18  1  0.25000000  0.58631100  0.03276500  1
  O  O19  1  0.25000000  0.08631100  0.46723500  1
  O  O20  1  0.75000000  0.25813200  0.69853200  1
  O  O21  1  0.75000000  0.75813200  0.80146800  1
  O  O22  1  0.25000000  0.74186800  0.30146800  1
  O  O23  1  0.25000000  0.24186800  0.19853200  1
  F  F24  1  0.75000000  0.39097200  0.31330400  1
  F  F25  1  0.75000000  0.89097200  0.18669600  1
  F  F26  1  0.25000000  0.60902800  0.68669600  1
  F  F27  1  0.25000000  0.10902800  0.81330400  1
