# generated using pymatgen
data_Na5Eu4Si4O16F
_symmetry_space_group_name_H-M   'P 1'
_cell_length_a   8.88265424
_cell_length_b   8.88265424
_cell_length_c   8.88265492
_cell_angle_alpha   95.56606314
_cell_angle_beta   95.56607185
_cell_angle_gamma   143.70820328
_symmetry_Int_Tables_number   1
_chemical_formula_structural   Na5Eu4Si4O16F
_chemical_formula_sum   'Na5 Eu4 Si4 O16 F1'
_cell_volume   394.20349112
_cell_formula_units_Z   1
loop_
 _symmetry_equiv_pos_site_id
 _symmetry_equiv_pos_as_xyz
  1  'x, y, z'
loop_
 _atom_site_type_symbol
 _atom_site_label
 _atom_site_symmetry_multiplicity
 _atom_site_fract_x
 _atom_site_fract_y
 _atom_site_fract_z
 _atom_site_occupancy
  Na  Na0  1  0.91877700  0.61433800  0.51623000  1
  Na  Na1  1  0.09810900  0.40254700  0.48377000  1
  Na  Na2  1  0.59745300  0.08122300  0.69556100  1
  Na  Na3  1  0.38566200  0.90189100  0.30443900  1
  Na  Na4  1  0.50000000  0.50000000  0.00000000  1
  Eu  Eu5  1  0.90647300  0.20326100  0.06720800  1
  Eu  Eu6  1  0.13605300  0.83926500  0.93279200  1
  Eu  Eu7  1  0.16073500  0.09352700  0.29678800  1
  Eu  Eu8  1  0.79673900  0.86394700  0.70321200  1
  Si  Si9  1  0.73804400  0.38658200  0.14507500  1
  Si  Si10  1  0.24150700  0.59296900  0.85492500  1
  Si  Si11  1  0.40703100  0.26195600  0.64853800  1
  Si  Si12  1  0.61341800  0.75849300  0.35146200  1
  O  O13  1  0.89980700  0.40814600  0.27923100  1
  O  O14  1  0.12891500  0.62057600  0.72076900  1
  O  O15  1  0.37942400  0.10019300  0.50833900  1
  O  O16  1  0.59185400  0.87108500  0.49166100  1
  O  O17  1  0.92004000  0.68168800  0.14159400  1
  O  O18  1  0.54009400  0.77844600  0.85840600  1
  O  O19  1  0.22155400  0.07996000  0.76164900  1
  O  O20  1  0.31831200  0.45990600  0.23835100  1
  O  O21  1  0.45439200  0.21093200  0.17314100  1
  O  O22  1  0.03779100  0.28125100  0.82685900  1
  O  O23  1  0.71874900  0.54560800  0.75654000  1
  O  O24  1  0.78906800  0.96220900  0.24346000  1
  O  O25  1  0.64612600  0.21027400  0.97049500  1
  O  O26  1  0.23977900  0.67563100  0.02950500  1
  O  O27  1  0.32437000  0.35387400  0.56414800  1
  O  O28  1  0.78972600  0.76022100  0.43585200  1
  F  F29  1  0.00000000  0.00000000  0.00000000  1
