# generated using pymatgen
data_Rb2ZnBr4
_symmetry_space_group_name_H-M   'P 1'
_cell_length_a   7.89648400
_cell_length_b   9.87948300
_cell_length_c   13.75816300
_cell_angle_alpha   90.00000000
_cell_angle_beta   90.00000000
_cell_angle_gamma   90.00000000
_symmetry_Int_Tables_number   1
_chemical_formula_structural   Rb2ZnBr4
_chemical_formula_sum   'Rb8 Zn4 Br16'
_cell_volume   1073.31803885
_cell_formula_units_Z   4
loop_
 _symmetry_equiv_pos_site_id
 _symmetry_equiv_pos_as_xyz
  1  'x, y, z'
loop_
 _atom_site_type_symbol
 _atom_site_label
 _atom_site_symmetry_multiplicity
 _atom_site_fract_x
 _atom_site_fract_y
 _atom_site_fract_z
 _atom_site_occupancy
  Rb  Rb0  1  0.24936700  0.01151000  0.17620600  1
  Rb  Rb1  1  0.74936700  0.98849000  0.82379400  1
  Rb  Rb2  1  0.74936700  0.48849000  0.67620600  1
  Rb  Rb3  1  0.24936700  0.51151000  0.32379400  1
  Rb  Rb4  1  0.25215300  0.37651600  0.90428800  1
  Rb  Rb5  1  0.75215300  0.62348400  0.09571200  1
  Rb  Rb6  1  0.75215300  0.12348400  0.40428800  1
  Rb  Rb7  1  0.25215300  0.87651600  0.59571200  1
  Zn  Zn8  1  0.24945500  0.77681300  0.92075200  1
  Zn  Zn9  1  0.74945500  0.22318700  0.07924800  1
  Zn  Zn10  1  0.74945500  0.72318700  0.42075200  1
  Zn  Zn11  1  0.24945500  0.27681300  0.57924800  1
  Br  Br12  1  0.24894200  0.02213900  0.92130000  1
  Br  Br13  1  0.74894200  0.97786100  0.07870000  1
  Br  Br14  1  0.74894200  0.47786100  0.42130000  1
  Br  Br15  1  0.24894200  0.52213900  0.57870000  1
  Br  Br16  1  0.26215800  0.67497300  0.08278600  1
  Br  Br17  1  0.76215800  0.32502700  0.91721400  1
  Br  Br18  1  0.76215800  0.82502700  0.58278600  1
  Br  Br19  1  0.26215800  0.17497300  0.41721400  1
  Br  Br20  1  0.49305200  0.69228000  0.83038200  1
  Br  Br21  1  0.99305200  0.30772000  0.16961800  1
  Br  Br22  1  0.99305200  0.80772000  0.33038200  1
  Br  Br23  1  0.49305200  0.19228000  0.66961800  1
  Br  Br24  1  0.99467300  0.68854700  0.84337700  1
  Br  Br25  1  0.49467300  0.31145300  0.15662300  1
  Br  Br26  1  0.49467300  0.81145300  0.34337700  1
  Br  Br27  1  0.99467300  0.18854700  0.65662300  1
