# generated using pymatgen
data_LaCl3O7
_symmetry_space_group_name_H-M   'P 1'
_cell_length_a   8.18491457
_cell_length_b   5.60956248
_cell_length_c   8.98615808
_cell_angle_alpha   94.98966896
_cell_angle_beta   90.57485545
_cell_angle_gamma   79.89416466
_symmetry_Int_Tables_number   1
_chemical_formula_structural   LaCl3O7
_chemical_formula_sum   'La2 Cl6 O14'
_cell_volume   404.64235082
_cell_formula_units_Z   2
loop_
 _symmetry_equiv_pos_site_id
 _symmetry_equiv_pos_as_xyz
  1  'x, y, z'
loop_
 _atom_site_type_symbol
 _atom_site_label
 _atom_site_symmetry_multiplicity
 _atom_site_fract_x
 _atom_site_fract_y
 _atom_site_fract_z
 _atom_site_occupancy
  La  La0  1  0.19146000  0.23910100  0.25641600  1
  La  La1  1  0.80854000  0.76089900  0.74358400  1
  Cl  Cl2  1  0.74083700  0.26581700  0.43212100  1
  Cl  Cl3  1  0.25916300  0.73418300  0.56787900  1
  Cl  Cl4  1  0.64742700  0.27687900  0.91308300  1
  Cl  Cl5  1  0.35257300  0.72312100  0.08691700  1
  Cl  Cl6  1  0.16450100  0.29789800  0.84613600  1
  Cl  Cl7  1  0.83549900  0.70210200  0.15386400  1
  O  O8  1  0.43369000  0.92855700  0.17632900  1
  O  O9  1  0.56631100  0.07144300  0.82367100  1
  O  O10  1  0.37651800  0.48558700  0.17283800  1
  O  O11  1  0.62348200  0.51441300  0.82716200  1
  O  O12  1  0.23106900  0.89782400  0.44427100  1
  O  O13  1  0.76893100  0.10217600  0.55572900  1
  O  O14  1  0.26489100  0.47599400  0.50034100  1
  O  O15  1  0.73510900  0.52400600  0.49965900  1
  O  O16  1  0.14670100  0.16149300  0.99000900  1
  O  O17  1  0.85329900  0.83850700  0.00999100  1
  O  O18  1  0.89201600  0.20711400  0.33342900  1
  O  O19  1  0.10798400  0.79288600  0.66657100  1
  O  O20  1  0.01407900  0.61684800  0.21816900  1
  O  O21  1  0.98592100  0.38315200  0.78183100  1
