# generated using pymatgen
data_LaNi5H7
_symmetry_space_group_name_H-M   'P 1'
_cell_length_a   5.38345351
_cell_length_b   5.38345351
_cell_length_c   8.61610300
_cell_angle_alpha   89.99919348
_cell_angle_beta   89.99919348
_cell_angle_gamma   119.84481632
_symmetry_Int_Tables_number   1
_chemical_formula_structural   LaNi5H7
_chemical_formula_sum   'La2 Ni10 H14'
_cell_volume   216.59102009
_cell_formula_units_Z   2
loop_
 _symmetry_equiv_pos_site_id
 _symmetry_equiv_pos_as_xyz
  1  'x, y, z'
loop_
 _atom_site_type_symbol
 _atom_site_label
 _atom_site_symmetry_multiplicity
 _atom_site_fract_x
 _atom_site_fract_y
 _atom_site_fract_z
 _atom_site_occupancy
  La  La0  1  0.00009300  0.00009700  0.46902200  1
  La  La1  1  0.00009700  0.00009300  0.96902200  1
  Ni  Ni2  1  0.00271300  0.50671700  0.24749400  1
  Ni  Ni3  1  0.50424700  0.99730600  0.24746500  1
  Ni  Ni4  1  0.49314300  0.49574800  0.24749200  1
  Ni  Ni5  1  0.50671700  0.00271300  0.74749400  1
  Ni  Ni6  1  0.99730600  0.50424700  0.74746500  1
  Ni  Ni7  1  0.49574800  0.49314300  0.74749200  1
  Ni  Ni8  1  0.66662800  0.33317300  0.49248700  1
  Ni  Ni9  1  0.33317300  0.66662800  0.99248700  1
  Ni  Ni10  1  0.66677700  0.33343800  0.01470700  1
  Ni  Ni11  1  0.33343800  0.66677700  0.51470700  1
  H  H12  1  0.00977000  0.51406400  0.43871300  1
  H  H13  1  0.50436500  0.99027300  0.43876600  1
  H  H14  1  0.48581300  0.49556000  0.43862300  1
  H  H15  1  0.51406400  0.00977000  0.93871300  1
  H  H16  1  0.99027300  0.50436500  0.93876600  1
  H  H17  1  0.49556000  0.48581300  0.93862300  1
  H  H18  1  0.66673000  0.33335000  0.67993700  1
  H  H19  1  0.33335000  0.66673000  0.17993700  1
  H  H20  1  0.32546100  0.15747300  0.21005800  1
  H  H21  1  0.83159000  0.67450600  0.21002800  1
  H  H22  1  0.84252000  0.16798700  0.21002700  1
  H  H23  1  0.15747300  0.32546200  0.71005800  1
  H  H24  1  0.67450600  0.83159000  0.71002800  1
  H  H25  1  0.16798700  0.84252000  0.71002700  1
