# generated using pymatgen
data_Lu3AlNi8
_symmetry_space_group_name_H-M   'P 1'
_cell_length_a   4.96677447
_cell_length_b   4.96677447
_cell_length_c   15.80812600
_cell_angle_alpha   90.00000000
_cell_angle_beta   90.00000000
_cell_angle_gamma   120.00000624
_symmetry_Int_Tables_number   1
_chemical_formula_structural   Lu3AlNi8
_chemical_formula_sum   'Lu6 Al2 Ni16'
_cell_volume   337.72240491
_cell_formula_units_Z   2
loop_
 _symmetry_equiv_pos_site_id
 _symmetry_equiv_pos_as_xyz
  1  'x, y, z'
loop_
 _atom_site_type_symbol
 _atom_site_label
 _atom_site_symmetry_multiplicity
 _atom_site_fract_x
 _atom_site_fract_y
 _atom_site_fract_z
 _atom_site_occupancy
  Lu  Lu0  1  0.33333300  0.66666700  0.95846200  1
  Lu  Lu1  1  0.66666700  0.33333300  0.04153800  1
  Lu  Lu2  1  0.66666700  0.33333300  0.45846200  1
  Lu  Lu3  1  0.33333300  0.66666700  0.54153800  1
  Lu  Lu4  1  0.33333300  0.66666700  0.75000000  1
  Lu  Lu5  1  0.66666700  0.33333300  0.25000000  1
  Al  Al6  1  0.33333300  0.66666700  0.25000000  1
  Al  Al7  1  0.66666700  0.33333300  0.75000000  1
  Ni  Ni8  1  0.16661600  0.83338400  0.37486300  1
  Ni  Ni9  1  0.16661600  0.33323300  0.37486300  1
  Ni  Ni10  1  0.66676700  0.83338400  0.37486300  1
  Ni  Ni11  1  0.83338400  0.16661600  0.62513700  1
  Ni  Ni12  1  0.83338400  0.66676700  0.62513700  1
  Ni  Ni13  1  0.33323300  0.16661600  0.62513700  1
  Ni  Ni14  1  0.83338400  0.16661600  0.87486300  1
  Ni  Ni15  1  0.83338400  0.66676700  0.87486300  1
  Ni  Ni16  1  0.33323300  0.16661600  0.87486300  1
  Ni  Ni17  1  0.16661600  0.83338400  0.12513700  1
  Ni  Ni18  1  0.16661600  0.33323300  0.12513700  1
  Ni  Ni19  1  0.66676700  0.83338400  0.12513700  1
  Ni  Ni20  1  0.00000000  0.00000000  0.25000000  1
  Ni  Ni21  1  0.00000000  0.00000000  0.75000000  1
  Ni  Ni22  1  0.00000000  0.00000000  0.50000000  1
  Ni  Ni23  1  0.00000000  0.00000000  0.00000000  1
