# generated using pymatgen
data_Sr2FeCu(PbO3)2
_symmetry_space_group_name_H-M   'P 1'
_cell_length_a   5.55651800
_cell_length_b   5.58996600
_cell_length_c   12.44122200
_cell_angle_alpha   90.00000000
_cell_angle_beta   90.00000000
_cell_angle_gamma   90.00000000
_symmetry_Int_Tables_number   1
_chemical_formula_structural   Sr2FeCu(PbO3)2
_chemical_formula_sum   'Sr4 Fe2 Cu2 Pb4 O12'
_cell_volume   386.43364516
_cell_formula_units_Z   2
loop_
 _symmetry_equiv_pos_site_id
 _symmetry_equiv_pos_as_xyz
  1  'x, y, z'
loop_
 _atom_site_type_symbol
 _atom_site_label
 _atom_site_symmetry_multiplicity
 _atom_site_fract_x
 _atom_site_fract_y
 _atom_site_fract_z
 _atom_site_occupancy
  Sr  Sr0  1  0.74525900  0.75062700  0.35862100  1
  Sr  Sr1  1  0.74525900  0.75062700  0.64137900  1
  Sr  Sr2  1  0.24525900  0.24937300  0.64137900  1
  Sr  Sr3  1  0.24525900  0.24937300  0.35862100  1
  Fe  Fe4  1  0.74698200  0.25105200  0.50000000  1
  Fe  Fe5  1  0.24698200  0.74894800  0.50000000  1
  Cu  Cu6  1  0.70806000  0.79278500  0.00000000  1
  Cu  Cu7  1  0.20806000  0.20721500  0.00000000  1
  Pb  Pb8  1  0.75365200  0.23927800  0.14883200  1
  Pb  Pb9  1  0.75365200  0.23927800  0.85116800  1
  Pb  Pb10  1  0.25365200  0.76072200  0.85116800  1
  Pb  Pb11  1  0.25365200  0.76072200  0.14883200  1
  O  O12  1  0.69424900  0.81129000  0.14893500  1
  O  O13  1  0.69424900  0.81129000  0.85106500  1
  O  O14  1  0.19424900  0.18871000  0.85106500  1
  O  O15  1  0.19424900  0.18871000  0.14893500  1
  O  O16  1  0.74554400  0.25398300  0.32509900  1
  O  O17  1  0.74554400  0.25398300  0.67490100  1
  O  O18  1  0.24554400  0.74601700  0.67490100  1
  O  O19  1  0.24554400  0.74601700  0.32509900  1
  O  O20  1  0.49764900  0.99965100  0.50000000  1
  O  O21  1  0.99764900  0.00034900  0.50000000  1
  O  O22  1  0.99790100  0.49930700  0.50000000  1
  O  O23  1  0.49790100  0.50069300  0.50000000  1
