# generated using pymatgen
data_Ba(ReN2)2
_symmetry_space_group_name_H-M   'P 1'
_cell_length_a   11.11165900
_cell_length_b   11.11165900
_cell_length_c   11.11165900
_cell_angle_alpha   90.00000000
_cell_angle_beta   90.00000000
_cell_angle_gamma   90.00000000
_symmetry_Int_Tables_number   1
_chemical_formula_structural   Ba(ReN2)2
_chemical_formula_sum   'Ba12 Re24 N48'
_cell_volume   1371.94504430
_cell_formula_units_Z   12
loop_
 _symmetry_equiv_pos_site_id
 _symmetry_equiv_pos_as_xyz
  1  'x, y, z'
loop_
 _atom_site_type_symbol
 _atom_site_label
 _atom_site_symmetry_multiplicity
 _atom_site_fract_x
 _atom_site_fract_y
 _atom_site_fract_z
 _atom_site_occupancy
  Ba  Ba0  1  0.50000000  0.50000000  0.00000000  1
  Ba  Ba1  1  0.50000000  0.00000000  0.50000000  1
  Ba  Ba2  1  0.00000000  0.50000000  0.50000000  1
  Ba  Ba3  1  0.00000000  0.00000000  0.00000000  1
  Ba  Ba4  1  0.14620700  0.85379300  0.35379300  1
  Ba  Ba5  1  0.85379300  0.35379300  0.14620700  1
  Ba  Ba6  1  0.35379300  0.14620700  0.85379300  1
  Ba  Ba7  1  0.64620700  0.64620700  0.64620700  1
  Ba  Ba8  1  0.85379300  0.14620700  0.64620700  1
  Ba  Ba9  1  0.14620700  0.64620700  0.85379300  1
  Ba  Ba10  1  0.64620700  0.85379300  0.14620700  1
  Ba  Ba11  1  0.35379300  0.35379300  0.35379300  1
  Re  Re12  1  0.41258900  0.67396200  0.34497600  1
  Re  Re13  1  0.58741100  0.17396200  0.15502400  1
  Re  Re14  1  0.08741100  0.32603800  0.84497600  1
  Re  Re15  1  0.91258900  0.82603800  0.65502400  1
  Re  Re16  1  0.34497600  0.41258900  0.67396200  1
  Re  Re17  1  0.15502400  0.58741100  0.17396200  1
  Re  Re18  1  0.84497600  0.08741100  0.32603800  1
  Re  Re19  1  0.65502400  0.91258900  0.82603800  1
  Re  Re20  1  0.67396200  0.34497600  0.41258900  1
  Re  Re21  1  0.17396200  0.15502400  0.58741100  1
  Re  Re22  1  0.32603800  0.84497600  0.08741100  1
  Re  Re23  1  0.82603800  0.65502400  0.91258900  1
  Re  Re24  1  0.58741100  0.32603800  0.65502400  1
  Re  Re25  1  0.41258900  0.82603800  0.84497600  1
  Re  Re26  1  0.91258900  0.67396200  0.15502400  1
  Re  Re27  1  0.08741100  0.17396200  0.34497600  1
  Re  Re28  1  0.65502400  0.58741100  0.32603800  1
  Re  Re29  1  0.84497600  0.41258900  0.82603800  1
  Re  Re30  1  0.15502400  0.91258900  0.67396200  1
  Re  Re31  1  0.34497600  0.08741100  0.17396200  1
  Re  Re32  1  0.32603800  0.65502400  0.58741100  1
  Re  Re33  1  0.82603800  0.84497600  0.41258900  1
  Re  Re34  1  0.67396200  0.15502400  0.91258900  1
  Re  Re35  1  0.17396200  0.34497600  0.08741100  1
  N  N36  1  0.39521800  0.80568700  0.25077200  1
  N  N37  1  0.60478200  0.30568700  0.24922800  1
  N  N38  1  0.10478200  0.19431300  0.75077200  1
  N  N39  1  0.89521800  0.69431300  0.74922800  1
  N  N40  1  0.25077200  0.39521800  0.80568700  1
  N  N41  1  0.24922800  0.60478200  0.30568700  1
  N  N42  1  0.75077200  0.10478200  0.19431300  1
  N  N43  1  0.74922800  0.89521800  0.69431300  1
  N  N44  1  0.80568700  0.25077200  0.39521800  1
  N  N45  1  0.30568700  0.24922800  0.60478200  1
  N  N46  1  0.19431300  0.75077200  0.10478200  1
  N  N47  1  0.69431300  0.74922800  0.89521800  1
  N  N48  1  0.60478200  0.19431300  0.74922800  1
  N  N49  1  0.39521800  0.69431300  0.75077200  1
  N  N50  1  0.89521800  0.80568700  0.24922800  1
  N  N51  1  0.10478200  0.30568700  0.25077200  1
  N  N52  1  0.74922800  0.60478200  0.19431300  1
  N  N53  1  0.75077200  0.39521800  0.69431300  1
  N  N54  1  0.24922800  0.89521800  0.80568700  1
  N  N55  1  0.25077200  0.10478200  0.30568700  1
  N  N56  1  0.19431300  0.74922800  0.60478200  1
  N  N57  1  0.69431300  0.75077200  0.39521800  1
  N  N58  1  0.80568700  0.24922800  0.89521800  1
  N  N59  1  0.30568700  0.25077200  0.10478200  1
  N  N60  1  0.45993100  0.72757500  0.50700800  1
  N  N61  1  0.54006900  0.22757500  0.99299200  1
  N  N62  1  0.04006900  0.27242500  0.00700800  1
  N  N63  1  0.95993100  0.77242500  0.49299200  1
  N  N64  1  0.50700800  0.45993100  0.72757500  1
  N  N65  1  0.99299200  0.54006900  0.22757500  1
  N  N66  1  0.00700800  0.04006900  0.27242500  1
  N  N67  1  0.49299200  0.95993100  0.77242500  1
  N  N68  1  0.72757500  0.50700800  0.45993100  1
  N  N69  1  0.22757500  0.99299200  0.54006900  1
  N  N70  1  0.27242500  0.00700800  0.04006900  1
  N  N71  1  0.77242500  0.49299200  0.95993100  1
  N  N72  1  0.54006900  0.27242500  0.49299200  1
  N  N73  1  0.45993100  0.77242500  0.00700800  1
  N  N74  1  0.95993100  0.72757500  0.99299200  1
  N  N75  1  0.04006900  0.22757500  0.50700800  1
  N  N76  1  0.49299200  0.54006900  0.27242500  1
  N  N77  1  0.00700800  0.45993100  0.77242500  1
  N  N78  1  0.99299200  0.95993100  0.72757500  1
  N  N79  1  0.50700800  0.04006900  0.22757500  1
  N  N80  1  0.27242500  0.49299200  0.54006900  1
  N  N81  1  0.77242500  0.00700800  0.45993100  1
  N  N82  1  0.72757500  0.99299200  0.95993100  1
  N  N83  1  0.22757500  0.50700800  0.04006900  1
