# generated using pymatgen
data_Fe(CO)5
_symmetry_space_group_name_H-M   'P 1'
_cell_length_a   7.39400707
_cell_length_b   7.39400707
_cell_length_c   9.98008188
_cell_angle_alpha   72.87058391
_cell_angle_beta   72.87058391
_cell_angle_gamma   59.46142246
_symmetry_Int_Tables_number   1
_chemical_formula_structural   Fe(CO)5
_chemical_formula_sum   'Fe2 C10 O10'
_cell_volume   442.08233285
_cell_formula_units_Z   2
loop_
 _symmetry_equiv_pos_site_id
 _symmetry_equiv_pos_as_xyz
  1  'x, y, z'
loop_
 _atom_site_type_symbol
 _atom_site_label
 _atom_site_symmetry_multiplicity
 _atom_site_fract_x
 _atom_site_fract_y
 _atom_site_fract_z
 _atom_site_occupancy
  Fe  Fe0  1  0.16730500  0.83343900  0.49821500  1
  Fe  Fe1  1  0.83343900  0.16730500  0.99821500  1
  C  C2  1  0.41152500  0.74717200  0.34498600  1
  C  C3  1  0.74717200  0.41152500  0.84498600  1
  C  C4  1  0.28821000  0.98161500  0.57017500  1
  C  C5  1  0.98161500  0.28821000  0.07017500  1
  C  C6  1  0.21048100  0.61490100  0.66844700  1
  C  C7  1  0.61490100  0.21048100  0.16844700  1
  C  C8  1  0.04212500  0.69080000  0.42787200  1
  C  C9  1  0.69080000  0.04212500  0.92787200  1
  C  C10  1  0.89325200  0.11363800  0.48735100  1
  C  C11  1  0.11363800  0.89325200  0.98735100  1
  O  O12  1  0.54095700  0.71227200  0.24325000  1
  O  O13  1  0.71227100  0.54095700  0.74325000  1
  O  O14  1  0.34779700  0.07176600  0.60842200  1
  O  O15  1  0.07176600  0.34779700  0.10842200  1
  O  O16  1  0.21503800  0.49396000  0.77408000  1
  O  O17  1  0.49396000  0.21503800  0.27408000  1
  O  O18  1  0.97640500  0.60673900  0.38894000  1
  O  O19  1  0.60673900  0.97640500  0.88894000  1
  O  O20  1  0.73839000  0.27241200  0.48286100  1
  O  O21  1  0.27241200  0.73839000  0.98286100  1
