# generated using pymatgen
data_YWBrO4
_symmetry_space_group_name_H-M   'P 1'
_cell_length_a   7.03587900
_cell_length_b   7.34871046
_cell_length_c   11.07794689
_cell_angle_alpha   103.77082340
_cell_angle_beta   107.98850478
_cell_angle_gamma   94.28925751
_symmetry_Int_Tables_number   1
_chemical_formula_structural   YWBrO4
_chemical_formula_sum   'Y4 W4 Br4 O16'
_cell_volume   522.26021207
_cell_formula_units_Z   4
loop_
 _symmetry_equiv_pos_site_id
 _symmetry_equiv_pos_as_xyz
  1  'x, y, z'
loop_
 _atom_site_type_symbol
 _atom_site_label
 _atom_site_symmetry_multiplicity
 _atom_site_fract_x
 _atom_site_fract_y
 _atom_site_fract_z
 _atom_site_occupancy
  Y  Y0  1  0.66013800  0.11032900  0.73078300  1
  Y  Y1  1  0.33986200  0.88967100  0.26921700  1
  Y  Y2  1  0.37999800  0.66006200  0.76759500  1
  Y  Y3  1  0.62000200  0.33993800  0.23240500  1
  W  W4  1  0.72817000  0.81459800  0.13347500  1
  W  W5  1  0.27183000  0.18540200  0.86652500  1
  W  W6  1  0.76851500  0.58857100  0.62608600  1
  W  W7  1  0.23148500  0.41142900  0.37391400  1
  Br  Br8  1  0.26402200  0.00519900  0.51982300  1
  Br  Br9  1  0.73597800  0.99480100  0.48017700  1
  Br  Br10  1  0.19037100  0.72062300  0.98198600  1
  Br  Br11  1  0.80962900  0.27937700  0.01801400  1
  O  O12  1  0.65647200  0.73031600  0.95659800  1
  O  O13  1  0.34352800  0.26968400  0.04340200  1
  O  O14  1  0.99922100  0.87838000  0.20518800  1
  O  O15  1  0.00077900  0.12162000  0.79481200  1
  O  O16  1  0.63666400  0.63491100  0.19920400  1
  O  O17  1  0.36333600  0.36508900  0.80079600  1
  O  O18  1  0.40225200  0.98627400  0.81629700  1
  O  O19  1  0.59774800  0.01372600  0.18370300  1
  O  O20  1  0.03773300  0.65005300  0.66965100  1
  O  O21  1  0.96226700  0.34994700  0.33034900  1
  O  O22  1  0.72192700  0.40096500  0.69837200  1
  O  O23  1  0.27807300  0.59903500  0.30162800  1
  O  O24  1  0.66543700  0.50216400  0.44714200  1
  O  O25  1  0.33456300  0.49783600  0.55285800  1
  O  O26  1  0.65489300  0.78617500  0.70263200  1
  O  O27  1  0.34510700  0.21382500  0.29736800  1
