# generated using pymatgen
data_Rb2Ba6Sb5HO
_symmetry_space_group_name_H-M   'P 1'
_cell_length_a   15.63246407
_cell_length_b   15.63246407
_cell_length_c   15.63246407
_cell_angle_alpha   146.87364008
_cell_angle_beta   146.87364008
_cell_angle_gamma   47.55091519
_symmetry_Int_Tables_number   1
_chemical_formula_structural   Rb2Ba6Sb5HO
_chemical_formula_sum   'Rb4 Ba12 Sb10 H2 O2'
_cell_volume   1136.41455913
_cell_formula_units_Z   2
loop_
 _symmetry_equiv_pos_site_id
 _symmetry_equiv_pos_as_xyz
  1  'x, y, z'
loop_
 _atom_site_type_symbol
 _atom_site_label
 _atom_site_symmetry_multiplicity
 _atom_site_fract_x
 _atom_site_fract_y
 _atom_site_fract_z
 _atom_site_occupancy
  Rb  Rb0  1  0.66795500  0.16795500  0.83591100  1
  Rb  Rb1  1  0.33204500  0.83204500  0.16408900  1
  Rb  Rb2  1  0.16795500  0.33204500  0.50000000  1
  Rb  Rb3  1  0.83204500  0.66795500  0.50000000  1
  Ba  Ba4  1  0.46364400  0.96364400  0.81465700  1
  Ba  Ba5  1  0.14898700  0.64898700  0.18534300  1
  Ba  Ba6  1  0.96364400  0.14898700  0.50000000  1
  Ba  Ba7  1  0.64898700  0.46364400  0.50000000  1
  Ba  Ba8  1  0.53635600  0.03635600  0.18534300  1
  Ba  Ba9  1  0.85101300  0.35101300  0.81465700  1
  Ba  Ba10  1  0.03635600  0.85101300  0.50000000  1
  Ba  Ba11  1  0.35101300  0.53635600  0.50000000  1
  Ba  Ba12  1  0.40718200  0.40718200  0.00000000  1
  Ba  Ba13  1  0.90718200  0.90718200  0.00000000  1
  Ba  Ba14  1  0.59281800  0.59281800  0.00000000  1
  Ba  Ba15  1  0.09281800  0.09281800  0.00000000  1
  Sb  Sb16  1  0.01389500  0.51389500  0.73312700  1
  Sb  Sb17  1  0.78076800  0.28076800  0.26687300  1
  Sb  Sb18  1  0.51389500  0.78076800  0.50000000  1
  Sb  Sb19  1  0.28076800  0.01389500  0.50000000  1
  Sb  Sb20  1  0.98610500  0.48610500  0.26687300  1
  Sb  Sb21  1  0.21923200  0.71923200  0.73312700  1
  Sb  Sb22  1  0.48610500  0.21923200  0.50000000  1
  Sb  Sb23  1  0.71923200  0.98610500  0.50000000  1
  Sb  Sb24  1  0.25000000  0.25000000  0.00000000  1
  Sb  Sb25  1  0.75000000  0.75000000  0.00000000  1
  H  H26  1  0.50000000  0.50000000  0.00000000  1
  H  H27  1  0.00000000  0.00000000  0.00000000  1
  O  O28  1  0.25000000  0.75000000  0.50000000  1
  O  O29  1  0.75000000  0.25000000  0.50000000  1
