# generated using pymatgen
data_Ca(BH2)2
_symmetry_space_group_name_H-M   'P 1'
_cell_length_a   4.04678889
_cell_length_b   3.31818500
_cell_length_c   17.28966600
_cell_angle_alpha   90.00000000
_cell_angle_beta   84.61783566
_cell_angle_gamma   90.00000000
_symmetry_Int_Tables_number   1
_chemical_formula_structural   Ca(BH2)2
_chemical_formula_sum   'Ca4 B8 H16'
_cell_volume   231.14196610
_cell_formula_units_Z   4
loop_
 _symmetry_equiv_pos_site_id
 _symmetry_equiv_pos_as_xyz
  1  'x, y, z'
loop_
 _atom_site_type_symbol
 _atom_site_label
 _atom_site_symmetry_multiplicity
 _atom_site_fract_x
 _atom_site_fract_y
 _atom_site_fract_z
 _atom_site_occupancy
  Ca  Ca0  1  0.06902500  0.00000000  0.88840400  1
  Ca  Ca1  1  0.45589900  0.50000000  0.61074800  1
  Ca  Ca2  1  0.93341100  0.50000000  0.08727100  1
  Ca  Ca3  1  0.55662400  0.00000000  0.39705300  1
  B  B4  1  0.81317000  0.00000000  0.23175400  1
  B  B5  1  0.64827400  0.50000000  0.26150000  1
  B  B6  1  0.10251300  0.50000000  0.75974300  1
  B  B7  1  0.27291800  0.00000000  0.73622000  1
  B  B8  1  0.43195200  0.00000000  0.01188300  1
  B  B9  1  0.95783200  0.50000000  0.47552200  1
  B  B10  1  0.52861900  0.50000000  0.96903900  1
  B  B11  1  0.03352400  0.00000000  0.51760200  1
  H  H12  1  0.39763400  0.36795900  0.22179600  1
  H  H13  1  0.39763400  0.63204100  0.22179600  1
  H  H14  1  0.05380700  0.24435300  0.69663600  1
  H  H15  1  0.05380700  0.75564700  0.69663600  1
  H  H16  1  0.11557500  0.00000000  0.22426400  1
  H  H17  1  0.03861600  0.50000000  0.40271400  1
  H  H18  1  0.47851600  0.50000000  0.89592000  1
  H  H19  1  0.90147300  0.00000000  0.58665900  1
  H  H20  1  0.12221200  0.00000000  0.02375400  1
  H  H21  1  0.64407300  0.50000000  0.47474100  1
  H  H22  1  0.84387000  0.50000000  0.95945600  1
  H  H23  1  0.33652000  0.00000000  0.53040000  1
  H  H24  1  0.83197100  0.50000000  0.79671600  1
  H  H25  1  0.56304100  0.00000000  0.70937800  1
  H  H26  1  0.72383600  0.00000000  0.16399400  1
  H  H27  1  0.46338400  0.50000000  0.32329100  1
