# generated using pymatgen
data_KCr2FeO9
_symmetry_space_group_name_H-M   'P 1'
_cell_length_a   5.57672200
_cell_length_b   7.89235097
_cell_length_c   9.62314447
_cell_angle_alpha   101.60374355
_cell_angle_beta   90.00000000
_cell_angle_gamma   90.00000000
_symmetry_Int_Tables_number   1
_chemical_formula_structural   KCr2FeO9
_chemical_formula_sum   'K2 Cr4 Fe2 O18'
_cell_volume   414.89133950
_cell_formula_units_Z   2
loop_
 _symmetry_equiv_pos_site_id
 _symmetry_equiv_pos_as_xyz
  1  'x, y, z'
loop_
 _atom_site_type_symbol
 _atom_site_label
 _atom_site_symmetry_multiplicity
 _atom_site_fract_x
 _atom_site_fract_y
 _atom_site_fract_z
 _atom_site_occupancy
  K  K0  1  0.25000000  0.57741300  0.21298500  1
  K  K1  1  0.75000000  0.42258700  0.78701500  1
  Cr  Cr2  1  0.25000000  0.65664900  0.64916600  1
  Cr  Cr3  1  0.75000000  0.34335100  0.35083400  1
  Cr  Cr4  1  0.25000000  0.15760300  0.87878800  1
  Cr  Cr5  1  0.75000000  0.84239700  0.12121200  1
  Fe  Fe6  1  0.25000000  0.08743600  0.23043700  1
  Fe  Fe7  1  0.75000000  0.91256400  0.76956300  1
  O  O8  1  0.25000000  0.71945500  0.49793000  1
  O  O9  1  0.75000000  0.28054500  0.50207000  1
  O  O10  1  0.25000000  0.44682700  0.62432600  1
  O  O11  1  0.75000000  0.55317300  0.37567400  1
  O  O12  1  0.50164100  0.73056500  0.74334800  1
  O  O13  1  0.00164100  0.26943500  0.25665200  1
  O  O14  1  0.49835900  0.26943500  0.25665200  1
  O  O15  1  0.99835900  0.73056500  0.74334800  1
  O  O16  1  0.25000000  0.06197700  0.01775400  1
  O  O17  1  0.75000000  0.93802300  0.98224600  1
  O  O18  1  0.25000000  0.36632200  0.93282900  1
  O  O19  1  0.75000000  0.63367800  0.06717100  1
  O  O20  1  0.50038200  0.10008700  0.78236500  1
  O  O21  1  0.00038200  0.89991300  0.21763500  1
  O  O22  1  0.49961800  0.89991300  0.21763500  1
  O  O23  1  0.99961800  0.10008700  0.78236500  1
  O  O24  1  0.25000000  0.09995300  0.45004800  1
  O  O25  1  0.75000000  0.90004700  0.54995200  1
