# generated using pymatgen
data_K2BeF4
_symmetry_space_group_name_H-M   'P 1'
_cell_length_a   5.78198900
_cell_length_b   7.40096400
_cell_length_c   10.05306200
_cell_angle_alpha   90.00000000
_cell_angle_beta   90.00000000
_cell_angle_gamma   90.00000000
_symmetry_Int_Tables_number   1
_chemical_formula_structural   K2BeF4
_chemical_formula_sum   'K8 Be4 F16'
_cell_volume   430.19356900
_cell_formula_units_Z   4
loop_
 _symmetry_equiv_pos_site_id
 _symmetry_equiv_pos_as_xyz
  1  'x, y, z'
loop_
 _atom_site_type_symbol
 _atom_site_label
 _atom_site_symmetry_multiplicity
 _atom_site_fract_x
 _atom_site_fract_y
 _atom_site_fract_z
 _atom_site_occupancy
  K  K0  1  0.74864300  0.33997200  0.58708000  1
  K  K1  1  0.24864300  0.66002800  0.41292000  1
  K  K2  1  0.24864300  0.16002800  0.08708000  1
  K  K3  1  0.74864300  0.83997200  0.91292000  1
  K  K4  1  0.26013700  0.49673100  0.80518100  1
  K  K5  1  0.76013700  0.50326900  0.19481900  1
  K  K6  1  0.76013700  0.00326900  0.30518100  1
  K  K7  1  0.26013700  0.99673100  0.69481900  1
  Be  Be8  1  0.75042000  0.27121900  0.91684300  1
  Be  Be9  1  0.25042000  0.72878100  0.08315700  1
  Be  Be10  1  0.25042000  0.22878100  0.41684300  1
  Be  Be11  1  0.75042000  0.77121900  0.58315700  1
  F  F12  1  0.53618700  0.19160700  0.84142800  1
  F  F13  1  0.03618700  0.80839300  0.15857200  1
  F  F14  1  0.03618700  0.30839300  0.34142800  1
  F  F15  1  0.53618700  0.69160700  0.65857200  1
  F  F16  1  0.97853100  0.20960800  0.84513000  1
  F  F17  1  0.47853100  0.79039200  0.15487000  1
  F  F18  1  0.47853100  0.29039200  0.34513000  1
  F  F19  1  0.97853100  0.70960800  0.65487000  1
  F  F20  1  0.72965300  0.47940900  0.91998200  1
  F  F21  1  0.22965300  0.52059100  0.08001800  1
  F  F22  1  0.22965300  0.02059100  0.41998200  1
  F  F23  1  0.72965300  0.97940900  0.58001800  1
  F  F24  1  0.25243000  0.31402200  0.56115600  1
  F  F25  1  0.75243000  0.68597800  0.43884400  1
  F  F26  1  0.75243000  0.18597800  0.06115600  1
  F  F27  1  0.25243000  0.81402200  0.93884400  1
